MODEL 1
REMARK minimizedAffinity 7.39506292
REMARK minimizedRMSD -1
REMARK  2 active torsions:
REMARK  status: ('A' for Active; 'I' for Inactive)
REMARK    1  A    between atoms: C1_2  and  C2_3 
REMARK    2  A    between atoms: C2_3  and  C3_4 
ROOT
ATOM      1  C3  UNL d   1      -0.650   2.876  -3.695  0.00  0.00    -0.075 A 
ATOM      2  C4  UNL d   1      -0.915   3.461  -4.942  0.00  0.00     0.002 A 
ATOM      3  C5  UNL d   1      -0.017   3.310  -6.000  0.00  0.00     0.002 A 
ATOM      4  C6  UNL d   1       1.158   2.583  -5.822  0.00  0.00    -0.004 A 
ATOM      5  C7  UNL d   1       1.439   2.012  -4.583  0.00  0.00     0.002 A 
ATOM      6  C8  UNL d   1       0.541   2.158  -3.524  0.00  0.00     0.002 A 
ENDROOT
BRANCH   1   7
ATOM      7  C2  UNL d   1      -1.632   3.010  -2.555  0.00  0.00     0.056 C 
BRANCH   7   8
ATOM      8  C1  UNL d   1      -2.976   2.319  -2.805  0.00  0.00     0.007 C 
ATOM      9  C   UNL d   1      -3.709   1.951  -1.522  0.00  0.00     0.009 C 
ENDBRANCH   7   8
ENDBRANCH   1   7
TORSDOF 2
ENDMDL
