MODEL 1
REMARK minimizedAffinity -3.1938777
REMARK minimizedRMSD -1
REMARK  2 active torsions:
REMARK  status: ('A' for Active; 'I' for Inactive)
REMARK    1  A    between atoms: C1_2  and  C2_3 
REMARK    2  A    between atoms: C2_3  and  C3_4 
ROOT
ATOM      1  C3  UNL d   1      -0.796  -3.336  -0.944  0.00  0.00    -0.075 A 
ATOM      2  C4  UNL d   1       0.513  -3.703  -1.288  0.00  0.00     0.002 A 
ATOM      3  C5  UNL d   1       1.584  -3.365  -0.460  0.00  0.00     0.002 A 
ATOM      4  C6  UNL d   1       1.362  -2.649   0.714  0.00  0.00    -0.004 A 
ATOM      5  C7  UNL d   1       0.068  -2.265   1.057  0.00  0.00     0.002 A 
ATOM      6  C8  UNL d   1      -1.006  -2.605   0.233  0.00  0.00     0.002 A 
ENDROOT
BRANCH   1   7
ATOM      7  C2  UNL d   1      -1.963  -3.724  -1.820  0.00  0.00     0.056 C 
BRANCH   7   8
ATOM      8  C1  UNL d   1      -2.582  -5.080  -1.469  0.00  0.00     0.007 C 
ATOM      9  C   UNL d   1      -2.506  -5.409   0.016  0.00  0.00     0.009 C 
ENDBRANCH   7   8
ENDBRANCH   1   7
TORSDOF 2
ENDMDL
