MODEL 1
REMARK minimizedAffinity -3.99372005
REMARK minimizedRMSD -1
REMARK  2 active torsions:
REMARK  status: ('A' for Active; 'I' for Inactive)
REMARK    1  A    between atoms: C1_2  and  C2_3 
REMARK    2  A    between atoms: C2_3  and  C3_4 
ROOT
ATOM      1  C3  UNL d   1      -1.785   1.727  -0.762  0.00  0.00    -0.075 A 
ATOM      2  C4  UNL d   1      -1.132   1.028   0.262  0.00  0.00     0.002 A 
ATOM      3  C5  UNL d   1      -1.836   0.596   1.386  0.00  0.00     0.002 A 
ATOM      4  C6  UNL d   1      -3.198   0.866   1.505  0.00  0.00    -0.004 A 
ATOM      5  C7  UNL d   1      -3.854   1.575   0.501  0.00  0.00     0.002 A 
ATOM      6  C8  UNL d   1      -3.152   2.005  -0.627  0.00  0.00     0.002 A 
ENDROOT
BRANCH   1   7
ATOM      7  C2  UNL d   1      -1.035   2.172  -1.995  0.00  0.00     0.056 C 
BRANCH   7   8
ATOM      8  C1  UNL d   1      -1.752   1.852  -3.311  0.00  0.00     0.007 C 
ATOM      9  C   UNL d   1      -1.011   2.366  -4.538  0.00  0.00     0.009 C 
ENDBRANCH   7   8
ENDBRANCH   1   7
TORSDOF 2
ENDMDL
