MODEL 1
REMARK minimizedAffinity 1.13221216
REMARK minimizedRMSD -1
REMARK  2 active torsions:
REMARK  status: ('A' for Active; 'I' for Inactive)
REMARK    1  A    between atoms: C1_2  and  C2_3 
REMARK    2  A    between atoms: C2_3  and  C3_4 
ROOT
ATOM      1  C3  UNL d   1      -2.007   4.127  -5.974  0.00  0.00    -0.075 A 
ATOM      2  C4  UNL d   1      -2.650   2.881  -5.934  0.00  0.00     0.002 A 
ATOM      3  C5  UNL d   1      -4.043   2.804  -5.940  0.00  0.00     0.002 A 
ATOM      4  C6  UNL d   1      -4.809   3.967  -5.976  0.00  0.00    -0.004 A 
ATOM      5  C7  UNL d   1      -4.180   5.210  -6.000  0.00  0.00     0.002 A 
ATOM      6  C8  UNL d   1      -2.786   5.291  -5.998  0.00  0.00     0.002 A 
ENDROOT
BRANCH   1   7
ATOM      7  C2  UNL d   1      -0.499   4.217  -5.997  0.00  0.00     0.056 C 
BRANCH   7   8
ATOM      8  C1  UNL d   1       0.162   3.956  -4.640  0.00  0.00     0.007 C 
ATOM      9  C   UNL d   1       0.753   2.557  -4.519  0.00  0.00     0.009 C 
ENDBRANCH   7   8
ENDBRANCH   1   7
TORSDOF 2
ENDMDL
