MODEL 1
REMARK minimizedAffinity -2.54429936
REMARK minimizedRMSD -1
REMARK  0 active torsions:
REMARK  status: ('A' for Active; 'I' for Inactive)
ROOT
ATOM      1  C1  BNZ d   1       2.047   1.771  -0.078  0.00  0.00     0.000 A 
ATOM      2  C2  BNZ d   1       0.781   1.832   0.440  0.00  0.00     0.000 A 
ATOM      3  C3  BNZ d   1      -0.116   0.826   0.214  0.00  0.00     0.000 A 
ATOM      4  C4  BNZ d   1       0.239  -0.219  -0.561  0.00  0.00     0.000 A 
ATOM      5  C5  BNZ d   1       1.509  -0.290  -1.098  0.00  0.00     0.000 A 
ATOM      6  C6  BNZ d   1       2.423   0.705  -0.837  0.00  0.00     0.000 A 
ENDROOT
TORSDOF 0
ENDMDL
