MODEL 1
REMARK minimizedAffinity -3.94707561
REMARK minimizedRMSD -1
REMARK  0 active torsions:
REMARK  status: ('A' for Active; 'I' for Inactive)
ROOT
ATOM      1  C1  BNZ d   1       1.030   0.574  -0.305  0.00  0.00     0.000 A 
ATOM      2  C2  BNZ d   1       1.582   1.817  -0.147  0.00  0.00     0.000 A 
ATOM      3  C3  BNZ d   1       1.132   2.664   0.827  0.00  0.00     0.000 A 
ATOM      4  C4  BNZ d   1       0.105   2.283   1.615  0.00  0.00     0.000 A 
ATOM      5  C5  BNZ d   1      -0.468   1.036   1.461  0.00  0.00     0.000 A 
ATOM      6  C6  BNZ d   1       0.013   0.171   0.505  0.00  0.00     0.000 A 
ENDROOT
TORSDOF 0
ENDMDL
