MODEL 1
REMARK minimizedAffinity -3.94050765
REMARK minimizedRMSD -1
REMARK  0 active torsions:
REMARK  status: ('A' for Active; 'I' for Inactive)
ROOT
ATOM      1  C1  BNZ d   1      -0.026  -1.151   0.142  0.00  0.00     0.000 A 
ATOM      2  C2  BNZ d   1      -0.500  -0.006   0.723  0.00  0.00     0.000 A 
ATOM      3  C3  BNZ d   1       0.286   1.109   0.818  0.00  0.00     0.000 A 
ATOM      4  C4  BNZ d   1       1.557   1.063   0.369  0.00  0.00     0.000 A 
ATOM      5  C5  BNZ d   1       2.053  -0.087  -0.211  0.00  0.00     0.000 A 
ATOM      6  C6  BNZ d   1       1.246  -1.194  -0.340  0.00  0.00     0.000 A 
ENDROOT
TORSDOF 0
ENDMDL
