MODEL 1
REMARK minimizedAffinity -3.6815989
REMARK minimizedRMSD -1
REMARK  0 active torsions:
REMARK  status: ('A' for Active; 'I' for Inactive)
ROOT
ATOM      1  C1  BNZ d   1       1.366   2.021   0.102  0.00  0.00     0.000 A 
ATOM      2  C2  BNZ d   1       1.163   2.561   1.344  0.00  0.00     0.000 A 
ATOM      3  C3  BNZ d   1       0.436   1.891   2.288  0.00  0.00     0.000 A 
ATOM      4  C4  BNZ d   1      -0.119   0.702   1.977  0.00  0.00     0.000 A 
ATOM      5  C5  BNZ d   1       0.069   0.148   0.727  0.00  0.00     0.000 A 
ATOM      6  C6  BNZ d   1       0.833   0.808  -0.209  0.00  0.00     0.000 A 
ENDROOT
TORSDOF 0
ENDMDL
