MODEL 1
REMARK minimizedAffinity -3.0203948
REMARK minimizedRMSD -1
REMARK  0 active torsions:
REMARK  status: ('A' for Active; 'I' for Inactive)
ROOT
ATOM      1  C1  BNZ d   1       1.774   2.646  -0.015  0.00  0.00     0.000 A 
ATOM      2  C2  BNZ d   1       0.962   2.774   1.080  0.00  0.00     0.000 A 
ATOM      3  C3  BNZ d   1       0.184   1.731   1.500  0.00  0.00     0.000 A 
ATOM      4  C4  BNZ d   1       0.190   0.577   0.802  0.00  0.00     0.000 A 
ATOM      5  C5  BNZ d   1       0.996   0.436  -0.310  0.00  0.00     0.000 A 
ATOM      6  C6  BNZ d   1       1.807   1.475  -0.706  0.00  0.00     0.000 A 
ENDROOT
TORSDOF 0
ENDMDL
