MODEL 1
REMARK minimizedAffinity -4.12917423
REMARK minimizedRMSD -1
REMARK  0 active torsions:
REMARK  status: ('A' for Active; 'I' for Inactive)
ROOT
ATOM      1  C1  BNZ d   1       1.742   1.245  -0.393  0.00  0.00     0.000 A 
ATOM      2  C2  BNZ d   1       1.356   2.122   0.585  0.00  0.00     0.000 A 
ATOM      3  C3  BNZ d   1       0.299   1.838   1.403  0.00  0.00     0.000 A 
ATOM      4  C4  BNZ d   1      -0.396   0.697   1.217  0.00  0.00     0.000 A 
ATOM      5  C5  BNZ d   1      -0.025  -0.193   0.229  0.00  0.00     0.000 A 
ATOM      6  C6  BNZ d   1       1.064   0.078  -0.568  0.00  0.00     0.000 A 
ENDROOT
TORSDOF 0
ENDMDL
