MODEL 1
REMARK minimizedAffinity -2.28971529
REMARK minimizedRMSD -1
REMARK  0 active torsions:
REMARK  status: ('A' for Active; 'I' for Inactive)
ROOT
ATOM      1  C1  BNZ d   1       0.316  -2.338  -1.214  0.00  0.00     0.000 A 
ATOM      2  C2  BNZ d   1       0.359  -3.524  -0.530  0.00  0.00     0.000 A 
ATOM      3  C3  BNZ d   1      -0.766  -4.286  -0.381  0.00  0.00     0.000 A 
ATOM      4  C4  BNZ d   1      -1.938  -3.844  -0.880  0.00  0.00     0.000 A 
ATOM      5  C5  BNZ d   1      -1.999  -2.646  -1.563  0.00  0.00     0.000 A 
ATOM      6  C6  BNZ d   1      -0.857  -1.900  -1.745  0.00  0.00     0.000 A 
ENDROOT
TORSDOF 0
ENDMDL
