MODEL 1
REMARK minimizedAffinity -4.68835115
REMARK minimizedRMSD -1
REMARK  0 active torsions:
REMARK  status: ('A' for Active; 'I' for Inactive)
ROOT
ATOM      1  C1  BNZ d   1       0.048   1.863   1.598  0.00  0.00     0.000 A 
ATOM      2  C2  BNZ d   1      -0.676   0.724   1.367  0.00  0.00     0.000 A 
ATOM      3  C3  BNZ d   1      -0.271  -0.185   0.431  0.00  0.00     0.000 A 
ATOM      4  C4  BNZ d   1       0.835   0.064  -0.301  0.00  0.00     0.000 A 
ATOM      5  C5  BNZ d   1       1.570   1.213  -0.086  0.00  0.00     0.000 A 
ATOM      6  C6  BNZ d   1       1.180   2.107   0.885  0.00  0.00     0.000 A 
ENDROOT
TORSDOF 0
ENDMDL
