MODEL 1
REMARK minimizedAffinity -4.40858126
REMARK minimizedRMSD -1
REMARK  0 active torsions:
REMARK  status: ('A' for Active; 'I' for Inactive)
ROOT
ATOM      1  C1  BNZ d   1      -0.506   1.177   1.503  0.00  0.00     0.000 A 
ATOM      2  C2  BNZ d   1      -0.075   0.336   0.512  0.00  0.00     0.000 A 
ATOM      3  C3  BNZ d   1       1.105   0.567  -0.138  0.00  0.00     0.000 A 
ATOM      4  C4  BNZ d   1       1.831   1.660   0.174  0.00  0.00     0.000 A 
ATOM      5  C5  BNZ d   1       1.405   2.522   1.165  0.00  0.00     0.000 A 
ATOM      6  C6  BNZ d   1       0.237   2.265   1.844  0.00  0.00     0.000 A 
ENDROOT
TORSDOF 0
ENDMDL
