MODEL 1
REMARK minimizedAffinity -2.34218097
REMARK minimizedRMSD -1
REMARK  0 active torsions:
REMARK  status: ('A' for Active; 'I' for Inactive)
ROOT
ATOM      1  C1  BNZ d   1      -2.802  -2.748  -2.269  0.00  0.00     0.000 A 
ATOM      2  C2  BNZ d   1      -2.182  -2.952  -1.065  0.00  0.00     0.000 A 
ATOM      3  C3  BNZ d   1      -1.060  -2.248  -0.727  0.00  0.00     0.000 A 
ATOM      4  C4  BNZ d   1      -0.536  -1.373  -1.609  0.00  0.00     0.000 A 
ATOM      5  C5  BNZ d   1      -1.144  -1.163  -2.831  0.00  0.00     0.000 A 
ATOM      6  C6  BNZ d   1      -2.296  -1.844  -3.151  0.00  0.00     0.000 A 
ENDROOT
TORSDOF 0
ENDMDL
