MODEL 1
REMARK minimizedAffinity -1.38078701
REMARK minimizedRMSD -1
REMARK  0 active torsions:
REMARK  status: ('A' for Active; 'I' for Inactive)
ROOT
ATOM      1  C1  BNZ d   1       1.166  -0.942  -1.259  0.00  0.00     0.000 A 
ATOM      2  C2  BNZ d   1       2.123  -0.001  -0.989  0.00  0.00     0.000 A 
ATOM      3  C3  BNZ d   1       1.779   1.221  -0.481  0.00  0.00     0.000 A 
ATOM      4  C4  BNZ d   1       0.478   1.514  -0.282  0.00  0.00     0.000 A 
ATOM      5  C5  BNZ d   1      -0.499   0.579  -0.559  0.00  0.00     0.000 A 
ATOM      6  C6  BNZ d   1      -0.146  -0.664  -1.033  0.00  0.00     0.000 A 
ENDROOT
TORSDOF 0
ENDMDL
