MODEL 1
REMARK minimizedAffinity -1.89631021
REMARK minimizedRMSD -1
REMARK  0 active torsions:
REMARK  status: ('A' for Active; 'I' for Inactive)
ROOT
ATOM      1  C1  BNZ d   1       0.369   1.195  -0.569  0.00  0.00     0.000 A 
ATOM      2  C2  BNZ d   1       0.763   2.425  -0.115  0.00  0.00     0.000 A 
ATOM      3  C3  BNZ d   1       0.757   2.714   1.221  0.00  0.00     0.000 A 
ATOM      4  C4  BNZ d   1       0.319   1.787   2.097  0.00  0.00     0.000 A 
ATOM      5  C5  BNZ d   1      -0.090   0.545   1.655  0.00  0.00     0.000 A 
ATOM      6  C6  BNZ d   1      -0.046   0.245   0.313  0.00  0.00     0.000 A 
ENDROOT
TORSDOF 0
ENDMDL
