MODEL 1
REMARK minimizedAffinity -3.03317142
REMARK minimizedRMSD -1
REMARK  0 active torsions:
REMARK  status: ('A' for Active; 'I' for Inactive)
ROOT
ATOM      1  C1  BNZ d   1       0.253   0.058   0.418  0.00  0.00     0.000 A 
ATOM      2  C2  BNZ d   1      -0.170   0.965   1.353  0.00  0.00     0.000 A 
ATOM      3  C3  BNZ d   1       0.301   2.248   1.347  0.00  0.00     0.000 A 
ATOM      4  C4  BNZ d   1       1.223   2.612   0.433  0.00  0.00     0.000 A 
ATOM      5  C5  BNZ d   1       1.667   1.707  -0.511  0.00  0.00     0.000 A 
ATOM      6  C6  BNZ d   1       1.162   0.427  -0.526  0.00  0.00     0.000 A 
ENDROOT
TORSDOF 0
ENDMDL
