MODEL 1
REMARK minimizedAffinity -3.9510262
REMARK minimizedRMSD -1
REMARK  0 active torsions:
REMARK  status: ('A' for Active; 'I' for Inactive)
ROOT
ATOM      1  C1  BNZ d   1       0.019  -1.039  -0.360  0.00  0.00     0.000 A 
ATOM      2  C2  BNZ d   1      -0.338   0.132   0.254  0.00  0.00     0.000 A 
ATOM      3  C3  BNZ d   1       0.533   1.184   0.315  0.00  0.00     0.000 A 
ATOM      4  C4  BNZ d   1       1.772   1.050  -0.201  0.00  0.00     0.000 A 
ATOM      5  C5  BNZ d   1       2.149  -0.127  -0.816  0.00  0.00     0.000 A 
ATOM      6  C6  BNZ d   1       1.257  -1.170  -0.910  0.00  0.00     0.000 A 
ENDROOT
TORSDOF 0
ENDMDL
