MODEL 1
REMARK minimizedAffinity -3.26746178
REMARK minimizedRMSD -1
REMARK  0 active torsions:
REMARK  status: ('A' for Active; 'I' for Inactive)
ROOT
ATOM      1  C1  BNZ d   1      -0.087   2.297   1.993  0.00  0.00     0.000 A 
ATOM      2  C2  BNZ d   1      -0.371   0.958   1.988  0.00  0.00     0.000 A 
ATOM      3  C3  BNZ d   1      -0.094   0.187   0.894  0.00  0.00     0.000 A 
ATOM      4  C4  BNZ d   1       0.429   0.763  -0.207  0.00  0.00     0.000 A 
ATOM      5  C5  BNZ d   1       0.712   2.115  -0.222  0.00  0.00     0.000 A 
ATOM      6  C6  BNZ d   1       0.468   2.880   0.895  0.00  0.00     0.000 A 
ENDROOT
TORSDOF 0
ENDMDL
