MODEL 1
REMARK minimizedAffinity -4.57001209
REMARK minimizedRMSD -1
REMARK  0 active torsions:
REMARK  status: ('A' for Active; 'I' for Inactive)
ROOT
ATOM      1  C1  BNZ d   1      -0.346   1.101   1.502  0.00  0.00     0.000 A 
ATOM      2  C2  BNZ d   1      -0.002   0.162   0.566  0.00  0.00     0.000 A 
ATOM      3  C3  BNZ d   1       1.035   0.383  -0.297  0.00  0.00     0.000 A 
ATOM      4  C4  BNZ d   1       1.698   1.556  -0.251  0.00  0.00     0.000 A 
ATOM      5  C5  BNZ d   1       1.357   2.516   0.680  0.00  0.00     0.000 A 
ATOM      6  C6  BNZ d   1       0.338   2.275   1.574  0.00  0.00     0.000 A 
ENDROOT
TORSDOF 0
ENDMDL
