MODEL 1
REMARK minimizedAffinity -4.91813898
REMARK minimizedRMSD -1
REMARK  0 active torsions:
REMARK  status: ('A' for Active; 'I' for Inactive)
ROOT
ATOM      1  C1  BNZ d   1       0.647   0.470  -0.012  0.00  0.00     0.000 A 
ATOM      2  C2  BNZ d   1       1.930   0.322  -0.468  0.00  0.00     0.000 A 
ATOM      3  C3  BNZ d   1       2.913   1.191  -0.087  0.00  0.00     0.000 A 
ATOM      4  C4  BNZ d   1       2.606   2.229   0.717  0.00  0.00     0.000 A 
ATOM      5  C5  BNZ d   1       1.315   2.397   1.179  0.00  0.00     0.000 A 
ATOM      6  C6  BNZ d   1       0.336   1.498   0.824  0.00  0.00     0.000 A 
ENDROOT
TORSDOF 0
ENDMDL
