MODEL 1
REMARK minimizedAffinity 15.6463079
REMARK minimizedRMSD -1
REMARK  0 active torsions:
REMARK  status: ('A' for Active; 'I' for Inactive)
ROOT
ATOM      1  O1  BZF d   1       4.278   2.504   4.490  0.00  0.00    -0.204 OA
ATOM      2  C2  BZF d   1       4.036   1.223   4.032  0.00  0.00     0.174 A 
ATOM      3  C3  BZF d   1       3.827   1.223   2.699  0.00  0.00    -0.012 A 
ATOM      4  C3A BZF d   1       4.038   2.576   2.285  0.00  0.00    -0.107 A 
ATOM      5  C4  BZF d   1       3.991   3.205   1.074  0.00  0.00     0.055 A 
ATOM      6  C5  BZF d   1       4.175   4.551   1.021  0.00  0.00    -0.016 A 
ATOM      7  C6  BZF d   1       4.401   5.298   2.158  0.00  0.00     0.022 A 
ATOM      8  C7  BZF d   1       4.461   4.718   3.382  0.00  0.00     0.029 A 
ATOM      9  C7A BZF d   1       4.309   3.354   3.435  0.00  0.00     0.058 A 
ENDROOT
TORSDOF 0
ENDMDL
