MODEL 1
REMARK minimizedAffinity 5.9646225
REMARK minimizedRMSD -1
REMARK  0 active torsions:
REMARK  status: ('A' for Active; 'I' for Inactive)
ROOT
ATOM      1  O1  BZF d   1      -0.085  -2.100   3.753  0.00  0.00    -0.204 OA
ATOM      2  C2  BZF d   1       0.862  -1.117   3.540  0.00  0.00     0.174 A 
ATOM      3  C3  BZF d   1       0.304  -0.029   2.973  0.00  0.00    -0.012 A 
ATOM      4  C3A BZF d   1      -1.097  -0.315   2.907  0.00  0.00    -0.107 A 
ATOM      5  C4  BZF d   1      -2.179   0.386   2.458  0.00  0.00     0.055 A 
ATOM      6  C5  BZF d   1      -3.401  -0.208   2.467  0.00  0.00    -0.016 A 
ATOM      7  C6  BZF d   1      -3.576  -1.501   2.912  0.00  0.00     0.022 A 
ATOM      8  C7  BZF d   1      -2.534  -2.235   3.372  0.00  0.00     0.029 A 
ATOM      9  C7A BZF d   1      -1.303  -1.626   3.395  0.00  0.00     0.058 A 
ENDROOT
TORSDOF 0
ENDMDL
