MODEL 1
REMARK minimizedAffinity 16.3712101
REMARK minimizedRMSD -1
REMARK  0 active torsions:
REMARK  status: ('A' for Active; 'I' for Inactive)
ROOT
ATOM      1  O1  BZF d   1       0.355  -3.857  -5.995  0.00  0.00    -0.204 OA
ATOM      2  C2  BZF d   1       1.316  -4.849  -5.999  0.00  0.00     0.174 A 
ATOM      3  C3  BZF d   1       2.506  -4.365  -5.591  0.00  0.00    -0.012 A 
ATOM      4  C3A BZF d   1       2.253  -3.004  -5.226  0.00  0.00    -0.107 A 
ATOM      5  C4  BZF d   1       3.040  -2.004  -4.731  0.00  0.00     0.055 A 
ATOM      6  C5  BZF d   1       2.502  -0.769  -4.551  0.00  0.00    -0.016 A 
ATOM      7  C6  BZF d   1       1.185  -0.498  -4.861  0.00  0.00     0.022 A 
ATOM      8  C7  BZF d   1       0.365  -1.460  -5.350  0.00  0.00     0.029 A 
ATOM      9  C7A BZF d   1       0.896  -2.717  -5.502  0.00  0.00     0.058 A 
ENDROOT
TORSDOF 0
ENDMDL
