MODEL 1
REMARK minimizedAffinity 12.0155506
REMARK minimizedRMSD -1
REMARK  0 active torsions:
REMARK  status: ('A' for Active; 'I' for Inactive)
ROOT
ATOM      1  O1  BZF d   1      -0.293  -2.906   3.522  0.00  0.00    -0.204 OA
ATOM      2  C2  BZF d   1       0.824  -3.113   4.308  0.00  0.00     0.174 A 
ATOM      3  C3  BZF d   1       1.737  -2.141   4.106  0.00  0.00    -0.012 A 
ATOM      4  C3A BZF d   1       1.115  -1.222   3.203  0.00  0.00    -0.107 A 
ATOM      5  C4  BZF d   1       1.515  -0.045   2.639  0.00  0.00     0.055 A 
ATOM      6  C5  BZF d   1       0.699   0.568   1.741  0.00  0.00    -0.016 A 
ATOM      7  C6  BZF d   1      -0.519   0.029   1.381  0.00  0.00     0.022 A 
ATOM      8  C7  BZF d   1      -0.960  -1.134   1.917  0.00  0.00     0.029 A 
ATOM      9  C7A BZF d   1      -0.153  -1.739   2.850  0.00  0.00     0.058 A 
ENDROOT
TORSDOF 0
ENDMDL
