MODEL 1
REMARK minimizedAffinity 10.2520523
REMARK minimizedRMSD -1
REMARK  0 active torsions:
REMARK  status: ('A' for Active; 'I' for Inactive)
ROOT
ATOM      1  O1  BZF d   1       4.189   3.106   4.534  0.00  0.00    -0.204 OA
ATOM      2  C2  BZF d   1       4.279   1.732   4.428  0.00  0.00     0.174 A 
ATOM      3  C3  BZF d   1       4.085   1.337   3.153  0.00  0.00    -0.012 A 
ATOM      4  C3A BZF d   1       3.951   2.547   2.400  0.00  0.00    -0.107 A 
ATOM      5  C4  BZF d   1       3.755   2.811   1.075  0.00  0.00     0.055 A 
ATOM      6  C5  BZF d   1       3.595   4.100   0.676  0.00  0.00    -0.016 A 
ATOM      7  C6  BZF d   1       3.620   5.147   1.574  0.00  0.00     0.022 A 
ATOM      8  C7  BZF d   1       3.817   4.935   2.898  0.00  0.00     0.029 A 
ATOM      9  C7A BZF d   1       4.012   3.636   3.300  0.00  0.00     0.058 A 
ENDROOT
TORSDOF 0
ENDMDL
