MODEL 1
REMARK minimizedAffinity 19.8702202
REMARK minimizedRMSD -1
REMARK  0 active torsions:
REMARK  status: ('A' for Active; 'I' for Inactive)
ROOT
ATOM      1  O1  BZF d   1       1.532   0.339  -4.266  0.00  0.00    -0.204 OA
ATOM      2  C2  BZF d   1       2.899   0.270  -4.081  0.00  0.00     0.174 A 
ATOM      3  C3  BZF d   1       3.377  -0.923  -4.489  0.00  0.00    -0.012 A 
ATOM      4  C3A BZF d   1       2.252  -1.610  -5.044  0.00  0.00    -0.107 A 
ATOM      5  C4  BZF d   1       2.093  -2.834  -5.628  0.00  0.00     0.055 A 
ATOM      6  C5  BZF d   1       0.848  -3.234  -5.997  0.00  0.00    -0.016 A 
ATOM      7  C6  BZF d   1      -0.260  -2.438  -5.793  0.00  0.00     0.022 A 
ATOM      8  C7  BZF d   1      -0.152  -1.214  -5.222  0.00  0.00     0.029 A 
ATOM      9  C7A BZF d   1       1.109  -0.793  -4.878  0.00  0.00     0.058 A 
ENDROOT
TORSDOF 0
ENDMDL
