MODEL 1
REMARK minimizedAffinity 8.29795265
REMARK minimizedRMSD -1
REMARK  0 active torsions:
REMARK  status: ('A' for Active; 'I' for Inactive)
ROOT
ATOM      1  O1  BZF d   1       1.373   1.614   5.970  0.00  0.00    -0.204 OA
ATOM      2  C2  BZF d   1       0.476   2.664   5.996  0.00  0.00     0.174 A 
ATOM      3  C3  BZF d   1      -0.298   2.660   4.892  0.00  0.00    -0.012 A 
ATOM      4  C3A BZF d   1       0.080   1.483   4.171  0.00  0.00    -0.107 A 
ATOM      5  C4  BZF d   1      -0.343   0.923   3.000  0.00  0.00     0.055 A 
ATOM      6  C5  BZF d   1       0.283  -0.191   2.537  0.00  0.00    -0.016 A 
ATOM      7  C6  BZF d   1       1.337  -0.766   3.215  0.00  0.00     0.022 A 
ATOM      8  C7  BZF d   1       1.789  -0.249   4.384  0.00  0.00     0.029 A 
ATOM      9  C7A BZF d   1       1.137   0.857   4.871  0.00  0.00     0.058 A 
ENDROOT
TORSDOF 0
ENDMDL
