MODEL 1
REMARK minimizedAffinity 9.29712009
REMARK minimizedRMSD -1
REMARK  0 active torsions:
REMARK  status: ('A' for Active; 'I' for Inactive)
ROOT
ATOM      1  O1  BZF d   1       4.229   2.166   5.528  0.00  0.00    -0.204 OA
ATOM      2  C2  BZF d   1       5.274   1.540   4.876  0.00  0.00     0.174 A 
ATOM      3  C3  BZF d   1       6.000   2.432   4.170  0.00  0.00    -0.012 A 
ATOM      4  C3A BZF d   1       5.425   3.707   4.470  0.00  0.00    -0.107 A 
ATOM      5  C4  BZF d   1       5.718   4.984   4.084  0.00  0.00     0.055 A 
ATOM      6  C5  BZF d   1       4.917   6.000   4.498  0.00  0.00    -0.016 A 
ATOM      7  C6  BZF d   1       3.812   5.775   5.294  0.00  0.00     0.022 A 
ATOM      8  C7  BZF d   1       3.484   4.527   5.706  0.00  0.00     0.029 A 
ATOM      9  C7A BZF d   1       4.310   3.502   5.316  0.00  0.00     0.058 A 
ENDROOT
TORSDOF 0
ENDMDL
