MODEL 1
REMARK minimizedAffinity 9.45915794
REMARK minimizedRMSD -1
REMARK  0 active torsions:
REMARK  status: ('A' for Active; 'I' for Inactive)
ROOT
ATOM      1  O1  BZF d   1       2.794   4.175   5.770  0.00  0.00    -0.204 OA
ATOM      2  C2  BZF d   1       1.734   3.319   6.000  0.00  0.00     0.174 A 
ATOM      3  C3  BZF d   1       2.075   2.047   5.705  0.00  0.00    -0.012 A 
ATOM      4  C3A BZF d   1       3.460   2.101   5.351  0.00  0.00    -0.107 A 
ATOM      5  C4  BZF d   1       4.370   1.155   4.975  0.00  0.00     0.055 A 
ATOM      6  C5  BZF d   1       5.624   1.547   4.627  0.00  0.00    -0.016 A 
ATOM      7  C6  BZF d   1       6.000   2.874   4.639  0.00  0.00     0.022 A 
ATOM      8  C7  BZF d   1       5.133   3.848   5.009  0.00  0.00     0.029 A 
ATOM      9  C7A BZF d   1       3.875   3.452   5.393  0.00  0.00     0.058 A 
ENDROOT
TORSDOF 0
ENDMDL
