MODEL 1
REMARK minimizedAffinity 6.3802824
REMARK minimizedRMSD -1
REMARK  0 active torsions:
REMARK  status: ('A' for Active; 'I' for Inactive)
ROOT
ATOM      1  O1  BZF d   1       0.932  -2.741   3.787  0.00  0.00    -0.204 OA
ATOM      2  C2  BZF d   1       1.797  -2.683   4.863  0.00  0.00     0.174 A 
ATOM      3  C3  BZF d   1       2.094  -1.404   5.169  0.00  0.00    -0.012 A 
ATOM      4  C3A BZF d   1       1.297  -0.610   4.285  0.00  0.00    -0.107 A 
ATOM      5  C4  BZF d   1       1.141   0.736   4.115  0.00  0.00     0.055 A 
ATOM      6  C5  BZF d   1       0.340   1.187   3.114  0.00  0.00    -0.016 A 
ATOM      7  C6  BZF d   1      -0.314   0.321   2.262  0.00  0.00     0.022 A 
ATOM      8  C7  BZF d   1      -0.193  -1.022   2.394  0.00  0.00     0.029 A 
ATOM      9  C7A BZF d   1       0.589  -1.481   3.426  0.00  0.00     0.058 A 
ENDROOT
TORSDOF 0
ENDMDL
