MODEL 1
REMARK minimizedAffinity 0.246869758
REMARK minimizedRMSD -1
REMARK  0 active torsions:
REMARK  status: ('A' for Active; 'I' for Inactive)
ROOT
ATOM      1  C   UNL d   1      -1.002  -1.494   1.350  0.00  0.00     0.124 A 
ATOM      2  C1  UNL d   1      -1.342  -0.160   1.172  0.00  0.00     0.062 A 
ATOM      3  C2  UNL d   1      -0.651   0.621   0.250  0.00  0.00     0.162 A 
ATOM      4  C3  UNL d   1       0.386   0.070  -0.503  0.00  0.00    -0.034 A 
ATOM      5  C4  UNL d   1       0.722  -1.272  -0.318  0.00  0.00     0.162 A 
ATOM      6  C5  UNL d   1       0.029  -2.049   0.605  0.00  0.00     0.062 A 
ATOM      7  F   UNL d   1       0.358  -3.338   0.775  0.00  0.00    -0.097 F 
ATOM      8  F1  UNL d   1       1.713  -1.834  -1.025  0.00  0.00    -0.096 F 
ATOM      9  I   UNL d   1       1.420   1.235  -1.882  0.00  0.00    -0.060 I 
ATOM     10  F2  UNL d   1      -1.001   1.907   0.099  0.00  0.00    -0.096 F 
ATOM     11  F3  UNL d   1      -2.337   0.378   1.891  0.00  0.00    -0.097 F 
ATOM     12  F4  UNL d   1      -1.668  -2.243   2.238  0.00  0.00    -0.092 F 
ENDROOT
TORSDOF 0
ENDMDL
