MODEL 1
REMARK minimizedAffinity -1.14126515
REMARK minimizedRMSD -1
REMARK  0 active torsions:
REMARK  status: ('A' for Active; 'I' for Inactive)
ROOT
ATOM      1  C   UNL d   1      -0.842  -1.455   1.539  0.00  0.00     0.124 A 
ATOM      2  C1  UNL d   1      -1.204  -0.116   1.497  0.00  0.00     0.062 A 
ATOM      3  C2  UNL d   1      -0.536   0.764   0.651  0.00  0.00     0.162 A 
ATOM      4  C3  UNL d   1       0.502   0.307  -0.163  0.00  0.00    -0.034 A 
ATOM      5  C4  UNL d   1       0.860  -1.041  -0.114  0.00  0.00     0.162 A 
ATOM      6  C5  UNL d   1       0.189  -1.916   0.733  0.00  0.00     0.062 A 
ATOM      7  F   UNL d   1       0.540  -3.210   0.772  0.00  0.00    -0.097 F 
ATOM      8  F1  UNL d   1       1.853  -1.514  -0.883  0.00  0.00    -0.096 F 
ATOM      9  I   UNL d   1       1.503   1.619  -1.430  0.00  0.00    -0.060 I 
ATOM     10  F2  UNL d   1      -0.906   2.053   0.631  0.00  0.00    -0.096 F 
ATOM     11  F3  UNL d   1      -2.200   0.333   2.275  0.00  0.00    -0.097 F 
ATOM     12  F4  UNL d   1      -1.486  -2.299   2.355  0.00  0.00    -0.092 F 
ENDROOT
TORSDOF 0
ENDMDL
