MODEL 1
REMARK minimizedAffinity 2.90301752
REMARK minimizedRMSD -1
REMARK  0 active torsions:
REMARK  status: ('A' for Active; 'I' for Inactive)
ROOT
ATOM      1  C   UNL d   1       0.173   1.921  -0.876  0.00  0.00     0.124 A 
ATOM      2  C1  UNL d   1      -0.670   1.837   0.223  0.00  0.00     0.062 A 
ATOM      3  C2  UNL d   1      -0.985   0.596   0.770  0.00  0.00     0.162 A 
ATOM      4  C3  UNL d   1      -0.454  -0.571   0.220  0.00  0.00    -0.034 A 
ATOM      5  C4  UNL d   1       0.393  -0.478  -0.886  0.00  0.00     0.162 A 
ATOM      6  C5  UNL d   1       0.704   0.764  -1.429  0.00  0.00     0.062 A 
ATOM      7  F   UNL d   1       1.519   0.844  -2.491  0.00  0.00    -0.097 F 
ATOM      8  F1  UNL d   1       0.920  -1.580  -1.440  0.00  0.00    -0.096 F 
ATOM      9  I   UNL d   1      -0.922  -2.427   1.036  0.00  0.00    -0.060 I 
ATOM     10  F2  UNL d   1      -1.802   0.545   1.832  0.00  0.00    -0.096 F 
ATOM     11  F3  UNL d   1      -1.185   2.953   0.759  0.00  0.00    -0.097 F 
ATOM     12  F4  UNL d   1       0.473   3.116  -1.402  0.00  0.00    -0.092 F 
ENDROOT
TORSDOF 0
ENDMDL
