MODEL 1
REMARK minimizedAffinity -4.89160204
REMARK minimizedRMSD -1
REMARK  0 active torsions:
REMARK  status: ('A' for Active; 'I' for Inactive)
ROOT
ATOM      1  C   UNL d   1      -2.217  -1.250   1.198  0.00  0.00     0.124 A 
ATOM      2  C1  UNL d   1      -2.081   0.109   1.445  0.00  0.00     0.062 A 
ATOM      3  C2  UNL d   1      -1.166   0.864   0.717  0.00  0.00     0.162 A 
ATOM      4  C3  UNL d   1      -0.380   0.262  -0.266  0.00  0.00    -0.034 A 
ATOM      5  C4  UNL d   1      -0.522  -1.105  -0.507  0.00  0.00     0.162 A 
ATOM      6  C5  UNL d   1      -1.438  -1.856   0.223  0.00  0.00     0.062 A 
ATOM      7  F   UNL d   1      -1.568  -3.169  -0.017  0.00  0.00    -0.097 F 
ATOM      8  F1  UNL d   1       0.218  -1.716  -1.445  0.00  0.00    -0.096 F 
ATOM      9  I   UNL d   1       0.989   1.388  -1.356  0.00  0.00    -0.060 I 
ATOM     10  F2  UNL d   1      -1.056   2.176   0.977  0.00  0.00    -0.096 F 
ATOM     11  F3  UNL d   1      -2.832   0.696   2.388  0.00  0.00    -0.097 F 
ATOM     12  F4  UNL d   1      -3.097  -1.975   1.901  0.00  0.00    -0.092 F 
ENDROOT
TORSDOF 0
ENDMDL
