MODEL 1
REMARK minimizedAffinity 0.568655133
REMARK minimizedRMSD -1
REMARK  0 active torsions:
REMARK  status: ('A' for Active; 'I' for Inactive)
ROOT
ATOM      1  C   UNL d   1      -1.353  -1.494   1.521  0.00  0.00     0.124 A 
ATOM      2  C1  UNL d   1      -1.589  -0.134   1.377  0.00  0.00     0.062 A 
ATOM      3  C2  UNL d   1      -0.716   0.653   0.633  0.00  0.00     0.162 A 
ATOM      4  C3  UNL d   1       0.402   0.082   0.025  0.00  0.00    -0.034 A 
ATOM      5  C4  UNL d   1       0.634  -1.286   0.175  0.00  0.00     0.162 A 
ATOM      6  C5  UNL d   1      -0.242  -2.069   0.920  0.00  0.00     0.062 A 
ATOM      7  F   UNL d   1      -0.012  -3.383   1.059  0.00  0.00    -0.097 F 
ATOM      8  F1  UNL d   1       1.699  -1.868  -0.396  0.00  0.00    -0.096 F 
ATOM      9  I   UNL d   1       1.710   1.256  -1.090  0.00  0.00    -0.060 I 
ATOM     10  F2  UNL d   1      -0.969   1.965   0.510  0.00  0.00    -0.096 F 
ATOM     11  F3  UNL d   1      -2.662   0.424   1.958  0.00  0.00    -0.097 F 
ATOM     12  F4  UNL d   1      -2.195  -2.249   2.240  0.00  0.00    -0.092 F 
ENDROOT
TORSDOF 0
ENDMDL
