MODEL 1
REMARK minimizedAffinity -0.379467428
REMARK minimizedRMSD -1
REMARK  0 active torsions:
REMARK  status: ('A' for Active; 'I' for Inactive)
ROOT
ATOM      1  C   UNL d   1      -2.099   0.314   2.156  0.00  0.00     0.124 A 
ATOM      2  C1  UNL d   1      -2.130  -1.074   2.186  0.00  0.00     0.062 A 
ATOM      3  C2  UNL d   1      -1.278  -1.811   1.368  0.00  0.00     0.162 A 
ATOM      4  C3  UNL d   1      -0.387  -1.162   0.514  0.00  0.00    -0.034 A 
ATOM      5  C4  UNL d   1      -0.362   0.233   0.488  0.00  0.00     0.162 A 
ATOM      6  C5  UNL d   1      -1.215   0.966   1.307  0.00  0.00     0.062 A 
ATOM      7  F   UNL d   1      -1.184   2.306   1.277  0.00  0.00    -0.097 F 
ATOM      8  F1  UNL d   1       0.483   0.889  -0.322  0.00  0.00    -0.096 F 
ATOM      9  I   UNL d   1       0.888  -2.261  -0.710  0.00  0.00    -0.060 I 
ATOM     10  F2  UNL d   1      -1.330  -3.150   1.418  0.00  0.00    -0.096 F 
ATOM     11  F3  UNL d   1      -2.983  -1.706   3.004  0.00  0.00    -0.097 F 
ATOM     12  F4  UNL d   1      -2.920   1.021   2.943  0.00  0.00    -0.092 F 
ENDROOT
TORSDOF 0
ENDMDL
