MODEL 1
REMARK minimizedAffinity 2.83236003
REMARK minimizedRMSD -1
REMARK  0 active torsions:
REMARK  status: ('A' for Active; 'I' for Inactive)
ROOT
ATOM      1  C   UNL d   1      -0.143  -0.181   0.643  0.00  0.00     0.124 A 
ATOM      2  C1  UNL d   1      -0.035   1.178   0.386  0.00  0.00     0.062 A 
ATOM      3  C2  UNL d   1       0.473   1.623  -0.831  0.00  0.00     0.162 A 
ATOM      4  C3  UNL d   1       0.876   0.706  -1.802  0.00  0.00    -0.034 A 
ATOM      5  C4  UNL d   1       0.765  -0.660  -1.537  0.00  0.00     0.162 A 
ATOM      6  C5  UNL d   1       0.257  -1.099  -0.318  0.00  0.00     0.062 A 
ATOM      7  F   UNL d   1       0.154  -2.413  -0.072  0.00  0.00    -0.097 F 
ATOM      8  F1  UNL d   1       1.143  -1.568  -2.448  0.00  0.00    -0.096 F 
ATOM      9  I   UNL d   1       1.635   1.366  -3.624  0.00  0.00    -0.060 I 
ATOM     10  F2  UNL d   1       0.566   2.942  -1.052  0.00  0.00    -0.096 F 
ATOM     11  F3  UNL d   1      -0.419   2.067   1.314  0.00  0.00    -0.097 F 
ATOM     12  F4  UNL d   1      -0.630  -0.606   1.816  0.00  0.00    -0.092 F 
ENDROOT
TORSDOF 0
ENDMDL
