MODEL 1
REMARK minimizedAffinity -3.04975009
REMARK minimizedRMSD -1
REMARK  0 active torsions:
REMARK  status: ('A' for Active; 'I' for Inactive)
ROOT
ATOM      1  C   UNL d   1      -1.587  -1.693   1.651  0.00  0.00     0.124 A 
ATOM      2  C1  UNL d   1      -1.897  -0.342   1.725  0.00  0.00     0.062 A 
ATOM      3  C2  UNL d   1      -1.232   0.574   0.914  0.00  0.00     0.162 A 
ATOM      4  C3  UNL d   1      -0.250   0.142   0.023  0.00  0.00    -0.034 A 
ATOM      5  C4  UNL d   1       0.057  -1.218  -0.044  0.00  0.00     0.162 A 
ATOM      6  C5  UNL d   1      -0.611  -2.129   0.767  0.00  0.00     0.062 A 
ATOM      7  F   UNL d   1      -0.310  -3.434   0.695  0.00  0.00    -0.097 F 
ATOM      8  F1  UNL d   1       0.995  -1.668  -0.890  0.00  0.00    -0.096 F 
ATOM      9  I   UNL d   1       0.746   1.508  -1.190  0.00  0.00    -0.060 I 
ATOM     10  F2  UNL d   1      -1.552   1.873   1.006  0.00  0.00    -0.096 F 
ATOM     11  F3  UNL d   1      -2.840   0.083   2.578  0.00  0.00    -0.097 F 
ATOM     12  F4  UNL d   1      -2.228  -2.571   2.433  0.00  0.00    -0.092 F 
ENDROOT
TORSDOF 0
ENDMDL
