MODEL 1
REMARK minimizedAffinity -2.38912797
REMARK minimizedRMSD -1
REMARK  0 active torsions:
REMARK  status: ('A' for Active; 'I' for Inactive)
ROOT
ATOM      1  C   UNL d   1       0.620   1.958  -2.169  0.00  0.00     0.124 A 
ATOM      2  C1  UNL d   1       0.974   0.686  -2.595  0.00  0.00     0.062 A 
ATOM      3  C2  UNL d   1       0.755  -0.414  -1.771  0.00  0.00     0.162 A 
ATOM      4  C3  UNL d   1       0.177  -0.247  -0.512  0.00  0.00    -0.034 A 
ATOM      5  C4  UNL d   1      -0.176   1.036  -0.091  0.00  0.00     0.162 A 
ATOM      6  C5  UNL d   1       0.046   2.132  -0.918  0.00  0.00     0.062 A 
ATOM      7  F   UNL d   1      -0.297   3.361  -0.505  0.00  0.00    -0.097 F 
ATOM      8  F1  UNL d   1      -0.733   1.233   1.113  0.00  0.00    -0.096 F 
ATOM      9  I   UNL d   1      -0.152  -1.889   0.723  0.00  0.00    -0.060 I 
ATOM     10  F2  UNL d   1       1.107  -1.633  -2.208  0.00  0.00    -0.096 F 
ATOM     11  F3  UNL d   1       1.530   0.515  -3.803  0.00  0.00    -0.097 F 
ATOM     12  F4  UNL d   1       0.833   3.015  -2.964  0.00  0.00    -0.092 F 
ENDROOT
TORSDOF 0
ENDMDL
