MODEL 1
REMARK minimizedAffinity 3.25526476
REMARK minimizedRMSD -1
REMARK  0 active torsions:
REMARK  status: ('A' for Active; 'I' for Inactive)
ROOT
ATOM      1  C   UNL d   1      -1.483  -2.465   1.479  0.00  0.00     0.124 A 
ATOM      2  C1  UNL d   1      -2.196  -1.665   0.598  0.00  0.00     0.062 A 
ATOM      3  C2  UNL d   1      -1.556  -0.638  -0.090  0.00  0.00     0.162 A 
ATOM      4  C3  UNL d   1      -0.194  -0.405   0.101  0.00  0.00    -0.034 A 
ATOM      5  C4  UNL d   1       0.517  -1.214   0.991  0.00  0.00     0.162 A 
ATOM      6  C5  UNL d   1      -0.128  -2.239   1.675  0.00  0.00     0.062 A 
ATOM      7  F   UNL d   1       0.562  -3.011   2.527  0.00  0.00    -0.097 F 
ATOM      8  F1  UNL d   1       1.827  -1.018   1.198  0.00  0.00    -0.096 F 
ATOM      9  I   UNL d   1       0.768   1.129  -0.924  0.00  0.00    -0.060 I 
ATOM     10  F2  UNL d   1      -2.269   0.120  -0.936  0.00  0.00    -0.096 F 
ATOM     11  F3  UNL d   1      -3.506  -1.881   0.407  0.00  0.00    -0.097 F 
ATOM     12  F4  UNL d   1      -2.102  -3.452   2.140  0.00  0.00    -0.092 F 
ENDROOT
TORSDOF 0
ENDMDL
