MODEL 1
REMARK minimizedAffinity -2.79982376
REMARK minimizedRMSD -1
REMARK  0 active torsions:
REMARK  status: ('A' for Active; 'I' for Inactive)
ROOT
ATOM      1  C   UNL d   1      -0.352   1.759  -0.598  0.00  0.00     0.124 A 
ATOM      2  C1  UNL d   1      -1.155   1.736   0.534  0.00  0.00     0.062 A 
ATOM      3  C2  UNL d   1      -1.418   0.532   1.181  0.00  0.00     0.162 A 
ATOM      4  C3  UNL d   1      -0.877  -0.660   0.698  0.00  0.00    -0.034 A 
ATOM      5  C4  UNL d   1      -0.071  -0.628  -0.442  0.00  0.00     0.162 A 
ATOM      6  C5  UNL d   1       0.189   0.577  -1.085  0.00  0.00     0.062 A 
ATOM      7  F   UNL d   1       0.965   0.598  -2.178  0.00  0.00    -0.097 F 
ATOM      8  F1  UNL d   1       0.466  -1.755  -0.933  0.00  0.00    -0.096 F 
ATOM      9  I   UNL d   1      -1.268  -2.462   1.662  0.00  0.00    -0.060 I 
ATOM     10  F2  UNL d   1      -2.198   0.539   2.272  0.00  0.00    -0.096 F 
ATOM     11  F3  UNL d   1      -1.680   2.876   1.005  0.00  0.00    -0.097 F 
ATOM     12  F4  UNL d   1      -0.101   2.919  -1.219  0.00  0.00    -0.092 F 
ENDROOT
TORSDOF 0
ENDMDL
