MODEL 1
REMARK minimizedAffinity 2.51696968
REMARK minimizedRMSD -1
REMARK  0 active torsions:
REMARK  status: ('A' for Active; 'I' for Inactive)
ROOT
ATOM      1  C   UNL d   1       0.434   1.648  -1.695  0.00  0.00     0.124 A 
ATOM      2  C1  UNL d   1       0.932   0.404  -2.058  0.00  0.00     0.062 A 
ATOM      3  C2  UNL d   1       0.652  -0.715  -1.280  0.00  0.00     0.162 A 
ATOM      4  C3  UNL d   1      -0.130  -0.597  -0.131  0.00  0.00    -0.034 A 
ATOM      5  C4  UNL d   1      -0.626   0.658   0.228  0.00  0.00     0.162 A 
ATOM      6  C5  UNL d   1      -0.344   1.774  -0.553  0.00  0.00     0.062 A 
ATOM      7  F   UNL d   1      -0.825   2.975  -0.200  0.00  0.00    -0.097 F 
ATOM      8  F1  UNL d   1      -1.381   0.807   1.326  0.00  0.00    -0.096 F 
ATOM      9  I   UNL d   1      -0.550  -2.269   1.034  0.00  0.00    -0.060 I 
ATOM     10  F2  UNL d   1       1.146  -1.905  -1.655  0.00  0.00    -0.096 F 
ATOM     11  F3  UNL d   1       1.684   0.281  -3.161  0.00  0.00    -0.097 F 
ATOM     12  F4  UNL d   1       0.706   2.724  -2.444  0.00  0.00    -0.092 F 
ENDROOT
TORSDOF 0
ENDMDL
