MODEL 1
REMARK minimizedAffinity -1.08513451
REMARK minimizedRMSD -1
REMARK  0 active torsions:
REMARK  status: ('A' for Active; 'I' for Inactive)
ROOT
ATOM      1  C   UNL d   1       0.982   1.912  -3.186  0.00  0.00     0.124 A 
ATOM      2  C1  UNL d   1       1.667   1.866  -1.979  0.00  0.00     0.062 A 
ATOM      3  C2  UNL d   1       1.312   0.934  -1.008  0.00  0.00     0.162 A 
ATOM      4  C3  UNL d   1       0.268   0.039  -1.240  0.00  0.00    -0.034 A 
ATOM      5  C4  UNL d   1      -0.417   0.092  -2.456  0.00  0.00     0.162 A 
ATOM      6  C5  UNL d   1      -0.058   1.026  -3.423  0.00  0.00     0.062 A 
ATOM      7  F   UNL d   1      -0.721   1.069  -4.588  0.00  0.00    -0.097 F 
ATOM      8  F1  UNL d   1      -1.426  -0.754  -2.712  0.00  0.00    -0.096 F 
ATOM      9  I   UNL d   1      -0.265  -1.357   0.208  0.00  0.00    -0.060 I 
ATOM     10  F2  UNL d   1       1.991   0.912   0.148  0.00  0.00    -0.096 F 
ATOM     11  F3  UNL d   1       2.672   2.722  -1.747  0.00  0.00    -0.097 F 
ATOM     12  F4  UNL d   1       1.325   2.811  -4.117  0.00  0.00    -0.092 F 
ENDROOT
TORSDOF 0
ENDMDL
