MODEL 1
REMARK minimizedAffinity -2.11588621
REMARK minimizedRMSD -1
REMARK  0 active torsions:
REMARK  status: ('A' for Active; 'I' for Inactive)
ROOT
ATOM      1  C   UNL d   1       0.850   1.842  -3.487  0.00  0.00     0.124 A 
ATOM      2  C1  UNL d   1      -0.145   0.905  -3.727  0.00  0.00     0.062 A 
ATOM      3  C2  UNL d   1      -0.711   0.197  -2.670  0.00  0.00     0.162 A 
ATOM      4  C3  UNL d   1      -0.283   0.425  -1.362  0.00  0.00    -0.034 A 
ATOM      5  C4  UNL d   1       0.720   1.369  -1.128  0.00  0.00     0.162 A 
ATOM      6  C5  UNL d   1       1.281   2.073  -2.188  0.00  0.00     0.062 A 
ATOM      7  F   UNL d   1       2.243   2.978  -1.955  0.00  0.00    -0.097 F 
ATOM      8  F1  UNL d   1       1.155   1.612   0.117  0.00  0.00    -0.096 F 
ATOM      9  I   UNL d   1      -1.125  -0.630   0.222  0.00  0.00    -0.060 I 
ATOM     10  F2  UNL d   1      -1.671  -0.702  -2.931  0.00  0.00    -0.096 F 
ATOM     11  F3  UNL d   1      -0.563   0.679  -4.981  0.00  0.00    -0.097 F 
ATOM     12  F4  UNL d   1       1.393   2.520  -4.506  0.00  0.00    -0.092 F 
ENDROOT
TORSDOF 0
ENDMDL
