MODEL 1
REMARK minimizedAffinity -5.81402826
REMARK minimizedRMSD -1
REMARK  0 active torsions:
REMARK  status: ('A' for Active; 'I' for Inactive)
ROOT
ATOM      1  C   UNL d   1      -1.480  -1.131   1.728  0.00  0.00     0.124 A 
ATOM      2  C1  UNL d   1      -1.770   0.226   1.711  0.00  0.00     0.062 A 
ATOM      3  C2  UNL d   1      -1.038   1.088   0.900  0.00  0.00     0.162 A 
ATOM      4  C3  UNL d   1      -0.009   0.595   0.096  0.00  0.00    -0.034 A 
ATOM      5  C4  UNL d   1       0.277  -0.771   0.119  0.00  0.00     0.162 A 
ATOM      6  C5  UNL d   1      -0.458  -1.628   0.932  0.00  0.00     0.062 A 
ATOM      7  F   UNL d   1      -0.177  -2.939   0.947  0.00  0.00    -0.097 F 
ATOM      8  F1  UNL d   1       1.259  -1.278  -0.640  0.00  0.00    -0.096 F 
ATOM      9  I   UNL d   1       1.087   1.881  -1.118  0.00  0.00    -0.060 I 
ATOM     10  F2  UNL d   1      -1.339   2.395   0.904  0.00  0.00    -0.096 F 
ATOM     11  F3  UNL d   1      -2.757   0.709   2.480  0.00  0.00    -0.097 F 
ATOM     12  F4  UNL d   1      -2.186  -1.958   2.510  0.00  0.00    -0.092 F 
ENDROOT
TORSDOF 0
ENDMDL
