MODEL 1
REMARK minimizedAffinity -1.71720159
REMARK minimizedRMSD -1
REMARK  0 active torsions:
REMARK  status: ('A' for Active; 'I' for Inactive)
ROOT
ATOM      1  C   UNL d   1      -0.913  -1.199   1.231  0.00  0.00     0.124 A 
ATOM      2  C1  UNL d   1       0.042  -1.794   0.419  0.00  0.00     0.062 A 
ATOM      3  C2  UNL d   1       0.745  -1.031  -0.509  0.00  0.00     0.162 A 
ATOM      4  C3  UNL d   1       0.497   0.336  -0.628  0.00  0.00    -0.034 A 
ATOM      5  C4  UNL d   1      -0.467   0.927   0.191  0.00  0.00     0.162 A 
ATOM      6  C5  UNL d   1      -1.167   0.160   1.117  0.00  0.00     0.062 A 
ATOM      7  F   UNL d   1      -2.090   0.737   1.901  0.00  0.00    -0.097 F 
ATOM      8  F1  UNL d   1      -0.731   2.239   0.102  0.00  0.00    -0.096 F 
ATOM      9  I   UNL d   1       1.546   1.481  -2.014  0.00  0.00    -0.060 I 
ATOM     10  F2  UNL d   1       1.663  -1.632  -1.280  0.00  0.00    -0.096 F 
ATOM     11  F3  UNL d   1       0.288  -3.108   0.527  0.00  0.00    -0.097 F 
ATOM     12  F4  UNL d   1      -1.589  -1.936   2.122  0.00  0.00    -0.092 F 
ENDROOT
TORSDOF 0
ENDMDL
