MODEL 1
REMARK minimizedAffinity -0.683441103
REMARK minimizedRMSD -1
REMARK  0 active torsions:
REMARK  status: ('A' for Active; 'I' for Inactive)
ROOT
ATOM      1  C   UNL d   1       0.851   4.689  -5.992  0.00  0.00     0.172 C 
ATOM      2  N   UNL d   1       2.201   4.957  -5.556  0.00  0.00    -0.070 N 
ATOM      3  C1  UNL d   1       2.907   4.218  -4.645  0.00  0.00    -0.004 A 
ATOM      4  C2  UNL d   1       4.149   4.798  -4.503  0.00  0.00    -0.047 A 
ATOM      5  C3  UNL d   1       4.191   5.925  -5.358  0.00  0.00    -0.047 A 
ATOM      6  C4  UNL d   1       2.972   6.000  -5.998  0.00  0.00    -0.004 A 
ENDROOT
TORSDOF 0
ENDMDL
