MODEL 1
REMARK minimizedAffinity 0.841347694
REMARK minimizedRMSD -1
REMARK  0 active torsions:
REMARK  status: ('A' for Active; 'I' for Inactive)
ROOT
ATOM      1  C   UNL d   1       3.167   5.677  -5.307  0.00  0.00     0.172 C 
ATOM      2  N   UNL d   1       1.754   5.805  -5.039  0.00  0.00    -0.070 N 
ATOM      3  C1  UNL d   1       1.179   5.861  -3.797  0.00  0.00    -0.004 A 
ATOM      4  C2  UNL d   1      -0.183   5.982  -3.968  0.00  0.00    -0.047 A 
ATOM      5  C3  UNL d   1      -0.435   5.999  -5.360  0.00  0.00    -0.047 A 
ATOM      6  C4  UNL d   1       0.781   5.887  -6.000  0.00  0.00    -0.004 A 
ENDROOT
TORSDOF 0
ENDMDL
