MODEL 1
REMARK minimizedAffinity 3.8085947
REMARK minimizedRMSD -1
REMARK  0 active torsions:
REMARK  status: ('A' for Active; 'I' for Inactive)
ROOT
ATOM      1  C   UNL d   1       1.404   2.966  -0.021  0.00  0.00     0.172 C 
ATOM      2  N   UNL d   1       0.636   1.800   0.349  0.00  0.00    -0.070 N 
ATOM      3  C1  UNL d   1       0.137   1.536   1.596  0.00  0.00    -0.004 A 
ATOM      4  C2  UNL d   1      -0.533   0.333   1.537  0.00  0.00    -0.047 A 
ATOM      5  C3  UNL d   1      -0.433  -0.142   0.208  0.00  0.00    -0.047 A 
ATOM      6  C4  UNL d   1       0.296   0.786  -0.506  0.00  0.00    -0.004 A 
ENDROOT
TORSDOF 0
ENDMDL
