MODEL 1
REMARK minimizedAffinity 0.025834389
REMARK minimizedRMSD -1
REMARK  0 active torsions:
REMARK  status: ('A' for Active; 'I' for Inactive)
ROOT
ATOM      1  C   UNL d   1       2.525   5.700  -5.992  0.00  0.00     0.172 C 
ATOM      2  N   UNL d   1       1.227   5.768  -5.363  0.00  0.00    -0.070 N 
ATOM      3  C1  UNL d   1       0.023   5.626  -5.999  0.00  0.00    -0.004 A 
ATOM      4  C2  UNL d   1      -0.972   5.756  -5.054  0.00  0.00    -0.047 A 
ATOM      5  C3  UNL d   1      -0.344   5.984  -3.807  0.00  0.00    -0.047 A 
ATOM      6  C4  UNL d   1       1.017   5.987  -4.027  0.00  0.00    -0.004 A 
ENDROOT
TORSDOF 0
ENDMDL
