MODEL 1
REMARK minimizedAffinity -2.41253519
REMARK minimizedRMSD -1
REMARK  0 active torsions:
REMARK  status: ('A' for Active; 'I' for Inactive)
ROOT
ATOM      1  C   UNL d   1       2.584   5.182  -5.239  0.00  0.00     0.172 C 
ATOM      2  N   UNL d   1       3.946   4.999  -4.795  0.00  0.00    -0.070 N 
ATOM      3  C1  UNL d   1       4.628   3.812  -4.777  0.00  0.00    -0.004 A 
ATOM      4  C2  UNL d   1       5.892   4.059  -4.287  0.00  0.00    -0.047 A 
ATOM      5  C3  UNL d   1       5.972   5.442  -3.999  0.00  0.00    -0.047 A 
ATOM      6  C4  UNL d   1       4.754   6.000  -4.323  0.00  0.00    -0.004 A 
ENDROOT
TORSDOF 0
ENDMDL
