MODEL 1
REMARK minimizedAffinity -1.878649
REMARK minimizedRMSD -1
REMARK  0 active torsions:
REMARK  status: ('A' for Active; 'I' for Inactive)
ROOT
ATOM      1  C   UNL d   1      -2.563   5.978  -0.577  0.00  0.00     0.172 C 
ATOM      2  N   UNL d   1      -1.912   5.984  -1.866  0.00  0.00    -0.070 N 
ATOM      3  C1  UNL d   1      -0.559   5.976  -2.076  0.00  0.00    -0.004 A 
ATOM      4  C2  UNL d   1      -0.344   5.984  -3.438  0.00  0.00    -0.047 A 
ATOM      5  C3  UNL d   1      -1.611   5.998  -4.067  0.00  0.00    -0.047 A 
ATOM      6  C4  UNL d   1      -2.564   5.997  -3.070  0.00  0.00    -0.004 A 
ENDROOT
TORSDOF 0
ENDMDL
