MODEL 1
REMARK minimizedAffinity -1.61200607
REMARK minimizedRMSD -1
REMARK  0 active torsions:
REMARK  status: ('A' for Active; 'I' for Inactive)
ROOT
ATOM      1  C   UNL d   1       4.129   5.618  -4.507  0.00  0.00     0.172 C 
ATOM      2  N   UNL d   1       2.714   5.745  -4.765  0.00  0.00    -0.070 N 
ATOM      3  C1  UNL d   1       2.122   5.712  -5.999  0.00  0.00    -0.004 A 
ATOM      4  C2  UNL d   1       0.764   5.866  -5.820  0.00  0.00    -0.047 A 
ATOM      5  C3  UNL d   1       0.532   5.997  -4.430  0.00  0.00    -0.047 A 
ATOM      6  C4  UNL d   1       1.757   5.919  -3.801  0.00  0.00    -0.004 A 
ENDROOT
TORSDOF 0
ENDMDL
