MODEL 1
REMARK minimizedAffinity -1.71584702
REMARK minimizedRMSD -1
REMARK  0 active torsions:
REMARK  status: ('A' for Active; 'I' for Inactive)
ROOT
ATOM      1  C   UNL d   1      -0.269   6.000  -4.553  0.00  0.00     0.172 C 
ATOM      2  N   UNL d   1      -1.442   5.995  -3.710  0.00  0.00    -0.070 N 
ATOM      3  C1  UNL d   1      -2.740   5.987  -4.148  0.00  0.00    -0.004 A 
ATOM      4  C2  UNL d   1      -3.559   5.985  -3.039  0.00  0.00    -0.047 A 
ATOM      5  C3  UNL d   1      -2.725   5.993  -1.896  0.00  0.00    -0.047 A 
ATOM      6  C4  UNL d   1      -1.419   6.000  -2.340  0.00  0.00    -0.004 A 
ENDROOT
TORSDOF 0
ENDMDL
