MODEL 1
REMARK minimizedAffinity 2.05113482
REMARK minimizedRMSD -1
REMARK  0 active torsions:
REMARK  status: ('A' for Active; 'I' for Inactive)
ROOT
ATOM      1  C   UNL d   1      -0.535   5.981  -1.990  0.00  0.00     0.172 C 
ATOM      2  N   UNL d   1      -1.914   5.987  -2.419  0.00  0.00    -0.070 N 
ATOM      3  C1  UNL d   1      -3.006   5.997  -1.593  0.00  0.00    -0.004 A 
ATOM      4  C2  UNL d   1      -4.134   6.000  -2.385  0.00  0.00    -0.047 A 
ATOM      5  C3  UNL d   1      -3.704   5.990  -3.734  0.00  0.00    -0.047 A 
ATOM      6  C4  UNL d   1      -2.325   5.982  -3.725  0.00  0.00    -0.004 A 
ENDROOT
TORSDOF 0
ENDMDL
