MODEL 1
REMARK minimizedAffinity -0.308789432
REMARK minimizedRMSD -1
REMARK  0 active torsions:
REMARK  status: ('A' for Active; 'I' for Inactive)
ROOT
ATOM      1  C   UNL d   1      -0.182  -5.017   2.458  0.00  0.00     0.172 C 
ATOM      2  N   UNL d   1      -1.034  -4.262   3.346  0.00  0.00    -0.070 N 
ATOM      3  C1  UNL d   1      -1.256  -4.541   4.668  0.00  0.00    -0.004 A 
ATOM      4  C2  UNL d   1      -2.125  -3.591   5.160  0.00  0.00    -0.047 A 
ATOM      5  C3  UNL d   1      -2.436  -2.711   4.096  0.00  0.00    -0.047 A 
ATOM      6  C4  UNL d   1      -1.747  -3.149   2.985  0.00  0.00    -0.004 A 
ENDROOT
TORSDOF 0
ENDMDL
