MODEL 1
REMARK minimizedAffinity -2.39122772
REMARK minimizedRMSD -1
REMARK  0 active torsions:
REMARK  status: ('A' for Active; 'I' for Inactive)
ROOT
ATOM      1  C   UNL d   1      -3.637   5.995  -2.060  0.00  0.00     0.172 C 
ATOM      2  N   UNL d   1      -2.366   5.996  -2.746  0.00  0.00    -0.070 N 
ATOM      3  C1  UNL d   1      -2.193   5.994  -4.105  0.00  0.00    -0.004 A 
ATOM      4  C2  UNL d   1      -0.838   5.996  -4.357  0.00  0.00    -0.047 A 
ATOM      5  C3  UNL d   1      -0.174   6.000  -3.107  0.00  0.00    -0.047 A 
ATOM      6  C4  UNL d   1      -1.145   6.000  -2.127  0.00  0.00    -0.004 A 
ENDROOT
TORSDOF 0
ENDMDL
