MODEL 1
REMARK minimizedAffinity -2.03891015
REMARK minimizedRMSD -1
REMARK  0 active torsions:
REMARK  status: ('A' for Active; 'I' for Inactive)
ROOT
ATOM      1  C   UNL d   1       1.360   5.986  -5.240  0.00  0.00     0.172 C 
ATOM      2  N   UNL d   1       0.183   5.989  -4.403  0.00  0.00    -0.070 N 
ATOM      3  C1  UNL d   1      -1.112   5.998  -4.847  0.00  0.00    -0.004 A 
ATOM      4  C2  UNL d   1      -1.937   5.997  -3.743  0.00  0.00    -0.047 A 
ATOM      5  C3  UNL d   1      -1.108   5.989  -2.595  0.00  0.00    -0.047 A 
ATOM      6  C4  UNL d   1       0.199   5.984  -3.033  0.00  0.00    -0.004 A 
ENDROOT
TORSDOF 0
ENDMDL
