MODEL 1
REMARK minimizedAffinity -1.04967022
REMARK minimizedRMSD -1
REMARK  0 active torsions:
REMARK  status: ('A' for Active; 'I' for Inactive)
ROOT
ATOM      1  C   UNL d   1       2.440   5.112  -5.291  0.00  0.00     0.172 C 
ATOM      2  N   UNL d   1       3.880   5.053  -5.378  0.00  0.00    -0.070 N 
ATOM      3  C1  UNL d   1       4.670   4.057  -4.870  0.00  0.00    -0.004 A 
ATOM      4  C2  UNL d   1       5.981   4.369  -5.161  0.00  0.00    -0.047 A 
ATOM      5  C3  UNL d   1       5.978   5.595  -5.867  0.00  0.00    -0.047 A 
ATOM      6  C4  UNL d   1       4.664   5.997  -5.988  0.00  0.00    -0.004 A 
ENDROOT
TORSDOF 0
ENDMDL
