MODEL 1
REMARK minimizedAffinity 1.17460978
REMARK minimizedRMSD -1
REMARK  0 active torsions:
REMARK  status: ('A' for Active; 'I' for Inactive)
ROOT
ATOM      1  C   UNL d   1       0.444   0.240   0.923  0.00  0.00     0.172 C 
ATOM      2  N   UNL d   1       1.032   1.500   0.532  0.00  0.00    -0.070 N 
ATOM      3  C1  UNL d   1       0.515   2.739   0.801  0.00  0.00    -0.004 A 
ATOM      4  C2  UNL d   1       1.368   3.678   0.263  0.00  0.00    -0.047 A 
ATOM      5  C3  UNL d   1       2.434   2.979  -0.353  0.00  0.00    -0.047 A 
ATOM      6  C4  UNL d   1       2.200   1.632  -0.171  0.00  0.00    -0.004 A 
ENDROOT
TORSDOF 0
ENDMDL
