MODEL 1
REMARK minimizedAffinity 0.427738219
REMARK minimizedRMSD -1
REMARK  0 active torsions:
REMARK  status: ('A' for Active; 'I' for Inactive)
ROOT
ATOM      1  C   UNL d   1       0.648   5.998  -5.992  0.00  0.00     0.172 C 
ATOM      2  N   UNL d   1       1.890   5.388  -5.578  0.00  0.00    -0.070 N 
ATOM      3  C1  UNL d   1       2.029   4.121  -5.079  0.00  0.00    -0.004 A 
ATOM      4  C2  UNL d   1       3.365   3.919  -4.805  0.00  0.00    -0.047 A 
ATOM      5  C3  UNL d   1       4.052   5.107  -5.151  0.00  0.00    -0.047 A 
ATOM      6  C4  UNL d   1       3.115   6.000  -5.626  0.00  0.00    -0.004 A 
ENDROOT
TORSDOF 0
ENDMDL
