MODEL 1
REMARK minimizedAffinity 1.26875925
REMARK minimizedRMSD -1
REMARK  0 active torsions:
REMARK  status: ('A' for Active; 'I' for Inactive)
ROOT
ATOM      1  C   UNL d   1      -0.754   5.979  -2.440  0.00  0.00     0.172 C 
ATOM      2  N   UNL d   1      -0.171   5.981  -3.761  0.00  0.00    -0.070 N 
ATOM      3  C1  UNL d   1       1.170   5.967  -4.041  0.00  0.00    -0.004 A 
ATOM      4  C2  UNL d   1       1.314   5.974  -5.412  0.00  0.00    -0.047 A 
ATOM      5  C3  UNL d   1       0.016   5.995  -5.974  0.00  0.00    -0.047 A 
ATOM      6  C4  UNL d   1      -0.884   6.000  -4.930  0.00  0.00    -0.004 A 
ENDROOT
TORSDOF 0
ENDMDL
