MODEL 1
REMARK minimizedAffinity 9.39547443
REMARK minimizedRMSD -1
REMARK  3 active torsions:
REMARK  status: ('A' for Active; 'I' for Inactive)
REMARK    1  A    between atoms: C3'_2  and  C2'_3 
REMARK    2  A    between atoms: C2'_3  and  C1'_4 
REMARK    3  A    between atoms: C1'_4  and  C1_5 
ROOT
ATOM      1  C1  N4B d   1       0.197   1.613   1.473  0.00  0.00    -0.075 A 
ATOM      2  C2  N4B d   1      -0.611   2.040   2.549  0.00  0.00     0.002 A 
ATOM      3  C3  N4B d   1      -0.529   1.404   3.764  0.00  0.00     0.002 A 
ATOM      4  C4  N4B d   1       0.336   0.331   3.919  0.00  0.00    -0.004 A 
ATOM      5  C5  N4B d   1       1.131  -0.059   2.882  0.00  0.00     0.002 A 
ATOM      6  C6  N4B d   1       1.063   0.574   1.657  0.00  0.00     0.002 A 
ENDROOT
BRANCH   1   7
ATOM      7  C1' N4B d   1       0.081   2.222   0.102  0.00  0.00     0.057 C 
BRANCH   7   8
ATOM      8  C2' N4B d   1      -0.755   1.304  -0.785  0.00  0.00     0.009 C 
BRANCH   8   9
ATOM      9  C3' N4B d   1      -0.415   1.470  -2.256  0.00  0.00     0.004 C 
ATOM     10  C4' N4B d   1       0.064   0.197  -2.889  0.00  0.00     0.003 C 
ENDBRANCH   8   9
ENDBRANCH   7   8
ENDBRANCH   1   7
TORSDOF 3
ENDMDL
