MODEL 1
REMARK minimizedAffinity 4.1937685
REMARK minimizedRMSD -1
REMARK  3 active torsions:
REMARK  status: ('A' for Active; 'I' for Inactive)
REMARK    1  A    between atoms: C3'_2  and  C2'_3 
REMARK    2  A    between atoms: C2'_3  and  C1'_4 
REMARK    3  A    between atoms: C1'_4  and  C1_5 
ROOT
ATOM      1  C1  N4B d   1       0.076   1.507   2.269  0.00  0.00    -0.075 A 
ATOM      2  C2  N4B d   1      -0.792   1.340   3.371  0.00  0.00     0.002 A 
ATOM      3  C3  N4B d   1      -0.509   0.399   4.330  0.00  0.00     0.002 A 
ATOM      4  C4  N4B d   1       0.620  -0.396   4.200  0.00  0.00    -0.004 A 
ATOM      5  C5  N4B d   1       1.466  -0.210   3.147  0.00  0.00     0.002 A 
ATOM      6  C6  N4B d   1       1.197   0.734   2.177  0.00  0.00     0.002 A 
ENDROOT
BRANCH   1   7
ATOM      7  C1' N4B d   1      -0.236   2.464   1.151  0.00  0.00     0.057 C 
BRANCH   7   8
ATOM      8  C2' N4B d   1       0.292   1.890  -0.161  0.00  0.00     0.009 C 
BRANCH   8   9
ATOM      9  C3' N4B d   1      -0.764   1.903  -1.252  0.00  0.00     0.004 C 
ATOM     10  C4' N4B d   1      -0.367   1.098  -2.454  0.00  0.00     0.003 C 
ENDBRANCH   8   9
ENDBRANCH   7   8
ENDBRANCH   1   7
TORSDOF 3
ENDMDL
