MODEL 1
REMARK minimizedAffinity 7.93625832
REMARK minimizedRMSD -1
REMARK  3 active torsions:
REMARK  status: ('A' for Active; 'I' for Inactive)
REMARK    1  A    between atoms: C3'_2  and  C2'_3 
REMARK    2  A    between atoms: C2'_3  and  C1'_4 
REMARK    3  A    between atoms: C1'_4  and  C1_5 
ROOT
ATOM      1  C1  N4B d   1      -1.886  -0.717  -2.582  0.00  0.00    -0.075 A 
ATOM      2  C2  N4B d   1      -0.663  -0.140  -2.989  0.00  0.00     0.002 A 
ATOM      3  C3  N4B d   1      -0.334   1.129  -2.582  0.00  0.00     0.002 A 
ATOM      4  C4  N4B d   1      -1.215   1.845  -1.785  0.00  0.00    -0.004 A 
ATOM      5  C5  N4B d   1      -2.383   1.271  -1.375  0.00  0.00     0.002 A 
ATOM      6  C6  N4B d   1      -2.726  -0.006  -1.774  0.00  0.00     0.002 A 
ENDROOT
BRANCH   1   7
ATOM      7  C1' N4B d   1      -2.329  -2.069  -3.072  0.00  0.00     0.057 C 
BRANCH   7   8
ATOM      8  C2' N4B d   1      -1.103  -2.955  -3.272  0.00  0.00     0.009 C 
BRANCH   8   9
ATOM      9  C3' N4B d   1      -1.175  -4.222  -2.437  0.00  0.00     0.004 C 
ATOM     10  C4' N4B d   1      -0.001  -4.379  -1.517  0.00  0.00     0.003 C 
ENDBRANCH   8   9
ENDBRANCH   7   8
ENDBRANCH   1   7
TORSDOF 3
ENDMDL
