MODEL 1
REMARK minimizedAffinity 4.73294163
REMARK minimizedRMSD -1
REMARK  3 active torsions:
REMARK  status: ('A' for Active; 'I' for Inactive)
REMARK    1  A    between atoms: C3'_2  and  C2'_3 
REMARK    2  A    between atoms: C2'_3  and  C1'_4 
REMARK    3  A    between atoms: C1'_4  and  C1_5 
ROOT
ATOM      1  C1  N4B d   1      -0.447   1.628  -0.515  0.00  0.00    -0.075 A 
ATOM      2  C2  N4B d   1      -1.396   1.998  -1.494  0.00  0.00     0.002 A 
ATOM      3  C3  N4B d   1      -1.382   1.394  -2.727  0.00  0.00     0.002 A 
ATOM      4  C4  N4B d   1      -0.421   0.435  -3.010  0.00  0.00    -0.004 A 
ATOM      5  C5  N4B d   1       0.476   0.065  -2.051  0.00  0.00     0.002 A 
ATOM      6  C6  N4B d   1       0.471   0.660  -0.806  0.00  0.00     0.002 A 
ENDROOT
BRANCH   1   7
ATOM      7  C1' N4B d   1      -0.369   2.321   0.817  0.00  0.00     0.057 C 
BRANCH   7   8
ATOM      8  C2' N4B d   1       0.433   1.455   1.785  0.00  0.00     0.009 C 
BRANCH   8   9
ATOM      9  C3' N4B d   1      -0.301   1.241   3.098  0.00  0.00     0.004 C 
ATOM     10  C4' N4B d   1       0.239   0.083   3.883  0.00  0.00     0.003 C 
ENDBRANCH   8   9
ENDBRANCH   7   8
ENDBRANCH   1   7
TORSDOF 3
ENDMDL
