MODEL 1
REMARK minimizedAffinity 4.60667896
REMARK minimizedRMSD -1
REMARK  3 active torsions:
REMARK  status: ('A' for Active; 'I' for Inactive)
REMARK    1  A    between atoms: C3'_2  and  C2'_3 
REMARK    2  A    between atoms: C2'_3  and  C1'_4 
REMARK    3  A    between atoms: C1'_4  and  C1_5 
ROOT
ATOM      1  C1  N4B d   1      -1.386   2.797   1.282  0.00  0.00    -0.075 A 
ATOM      2  C2  N4B d   1      -0.105   2.454   0.797  0.00  0.00     0.002 A 
ATOM      3  C3  N4B d   1       0.631   1.482   1.428  0.00  0.00     0.002 A 
ATOM      4  C4  N4B d   1       0.117   0.854   2.553  0.00  0.00    -0.004 A 
ATOM      5  C5  N4B d   1      -1.132   1.173   3.000  0.00  0.00     0.002 A 
ATOM      6  C6  N4B d   1      -1.884   2.145   2.373  0.00  0.00     0.002 A 
ENDROOT
BRANCH   1   7
ATOM      7  C1' N4B d   1      -2.192   3.913   0.677  0.00  0.00     0.057 C 
BRANCH   7   8
ATOM      8  C2' N4B d   1      -2.642   4.863   1.783  0.00  0.00     0.009 C 
BRANCH   8   9
ATOM      9  C3' N4B d   1      -3.525   5.978   1.250  0.00  0.00     0.004 C 
ATOM     10  C4' N4B d   1      -4.882   6.000   1.889  0.00  0.00     0.003 C 
ENDBRANCH   8   9
ENDBRANCH   7   8
ENDBRANCH   1   7
TORSDOF 3
ENDMDL
