MODEL 1
REMARK minimizedAffinity 4.44476986
REMARK minimizedRMSD -1
REMARK  3 active torsions:
REMARK  status: ('A' for Active; 'I' for Inactive)
REMARK    1  A    between atoms: C3'_2  and  C2'_3 
REMARK    2  A    between atoms: C2'_3  and  C1'_4 
REMARK    3  A    between atoms: C1'_4  and  C1_5 
ROOT
ATOM      1  C1  N4B d   1       3.763  -3.753  -2.298  0.00  0.00    -0.075 A 
ATOM      2  C2  N4B d   1       2.646  -3.996  -1.469  0.00  0.00     0.002 A 
ATOM      3  C3  N4B d   1       2.288  -3.077  -0.513  0.00  0.00     0.002 A 
ATOM      4  C4  N4B d   1       3.039  -1.922  -0.357  0.00  0.00    -0.004 A 
ATOM      5  C5  N4B d   1       4.101  -1.682  -1.179  0.00  0.00     0.002 A 
ATOM      6  C6  N4B d   1       4.470  -2.595  -2.147  0.00  0.00     0.002 A 
ENDROOT
BRANCH   1   7
ATOM      7  C1' N4B d   1       4.245  -4.768  -3.299  0.00  0.00     0.057 C 
BRANCH   7   8
ATOM      8  C2' N4B d   1       5.610  -5.291  -2.864  0.00  0.00     0.009 C 
BRANCH   8   9
ATOM      9  C3' N4B d   1       5.556  -5.954  -1.498  0.00  0.00     0.004 C 
ATOM     10  C4' N4B d   1       5.997  -5.042  -0.392  0.00  0.00     0.003 C 
ENDBRANCH   8   9
ENDBRANCH   7   8
ENDBRANCH   1   7
TORSDOF 3
ENDMDL
