MODEL 1
REMARK minimizedAffinity 0.343161613
REMARK minimizedRMSD -1
REMARK  3 active torsions:
REMARK  status: ('A' for Active; 'I' for Inactive)
REMARK    1  A    between atoms: C3'_2  and  C2'_3 
REMARK    2  A    between atoms: C2'_3  and  C1'_4 
REMARK    3  A    between atoms: C1'_4  and  C1_5 
ROOT
ATOM      1  C1  N4B d   1      -0.002  -0.010  -0.075  0.00  0.00    -0.075 A 
ATOM      2  C2  N4B d   1       0.632   1.249  -0.169  0.00  0.00     0.002 A 
ATOM      3  C3  N4B d   1       1.234   1.799   0.935  0.00  0.00     0.002 A 
ATOM      4  C4  N4B d   1       1.200   1.121   2.144  0.00  0.00    -0.004 A 
ATOM      5  C5  N4B d   1       0.609  -0.106   2.221  0.00  0.00     0.002 A 
ATOM      6  C6  N4B d   1       0.003  -0.673   1.118  0.00  0.00     0.002 A 
ENDROOT
BRANCH   1   7
ATOM      7  C1' N4B d   1      -0.748  -0.613  -1.233  0.00  0.00     0.057 C 
BRANCH   7   8
ATOM      8  C2' N4B d   1      -1.559  -1.807  -0.740  0.00  0.00     0.009 C 
BRANCH   8   9
ATOM      9  C3' N4B d   1      -1.006  -3.123  -1.259  0.00  0.00     0.004 C 
ATOM     10  C4' N4B d   1      -2.037  -3.942  -1.978  0.00  0.00     0.003 C 
ENDBRANCH   8   9
ENDBRANCH   7   8
ENDBRANCH   1   7
TORSDOF 3
ENDMDL
