MODEL 1
REMARK minimizedAffinity -3.64971638
REMARK minimizedRMSD -1
REMARK  0 active torsions:
REMARK  status: ('A' for Active; 'I' for Inactive)
ROOT
ATOM      1  C   UNL d   1      -1.545   0.243   0.938  0.00  0.00     0.172 C 
ATOM      2  N   UNL d   1      -0.727   1.327   0.445  0.00  0.00    -0.070 N 
ATOM      3  C1  UNL d   1       0.404   1.192  -0.315  0.00  0.00    -0.004 A 
ATOM      4  C2  UNL d   1       0.888   2.455  -0.578  0.00  0.00    -0.047 A 
ATOM      5  C3  UNL d   1       0.019   3.381   0.046  0.00  0.00    -0.047 A 
ATOM      6  C4  UNL d   1      -0.972   2.656   0.672  0.00  0.00    -0.004 A 
ENDROOT
TORSDOF 0
ENDMDL
