MODEL 1
REMARK minimizedAffinity -1.32793999
REMARK minimizedRMSD -1
REMARK  0 active torsions:
REMARK  status: ('A' for Active; 'I' for Inactive)
ROOT
ATOM      1  C   UNL d   1       0.099  -1.453  -0.103  0.00  0.00     0.172 C 
ATOM      2  N   UNL d   1       0.157  -0.010  -0.070  0.00  0.00    -0.070 N 
ATOM      3  C1  UNL d   1      -0.856   0.820   0.332  0.00  0.00    -0.004 A 
ATOM      4  C2  UNL d   1      -0.407   2.118   0.217  0.00  0.00    -0.047 A 
ATOM      5  C3  UNL d   1       0.920   2.066  -0.271  0.00  0.00    -0.047 A 
ATOM      6  C4  UNL d   1       1.244   0.737  -0.440  0.00  0.00    -0.004 A 
ENDROOT
TORSDOF 0
ENDMDL
