MODEL 1
REMARK minimizedAffinity -3.75984669
REMARK minimizedRMSD -1
REMARK  0 active torsions:
REMARK  status: ('A' for Active; 'I' for Inactive)
ROOT
ATOM      1  C   UNL d   1       0.139  -0.068   0.512  0.00  0.00     0.172 C 
ATOM      2  N   UNL d   1       1.022   1.068   0.390  0.00  0.00    -0.070 N 
ATOM      3  C1  UNL d   1       0.640   2.347   0.082  0.00  0.00    -0.004 A 
ATOM      4  C2  UNL d   1       1.772   3.133   0.062  0.00  0.00    -0.047 A 
ATOM      5  C3  UNL d   1       2.872   2.297   0.367  0.00  0.00    -0.047 A 
ATOM      6  C4  UNL d   1       2.380   1.025   0.565  0.00  0.00    -0.004 A 
ENDROOT
TORSDOF 0
ENDMDL
