MODEL 1
REMARK minimizedAffinity -3.08185625
REMARK minimizedRMSD -1
REMARK  0 active torsions:
REMARK  status: ('A' for Active; 'I' for Inactive)
ROOT
ATOM      1  C   UNL d   1      -0.397  -1.174   0.004  0.00  0.00     0.172 C 
ATOM      2  N   UNL d   1      -0.368   0.255   0.212  0.00  0.00    -0.070 N 
ATOM      3  C1  UNL d   1       0.704   0.973   0.670  0.00  0.00    -0.004 A 
ATOM      4  C2  UNL d   1       0.330   2.298   0.729  0.00  0.00    -0.047 A 
ATOM      5  C3  UNL d   1      -1.014   2.379   0.293  0.00  0.00    -0.047 A 
ATOM      6  C4  UNL d   1      -1.421   1.099  -0.021  0.00  0.00    -0.004 A 
ENDROOT
TORSDOF 0
ENDMDL
