MODEL 1
REMARK minimizedAffinity -3.64650893
REMARK minimizedRMSD -1
REMARK  0 active torsions:
REMARK  status: ('A' for Active; 'I' for Inactive)
ROOT
ATOM      1  C   UNL d   1      -0.894   0.086   1.514  0.00  0.00     0.172 C 
ATOM      2  N   UNL d   1      -0.214   1.190   0.878  0.00  0.00    -0.070 N 
ATOM      3  C1  UNL d   1       0.621   1.098  -0.203  0.00  0.00    -0.004 A 
ATOM      4  C2  UNL d   1       1.064   2.368  -0.504  0.00  0.00    -0.047 A 
ATOM      5  C3  UNL d   1       0.474   3.254   0.428  0.00  0.00    -0.047 A 
ATOM      6  C4  UNL d   1      -0.312   2.499   1.273  0.00  0.00    -0.004 A 
ENDROOT
TORSDOF 0
ENDMDL
