MODEL 1
REMARK minimizedAffinity -0.976797879
REMARK minimizedRMSD -1
REMARK  0 active torsions:
REMARK  status: ('A' for Active; 'I' for Inactive)
ROOT
ATOM      1  C   UNL d   1       2.290   0.159   0.744  0.00  0.00     0.172 C 
ATOM      2  N   UNL d   1       0.923   0.626   0.730  0.00  0.00    -0.070 N 
ATOM      3  C1  UNL d   1       0.510   1.895   1.034  0.00  0.00    -0.004 A 
ATOM      4  C2  UNL d   1      -0.861   1.936   0.902  0.00  0.00    -0.047 A 
ATOM      5  C3  UNL d   1      -1.287   0.646   0.506  0.00  0.00    -0.047 A 
ATOM      6  C4  UNL d   1      -0.162  -0.145   0.407  0.00  0.00    -0.004 A 
ENDROOT
TORSDOF 0
ENDMDL
