MODEL 1
REMARK minimizedAffinity -3.64788485
REMARK minimizedRMSD -1
REMARK  0 active torsions:
REMARK  status: ('A' for Active; 'I' for Inactive)
ROOT
ATOM      1  C   UNL d   1       0.449  -0.529   0.308  0.00  0.00     0.172 C 
ATOM      2  N   UNL d   1       0.037   0.839   0.102  0.00  0.00    -0.070 N 
ATOM      3  C1  UNL d   1       0.337   1.608  -0.991  0.00  0.00    -0.004 A 
ATOM      4  C2  UNL d   1      -0.239   2.846  -0.807  0.00  0.00    -0.047 A 
ATOM      5  C3  UNL d   1      -0.907   2.822   0.440  0.00  0.00    -0.047 A 
ATOM      6  C4  UNL d   1      -0.721   1.567   0.981  0.00  0.00    -0.004 A 
ENDROOT
TORSDOF 0
ENDMDL
