MODEL 1
REMARK minimizedAffinity -3.85131001
REMARK minimizedRMSD -1
REMARK  0 active torsions:
REMARK  status: ('A' for Active; 'I' for Inactive)
ROOT
ATOM      1  C   UNL d   1       0.173  -1.263   0.061  0.00  0.00     0.172 C 
ATOM      2  N   UNL d   1      -0.002   0.167   0.162  0.00  0.00    -0.070 N 
ATOM      3  C1  UNL d   1      -0.892   0.807   0.983  0.00  0.00    -0.004 A 
ATOM      4  C2  UNL d   1      -0.750   2.163   0.784  0.00  0.00    -0.047 A 
ATOM      5  C3  UNL d   1       0.259   2.345  -0.191  0.00  0.00    -0.047 A 
ATOM      6  C4  UNL d   1       0.705   1.093  -0.559  0.00  0.00    -0.004 A 
ENDROOT
TORSDOF 0
ENDMDL
