MODEL 1
REMARK minimizedAffinity -2.30168605
REMARK minimizedRMSD -1
REMARK  0 active torsions:
REMARK  status: ('A' for Active; 'I' for Inactive)
ROOT
ATOM      1  C   UNL d   1      -0.255   2.505   0.630  0.00  0.00     0.172 C 
ATOM      2  N   UNL d   1      -0.044   1.082   0.506  0.00  0.00    -0.070 N 
ATOM      3  C1  UNL d   1      -1.006   0.117   0.644  0.00  0.00    -0.004 A 
ATOM      4  C2  UNL d   1      -0.405  -1.108   0.452  0.00  0.00    -0.047 A 
ATOM      5  C3  UNL d   1       0.965  -0.871   0.191  0.00  0.00    -0.047 A 
ATOM      6  C4  UNL d   1       1.161   0.493   0.230  0.00  0.00    -0.004 A 
ENDROOT
TORSDOF 0
ENDMDL
