MODEL 1
REMARK minimizedAffinity -2.50026441
REMARK minimizedRMSD -1
REMARK  0 active torsions:
REMARK  status: ('A' for Active; 'I' for Inactive)
ROOT
ATOM      1  C   UNL d   1       2.181   0.317   0.861  0.00  0.00     0.172 C 
ATOM      2  N   UNL d   1       0.786   0.651   0.695  0.00  0.00    -0.070 N 
ATOM      3  C1  UNL d   1      -0.181  -0.181   0.198  0.00  0.00    -0.004 A 
ATOM      4  C2  UNL d   1      -1.374   0.508   0.202  0.00  0.00    -0.047 A 
ATOM      5  C3  UNL d   1      -1.115   1.800   0.718  0.00  0.00    -0.047 A 
ATOM      6  C4  UNL d   1       0.230   1.862   1.015  0.00  0.00    -0.004 A 
ENDROOT
TORSDOF 0
ENDMDL
