MODEL 1
REMARK minimizedAffinity -3.0144875
REMARK minimizedRMSD -1
REMARK  0 active torsions:
REMARK  status: ('A' for Active; 'I' for Inactive)
ROOT
ATOM      1  C   UNL d   1       0.978   2.155  -0.865  0.00  0.00     0.172 C 
ATOM      2  N   UNL d   1       0.864   0.845  -0.266  0.00  0.00    -0.070 N 
ATOM      3  C1  UNL d   1      -0.271   0.079  -0.231  0.00  0.00    -0.004 A 
ATOM      4  C2  UNL d   1       0.033  -1.094   0.424  0.00  0.00    -0.047 A 
ATOM      5  C3  UNL d   1       1.397  -1.032   0.796  0.00  0.00    -0.047 A 
ATOM      6  C4  UNL d   1       1.887   0.180   0.356  0.00  0.00    -0.004 A 
ENDROOT
TORSDOF 0
ENDMDL
