MODEL 1
REMARK minimizedAffinity -3.76721358
REMARK minimizedRMSD -1
REMARK  0 active torsions:
REMARK  status: ('A' for Active; 'I' for Inactive)
ROOT
ATOM      1  C   UNL d   1       0.037  -0.737  -0.378  0.00  0.00     0.172 C 
ATOM      2  N   UNL d   1      -0.060   0.675  -0.093  0.00  0.00    -0.070 N 
ATOM      3  C1  UNL d   1       0.726   1.656  -0.636  0.00  0.00    -0.004 A 
ATOM      4  C2  UNL d   1       0.319   2.863  -0.111  0.00  0.00    -0.047 A 
ATOM      5  C3  UNL d   1      -0.749   2.599   0.780  0.00  0.00    -0.047 A 
ATOM      6  C4  UNL d   1      -0.963   1.237   0.772  0.00  0.00    -0.004 A 
ENDROOT
TORSDOF 0
ENDMDL
