MODEL 1
REMARK minimizedAffinity 8.04411602
REMARK minimizedRMSD -1
REMARK  0 active torsions:
REMARK  status: ('A' for Active; 'I' for Inactive)
ROOT
ATOM      1  C   UNL d   1      -0.504  -0.934   3.824  0.00  0.00    -0.002 A 
ATOM      2  C1  UNL d   1       0.604  -0.828   2.994  0.00  0.00     0.010 A 
ATOM      3  C2  UNL d   1       0.454  -0.476   1.651  0.00  0.00     0.041 A 
ATOM      4  C3  UNL d   1      -0.840  -0.229   1.151  0.00  0.00    -0.075 A 
ATOM      5  S   UNL d   1      -1.264   0.217  -0.459  0.00  0.00     0.015 SA
ATOM      6  C4  UNL d   1      -2.926   0.278  -0.084  0.00  0.00     0.022 A 
ATOM      7  C5  UNL d   1      -3.168  -0.031   1.234  0.00  0.00     0.026 A 
ATOM      8  C6  UNL d   1      -1.970  -0.328   1.967  0.00  0.00    -0.082 A 
ATOM      9  C7  UNL d   1      -1.786  -0.687   3.324  0.00  0.00     0.045 A 
ENDROOT
TORSDOF 0
ENDMDL
