MODEL 1
REMARK minimizedAffinity -1.5398308
REMARK minimizedRMSD -1
REMARK  0 active torsions:
REMARK  status: ('A' for Active; 'I' for Inactive)
ROOT
ATOM      1  C   UNL d   1       1.063   2.514   2.309  0.00  0.00    -0.002 A 
ATOM      2  C1  UNL d   1       0.559   2.064   3.521  0.00  0.00     0.010 A 
ATOM      3  C2  UNL d   1      -0.308   0.970   3.567  0.00  0.00     0.041 A 
ATOM      4  C3  UNL d   1      -0.661   0.328   2.364  0.00  0.00    -0.075 A 
ATOM      5  S   UNL d   1      -1.705  -1.031   2.178  0.00  0.00     0.015 SA
ATOM      6  C4  UNL d   1      -1.506  -1.047   0.486  0.00  0.00     0.022 A 
ATOM      7  C5  UNL d   1      -0.666  -0.047   0.056  0.00  0.00     0.026 A 
ATOM      8  C6  UNL d   1      -0.165   0.762   1.131  0.00  0.00    -0.082 A 
ATOM      9  C7  UNL d   1       0.711   1.875   1.117  0.00  0.00     0.045 A 
ENDROOT
TORSDOF 0
ENDMDL
