MODEL 1
REMARK minimizedAffinity 9.90235424
REMARK minimizedRMSD -1
REMARK  0 active torsions:
REMARK  status: ('A' for Active; 'I' for Inactive)
ROOT
ATOM      1  C   UNL d   1       3.292   0.863  -0.656  0.00  0.00    -0.002 A 
ATOM      2  C1  UNL d   1       3.337   1.569   0.538  0.00  0.00     0.010 A 
ATOM      3  C2  UNL d   1       2.319   1.429   1.484  0.00  0.00     0.041 A 
ATOM      4  C3  UNL d   1       1.248   0.557   1.208  0.00  0.00    -0.075 A 
ATOM      5  S   UNL d   1      -0.109   0.226   2.219  0.00  0.00     0.015 SA
ATOM      6  C4  UNL d   1      -0.779  -0.861   1.090  0.00  0.00     0.022 A 
ATOM      7  C5  UNL d   1       0.000  -0.980  -0.037  0.00  0.00     0.026 A 
ATOM      8  C6  UNL d   1       1.181  -0.165   0.013  0.00  0.00    -0.082 A 
ATOM      9  C7  UNL d   1       2.228  -0.000  -0.926  0.00  0.00     0.045 A 
ENDROOT
TORSDOF 0
ENDMDL
