MODEL 1
REMARK minimizedAffinity 1.13408828
REMARK minimizedRMSD -1
REMARK  0 active torsions:
REMARK  status: ('A' for Active; 'I' for Inactive)
ROOT
ATOM      1  C   UNL d   1      -2.215   0.669   1.740  0.00  0.00    -0.002 A 
ATOM      2  C1  UNL d   1      -2.893   0.335   0.577  0.00  0.00     0.010 A 
ATOM      3  C2  UNL d   1      -2.244  -0.349  -0.453  0.00  0.00     0.041 A 
ATOM      4  C3  UNL d   1      -0.888  -0.697  -0.291  0.00  0.00    -0.075 A 
ATOM      5  S   UNL d   1       0.111  -1.536  -1.417  0.00  0.00     0.015 SA
ATOM      6  C4  UNL d   1       1.462  -1.473  -0.379  0.00  0.00     0.022 A 
ATOM      7  C5  UNL d   1       1.175  -0.830   0.802  0.00  0.00     0.026 A 
ATOM      8  C6  UNL d   1      -0.184  -0.372   0.872  0.00  0.00    -0.082 A 
ATOM      9  C7  UNL d   1      -0.870   0.322   1.898  0.00  0.00     0.045 A 
ENDROOT
TORSDOF 0
ENDMDL
