MODEL 1
REMARK minimizedAffinity 1.81544244
REMARK minimizedRMSD -1
REMARK  0 active torsions:
REMARK  status: ('A' for Active; 'I' for Inactive)
ROOT
ATOM      1  C   UNL d   1      -0.507   0.363   4.144  0.00  0.00    -0.002 A 
ATOM      2  C1  UNL d   1       0.574  -0.477   3.920  0.00  0.00     0.010 A 
ATOM      3  C2  UNL d   1       0.799  -1.025   2.656  0.00  0.00     0.041 A 
ATOM      4  C3  UNL d   1      -0.090  -0.709   1.609  0.00  0.00    -0.075 A 
ATOM      5  S   UNL d   1      -0.012  -1.263  -0.022  0.00  0.00     0.015 SA
ATOM      6  C4  UNL d   1      -1.413  -0.396  -0.461  0.00  0.00     0.022 A 
ATOM      7  C5  UNL d   1      -1.939   0.304   0.599  0.00  0.00     0.026 A 
ATOM      8  C6  UNL d   1      -1.185   0.135   1.809  0.00  0.00    -0.082 A 
ATOM      9  C7  UNL d   1      -1.386   0.674   3.103  0.00  0.00     0.045 A 
ENDROOT
TORSDOF 0
ENDMDL
