MODEL 1
REMARK minimizedAffinity 5.3919425
REMARK minimizedRMSD -1
REMARK  0 active torsions:
REMARK  status: ('A' for Active; 'I' for Inactive)
ROOT
ATOM      1  C   UNL d   1      -1.215  -0.886  -1.663  0.00  0.00    -0.002 A 
ATOM      2  C1  UNL d   1       0.027  -0.685  -1.078  0.00  0.00     0.010 A 
ATOM      3  C2  UNL d   1       0.131  -0.369   0.278  0.00  0.00     0.041 A 
ATOM      4  C3  UNL d   1      -1.046  -0.259   1.045  0.00  0.00    -0.075 A 
ATOM      5  S   UNL d   1      -1.162   0.118   2.723  0.00  0.00     0.015 SA
ATOM      6  C4  UNL d   1      -2.863   0.021   2.703  0.00  0.00     0.022 A 
ATOM      7  C5  UNL d   1      -3.348  -0.290   1.455  0.00  0.00     0.026 A 
ATOM      8  C6  UNL d   1      -2.308  -0.457   0.478  0.00  0.00    -0.082 A 
ATOM      9  C7  UNL d   1      -2.380  -0.775  -0.899  0.00  0.00     0.045 A 
ENDROOT
TORSDOF 0
ENDMDL
