MODEL 1
REMARK minimizedAffinity 2.15879345
REMARK minimizedRMSD -1
REMARK  0 active torsions:
REMARK  status: ('A' for Active; 'I' for Inactive)
ROOT
ATOM      1  C   UNL d   1       0.244  -2.058   5.601  0.00  0.00    -0.002 A 
ATOM      2  C1  UNL d   1       0.922  -1.508   4.522  0.00  0.00     0.010 A 
ATOM      3  C2  UNL d   1       0.233  -1.134   3.367  0.00  0.00     0.041 A 
ATOM      4  C3  UNL d   1      -1.162  -1.323   3.313  0.00  0.00    -0.075 A 
ATOM      5  S   UNL d   1      -2.214  -0.939   2.002  0.00  0.00     0.015 SA
ATOM      6  C4  UNL d   1      -3.587  -1.497   2.843  0.00  0.00     0.022 A 
ATOM      7  C5  UNL d   1      -3.270  -1.968   4.095  0.00  0.00     0.026 A 
ATOM      8  C6  UNL d   1      -1.867  -1.875   4.387  0.00  0.00    -0.082 A 
ATOM      9  C7  UNL d   1      -1.140  -2.245   5.544  0.00  0.00     0.045 A 
ENDROOT
TORSDOF 0
ENDMDL
