MODEL 1
REMARK minimizedAffinity 14.6257277
REMARK minimizedRMSD -1
REMARK  0 active torsions:
REMARK  status: ('A' for Active; 'I' for Inactive)
ROOT
ATOM      1  C   UNL d   1       5.003   2.436   5.130  0.00  0.00    -0.002 A 
ATOM      2  C1  UNL d   1       5.895   3.417   4.721  0.00  0.00     0.010 A 
ATOM      3  C2  UNL d   1       5.623   4.202   3.599  0.00  0.00     0.041 A 
ATOM      4  C3  UNL d   1       4.426   3.984   2.889  0.00  0.00    -0.075 A 
ATOM      5  S   UNL d   1       3.882   4.824   1.485  0.00  0.00     0.015 SA
ATOM      6  C4  UNL d   1       2.451   3.902   1.396  0.00  0.00     0.022 A 
ATOM      7  C5  UNL d   1       2.375   2.971   2.405  0.00  0.00     0.026 A 
ATOM      8  C6  UNL d   1       3.511   3.003   3.282  0.00  0.00    -0.082 A 
ATOM      9  C7  UNL d   1       3.817   2.223   4.423  0.00  0.00     0.045 A 
ENDROOT
TORSDOF 0
ENDMDL
