MODEL 1
REMARK minimizedAffinity 0.464740425
REMARK minimizedRMSD -1
REMARK  0 active torsions:
REMARK  status: ('A' for Active; 'I' for Inactive)
ROOT
ATOM      1  C   UNL d   1      -0.451   0.029   3.140  0.00  0.00    -0.002 A 
ATOM      2  C1  UNL d   1       0.750  -0.527   2.724  0.00  0.00     0.010 A 
ATOM      3  C2  UNL d   1       0.858  -1.125   1.466  0.00  0.00     0.041 A 
ATOM      4  C3  UNL d   1      -0.272  -1.152   0.626  0.00  0.00    -0.075 A 
ATOM      5  S   UNL d   1      -0.375  -1.830  -0.956  0.00  0.00     0.015 SA
ATOM      6  C4  UNL d   1      -2.015  -1.395  -1.117  0.00  0.00     0.022 A 
ATOM      7  C5  UNL d   1      -2.489  -0.749  -0.000  0.00  0.00     0.026 A 
ATOM      8  C6  UNL d   1      -1.493  -0.598   1.023  0.00  0.00    -0.082 A 
ATOM      9  C7  UNL d   1      -1.570  -0.000   2.304  0.00  0.00     0.045 A 
ENDROOT
TORSDOF 0
ENDMDL
