MODEL 1
REMARK minimizedAffinity -3.20611548
REMARK minimizedRMSD -1
REMARK  0 active torsions:
REMARK  status: ('A' for Active; 'I' for Inactive)
ROOT
ATOM      1  C   UNL d   1      -0.313   3.062   0.836  0.00  0.00     0.020 A 
ATOM      2  C1  UNL d   1      -1.272   2.052   0.764  0.00  0.00     0.020 A 
ATOM      3  C2  UNL d   1      -0.873   0.716   0.686  0.00  0.00     0.034 A 
ATOM      4  C3  UNL d   1       0.487   0.386   0.679  0.00  0.00     0.017 A 
ATOM      5  C4  UNL d   1       1.448   1.401   0.751  0.00  0.00     0.017 A 
ATOM      6  C5  UNL d   1       1.044   2.737   0.829  0.00  0.00     0.034 A 
ATOM      7 Cl   UNL d   1       3.145   1.072   0.748  0.00  0.00    -0.070 Cl
ATOM      8 Cl1  UNL d   1       0.908  -1.287   0.581  0.00  0.00    -0.070 Cl
ENDROOT
TORSDOF 0
ENDMDL
