MODEL 1
REMARK minimizedAffinity -4.55108595
REMARK minimizedRMSD -1
REMARK  0 active torsions:
REMARK  status: ('A' for Active; 'I' for Inactive)
ROOT
ATOM      1  C   UNL d   1       0.454   3.434   0.252  0.00  0.00     0.020 A 
ATOM      2  C1  UNL d   1       1.639   2.723   0.071  0.00  0.00     0.020 A 
ATOM      3  C2  UNL d   1       1.621   1.327   0.061  0.00  0.00     0.034 A 
ATOM      4  C3  UNL d   1       0.415   0.637   0.232  0.00  0.00     0.017 A 
ATOM      5  C4  UNL d   1      -0.774   1.352   0.414  0.00  0.00     0.017 A 
ATOM      6  C5  UNL d   1      -0.750   2.750   0.423  0.00  0.00     0.034 A 
ATOM      7 Cl   UNL d   1      -2.301   0.572   0.632  0.00  0.00    -0.070 Cl
ATOM      8 Cl1  UNL d   1       0.466  -1.090   0.209  0.00  0.00    -0.070 Cl
ENDROOT
TORSDOF 0
ENDMDL
