MODEL 1
REMARK minimizedAffinity -2.99006009
REMARK minimizedRMSD -1
REMARK  0 active torsions:
REMARK  status: ('A' for Active; 'I' for Inactive)
ROOT
ATOM      1  C   UNL d   1       2.654   1.208   0.997  0.00  0.00     0.020 A 
ATOM      2  C1  UNL d   1       2.174   2.486   1.283  0.00  0.00     0.020 A 
ATOM      3  C2  UNL d   1       0.831   2.793   1.060  0.00  0.00     0.034 A 
ATOM      4  C3  UNL d   1      -0.038   1.822   0.549  0.00  0.00     0.017 A 
ATOM      5  C4  UNL d   1       0.444   0.540   0.263  0.00  0.00     0.017 A 
ATOM      6  C5  UNL d   1       1.790   0.237   0.488  0.00  0.00     0.034 A 
ATOM      7 Cl   UNL d   1      -0.568  -0.711  -0.369  0.00  0.00    -0.070 Cl
ATOM      8 Cl1  UNL d   1      -1.687   2.272   0.298  0.00  0.00    -0.070 Cl
ENDROOT
TORSDOF 0
ENDMDL
