MODEL 1
REMARK minimizedAffinity -3.3026073
REMARK minimizedRMSD -1
REMARK  0 active torsions:
REMARK  status: ('A' for Active; 'I' for Inactive)
ROOT
ATOM      1  C   UNL d   1      -1.940   1.274   0.810  0.00  0.00     0.020 A 
ATOM      2  C1  UNL d   1      -1.160   2.410   0.598  0.00  0.00     0.020 A 
ATOM      3  C2  UNL d   1       0.151   2.280   0.135  0.00  0.00     0.034 A 
ATOM      4  C3  UNL d   1       0.686   1.012  -0.117  0.00  0.00     0.017 A 
ATOM      5  C4  UNL d   1      -0.098  -0.128   0.096  0.00  0.00     0.017 A 
ATOM      6  C5  UNL d   1      -1.410   0.008   0.559  0.00  0.00     0.034 A 
ATOM      7 Cl   UNL d   1       0.493  -1.726  -0.192  0.00  0.00    -0.070 Cl
ATOM      8 Cl1  UNL d   1       2.315   0.926  -0.688  0.00  0.00    -0.070 Cl
ENDROOT
TORSDOF 0
ENDMDL
