MODEL 1
REMARK minimizedAffinity -5.12533998
REMARK minimizedRMSD -1
REMARK  0 active torsions:
REMARK  status: ('A' for Active; 'I' for Inactive)
ROOT
ATOM      1  C   UNL d   1       0.057   2.928   0.618  0.00  0.00     0.020 A 
ATOM      2  C1  UNL d   1       1.097   2.151   0.109  0.00  0.00     0.020 A 
ATOM      3  C2  UNL d   1       0.908   0.783  -0.102  0.00  0.00     0.034 A 
ATOM      4  C3  UNL d   1      -0.323   0.188   0.196  0.00  0.00     0.017 A 
ATOM      5  C4  UNL d   1      -1.366   0.969   0.707  0.00  0.00     0.017 A 
ATOM      6  C5  UNL d   1      -1.172   2.338   0.916  0.00  0.00     0.034 A 
ATOM      7 Cl   UNL d   1      -2.914   0.306   1.098  0.00  0.00    -0.070 Cl
ATOM      8 Cl1  UNL d   1      -0.486  -1.508  -0.090  0.00  0.00    -0.070 Cl
ENDROOT
TORSDOF 0
ENDMDL
