MODEL 1
REMARK minimizedAffinity -4.42889452
REMARK minimizedRMSD -1
REMARK  0 active torsions:
REMARK  status: ('A' for Active; 'I' for Inactive)
ROOT
ATOM      1  C   UNL d   1       0.490   2.600  -0.208  0.00  0.00     0.020 A 
ATOM      2  C1  UNL d   1      -0.547   3.128   0.561  0.00  0.00     0.020 A 
ATOM      3  C2  UNL d   1      -1.455   2.274   1.189  0.00  0.00     0.034 A 
ATOM      4  C3  UNL d   1      -1.328   0.887   1.051  0.00  0.00     0.017 A 
ATOM      5  C4  UNL d   1      -0.287   0.358   0.279  0.00  0.00     0.017 A 
ATOM      6  C5  UNL d   1       0.619   1.218  -0.348  0.00  0.00     0.034 A 
ATOM      7 Cl   UNL d   1      -0.067  -1.343   0.062  0.00  0.00    -0.070 Cl
ATOM      8 Cl1  UNL d   1      -2.487  -0.110   1.856  0.00  0.00    -0.070 Cl
ENDROOT
TORSDOF 0
ENDMDL
