MODEL 1
REMARK minimizedAffinity -0.771301448
REMARK minimizedRMSD -1
REMARK  0 active torsions:
REMARK  status: ('A' for Active; 'I' for Inactive)
ROOT
ATOM      1  C   UNL d   1       0.586  -1.514   0.131  0.00  0.00     0.020 A 
ATOM      2  C1  UNL d   1       1.552  -0.550  -0.157  0.00  0.00     0.020 A 
ATOM      3  C2  UNL d   1       1.254   0.805   0.004  0.00  0.00     0.034 A 
ATOM      4  C3  UNL d   1      -0.011   1.199   0.454  0.00  0.00     0.017 A 
ATOM      5  C4  UNL d   1      -0.979   0.230   0.742  0.00  0.00     0.017 A 
ATOM      6  C5  UNL d   1      -0.676  -1.125   0.579  0.00  0.00     0.034 A 
ATOM      7 Cl   UNL d   1      -2.562   0.640   1.301  0.00  0.00    -0.070 Cl
ATOM      8 Cl1  UNL d   1      -0.310   2.892   0.630  0.00  0.00    -0.070 Cl
ENDROOT
TORSDOF 0
ENDMDL
