MODEL 1
REMARK minimizedAffinity -4.96111012
REMARK minimizedRMSD -1
REMARK  0 active torsions:
REMARK  status: ('A' for Active; 'I' for Inactive)
ROOT
ATOM      1  C   UNL d   1      -0.518   3.393   0.454  0.00  0.00     0.020 A 
ATOM      2  C1  UNL d   1      -1.444   2.361   0.317  0.00  0.00     0.020 A 
ATOM      3  C2  UNL d   1      -1.006   1.038   0.219  0.00  0.00     0.034 A 
ATOM      4  C3  UNL d   1       0.362   0.745   0.257  0.00  0.00     0.017 A 
ATOM      5  C4  UNL d   1       1.291   1.783   0.394  0.00  0.00     0.017 A 
ATOM      6  C5  UNL d   1       0.847   3.105   0.493  0.00  0.00     0.034 A 
ATOM      7 Cl   UNL d   1       2.995   1.499   0.449  0.00  0.00    -0.070 Cl
ATOM      8 Cl1  UNL d   1       0.832  -0.912   0.130  0.00  0.00    -0.070 Cl
ENDROOT
TORSDOF 0
ENDMDL
