MODEL 1
REMARK minimizedAffinity 2.02422523
REMARK minimizedRMSD -1
REMARK  0 active torsions:
REMARK  status: ('A' for Active; 'I' for Inactive)
ROOT
ATOM      1  C   UNL d   1      -1.918   1.387   1.255  0.00  0.00     0.020 A 
ATOM      2  C1  UNL d   1      -1.777   0.092   0.757  0.00  0.00     0.020 A 
ATOM      3  C2  UNL d   1      -0.504  -0.441   0.547  0.00  0.00     0.034 A 
ATOM      4  C3  UNL d   1       0.634   0.322   0.835  0.00  0.00     0.017 A 
ATOM      5  C4  UNL d   1       0.492   1.621   1.335  0.00  0.00     0.017 A 
ATOM      6  C5  UNL d   1      -0.786   2.150   1.543  0.00  0.00     0.034 A 
ATOM      7 Cl   UNL d   1       1.848   2.623   1.714  0.00  0.00    -0.070 Cl
ATOM      8 Cl1  UNL d   1       2.178  -0.400   0.552  0.00  0.00    -0.070 Cl
ENDROOT
TORSDOF 0
ENDMDL
