MODEL 1
REMARK minimizedAffinity -4.97935963
REMARK minimizedRMSD -1
REMARK  0 active torsions:
REMARK  status: ('A' for Active; 'I' for Inactive)
ROOT
ATOM      1  C   UNL d   1       1.554   2.784  -0.071  0.00  0.00     0.020 A 
ATOM      2  C1  UNL d   1       0.400   3.422   0.383  0.00  0.00     0.020 A 
ATOM      3  C2  UNL d   1      -0.754   2.679   0.638  0.00  0.00     0.034 A 
ATOM      4  C3  UNL d   1      -0.757   1.293   0.440  0.00  0.00     0.017 A 
ATOM      5  C4  UNL d   1       0.401   0.654  -0.015  0.00  0.00     0.017 A 
ATOM      6  C5  UNL d   1       1.554   1.403  -0.270  0.00  0.00     0.034 A 
ATOM      7 Cl   UNL d   1       0.474  -1.052  -0.284  0.00  0.00    -0.070 Cl
ATOM      8 Cl1  UNL d   1      -2.220   0.437   0.776  0.00  0.00    -0.070 Cl
ENDROOT
TORSDOF 0
ENDMDL
