MODEL 1
REMARK minimizedAffinity -5.31966639
REMARK minimizedRMSD -1
REMARK  0 active torsions:
REMARK  status: ('A' for Active; 'I' for Inactive)
ROOT
ATOM      1  C   UNL d   1       1.459   2.572   0.273  0.00  0.00     0.020 A 
ATOM      2  C1  UNL d   1       0.314   3.344   0.076  0.00  0.00     0.020 A 
ATOM      3  C2  UNL d   1      -0.949   2.761   0.191  0.00  0.00     0.034 A 
ATOM      4  C3  UNL d   1      -1.072   1.402   0.504  0.00  0.00     0.017 A 
ATOM      5  C4  UNL d   1       0.077   0.628   0.702  0.00  0.00     0.017 A 
ATOM      6  C5  UNL d   1       1.340   1.217   0.585  0.00  0.00     0.034 A 
ATOM      7 Cl   UNL d   1       0.006  -1.055   1.090  0.00  0.00    -0.070 Cl
ATOM      8 Cl1  UNL d   1      -2.666   0.748   0.631  0.00  0.00    -0.070 Cl
ENDROOT
TORSDOF 0
ENDMDL
