MODEL 1
REMARK minimizedAffinity -5.53951359
REMARK minimizedRMSD -1
REMARK  0 active torsions:
REMARK  status: ('A' for Active; 'I' for Inactive)
ROOT
ATOM      1  C   UNL d   1      -0.023   3.354   0.429  0.00  0.00     0.020 A 
ATOM      2  C1  UNL d   1      -1.190   2.591   0.417  0.00  0.00     0.020 A 
ATOM      3  C2  UNL d   1      -1.114   1.201   0.311  0.00  0.00     0.034 A 
ATOM      4  C3  UNL d   1       0.131   0.569   0.217  0.00  0.00     0.017 A 
ATOM      5  C4  UNL d   1       1.302   1.335   0.230  0.00  0.00     0.017 A 
ATOM      6  C5  UNL d   1       1.220   2.727   0.336  0.00  0.00     0.034 A 
ATOM      7 Cl   UNL d   1       2.875   0.627   0.118  0.00  0.00    -0.070 Cl
ATOM      8 Cl1  UNL d   1       0.150  -1.154   0.089  0.00  0.00    -0.070 Cl
ENDROOT
TORSDOF 0
ENDMDL
