MODEL 1
REMARK minimizedAffinity 3.68514371
REMARK minimizedRMSD -1
REMARK  0 active torsions:
REMARK  status: ('A' for Active; 'I' for Inactive)
ROOT
ATOM      1  C   UNL d   1      -2.662   1.857   1.515  0.00  0.00     0.020 A 
ATOM      2  C1  UNL d   1      -1.537   2.527   1.995  0.00  0.00     0.020 A 
ATOM      3  C2  UNL d   1      -0.277   1.931   1.903  0.00  0.00     0.034 A 
ATOM      4  C3  UNL d   1      -0.139   0.661   1.330  0.00  0.00     0.017 A 
ATOM      5  C4  UNL d   1      -1.269  -0.011   0.850  0.00  0.00     0.017 A 
ATOM      6  C5  UNL d   1      -2.528   0.591   0.944  0.00  0.00     0.034 A 
ATOM      7 Cl   UNL d   1      -1.178  -1.580   0.130  0.00  0.00    -0.070 Cl
ATOM      8 Cl1  UNL d   1       1.448  -0.016   1.249  0.00  0.00    -0.070 Cl
ENDROOT
TORSDOF 0
ENDMDL
