MODEL 1
REMARK minimizedAffinity -4.26616955
REMARK minimizedRMSD -1
REMARK  0 active torsions:
REMARK  status: ('A' for Active; 'I' for Inactive)
ROOT
ATOM      1  C   UNL d   1       0.754   3.510   0.626  0.00  0.00     0.020 A 
ATOM      2  C1  UNL d   1       1.630   2.754  -0.152  0.00  0.00     0.020 A 
ATOM      3  C2  UNL d   1       1.342   1.416  -0.427  0.00  0.00     0.034 A 
ATOM      4  C3  UNL d   1       0.174   0.829   0.076  0.00  0.00     0.017 A 
ATOM      5  C4  UNL d   1      -0.705   1.590   0.856  0.00  0.00     0.017 A 
ATOM      6  C5  UNL d   1      -0.411   2.929   1.128  0.00  0.00     0.034 A 
ATOM      7 Cl   UNL d   1      -2.165   0.936   1.510  0.00  0.00    -0.070 Cl
ATOM      8 Cl1  UNL d   1      -0.119  -0.830  -0.304  0.00  0.00    -0.070 Cl
ENDROOT
TORSDOF 0
ENDMDL
