MODEL 1
REMARK minimizedAffinity -2.26194453
REMARK minimizedRMSD -1
REMARK  0 active torsions:
REMARK  status: ('A' for Active; 'I' for Inactive)
ROOT
ATOM      1  C   UNL d   1      -2.143   0.677  -0.206  0.00  0.00     0.020 A 
ATOM      2  C1  UNL d   1      -1.061   1.303   0.410  0.00  0.00     0.020 A 
ATOM      3  C2  UNL d   1       0.120   0.594   0.639  0.00  0.00     0.034 A 
ATOM      4  C3  UNL d   1       0.221  -0.747   0.251  0.00  0.00     0.017 A 
ATOM      5  C4  UNL d   1      -0.865  -1.376  -0.368  0.00  0.00     0.017 A 
ATOM      6  C5  UNL d   1      -2.045  -0.660  -0.595  0.00  0.00     0.034 A 
ATOM      7 Cl   UNL d   1      -0.815  -3.027  -0.875  0.00  0.00    -0.070 Cl
ATOM      8 Cl1  UNL d   1       1.711  -1.564   0.565  0.00  0.00    -0.070 Cl
ENDROOT
TORSDOF 0
ENDMDL
