MODEL 1
REMARK minimizedAffinity -4.55078936
REMARK minimizedRMSD -1
REMARK  0 active torsions:
REMARK  status: ('A' for Active; 'I' for Inactive)
ROOT
ATOM      1  C   UNL d   1       0.010  -1.054   1.058  0.00  0.00     0.020 A 
ATOM      2  C1  UNL d   1      -1.036  -0.168   0.805  0.00  0.00     0.020 A 
ATOM      3  C2  UNL d   1      -0.763   1.119   0.337  0.00  0.00     0.034 A 
ATOM      4  C3  UNL d   1       0.560   1.523   0.120  0.00  0.00     0.017 A 
ATOM      5  C4  UNL d   1       1.609   0.633   0.374  0.00  0.00     0.017 A 
ATOM      6  C5  UNL d   1       1.330  -0.655   0.843  0.00  0.00     0.034 A 
ATOM      7 Cl   UNL d   1       3.266   1.059   0.131  0.00  0.00    -0.070 Cl
ATOM      8 Cl1  UNL d   1       0.824   3.129  -0.460  0.00  0.00    -0.070 Cl
ENDROOT
TORSDOF 0
ENDMDL
