MODEL 1
REMARK minimizedAffinity -4.0427947
REMARK minimizedRMSD -1
REMARK  0 active torsions:
REMARK  status: ('A' for Active; 'I' for Inactive)
ROOT
ATOM      1  C   UNL d   1      -1.896   0.860  -0.262  0.00  0.00     0.020 A 
ATOM      2  C1  UNL d   1      -1.099  -0.278  -0.375  0.00  0.00     0.020 A 
ATOM      3  C2  UNL d   1       0.291  -0.169  -0.298  0.00  0.00     0.034 A 
ATOM      4  C3  UNL d   1       0.888   1.083  -0.108  0.00  0.00     0.017 A 
ATOM      5  C4  UNL d   1       0.088   2.225   0.006  0.00  0.00     0.017 A 
ATOM      6  C5  UNL d   1      -1.303   2.109  -0.072  0.00  0.00     0.034 A 
ATOM      7 Cl   UNL d   1       0.753   3.803   0.242  0.00  0.00    -0.070 Cl
ATOM      8 Cl1  UNL d   1       2.613   1.144  -0.022  0.00  0.00    -0.070 Cl
ENDROOT
TORSDOF 0
ENDMDL
