MODEL 1
REMARK minimizedAffinity -0.0647330806
REMARK minimizedRMSD -1
REMARK  0 active torsions:
REMARK  status: ('A' for Active; 'I' for Inactive)
ROOT
ATOM      1  C   UNL d   1       0.019  -0.016   2.430  0.00  0.00    -0.002 A 
ATOM      2  C1  UNL d   1      -1.311  -0.016   2.034  0.00  0.00     0.010 A 
ATOM      3  C2  UNL d   1      -1.649  -0.043   0.680  0.00  0.00     0.041 A 
ATOM      4  C3  UNL d   1      -0.618  -0.072  -0.280  0.00  0.00    -0.075 A 
ATOM      5  S   UNL d   1      -0.795  -0.109  -1.995  0.00  0.00     0.015 SA
ATOM      6  C4  UNL d   1       0.892  -0.126  -2.242  0.00  0.00     0.022 A 
ATOM      7  C5  UNL d   1       1.587  -0.104  -1.057  0.00  0.00     0.026 A 
ATOM      8  C6  UNL d   1       0.729  -0.073   0.094  0.00  0.00    -0.082 A 
ATOM      9  C7  UNL d   1       1.039  -0.045   1.475  0.00  0.00     0.045 A 
ENDROOT
TORSDOF 0
ENDMDL
