MODEL 1
REMARK minimizedAffinity -3.60415435
REMARK minimizedRMSD -1
REMARK  0 active torsions:
REMARK  status: ('A' for Active; 'I' for Inactive)
ROOT
ATOM      1  C   UNL d   1      -1.926  -0.359   3.261  0.00  0.00    -0.002 A 
ATOM      2  C1  UNL d   1      -2.846  -0.103   2.255  0.00  0.00     0.010 A 
ATOM      3  C2  UNL d   1      -2.425   0.372   1.011  0.00  0.00     0.041 A 
ATOM      4  C3  UNL d   1      -1.049   0.585   0.793  0.00  0.00    -0.075 A 
ATOM      5  S   UNL d   1      -0.302   1.160  -0.650  0.00  0.00     0.015 SA
ATOM      6  C4  UNL d   1       1.256   1.079   0.035  0.00  0.00     0.022 A 
ATOM      7  C5  UNL d   1       1.226   0.626   1.333  0.00  0.00     0.026 A 
ATOM      8  C6  UNL d   1      -0.103   0.333   1.791  0.00  0.00    -0.082 A 
ATOM      9  C7  UNL d   1      -0.562  -0.147   3.041  0.00  0.00     0.045 A 
ENDROOT
TORSDOF 0
ENDMDL
