MODEL 1
REMARK minimizedAffinity -0.723324001
REMARK minimizedRMSD -1
REMARK  0 active torsions:
REMARK  status: ('A' for Active; 'I' for Inactive)
ROOT
ATOM      1  C   UNL d   1       0.531  -0.263   2.407  0.00  0.00    -0.002 A 
ATOM      2  C1  UNL d   1      -0.761   0.240   2.340  0.00  0.00     0.010 A 
ATOM      3  C2  UNL d   1      -1.312   0.622   1.116  0.00  0.00     0.041 A 
ATOM      4  C3  UNL d   1      -0.536   0.488  -0.053  0.00  0.00    -0.075 A 
ATOM      5  S   UNL d   1      -1.003   0.891  -1.663  0.00  0.00     0.015 SA
ATOM      6  C4  UNL d   1       0.501   0.404  -2.300  0.00  0.00     0.022 A 
ATOM      7  C5  UNL d   1       1.350  -0.057  -1.323  0.00  0.00     0.026 A 
ATOM      8  C6  UNL d   1       0.767  -0.017  -0.011  0.00  0.00    -0.082 A 
ATOM      9  C7  UNL d   1       1.297  -0.395   1.246  0.00  0.00     0.045 A 
ENDROOT
TORSDOF 0
ENDMDL
