MODEL 1
REMARK minimizedAffinity -4.90046978
REMARK minimizedRMSD -1
REMARK  0 active torsions:
REMARK  status: ('A' for Active; 'I' for Inactive)
ROOT
ATOM      1  C   UNL d   1      -2.624  -0.032   2.978  0.00  0.00    -0.002 A 
ATOM      2  C1  UNL d   1      -3.181   0.140   1.719  0.00  0.00     0.010 A 
ATOM      3  C2  UNL d   1      -2.366   0.351   0.605  0.00  0.00     0.041 A 
ATOM      4  C3  UNL d   1      -0.968   0.384   0.779  0.00  0.00    -0.075 A 
ATOM      5  S   UNL d   1       0.226   0.628  -0.440  0.00  0.00     0.015 SA
ATOM      6  C4  UNL d   1       1.503   0.509   0.682  0.00  0.00     0.022 A 
ATOM      7  C5  UNL d   1       1.048   0.289   1.961  0.00  0.00     0.026 A 
ATOM      8  C6  UNL d   1      -0.384   0.213   2.038  0.00  0.00    -0.082 A 
ATOM      9  C7  UNL d   1      -1.237   0.002   3.147  0.00  0.00     0.045 A 
ENDROOT
TORSDOF 0
ENDMDL
