MODEL 1
REMARK minimizedAffinity -3.21180725
REMARK minimizedRMSD -1
REMARK  0 active torsions:
REMARK  status: ('A' for Active; 'I' for Inactive)
ROOT
ATOM      1  C   UNL d   1      -2.415  -0.717   2.475  0.00  0.00    -0.002 A 
ATOM      2  C1  UNL d   1      -1.300  -0.548   3.283  0.00  0.00     0.010 A 
ATOM      3  C2  UNL d   1      -0.080  -0.147   2.736  0.00  0.00     0.041 A 
ATOM      4  C3  UNL d   1       0.002   0.085   1.349  0.00  0.00    -0.075 A 
ATOM      5  S   UNL d   1       1.391   0.583   0.458  0.00  0.00     0.015 SA
ATOM      6  C4  UNL d   1       0.537   0.584  -1.017  0.00  0.00     0.022 A 
ATOM      7  C5  UNL d   1      -0.777   0.215  -0.853  0.00  0.00     0.026 A 
ATOM      8  C6  UNL d   1      -1.107  -0.078   0.514  0.00  0.00    -0.082 A 
ATOM      9  C7  UNL d   1      -2.330  -0.486   1.099  0.00  0.00     0.045 A 
ENDROOT
TORSDOF 0
ENDMDL
