MODEL 1
REMARK minimizedAffinity 0.774343491
REMARK minimizedRMSD -1
REMARK  0 active torsions:
REMARK  status: ('A' for Active; 'I' for Inactive)
ROOT
ATOM      1  C   UNL d   1      -0.548   0.509   0.787  0.00  0.00    -0.002 A 
ATOM      2  C1  UNL d   1       0.801   0.305   1.040  0.00  0.00     0.010 A 
ATOM      3  C2  UNL d   1       1.658  -0.125   0.024  0.00  0.00     0.041 A 
ATOM      4  C3  UNL d   1       1.130  -0.345  -1.264  0.00  0.00    -0.075 A 
ATOM      5  S   UNL d   1       1.990  -0.871  -2.663  0.00  0.00     0.015 SA
ATOM      6  C4  UNL d   1       0.587  -0.836  -3.630  0.00  0.00     0.022 A 
ATOM      7  C5  UNL d   1      -0.520  -0.435  -2.919  0.00  0.00     0.026 A 
ATOM      8  C6  UNL d   1      -0.224  -0.145  -1.544  0.00  0.00    -0.082 A 
ATOM      9  C7  UNL d   1      -1.067   0.290  -0.492  0.00  0.00     0.045 A 
ENDROOT
TORSDOF 0
ENDMDL
