MODEL 1
REMARK minimizedAffinity -2.23224902
REMARK minimizedRMSD -1
REMARK  0 active torsions:
REMARK  status: ('A' for Active; 'I' for Inactive)
ROOT
ATOM      1  C   UNL d   1      -2.148   1.138  -1.577  0.00  0.00    -0.002 A 
ATOM      2  C1  UNL d   1      -2.982   0.654  -0.579  0.00  0.00     0.010 A 
ATOM      3  C2  UNL d   1      -2.450   0.036   0.554  0.00  0.00     0.041 A 
ATOM      4  C3  UNL d   1      -1.052  -0.088   0.669  0.00  0.00    -0.075 A 
ATOM      5  S   UNL d   1      -0.175  -0.807   1.968  0.00  0.00     0.015 SA
ATOM      6  C4  UNL d   1       1.327  -0.489   1.230  0.00  0.00     0.022 A 
ATOM      7  C5  UNL d   1       1.183   0.150   0.021  0.00  0.00     0.026 A 
ATOM      8  C6  UNL d   1      -0.191   0.393  -0.322  0.00  0.00    -0.082 A 
ATOM      9  C7  UNL d   1      -0.761   1.014  -1.459  0.00  0.00     0.045 A 
ENDROOT
TORSDOF 0
ENDMDL
