MODEL 1
REMARK minimizedAffinity -0.878368437
REMARK minimizedRMSD -1
REMARK  0 active torsions:
REMARK  status: ('A' for Active; 'I' for Inactive)
ROOT
ATOM      1  C   UNL d   1      -0.818  -0.405   3.360  0.00  0.00    -0.002 A 
ATOM      2  C1  UNL d   1      -1.789  -0.848   2.472  0.00  0.00     0.010 A 
ATOM      3  C2  UNL d   1      -1.532  -0.890   1.101  0.00  0.00     0.041 A 
ATOM      4  C3  UNL d   1      -0.270  -0.475   0.631  0.00  0.00    -0.075 A 
ATOM      5  S   UNL d   1       0.270  -0.441  -1.006  0.00  0.00     0.015 SA
ATOM      6  C4  UNL d   1       1.802   0.163  -0.566  0.00  0.00     0.022 A 
ATOM      7  C5  UNL d   1       1.916   0.340   0.792  0.00  0.00     0.026 A 
ATOM      8  C6  UNL d   1       0.724  -0.026   1.505  0.00  0.00    -0.082 A 
ATOM      9  C7  UNL d   1       0.432   0.005   2.890  0.00  0.00     0.045 A 
ENDROOT
TORSDOF 0
ENDMDL
