MODEL 1
REMARK minimizedAffinity -3.72699261
REMARK minimizedRMSD -1
REMARK  0 active torsions:
REMARK  status: ('A' for Active; 'I' for Inactive)
ROOT
ATOM      1  C   UNL d   1      -1.887  -0.625   2.209  0.00  0.00    -0.002 A 
ATOM      2  C1  UNL d   1      -0.754  -0.639   3.011  0.00  0.00     0.010 A 
ATOM      3  C2  UNL d   1       0.508  -0.409   2.460  0.00  0.00     0.041 A 
ATOM      4  C3  UNL d   1       0.613  -0.161   1.077  0.00  0.00    -0.075 A 
ATOM      5  S   UNL d   1       2.055   0.147   0.183  0.00  0.00     0.015 SA
ATOM      6  C4  UNL d   1       1.201   0.306  -1.283  0.00  0.00     0.022 A 
ATOM      7  C5  UNL d   1      -0.152   0.130  -1.113  0.00  0.00     0.026 A 
ATOM      8  C6  UNL d   1      -0.513  -0.141   0.250  0.00  0.00    -0.082 A 
ATOM      9  C7  UNL d   1      -1.779  -0.378   0.838  0.00  0.00     0.045 A 
ENDROOT
TORSDOF 0
ENDMDL
