MODEL 1
REMARK minimizedAffinity -5.75520515
REMARK minimizedRMSD -1
REMARK  0 active torsions:
REMARK  status: ('A' for Active; 'I' for Inactive)
ROOT
ATOM      1  C   UNL d   1      -2.763   0.313   2.503  0.00  0.00    -0.002 A 
ATOM      2  C1  UNL d   1      -1.734  -0.017   3.373  0.00  0.00     0.010 A 
ATOM      3  C2  UNL d   1      -0.422  -0.131   2.909  0.00  0.00     0.041 A 
ATOM      4  C3  UNL d   1      -0.159   0.094   1.543  0.00  0.00    -0.075 A 
ATOM      5  S   UNL d   1       1.370   0.011   0.751  0.00  0.00     0.015 SA
ATOM      6  C4  UNL d   1       0.692   0.411  -0.761  0.00  0.00     0.022 A 
ATOM      7  C5  UNL d   1      -0.667   0.607  -0.681  0.00  0.00     0.026 A 
ATOM      8  C6  UNL d   1      -1.180   0.428   0.648  0.00  0.00    -0.082 A 
ATOM      9  C7  UNL d   1      -2.499   0.536   1.149  0.00  0.00     0.045 A 
ENDROOT
TORSDOF 0
ENDMDL
