MODEL 1
REMARK minimizedAffinity -4.88115215
REMARK minimizedRMSD -1
REMARK  0 active torsions:
REMARK  status: ('A' for Active; 'I' for Inactive)
ROOT
ATOM      1  C   UNL d   1      -1.320  -0.315   3.159  0.00  0.00    -0.002 A 
ATOM      2  C1  UNL d   1      -2.407  -0.045   2.340  0.00  0.00     0.010 A 
ATOM      3  C2  UNL d   1      -2.253   0.020   0.954  0.00  0.00     0.041 A 
ATOM      4  C3  UNL d   1      -0.975  -0.194   0.399  0.00  0.00    -0.075 A 
ATOM      5  S   UNL d   1      -0.549  -0.164  -1.271  0.00  0.00     0.015 SA
ATOM      6  C4  UNL d   1       1.086  -0.510  -0.936  0.00  0.00     0.022 A 
ATOM      7  C5  UNL d   1       1.319  -0.648   0.412  0.00  0.00     0.026 A 
ATOM      8  C6  UNL d   1       0.134  -0.469   1.204  0.00  0.00    -0.082 A 
ATOM      9  C7  UNL d   1      -0.054  -0.527   2.606  0.00  0.00     0.045 A 
ENDROOT
TORSDOF 0
ENDMDL
