MODEL 1
REMARK minimizedAffinity 1.50483537
REMARK minimizedRMSD -1
REMARK  0 active torsions:
REMARK  status: ('A' for Active; 'I' for Inactive)
ROOT
ATOM      1  C   UNL d   1      -0.387  -0.071  -1.907  0.00  0.00    -0.002 A 
ATOM      2  C1  UNL d   1      -1.645   0.154  -1.367  0.00  0.00     0.010 A 
ATOM      3  C2  UNL d   1      -1.801   0.372   0.003  0.00  0.00     0.041 A 
ATOM      4  C3  UNL d   1      -0.660   0.361   0.829  0.00  0.00    -0.075 A 
ATOM      5  S   UNL d   1      -0.609   0.604   2.535  0.00  0.00     0.015 SA
ATOM      6  C4  UNL d   1       1.084   0.415   2.587  0.00  0.00     0.022 A 
ATOM      7  C5  UNL d   1       1.614   0.172   1.342  0.00  0.00     0.026 A 
ATOM      8  C6  UNL d   1       0.618   0.137   0.308  0.00  0.00    -0.082 A 
ATOM      9  C7  UNL d   1       0.743  -0.081  -1.085  0.00  0.00     0.045 A 
ENDROOT
TORSDOF 0
ENDMDL
