MODEL 1
REMARK minimizedAffinity -3.39015341
REMARK minimizedRMSD -1
REMARK  0 active torsions:
REMARK  status: ('A' for Active; 'I' for Inactive)
ROOT
ATOM      1  C   UNL d   1      -0.701   0.092   0.488  0.00  0.00     0.078 C 
ATOM      2  C1  UNL d   1       0.532  -0.246  -0.296  0.00  0.00    -0.077 A 
ATOM      3  C2  UNL d   1       1.368   0.761  -0.793  0.00  0.00    -0.001 A 
ATOM      4  C3  UNL d   1       2.507   0.433  -1.530  0.00  0.00     0.003 A 
ATOM      5  C4  UNL d   1       2.819  -0.903  -1.778  0.00  0.00    -0.005 A 
ATOM      6  C5  UNL d   1       1.991  -1.911  -1.290  0.00  0.00     0.003 A 
ATOM      7  C6  UNL d   1       0.852  -1.585  -0.553  0.00  0.00    -0.001 A 
ENDROOT
TORSDOF 0
ENDMDL
