MODEL 1
REMARK minimizedAffinity -1.38534105
REMARK minimizedRMSD -1
REMARK  0 active torsions:
REMARK  status: ('A' for Active; 'I' for Inactive)
ROOT
ATOM      1  C   UNL d   1      -0.708  -2.596  -0.783  0.00  0.00     0.078 C 
ATOM      2  C1  UNL d   1       0.405  -1.600  -0.644  0.00  0.00    -0.077 A 
ATOM      3  C2  UNL d   1       1.591  -1.738  -1.375  0.00  0.00    -0.001 A 
ATOM      4  C3  UNL d   1       2.623  -0.809  -1.228  0.00  0.00     0.003 A 
ATOM      5  C4  UNL d   1       2.479   0.263  -0.350  0.00  0.00    -0.005 A 
ATOM      6  C5  UNL d   1       1.303   0.407   0.383  0.00  0.00     0.003 A 
ATOM      7  C6  UNL d   1       0.270  -0.520   0.237  0.00  0.00    -0.001 A 
ENDROOT
TORSDOF 0
ENDMDL
