MODEL 1
REMARK minimizedAffinity -4.72469807
REMARK minimizedRMSD -1
REMARK  0 active torsions:
REMARK  status: ('A' for Active; 'I' for Inactive)
ROOT
ATOM      1  C   UNL d   1       3.377  -0.630  -1.182  0.00  0.00     0.078 C 
ATOM      2  C1  UNL d   1       1.952  -0.417  -0.765  0.00  0.00    -0.077 A 
ATOM      3  C2  UNL d   1       1.166  -1.483  -0.313  0.00  0.00    -0.001 A 
ATOM      4  C3  UNL d   1      -0.162  -1.272   0.063  0.00  0.00     0.003 A 
ATOM      5  C4  UNL d   1      -0.715   0.005  -0.012  0.00  0.00    -0.005 A 
ATOM      6  C5  UNL d   1       0.059   1.072  -0.463  0.00  0.00     0.003 A 
ATOM      7  C6  UNL d   1       1.387   0.863  -0.839  0.00  0.00    -0.001 A 
ENDROOT
TORSDOF 0
ENDMDL
