MODEL 1
REMARK minimizedAffinity -4.23037386
REMARK minimizedRMSD -1
REMARK  0 active torsions:
REMARK  status: ('A' for Active; 'I' for Inactive)
ROOT
ATOM      1  C   UNL d   1       0.858   1.965  -2.166  0.00  0.00     0.078 C 
ATOM      2  C1  UNL d   1       0.562   0.712  -1.396  0.00  0.00    -0.077 A 
ATOM      3  C2  UNL d   1      -0.608   0.593  -0.636  0.00  0.00    -0.001 A 
ATOM      4  C3  UNL d   1      -0.866  -0.575   0.084  0.00  0.00     0.003 A 
ATOM      5  C4  UNL d   1       0.042  -1.632   0.052  0.00  0.00    -0.005 A 
ATOM      6  C5  UNL d   1       1.210  -1.521  -0.700  0.00  0.00     0.003 A 
ATOM      7  C6  UNL d   1       1.469  -0.354  -1.420  0.00  0.00    -0.001 A 
ENDROOT
TORSDOF 0
ENDMDL
