MODEL 1
REMARK minimizedAffinity -5.17532063
REMARK minimizedRMSD -1
REMARK  0 active torsions:
REMARK  status: ('A' for Active; 'I' for Inactive)
ROOT
ATOM      1  C   UNL d   1       2.979  -0.358  -0.956  0.00  0.00     0.078 C 
ATOM      2  C1  UNL d   1       1.546   0.084  -0.927  0.00  0.00    -0.077 A 
ATOM      3  C2  UNL d   1       0.546  -0.742  -0.399  0.00  0.00    -0.001 A 
ATOM      4  C3  UNL d   1      -0.784  -0.322  -0.388  0.00  0.00     0.003 A 
ATOM      5  C4  UNL d   1      -1.128   0.926  -0.905  0.00  0.00    -0.005 A 
ATOM      6  C5  UNL d   1      -0.141   1.754  -1.434  0.00  0.00     0.003 A 
ATOM      7  C6  UNL d   1       1.191   1.336  -1.446  0.00  0.00    -0.001 A 
ENDROOT
TORSDOF 0
ENDMDL
