MODEL 1
REMARK minimizedAffinity -4.49498606
REMARK minimizedRMSD -1
REMARK  0 active torsions:
REMARK  status: ('A' for Active; 'I' for Inactive)
ROOT
ATOM      1  C   UNL d   1      -1.020   0.397   0.854  0.00  0.00     0.078 C 
ATOM      2  C1  UNL d   1       0.150  -0.045   0.026  0.00  0.00    -0.077 A 
ATOM      3  C2  UNL d   1       0.273  -1.374  -0.397  0.00  0.00    -0.001 A 
ATOM      4  C3  UNL d   1       1.372  -1.774  -1.158  0.00  0.00     0.003 A 
ATOM      5  C4  UNL d   1       2.358  -0.851  -1.502  0.00  0.00    -0.005 A 
ATOM      6  C5  UNL d   1       2.246   0.473  -1.083  0.00  0.00     0.003 A 
ATOM      7  C6  UNL d   1       1.147   0.875  -0.322  0.00  0.00    -0.001 A 
ENDROOT
TORSDOF 0
ENDMDL
