MODEL 1
REMARK minimizedAffinity -3.7834444
REMARK minimizedRMSD -1
REMARK  0 active torsions:
REMARK  status: ('A' for Active; 'I' for Inactive)
ROOT
ATOM      1  C   UNL d   1      -1.118   0.384   0.955  0.00  0.00     0.078 C 
ATOM      2  C1  UNL d   1      -0.052  -0.091   0.014  0.00  0.00    -0.077 A 
ATOM      3  C2  UNL d   1       0.314   0.668  -1.104  0.00  0.00    -0.001 A 
ATOM      4  C3  UNL d   1       1.301   0.209  -1.977  0.00  0.00     0.003 A 
ATOM      5  C4  UNL d   1       1.930  -1.013  -1.742  0.00  0.00    -0.005 A 
ATOM      6  C5  UNL d   1       1.571  -1.776  -0.634  0.00  0.00     0.003 A 
ATOM      7  C6  UNL d   1       0.583  -1.319   0.240  0.00  0.00    -0.001 A 
ENDROOT
TORSDOF 0
ENDMDL
