MODEL 1
REMARK minimizedAffinity -4.73452663
REMARK minimizedRMSD -1
REMARK  0 active torsions:
REMARK  status: ('A' for Active; 'I' for Inactive)
ROOT
ATOM      1  C   UNL d   1      -0.579  -0.367  -0.003  0.00  0.00     0.078 C 
ATOM      2  C1  UNL d   1       0.696  -0.159  -0.764  0.00  0.00    -0.077 A 
ATOM      3  C2  UNL d   1       0.784   0.805  -1.775  0.00  0.00    -0.001 A 
ATOM      4  C3  UNL d   1       1.975   0.981  -2.481  0.00  0.00     0.003 A 
ATOM      5  C4  UNL d   1       3.087   0.195  -2.184  0.00  0.00    -0.005 A 
ATOM      6  C5  UNL d   1       3.009  -0.768  -1.181  0.00  0.00     0.003 A 
ATOM      7  C6  UNL d   1       1.818  -0.946  -0.474  0.00  0.00    -0.001 A 
ENDROOT
TORSDOF 0
ENDMDL
