MODEL 1
REMARK minimizedAffinity -3.28293777
REMARK minimizedRMSD -1
REMARK  0 active torsions:
REMARK  status: ('A' for Active; 'I' for Inactive)
ROOT
ATOM      1  C   UNL d   1      -2.664   1.388   2.429  0.00  0.00     0.078 C 
ATOM      2  C1  UNL d   1      -2.393   0.096   1.717  0.00  0.00    -0.077 A 
ATOM      3  C2  UNL d   1      -1.394   0.007   0.740  0.00  0.00    -0.001 A 
ATOM      4  C3  UNL d   1      -1.159  -1.199   0.078  0.00  0.00     0.003 A 
ATOM      5  C4  UNL d   1      -1.921  -2.325   0.385  0.00  0.00    -0.005 A 
ATOM      6  C5  UNL d   1      -2.919  -2.246   1.354  0.00  0.00     0.003 A 
ATOM      7  C6  UNL d   1      -3.155  -1.040   2.017  0.00  0.00    -0.001 A 
ENDROOT
TORSDOF 0
ENDMDL
