MODEL 1
REMARK minimizedAffinity -4.62601852
REMARK minimizedRMSD -1
REMARK  0 active torsions:
REMARK  status: ('A' for Active; 'I' for Inactive)
ROOT
ATOM      1  C   UNL d   1       3.007  -0.423  -0.999  0.00  0.00     0.078 C 
ATOM      2  C1  UNL d   1       1.535  -0.274  -0.754  0.00  0.00    -0.077 A 
ATOM      3  C2  UNL d   1       0.845   0.866  -1.184  0.00  0.00    -0.001 A 
ATOM      4  C3  UNL d   1      -0.524   0.995  -0.941  0.00  0.00     0.003 A 
ATOM      5  C4  UNL d   1      -1.213  -0.011  -0.267  0.00  0.00    -0.005 A 
ATOM      6  C5  UNL d   1      -0.533  -1.147   0.167  0.00  0.00     0.003 A 
ATOM      7  C6  UNL d   1       0.835  -1.279  -0.075  0.00  0.00    -0.001 A 
ENDROOT
TORSDOF 0
ENDMDL
