MODEL 1
REMARK minimizedAffinity -3.6025598
REMARK minimizedRMSD -1
REMARK  0 active torsions:
REMARK  status: ('A' for Active; 'I' for Inactive)
ROOT
ATOM      1  C   UNL d   1      -0.187   1.816  -1.677  0.00  0.00     0.078 C 
ATOM      2  C1  UNL d   1       0.274   0.505  -1.114  0.00  0.00    -0.077 A 
ATOM      3  C2  UNL d   1       1.230  -0.270  -1.782  0.00  0.00    -0.001 A 
ATOM      4  C3  UNL d   1       1.643  -1.493  -1.251  0.00  0.00     0.003 A 
ATOM      5  C4  UNL d   1       1.103  -1.953  -0.051  0.00  0.00    -0.005 A 
ATOM      6  C5  UNL d   1       0.149  -1.190   0.619  0.00  0.00     0.003 A 
ATOM      7  C6  UNL d   1      -0.264   0.034   0.090  0.00  0.00    -0.001 A 
ENDROOT
TORSDOF 0
ENDMDL
