MODEL 1
REMARK minimizedAffinity -4.64534473
REMARK minimizedRMSD -1
REMARK  0 active torsions:
REMARK  status: ('A' for Active; 'I' for Inactive)
ROOT
ATOM      1  C   UNL d   1      -1.252   0.009   0.491  0.00  0.00     0.078 C 
ATOM      2  C1  UNL d   1       0.033  -0.109  -0.272  0.00  0.00    -0.077 A 
ATOM      3  C2  UNL d   1       0.594   1.000  -0.918  0.00  0.00    -0.001 A 
ATOM      4  C3  UNL d   1       1.785   0.872  -1.633  0.00  0.00     0.003 A 
ATOM      5  C4  UNL d   1       2.426  -0.363  -1.710  0.00  0.00    -0.005 A 
ATOM      6  C5  UNL d   1       1.875  -1.472  -1.073  0.00  0.00     0.003 A 
ATOM      7  C6  UNL d   1       0.683  -1.347  -0.357  0.00  0.00    -0.001 A 
ENDROOT
TORSDOF 0
ENDMDL
