MODEL 1
REMARK minimizedAffinity -5.0873785
REMARK minimizedRMSD -1
REMARK  0 active torsions:
REMARK  status: ('A' for Active; 'I' for Inactive)
ROOT
ATOM      1  C   UNL d   1      -0.214  -2.394  -0.029  0.00  0.00     0.078 C 
ATOM      2  C1  UNL d   1       0.461  -1.082  -0.295  0.00  0.00    -0.077 A 
ATOM      3  C2  UNL d   1       1.820  -1.025  -0.630  0.00  0.00    -0.001 A 
ATOM      4  C3  UNL d   1       2.438   0.204  -0.866  0.00  0.00     0.003 A 
ATOM      5  C4  UNL d   1       1.706   1.385  -0.768  0.00  0.00    -0.005 A 
ATOM      6  C5  UNL d   1       0.354   1.339  -0.434  0.00  0.00     0.003 A 
ATOM      7  C6  UNL d   1      -0.266   0.111  -0.198  0.00  0.00    -0.001 A 
ENDROOT
TORSDOF 0
ENDMDL
