MODEL 1
REMARK minimizedAffinity -4.54483557
REMARK minimizedRMSD -1
REMARK  0 active torsions:
REMARK  status: ('A' for Active; 'I' for Inactive)
ROOT
ATOM      1  C   UNL d   1       1.158  -1.520  -0.754  0.00  0.00     0.078 C 
ATOM      2  C1  UNL d   1       0.241  -0.572  -0.041  0.00  0.00    -0.077 A 
ATOM      3  C2  UNL d   1      -0.176   0.621  -0.645  0.00  0.00    -0.001 A 
ATOM      4  C3  UNL d   1      -1.022   1.498   0.035  0.00  0.00     0.003 A 
ATOM      5  C4  UNL d   1      -1.458   1.193   1.323  0.00  0.00    -0.005 A 
ATOM      6  C5  UNL d   1      -1.047   0.010   1.933  0.00  0.00     0.003 A 
ATOM      7  C6  UNL d   1      -0.201  -0.869   1.255  0.00  0.00    -0.001 A 
ENDROOT
TORSDOF 0
ENDMDL
