MODEL 1
REMARK minimizedAffinity 6.99316454
REMARK minimizedRMSD -1
REMARK  0 active torsions:
REMARK  status: ('A' for Active; 'I' for Inactive)
ROOT
ATOM      1  C   UNL d   1      -3.735  -2.427   4.592  0.00  0.00     0.172 C 
ATOM      2  N   UNL d   1      -3.647  -1.009   4.338  0.00  0.00    -0.070 N 
ATOM      3  C1  UNL d   1      -3.827  -0.402   3.124  0.00  0.00    -0.004 A 
ATOM      4  C2  UNL d   1      -3.660   0.954   3.301  0.00  0.00    -0.047 A 
ATOM      5  C3  UNL d   1      -3.370   1.171   4.669  0.00  0.00    -0.047 A 
ATOM      6  C4  UNL d   1      -3.368  -0.061   5.288  0.00  0.00    -0.004 A 
ENDROOT
TORSDOF 0
ENDMDL
