MODEL 1
REMARK minimizedAffinity 4.69987249
REMARK minimizedRMSD -1
REMARK  0 active torsions:
REMARK  status: ('A' for Active; 'I' for Inactive)
ROOT
ATOM      1  C   UNL d   1      -3.859  -2.832   5.090  0.00  0.00     0.172 C 
ATOM      2  N   UNL d   1      -3.886  -1.598   4.341  0.00  0.00    -0.070 N 
ATOM      3  C1  UNL d   1      -3.592  -0.356   4.838  0.00  0.00    -0.004 A 
ATOM      4  C2  UNL d   1      -3.732   0.553   3.812  0.00  0.00    -0.047 A 
ATOM      5  C3  UNL d   1      -4.124  -0.167   2.659  0.00  0.00    -0.047 A 
ATOM      6  C4  UNL d   1      -4.212  -1.496   3.015  0.00  0.00    -0.004 A 
ENDROOT
TORSDOF 0
ENDMDL
