MODEL 1
REMARK minimizedAffinity 5.42333937
REMARK minimizedRMSD -1
REMARK  0 active torsions:
REMARK  status: ('A' for Active; 'I' for Inactive)
ROOT
ATOM      1  C   UNL d   1      -3.005   1.123   2.642  0.00  0.00     0.172 C 
ATOM      2  N   UNL d   1      -3.514   1.713   3.858  0.00  0.00    -0.070 N 
ATOM      3  C1  UNL d   1      -3.027   1.490   5.118  0.00  0.00    -0.004 A 
ATOM      4  C2  UNL d   1      -3.781   2.234   6.000  0.00  0.00    -0.047 A 
ATOM      5  C3  UNL d   1      -4.757   2.926   5.243  0.00  0.00    -0.047 A 
ATOM      6  C4  UNL d   1      -4.569   2.585   3.921  0.00  0.00    -0.004 A 
ENDROOT
TORSDOF 0
ENDMDL
