MODEL 1
REMARK minimizedAffinity 8.47395134
REMARK minimizedRMSD -1
REMARK  0 active torsions:
REMARK  status: ('A' for Active; 'I' for Inactive)
ROOT
ATOM      1  C   UNL d   1       2.221  -3.149  -0.246  0.00  0.00     0.172 C 
ATOM      2  N   UNL d   1       2.181  -1.876  -0.927  0.00  0.00    -0.070 N 
ATOM      3  C1  UNL d   1       1.632  -1.648  -2.161  0.00  0.00    -0.004 A 
ATOM      4  C2  UNL d   1       1.795  -0.311  -2.455  0.00  0.00    -0.047 A 
ATOM      5  C3  UNL d   1       2.466   0.284  -1.360  0.00  0.00    -0.047 A 
ATOM      6  C4  UNL d   1       2.693  -0.707  -0.429  0.00  0.00    -0.004 A 
ENDROOT
TORSDOF 0
ENDMDL
