MODEL 1
REMARK minimizedAffinity 10.4490499
REMARK minimizedRMSD -1
REMARK  0 active torsions:
REMARK  status: ('A' for Active; 'I' for Inactive)
ROOT
ATOM      1  C   UNL d   1      -5.820   3.251   3.115  0.00  0.00     0.172 C 
ATOM      2  N   UNL d   1      -4.833   2.386   3.718  0.00  0.00    -0.070 N 
ATOM      3  C1  UNL d   1      -4.432   2.423   5.026  0.00  0.00    -0.004 A 
ATOM      4  C2  UNL d   1      -3.480   1.442   5.204  0.00  0.00    -0.047 A 
ATOM      5  C3  UNL d   1      -3.304   0.793   3.958  0.00  0.00    -0.047 A 
ATOM      6  C4  UNL d   1      -4.153   1.397   3.056  0.00  0.00    -0.004 A 
ENDROOT
TORSDOF 0
ENDMDL
