MODEL 1
REMARK minimizedAffinity 3.31013751
REMARK minimizedRMSD -1
REMARK  0 active torsions:
REMARK  status: ('A' for Active; 'I' for Inactive)
ROOT
ATOM      1  C   UNL d   1      -2.681   1.525   2.976  0.00  0.00     0.172 C 
ATOM      2  N   UNL d   1      -3.515   2.109   4.001  0.00  0.00    -0.070 N 
ATOM      3  C1  UNL d   1      -4.556   2.971   3.786  0.00  0.00    -0.004 A 
ATOM      4  C2  UNL d   1      -5.094   3.297   5.013  0.00  0.00    -0.047 A 
ATOM      5  C3  UNL d   1      -4.349   2.607   5.998  0.00  0.00    -0.047 A 
ATOM      6  C4  UNL d   1      -3.378   1.879   5.344  0.00  0.00    -0.004 A 
ENDROOT
TORSDOF 0
ENDMDL
