MODEL 1
REMARK minimizedAffinity 7.29653978
REMARK minimizedRMSD -1
REMARK  0 active torsions:
REMARK  status: ('A' for Active; 'I' for Inactive)
ROOT
ATOM      1  C   UNL d   1      -5.240   2.986   6.000  0.00  0.00     0.172 C 
ATOM      2  N   UNL d   1      -4.593   1.995   5.172  0.00  0.00    -0.070 N 
ATOM      3  C1  UNL d   1      -3.657   1.089   5.594  0.00  0.00    -0.004 A 
ATOM      4  C2  UNL d   1      -3.289   0.325   4.508  0.00  0.00    -0.047 A 
ATOM      5  C3  UNL d   1      -4.028   0.789   3.394  0.00  0.00    -0.047 A 
ATOM      6  C4  UNL d   1      -4.827   1.823   3.833  0.00  0.00    -0.004 A 
ENDROOT
TORSDOF 0
ENDMDL
