MODEL 1
REMARK minimizedAffinity 4.47628164
REMARK minimizedRMSD -1
REMARK  0 active torsions:
REMARK  status: ('A' for Active; 'I' for Inactive)
ROOT
ATOM      1  C   UNL d   1       0.544  -3.837  -2.896  0.00  0.00     0.172 C 
ATOM      2  N   UNL d   1       1.367  -3.063  -1.996  0.00  0.00    -0.070 N 
ATOM      3  C1  UNL d   1       1.642  -1.727  -2.117  0.00  0.00    -0.004 A 
ATOM      4  C2  UNL d   1       2.457  -1.368  -1.065  0.00  0.00    -0.047 A 
ATOM      5  C3  UNL d   1       2.679  -2.528  -0.285  0.00  0.00    -0.047 A 
ATOM      6  C4  UNL d   1       1.992  -3.563  -0.885  0.00  0.00    -0.004 A 
ENDROOT
TORSDOF 0
ENDMDL
