MODEL 1
REMARK minimizedAffinity 3.0971663
REMARK minimizedRMSD -1
REMARK  0 active torsions:
REMARK  status: ('A' for Active; 'I' for Inactive)
ROOT
ATOM      1  C   UNL d   1       2.829  -1.113  -0.591  0.00  0.00     0.172 C 
ATOM      2  N   UNL d   1       2.274  -2.240  -1.304  0.00  0.00    -0.070 N 
ATOM      3  C1  UNL d   1       1.957  -2.264  -2.635  0.00  0.00    -0.004 A 
ATOM      4  C2  UNL d   1       1.457  -3.514  -2.928  0.00  0.00    -0.047 A 
ATOM      5  C3  UNL d   1       1.473  -4.267  -1.730  0.00  0.00    -0.047 A 
ATOM      6  C4  UNL d   1       1.983  -3.454  -0.740  0.00  0.00    -0.004 A 
ENDROOT
TORSDOF 0
ENDMDL
