MODEL 1
REMARK minimizedAffinity 10.3420801
REMARK minimizedRMSD -1
REMARK  0 active torsions:
REMARK  status: ('A' for Active; 'I' for Inactive)
ROOT
ATOM      1  C   UNL d   1      -5.534  -2.715  -6.000  0.00  0.00     0.172 C 
ATOM      2  N   UNL d   1      -4.229  -3.003  -5.452  0.00  0.00    -0.070 N 
ATOM      3  C1  UNL d   1      -3.982  -3.725  -4.315  0.00  0.00    -0.004 A 
ATOM      4  C2  UNL d   1      -2.616  -3.773  -4.134  0.00  0.00    -0.047 A 
ATOM      5  C3  UNL d   1      -2.022  -3.054  -5.199  0.00  0.00    -0.047 A 
ATOM      6  C4  UNL d   1      -3.044  -2.588  -6.000  0.00  0.00    -0.004 A 
ENDROOT
TORSDOF 0
ENDMDL
