MODEL 1
REMARK minimizedAffinity 7.60153437
REMARK minimizedRMSD -1
REMARK  0 active torsions:
REMARK  status: ('A' for Active; 'I' for Inactive)
ROOT
ATOM      1  C   UNL d   1       0.787  -3.756  -2.883  0.00  0.00     0.172 C 
ATOM      2  N   UNL d   1       1.476  -2.962  -1.893  0.00  0.00    -0.070 N 
ATOM      3  C1  UNL d   1       1.603  -1.599  -1.910  0.00  0.00    -0.004 A 
ATOM      4  C2  UNL d   1       2.324  -1.228  -0.797  0.00  0.00    -0.047 A 
ATOM      5  C3  UNL d   1       2.643  -2.409  -0.086  0.00  0.00    -0.047 A 
ATOM      6  C4  UNL d   1       2.105  -3.468  -0.787  0.00  0.00    -0.004 A 
ENDROOT
TORSDOF 0
ENDMDL
