MODEL 1
REMARK minimizedAffinity 3.27391863
REMARK minimizedRMSD -1
REMARK  0 active torsions:
REMARK  status: ('A' for Active; 'I' for Inactive)
ROOT
ATOM      1  C   UNL d   1      -1.567   2.677  -4.582  0.00  0.00     0.172 C 
ATOM      2  N   UNL d   1      -2.240   3.923  -4.865  0.00  0.00    -0.070 N 
ATOM      3  C1  UNL d   1      -2.258   5.023  -4.050  0.00  0.00    -0.004 A 
ATOM      4  C2  UNL d   1      -3.003   6.000  -4.675  0.00  0.00    -0.047 A 
ATOM      5  C3  UNL d   1      -3.449   5.467  -5.908  0.00  0.00    -0.047 A 
ATOM      6  C4  UNL d   1      -2.962   4.180  -6.000  0.00  0.00    -0.004 A 
ENDROOT
TORSDOF 0
ENDMDL
