MODEL 1
REMARK minimizedAffinity 11.6483631
REMARK minimizedRMSD -1
REMARK  0 active torsions:
REMARK  status: ('A' for Active; 'I' for Inactive)
ROOT
ATOM      1  C   UNL d   1      -4.586  -1.351   2.387  0.00  0.00     0.172 C 
ATOM      2  N   UNL d   1      -3.651  -0.257   2.504  0.00  0.00    -0.070 N 
ATOM      3  C1  UNL d   1      -2.602  -0.009   1.660  0.00  0.00    -0.004 A 
ATOM      4  C2  UNL d   1      -1.955   1.121   2.111  0.00  0.00    -0.047 A 
ATOM      5  C3  UNL d   1      -2.638   1.567   3.267  0.00  0.00    -0.047 A 
ATOM      6  C4  UNL d   1      -3.684   0.696   3.488  0.00  0.00    -0.004 A 
ENDROOT
TORSDOF 0
ENDMDL
