MODEL 1
REMARK minimizedAffinity 7.08452415
REMARK minimizedRMSD -1
REMARK  0 active torsions:
REMARK  status: ('A' for Active; 'I' for Inactive)
ROOT
ATOM      1  C   UNL d   1       3.796   1.125  -0.376  0.00  0.00     0.172 C 
ATOM      2  N   UNL d   1       3.105  -0.124  -0.597  0.00  0.00    -0.070 N 
ATOM      3  C1  UNL d   1       2.120  -0.338  -1.524  0.00  0.00    -0.004 A 
ATOM      4  C2  UNL d   1       1.721  -1.653  -1.419  0.00  0.00    -0.047 A 
ATOM      5  C3  UNL d   1       2.493  -2.250  -0.394  0.00  0.00    -0.047 A 
ATOM      6  C4  UNL d   1       3.342  -1.280   0.098  0.00  0.00    -0.004 A 
ENDROOT
TORSDOF 0
ENDMDL
