MODEL 1
REMARK minimizedAffinity 12.4758997
REMARK minimizedRMSD -1
REMARK  0 active torsions:
REMARK  status: ('A' for Active; 'I' for Inactive)
ROOT
ATOM      1  C   UNL d   1      -0.162   0.811   3.056  0.00  0.00     0.172 C 
ATOM      2  N   UNL d   1      -1.580   0.738   2.793  0.00  0.00    -0.070 N 
ATOM      3  C1  UNL d   1      -2.569   0.743   3.740  0.00  0.00    -0.004 A 
ATOM      4  C2  UNL d   1      -3.779   0.661   3.086  0.00  0.00    -0.047 A 
ATOM      5  C3  UNL d   1      -3.508   0.603   1.698  0.00  0.00    -0.047 A 
ATOM      6  C4  UNL d   1      -2.139   0.653   1.545  0.00  0.00    -0.004 A 
ENDROOT
TORSDOF 0
ENDMDL
