MODEL 1
REMARK minimizedAffinity 9.99103832
REMARK minimizedRMSD -1
REMARK  0 active torsions:
REMARK  status: ('A' for Active; 'I' for Inactive)
ROOT
ATOM      1  C   UNL d   1      -5.998  -4.110  -5.992  0.00  0.00     0.172 C 
ATOM      2  N   UNL d   1      -4.756  -3.676  -5.396  0.00  0.00    -0.070 N 
ATOM      3  C1  UNL d   1      -4.303  -4.026  -4.152  0.00  0.00    -0.004 A 
ATOM      4  C2  UNL d   1      -3.086  -3.409  -3.957  0.00  0.00    -0.047 A 
ATOM      5  C3  UNL d   1      -2.798  -2.662  -5.124  0.00  0.00    -0.047 A 
ATOM      6  C4  UNL d   1      -3.849  -2.845  -5.998  0.00  0.00    -0.004 A 
ENDROOT
TORSDOF 0
ENDMDL
