MODEL 1
REMARK minimizedAffinity -4.49226379
REMARK minimizedRMSD -1
REMARK  1 active torsions:
REMARK  status: ('A' for Active; 'I' for Inactive)
REMARK    1  A    between atoms: C3_4  and  O_7 
ROOT
ATOM      1  C   UNL d   1      -1.874  -0.841   1.232  0.00  0.00    -0.033 A 
ATOM      2  C1  UNL d   1      -1.788   0.359   0.523  0.00  0.00     0.039 A 
ATOM      3  C2  UNL d   1      -0.539   0.905   0.221  0.00  0.00    -0.080 A 
ATOM      4  C3  UNL d   1       0.614   0.242   0.631  0.00  0.00     0.150 A 
ATOM      5  C4  UNL d   1       0.536  -0.955   1.335  0.00  0.00    -0.007 A 
ATOM      6  C5  UNL d   1      -0.712  -1.499   1.636  0.00  0.00     0.039 A 
ENDROOT
BRANCH   4   7
ATOM      7  O   UNL d   1       1.855   0.739   0.364  0.00  0.00    -0.526 OA
ATOM      8  H5  UNL d   1       1.754   1.586  -0.102  0.00  0.00     0.418 HD
ENDBRANCH   4   7
TORSDOF 1
ENDMDL
