MODEL 1
REMARK minimizedAffinity -3.99806571
REMARK minimizedRMSD -1
REMARK  1 active torsions:
REMARK  status: ('A' for Active; 'I' for Inactive)
REMARK    1  A    between atoms: C3_4  and  O_7 
ROOT
ATOM      1  C   UNL d   1      -0.028   0.160  -1.200  0.00  0.00    -0.033 A 
ATOM      2  C1  UNL d   1      -0.409  -0.113   0.115  0.00  0.00     0.039 A 
ATOM      3  C2  UNL d   1      -1.731  -0.455   0.404  0.00  0.00    -0.080 A 
ATOM      4  C3  UNL d   1      -2.661  -0.522  -0.630  0.00  0.00     0.150 A 
ATOM      5  C4  UNL d   1      -2.288  -0.255  -1.943  0.00  0.00    -0.007 A 
ATOM      6  C5  UNL d   1      -0.967   0.088  -2.230  0.00  0.00     0.039 A 
ENDROOT
BRANCH   4   7
ATOM      7  O   UNL d   1      -3.964  -0.847  -0.397  0.00  0.00    -0.526 OA
ATOM      8  H5  UNL d   1      -4.083  -0.976   0.559  0.00  0.00     0.418 HD
ENDBRANCH   4   7
TORSDOF 1
ENDMDL
