MODEL 1
REMARK minimizedAffinity -4.9885478
REMARK minimizedRMSD -1
REMARK  1 active torsions:
REMARK  status: ('A' for Active; 'I' for Inactive)
REMARK    1  A    between atoms: C3_4  and  O_7 
ROOT
ATOM      1  C   UNL d   1      -3.096  -1.014  -0.918  0.00  0.00    -0.033 A 
ATOM      2  C1  UNL d   1      -2.490  -0.329  -1.972  0.00  0.00     0.039 A 
ATOM      3  C2  UNL d   1      -1.246   0.279  -1.788  0.00  0.00    -0.080 A 
ATOM      4  C3  UNL d   1      -0.620   0.193  -0.548  0.00  0.00     0.150 A 
ATOM      5  C4  UNL d   1      -1.216  -0.492   0.506  0.00  0.00    -0.007 A 
ATOM      6  C5  UNL d   1      -2.459  -1.097   0.321  0.00  0.00     0.039 A 
ENDROOT
BRANCH   4   7
ATOM      7  O   UNL d   1       0.592   0.773  -0.320  0.00  0.00    -0.526 OA
ATOM      8  H5  UNL d   1       0.869   1.236  -1.128  0.00  0.00     0.418 HD
ENDBRANCH   4   7
TORSDOF 1
ENDMDL
