MODEL 1
REMARK minimizedAffinity 2.07667756
REMARK minimizedRMSD -1
REMARK  1 active torsions:
REMARK  status: ('A' for Active; 'I' for Inactive)
REMARK    1  A    between atoms: C3_4  and  O_7 
ROOT
ATOM      1  C   UNL d   1      -4.193   4.822   4.680  0.00  0.00    -0.033 A 
ATOM      2  C1  UNL d   1      -4.212   3.649   3.923  0.00  0.00     0.039 A 
ATOM      3  C2  UNL d   1      -4.779   3.649   2.647  0.00  0.00    -0.080 A 
ATOM      4  C3  UNL d   1      -5.323   4.826   2.141  0.00  0.00     0.150 A 
ATOM      5  C4  UNL d   1      -5.304   5.999   2.889  0.00  0.00    -0.007 A 
ATOM      6  C5  UNL d   1      -4.738   5.997   4.163  0.00  0.00     0.039 A 
ENDROOT
BRANCH   4   7
ATOM      7  O   UNL d   1      -5.892   4.874   0.903  0.00  0.00    -0.526 OA
ATOM      8  H5  UNL d   1      -5.859   3.984   0.515  0.00  0.00     0.418 HD
ENDBRANCH   4   7
TORSDOF 1
ENDMDL
