MODEL 1
REMARK minimizedAffinity -2.25614548
REMARK minimizedRMSD -1
REMARK  1 active torsions:
REMARK  status: ('A' for Active; 'I' for Inactive)
REMARK    1  A    between atoms: C3_4  and  O_7 
ROOT
ATOM      1  C   UNL d   1      -0.508  -0.247  -0.478  0.00  0.00    -0.033 A 
ATOM      2  C1  UNL d   1      -1.703  -0.941  -0.275  0.00  0.00     0.039 A 
ATOM      3  C2  UNL d   1      -2.376  -1.507  -1.358  0.00  0.00    -0.080 A 
ATOM      4  C3  UNL d   1      -1.845  -1.375  -2.638  0.00  0.00     0.150 A 
ATOM      5  C4  UNL d   1      -0.654  -0.688  -2.848  0.00  0.00    -0.007 A 
ATOM      6  C5  UNL d   1       0.017  -0.122  -1.764  0.00  0.00     0.039 A 
ENDROOT
BRANCH   4   7
ATOM      7  O   UNL d   1      -2.469  -1.906  -3.728  0.00  0.00    -0.526 OA
ATOM      8  H5  UNL d   1      -3.295  -2.327  -3.435  0.00  0.00     0.418 HD
ENDBRANCH   4   7
TORSDOF 1
ENDMDL
