MODEL 1
REMARK minimizedAffinity -3.59050894
REMARK minimizedRMSD -1
REMARK  1 active torsions:
REMARK  status: ('A' for Active; 'I' for Inactive)
REMARK    1  A    between atoms: C3_4  and  O_7 
ROOT
ATOM      1  C   UNL d   1      -0.663  -0.950   1.108  0.00  0.00    -0.033 A 
ATOM      2  C1  UNL d   1       0.569  -1.603   1.032  0.00  0.00     0.039 A 
ATOM      3  C2  UNL d   1       1.711  -0.899   0.647  0.00  0.00    -0.080 A 
ATOM      4  C3  UNL d   1       1.608   0.455   0.341  0.00  0.00     0.150 A 
ATOM      5  C4  UNL d   1       0.385   1.113   0.419  0.00  0.00    -0.007 A 
ATOM      6  C5  UNL d   1      -0.755   0.408   0.803  0.00  0.00     0.039 A 
ENDROOT
BRANCH   4   7
ATOM      7  O   UNL d   1       2.695   1.183  -0.045  0.00  0.00    -0.526 OA
ATOM      8  H5  UNL d   1       3.464   0.592  -0.081  0.00  0.00     0.418 HD
ENDBRANCH   4   7
TORSDOF 1
ENDMDL
