MODEL 1
REMARK minimizedAffinity -2.75438452
REMARK minimizedRMSD -1
REMARK  1 active torsions:
REMARK  status: ('A' for Active; 'I' for Inactive)
REMARK    1  A    between atoms: C3_4  and  O_7 
ROOT
ATOM      1  C   UNL d   1       1.408  -0.657   0.758  0.00  0.00    -0.033 A 
ATOM      2  C1  UNL d   1       0.815   0.241  -0.131  0.00  0.00     0.039 A 
ATOM      3  C2  UNL d   1      -0.562   0.466  -0.084  0.00  0.00    -0.080 A 
ATOM      4  C3  UNL d   1      -1.334  -0.211   0.856  0.00  0.00     0.150 A 
ATOM      5  C4  UNL d   1      -0.749  -1.105   1.747  0.00  0.00    -0.007 A 
ATOM      6  C5  UNL d   1       0.626  -1.329   1.698  0.00  0.00     0.039 A 
ENDROOT
BRANCH   4   7
ATOM      7  O   UNL d   1      -2.682  -0.028   0.937  0.00  0.00    -0.526 OA
ATOM      8  H5  UNL d   1      -2.950   0.595   0.241  0.00  0.00     0.418 HD
ENDBRANCH   4   7
TORSDOF 1
ENDMDL
