MODEL 1
REMARK minimizedAffinity -4.76428366
REMARK minimizedRMSD -1
REMARK  1 active torsions:
REMARK  status: ('A' for Active; 'I' for Inactive)
REMARK    1  A    between atoms: C3_4  and  O_7 
ROOT
ATOM      1  C   UNL d   1       1.061  -0.190   0.007  0.00  0.00    -0.033 A 
ATOM      2  C1  UNL d   1       0.357  -0.797   1.049  0.00  0.00     0.039 A 
ATOM      3  C2  UNL d   1      -1.023  -0.985   0.947  0.00  0.00    -0.080 A 
ATOM      4  C3  UNL d   1      -1.686  -0.562  -0.202  0.00  0.00     0.150 A 
ATOM      5  C4  UNL d   1      -0.991   0.040  -1.246  0.00  0.00    -0.007 A 
ATOM      6  C5  UNL d   1       0.387   0.227  -1.141  0.00  0.00     0.039 A 
ENDROOT
BRANCH   4   7
ATOM      7  O   UNL d   1      -3.032  -0.719  -0.346  0.00  0.00    -0.526 OA
ATOM      8  H5  UNL d   1      -3.384  -1.123   0.465  0.00  0.00     0.418 HD
ENDBRANCH   4   7
TORSDOF 1
ENDMDL
