MODEL 1
REMARK minimizedAffinity -4.01008463
REMARK minimizedRMSD -1
REMARK  1 active torsions:
REMARK  status: ('A' for Active; 'I' for Inactive)
REMARK    1  A    between atoms: C3_4  and  O_7 
ROOT
ATOM      1  C   UNL d   1      -0.239   0.405  -1.297  0.00  0.00    -0.033 A 
ATOM      2  C1  UNL d   1      -0.992  -0.173  -2.321  0.00  0.00     0.039 A 
ATOM      3  C2  UNL d   1      -2.262  -0.687  -2.051  0.00  0.00    -0.080 A 
ATOM      4  C3  UNL d   1      -2.766  -0.617  -0.756  0.00  0.00     0.150 A 
ATOM      5  C4  UNL d   1      -2.023  -0.040   0.268  0.00  0.00    -0.007 A 
ATOM      6  C5  UNL d   1      -0.755   0.473  -0.002  0.00  0.00     0.039 A 
ENDROOT
BRANCH   4   7
ATOM      7  O   UNL d   1      -3.998  -1.110  -0.444  0.00  0.00    -0.526 OA
ATOM      8  H5  UNL d   1      -4.384  -1.505  -1.244  0.00  0.00     0.418 HD
ENDBRANCH   4   7
TORSDOF 1
ENDMDL
