MODEL 1
REMARK minimizedAffinity -2.54864216
REMARK minimizedRMSD -1
REMARK  1 active torsions:
REMARK  status: ('A' for Active; 'I' for Inactive)
REMARK    1  A    between atoms: C3_4  and  O_7 
ROOT
ATOM      1  C   UNL d   1       2.135   3.867   1.355  0.00  0.00    -0.033 A 
ATOM      2  C1  UNL d   1       2.155   3.680  -0.029  0.00  0.00     0.039 A 
ATOM      3  C2  UNL d   1       1.826   2.436  -0.572  0.00  0.00    -0.080 A 
ATOM      4  C3  UNL d   1       1.478   1.390   0.278  0.00  0.00     0.150 A 
ATOM      5  C4  UNL d   1       1.452   1.570   1.657  0.00  0.00    -0.007 A 
ATOM      6  C5  UNL d   1       1.782   2.812   2.198  0.00  0.00     0.039 A 
ENDROOT
BRANCH   4   7
ATOM      7  O   UNL d   1       1.154   0.157  -0.205  0.00  0.00    -0.526 OA
ATOM      8  H5  UNL d   1       1.243   0.173  -1.173  0.00  0.00     0.418 HD
ENDBRANCH   4   7
TORSDOF 1
ENDMDL
