MODEL 1
REMARK minimizedAffinity -2.56531644
REMARK minimizedRMSD -1
REMARK  1 active torsions:
REMARK  status: ('A' for Active; 'I' for Inactive)
REMARK    1  A    between atoms: C3_4  and  O_7 
ROOT
ATOM      1  C   UNL d   1       1.891   0.149   0.208  0.00  0.00    -0.033 A 
ATOM      2  C1  UNL d   1       0.639   0.619   0.610  0.00  0.00     0.039 A 
ATOM      3  C2  UNL d   1       0.503   1.920   1.099  0.00  0.00    -0.080 A 
ATOM      4  C3  UNL d   1       1.626   2.739   1.181  0.00  0.00     0.150 A 
ATOM      5  C4  UNL d   1       2.875   2.279   0.779  0.00  0.00    -0.007 A 
ATOM      6  C5  UNL d   1       3.009   0.980   0.291  0.00  0.00     0.039 A 
ENDROOT
BRANCH   4   7
ATOM      7  O   UNL d   1       1.544   4.014   1.656  0.00  0.00    -0.526 OA
ATOM      8  H5  UNL d   1       0.625   4.185   1.923  0.00  0.00     0.418 HD
ENDBRANCH   4   7
TORSDOF 1
ENDMDL
