MODEL 1
REMARK minimizedAffinity -3.76860833
REMARK minimizedRMSD -1
REMARK  1 active torsions:
REMARK  status: ('A' for Active; 'I' for Inactive)
REMARK    1  A    between atoms: C3_4  and  O_7 
ROOT
ATOM      1  C   UNL d   1       2.935   3.498   1.510  0.00  0.00    -0.033 A 
ATOM      2  C1  UNL d   1       3.462   3.015   0.311  0.00  0.00     0.039 A 
ATOM      3  C2  UNL d   1       3.131   1.733  -0.133  0.00  0.00    -0.080 A 
ATOM      4  C3  UNL d   1       2.273   0.946   0.630  0.00  0.00     0.150 A 
ATOM      5  C4  UNL d   1       1.741   1.423   1.823  0.00  0.00    -0.007 A 
ATOM      6  C5  UNL d   1       2.073   2.703   2.265  0.00  0.00     0.039 A 
ENDROOT
BRANCH   4   7
ATOM      7  O   UNL d   1       1.924  -0.313   0.240  0.00  0.00    -0.526 OA
ATOM      8  H5  UNL d   1       2.390  -0.518  -0.588  0.00  0.00     0.418 HD
ENDBRANCH   4   7
TORSDOF 1
ENDMDL
