MODEL 1
REMARK minimizedAffinity -1.7961427
REMARK minimizedRMSD -1
REMARK  0 active torsions:
REMARK  status: ('A' for Active; 'I' for Inactive)
ROOT
ATOM      1  C   UNL d   1      -5.073   6.000   3.735  0.00  0.00     0.172 C 
ATOM      2  N   UNL d   1      -5.184   5.473   2.395  0.00  0.00    -0.070 N 
ATOM      3  C1  UNL d   1      -4.501   5.927   1.299  0.00  0.00    -0.004 A 
ATOM      4  C2  UNL d   1      -4.885   5.165   0.217  0.00  0.00    -0.047 A 
ATOM      5  C3  UNL d   1      -5.833   4.221   0.678  0.00  0.00    -0.047 A 
ATOM      6  C4  UNL d   1      -6.000   4.434   2.030  0.00  0.00    -0.004 A 
ENDROOT
TORSDOF 0
ENDMDL
