MODEL 1
REMARK minimizedAffinity -0.262857258
REMARK minimizedRMSD -1
REMARK  0 active torsions:
REMARK  status: ('A' for Active; 'I' for Inactive)
ROOT
ATOM      1  C   UNL d   1      -2.807  -1.873  -2.981  0.00  0.00     0.172 C 
ATOM      2  N   UNL d   1      -1.812  -1.145  -2.229  0.00  0.00    -0.070 N 
ATOM      3  C1  UNL d   1      -1.085  -0.080  -2.689  0.00  0.00    -0.004 A 
ATOM      4  C2  UNL d   1      -0.249   0.331  -1.673  0.00  0.00    -0.047 A 
ATOM      5  C3  UNL d   1      -0.481  -0.517  -0.564  0.00  0.00    -0.047 A 
ATOM      6  C4  UNL d   1      -1.453  -1.422  -0.936  0.00  0.00    -0.004 A 
ENDROOT
TORSDOF 0
ENDMDL
