MODEL 1
REMARK minimizedAffinity -0.960641861
REMARK minimizedRMSD -1
REMARK  0 active torsions:
REMARK  status: ('A' for Active; 'I' for Inactive)
ROOT
ATOM      1  C   UNL d   1      -4.834   5.625  -0.557  0.00  0.00     0.172 C 
ATOM      2  N   UNL d   1      -4.860   5.769   0.879  0.00  0.00    -0.070 N 
ATOM      3  C1  UNL d   1      -3.763   5.818   1.697  0.00  0.00    -0.004 A 
ATOM      4  C2  UNL d   1      -4.208   5.961   2.993  0.00  0.00    -0.047 A 
ATOM      5  C3  UNL d   1      -5.622   5.998   2.953  0.00  0.00    -0.047 A 
ATOM      6  C4  UNL d   1      -5.999   5.877   1.633  0.00  0.00    -0.004 A 
ENDROOT
TORSDOF 0
ENDMDL
