MODEL 1
REMARK minimizedAffinity -2.78266835
REMARK minimizedRMSD -1
REMARK  0 active torsions:
REMARK  status: ('A' for Active; 'I' for Inactive)
ROOT
ATOM      1  C   UNL d   1      -4.988   5.352   2.393  0.00  0.00     0.172 C 
ATOM      2  N   UNL d   1      -4.829   4.233   3.292  0.00  0.00    -0.070 N 
ATOM      3  C1  UNL d   1      -4.523   2.951   2.924  0.00  0.00    -0.004 A 
ATOM      4  C2  UNL d   1      -4.461   2.186   4.069  0.00  0.00    -0.047 A 
ATOM      5  C3  UNL d   1      -4.740   3.039   5.163  0.00  0.00    -0.047 A 
ATOM      6  C4  UNL d   1      -4.964   4.301   4.654  0.00  0.00    -0.004 A 
ENDROOT
TORSDOF 0
ENDMDL
