MODEL 1
REMARK minimizedAffinity -1.91108179
REMARK minimizedRMSD -1
REMARK  0 active torsions:
REMARK  status: ('A' for Active; 'I' for Inactive)
ROOT
ATOM      1  C   UNL d   1      -4.898   5.944   1.969  0.00  0.00     0.172 C 
ATOM      2  N   UNL d   1      -4.970   5.655   3.382  0.00  0.00    -0.070 N 
ATOM      3  C1  UNL d   1      -6.000   6.000   4.216  0.00  0.00    -0.004 A 
ATOM      4  C2  UNL d   1      -5.690   5.546   5.480  0.00  0.00    -0.047 A 
ATOM      5  C3  UNL d   1      -4.430   4.906   5.403  0.00  0.00    -0.047 A 
ATOM      6  C4  UNL d   1      -4.007   4.988   4.093  0.00  0.00    -0.004 A 
ENDROOT
TORSDOF 0
ENDMDL
