MODEL 1
REMARK minimizedAffinity 0.370577902
REMARK minimizedRMSD -1
REMARK  0 active torsions:
REMARK  status: ('A' for Active; 'I' for Inactive)
ROOT
ATOM      1  C   UNL d   1       1.559  -0.720   1.169  0.00  0.00     0.172 C 
ATOM      2  N   UNL d   1       0.631  -0.480   0.088  0.00  0.00    -0.070 N 
ATOM      3  C1  UNL d   1       0.925   0.149  -1.092  0.00  0.00    -0.004 A 
ATOM      4  C2  UNL d   1      -0.224   0.178  -1.852  0.00  0.00    -0.047 A 
ATOM      5  C3  UNL d   1      -1.244  -0.455  -1.103  0.00  0.00    -0.047 A 
ATOM      6  C4  UNL d   1      -0.687  -0.853   0.094  0.00  0.00    -0.004 A 
ENDROOT
TORSDOF 0
ENDMDL
