MODEL 1
REMARK minimizedAffinity 0.566997886
REMARK minimizedRMSD -1
REMARK  0 active torsions:
REMARK  status: ('A' for Active; 'I' for Inactive)
ROOT
ATOM      1  C   UNL d   1       2.619  -0.228  -2.320  0.00  0.00     0.172 C 
ATOM      2  N   UNL d   1       1.260   0.053  -1.920  0.00  0.00    -0.070 N 
ATOM      3  C1  UNL d   1       0.787   0.041  -0.636  0.00  0.00    -0.004 A 
ATOM      4  C2  UNL d   1      -0.553   0.361  -0.676  0.00  0.00    -0.047 A 
ATOM      5  C3  UNL d   1      -0.897   0.571  -2.033  0.00  0.00    -0.047 A 
ATOM      6  C4  UNL d   1       0.244   0.375  -2.781  0.00  0.00    -0.004 A 
ENDROOT
TORSDOF 0
ENDMDL
