MODEL 1
REMARK minimizedAffinity 0.946673095
REMARK minimizedRMSD -1
REMARK  0 active torsions:
REMARK  status: ('A' for Active; 'I' for Inactive)
ROOT
ATOM      1  C   UNL d   1      -5.253   5.806  -0.347  0.00  0.00     0.172 C 
ATOM      2  N   UNL d   1      -5.037   5.799   1.080  0.00  0.00    -0.070 N 
ATOM      3  C1  UNL d   1      -6.000   5.998   2.034  0.00  0.00    -0.004 A 
ATOM      4  C2  UNL d   1      -5.394   5.914   3.269  0.00  0.00    -0.047 A 
ATOM      5  C3  UNL d   1      -4.020   5.657   3.050  0.00  0.00    -0.047 A 
ATOM      6  C4  UNL d   1      -3.826   5.591   1.686  0.00  0.00    -0.004 A 
ENDROOT
TORSDOF 0
ENDMDL
