MODEL 1
REMARK minimizedAffinity 0.900030017
REMARK minimizedRMSD -1
REMARK  0 active torsions:
REMARK  status: ('A' for Active; 'I' for Inactive)
ROOT
ATOM      1  C   UNL d   1      -5.240   5.991   2.031  0.00  0.00     0.172 C 
ATOM      2  N   UNL d   1      -5.289   5.465   0.687  0.00  0.00    -0.070 N 
ATOM      3  C1  UNL d   1      -6.000   6.000  -0.354  0.00  0.00    -0.004 A 
ATOM      4  C2  UNL d   1      -5.784   5.209  -1.463  0.00  0.00    -0.047 A 
ATOM      5  C3  UNL d   1      -4.914   4.163  -1.074  0.00  0.00    -0.047 A 
ATOM      6  C4  UNL d   1      -4.623   4.346   0.262  0.00  0.00    -0.004 A 
ENDROOT
TORSDOF 0
ENDMDL
