MODEL 1
REMARK minimizedAffinity -2.37707448
REMARK minimizedRMSD -1
REMARK  0 active torsions:
REMARK  status: ('A' for Active; 'I' for Inactive)
ROOT
ATOM      1  C   UNL d   1      -4.347   6.000   1.351  0.00  0.00     0.172 C 
ATOM      2  N   UNL d   1      -4.745   5.792   2.723  0.00  0.00    -0.070 N 
ATOM      3  C1  UNL d   1      -6.000   6.000   3.231  0.00  0.00    -0.004 A 
ATOM      4  C2  UNL d   1      -5.969   5.688   4.573  0.00  0.00    -0.047 A 
ATOM      5  C3  UNL d   1      -4.650   5.280   4.883  0.00  0.00    -0.047 A 
ATOM      6  C4  UNL d   1      -3.914   5.353   3.719  0.00  0.00    -0.004 A 
ENDROOT
TORSDOF 0
ENDMDL
