MODEL 1
REMARK minimizedAffinity 1.00608528
REMARK minimizedRMSD -1
REMARK  0 active torsions:
REMARK  status: ('A' for Active; 'I' for Inactive)
ROOT
ATOM      1  C   UNL d   1      -3.372   1.532   5.997  0.00  0.00     0.172 C 
ATOM      2  N   UNL d   1      -3.101   0.263   5.362  0.00  0.00    -0.070 N 
ATOM      3  C1  UNL d   1      -3.011  -0.945   6.000  0.00  0.00    -0.004 A 
ATOM      4  C2  UNL d   1      -2.743  -1.905   5.048  0.00  0.00    -0.047 A 
ATOM      5  C3  UNL d   1      -2.668  -1.251   3.795  0.00  0.00    -0.047 A 
ATOM      6  C4  UNL d   1      -2.894   0.091   4.019  0.00  0.00    -0.004 A 
ENDROOT
TORSDOF 0
ENDMDL
