MODEL 1
REMARK minimizedAffinity -2.27092338
REMARK minimizedRMSD -1
REMARK  0 active torsions:
REMARK  status: ('A' for Active; 'I' for Inactive)
ROOT
ATOM      1  C   UNL d   1      -4.746   5.830   1.653  0.00  0.00     0.172 C 
ATOM      2  N   UNL d   1      -4.848   5.816   3.093  0.00  0.00    -0.070 N 
ATOM      3  C1  UNL d   1      -5.999   5.631   3.810  0.00  0.00    -0.004 A 
ATOM      4  C2  UNL d   1      -5.677   5.686   5.149  0.00  0.00    -0.047 A 
ATOM      5  C3  UNL d   1      -4.283   5.913   5.239  0.00  0.00    -0.047 A 
ATOM      6  C4  UNL d   1      -3.795   5.990   3.952  0.00  0.00    -0.004 A 
ENDROOT
TORSDOF 0
ENDMDL
