MODEL 1
REMARK minimizedAffinity -3.26204133
REMARK minimizedRMSD -1
REMARK  0 active torsions:
REMARK  status: ('A' for Active; 'I' for Inactive)
ROOT
ATOM      1  C   UNL d   1      -4.346  -5.508   0.474  0.00  0.00     0.172 C 
ATOM      2  N   UNL d   1      -3.694  -4.316  -0.016  0.00  0.00    -0.070 N 
ATOM      3  C1  UNL d   1      -4.058  -3.029   0.277  0.00  0.00    -0.004 A 
ATOM      4  C2  UNL d   1      -3.191  -2.185  -0.381  0.00  0.00    -0.047 A 
ATOM      5  C3  UNL d   1      -2.274  -2.992  -1.095  0.00  0.00    -0.047 A 
ATOM      6  C4  UNL d   1      -2.609  -4.308  -0.851  0.00  0.00    -0.004 A 
ENDROOT
TORSDOF 0
ENDMDL
