MODEL 1
REMARK minimizedAffinity -3.88497305
REMARK minimizedRMSD -1
REMARK  0 active torsions:
REMARK  status: ('A' for Active; 'I' for Inactive)
ROOT
ATOM      1  C   UNL d   1      -4.851  -4.680   0.138  0.00  0.00     0.172 C 
ATOM      2  N   UNL d   1      -4.012  -3.506   0.074  0.00  0.00    -0.070 N 
ATOM      3  C1  UNL d   1      -2.890  -3.368  -0.698  0.00  0.00    -0.004 A 
ATOM      4  C2  UNL d   1      -2.379  -2.107  -0.477  0.00  0.00    -0.047 A 
ATOM      5  C3  UNL d   1      -3.222  -1.467   0.462  0.00  0.00    -0.047 A 
ATOM      6  C4  UNL d   1      -4.225  -2.355   0.786  0.00  0.00    -0.004 A 
ENDROOT
TORSDOF 0
ENDMDL
