MODEL 1
REMARK minimizedAffinity 6.15359926
REMARK minimizedRMSD -1
REMARK  0 active torsions:
REMARK  status: ('A' for Active; 'I' for Inactive)
ROOT
ATOM      1  C   UNL d   1      -1.533  -1.369  -1.360  0.00  0.00     0.172 C 
ATOM      2  N   UNL d   1      -1.954  -2.128  -2.515  0.00  0.00    -0.070 N 
ATOM      3  C1  UNL d   1      -1.875  -1.710  -3.816  0.00  0.00    -0.004 A 
ATOM      4  C2  UNL d   1      -2.374  -2.716  -4.614  0.00  0.00    -0.047 A 
ATOM      5  C3  UNL d   1      -2.768  -3.776  -3.762  0.00  0.00    -0.047 A 
ATOM      6  C4  UNL d   1      -2.496  -3.385  -2.468  0.00  0.00    -0.004 A 
ENDROOT
TORSDOF 0
ENDMDL
