MODEL 1
REMARK minimizedAffinity -0.467052698
REMARK minimizedRMSD -1
REMARK  0 active torsions:
REMARK  status: ('A' for Active; 'I' for Inactive)
ROOT
ATOM      1  C   UNL d   1       1.981  -0.559   5.623  0.00  0.00     0.172 C 
ATOM      2  N   UNL d   1       2.025   0.660   4.850  0.00  0.00    -0.070 N 
ATOM      3  C1  UNL d   1       1.315   1.801   5.116  0.00  0.00    -0.004 A 
ATOM      4  C2  UNL d   1       1.634   2.731   4.151  0.00  0.00    -0.047 A 
ATOM      5  C3  UNL d   1       2.568   2.129   3.274  0.00  0.00    -0.047 A 
ATOM      6  C4  UNL d   1       2.792   0.847   3.730  0.00  0.00    -0.004 A 
ENDROOT
TORSDOF 0
ENDMDL
