MODEL 1
REMARK minimizedAffinity 8.02552891
REMARK minimizedRMSD -1
REMARK  0 active torsions:
REMARK  status: ('A' for Active; 'I' for Inactive)
ROOT
ATOM      1  C   UNL d   1      -0.977   1.915   1.003  0.00  0.00     0.077 C 
ATOM      2  C1  UNL d   1      -0.134   2.576   2.053  0.00  0.00    -0.074 A 
ATOM      3  C2  UNL d   1      -0.721   3.189   3.165  0.00  0.00    -0.005 A 
ATOM      4  C3  UNL d   1       0.077   3.791   4.138  0.00  0.00     0.006 A 
ATOM      5  C4  UNL d   1       1.466   3.786   4.010  0.00  0.00    -0.005 A 
ATOM      6  C5  UNL d   1       2.070   3.177   2.905  0.00  0.00    -0.074 A 
ATOM      7  C6  UNL d   1       3.563   3.154   2.757  0.00  0.00     0.077 C 
ATOM      8  C7  UNL d   1       1.263   2.568   1.935  0.00  0.00    -0.001 A 
ENDROOT
TORSDOF 0
ENDMDL
