MODEL 1
REMARK minimizedAffinity 4.97823906
REMARK minimizedRMSD -1
REMARK  0 active torsions:
REMARK  status: ('A' for Active; 'I' for Inactive)
ROOT
ATOM      1  C   UNL d   1       2.002  -1.197  -2.896  0.00  0.00     0.077 C 
ATOM      2  C1  UNL d   1       2.459   0.075  -3.547  0.00  0.00    -0.074 A 
ATOM      3  C2  UNL d   1       2.029   0.419  -4.833  0.00  0.00    -0.005 A 
ATOM      4  C3  UNL d   1       2.455   1.610  -5.421  0.00  0.00     0.006 A 
ATOM      5  C4  UNL d   1       3.314   2.466  -4.732  0.00  0.00    -0.005 A 
ATOM      6  C5  UNL d   1       3.754   2.139  -3.446  0.00  0.00    -0.074 A 
ATOM      7  C6  UNL d   1       4.669   3.053  -2.687  0.00  0.00     0.077 C 
ATOM      8  C7  UNL d   1       3.315   0.944  -2.858  0.00  0.00    -0.001 A 
ENDROOT
TORSDOF 0
ENDMDL
