MODEL 1
REMARK minimizedAffinity 2.94902086
REMARK minimizedRMSD -1
REMARK  0 active torsions:
REMARK  status: ('A' for Active; 'I' for Inactive)
ROOT
ATOM      1  C   UNL d   1      -2.205   2.430   0.817  0.00  0.00     0.077 C 
ATOM      2  C1  UNL d   1      -1.185   2.740   1.872  0.00  0.00    -0.074 A 
ATOM      3  C2  UNL d   1      -1.576   3.129   3.157  0.00  0.00    -0.005 A 
ATOM      4  C3  UNL d   1      -0.617   3.405   4.131  0.00  0.00     0.006 A 
ATOM      5  C4  UNL d   1       0.741   3.297   3.829  0.00  0.00    -0.005 A 
ATOM      6  C5  UNL d   1       1.151   2.909   2.550  0.00  0.00    -0.074 A 
ATOM      7  C6  UNL d   1       2.607   2.779   2.212  0.00  0.00     0.077 C 
ATOM      8  C7  UNL d   1       0.181   2.626   1.579  0.00  0.00    -0.001 A 
ENDROOT
TORSDOF 0
ENDMDL
