MODEL 1
REMARK minimizedAffinity 6.53310537
REMARK minimizedRMSD -1
REMARK  0 active torsions:
REMARK  status: ('A' for Active; 'I' for Inactive)
ROOT
ATOM      1  C   UNL d   1       1.995  -0.551   0.050  0.00  0.00     0.077 C 
ATOM      2  C1  UNL d   1       0.678   0.028   0.471  0.00  0.00    -0.074 A 
ATOM      3  C2  UNL d   1      -0.446  -0.787   0.638  0.00  0.00    -0.005 A 
ATOM      4  C3  UNL d   1      -1.662  -0.235   1.040  0.00  0.00     0.006 A 
ATOM      5  C4  UNL d   1      -1.767   1.136   1.279  0.00  0.00    -0.005 A 
ATOM      6  C5  UNL d   1      -0.653   1.967   1.119  0.00  0.00    -0.074 A 
ATOM      7  C6  UNL d   1      -0.746   3.441   1.381  0.00  0.00     0.077 C 
ATOM      8  C7  UNL d   1       0.567   1.403   0.721  0.00  0.00    -0.001 A 
ENDROOT
TORSDOF 0
ENDMDL
