MODEL 1
REMARK minimizedAffinity 6.39915228
REMARK minimizedRMSD -1
REMARK  0 active torsions:
REMARK  status: ('A' for Active; 'I' for Inactive)
ROOT
ATOM      1  C   UNL d   1       1.119   0.144  -0.163  0.00  0.00     0.077 C 
ATOM      2  C1  UNL d   1       0.776   1.343   0.670  0.00  0.00    -0.074 A 
ATOM      3  C2  UNL d   1      -0.506   1.902   0.632  0.00  0.00    -0.005 A 
ATOM      4  C3  UNL d   1      -0.813   3.011   1.420  0.00  0.00     0.006 A 
ATOM      5  C4  UNL d   1       0.156   3.572   2.252  0.00  0.00    -0.005 A 
ATOM      6  C5  UNL d   1       1.443   3.027   2.304  0.00  0.00    -0.074 A 
ATOM      7  C6  UNL d   1       2.494   3.612   3.200  0.00  0.00     0.077 C 
ATOM      8  C7  UNL d   1       1.742   1.908   1.514  0.00  0.00    -0.001 A 
ENDROOT
TORSDOF 0
ENDMDL
