MODEL 1
REMARK minimizedAffinity 5.87577057
REMARK minimizedRMSD -1
REMARK  0 active torsions:
REMARK  status: ('A' for Active; 'I' for Inactive)
ROOT
ATOM      1  C   UNL d   1       2.399   3.441   2.981  0.00  0.00     0.077 C 
ATOM      2  C1  UNL d   1       1.307   2.814   2.165  0.00  0.00    -0.074 A 
ATOM      3  C2  UNL d   1       0.034   3.389   2.107  0.00  0.00    -0.005 A 
ATOM      4  C3  UNL d   1      -0.969   2.799   1.336  0.00  0.00     0.006 A 
ATOM      5  C4  UNL d   1      -0.708   1.632   0.618  0.00  0.00    -0.005 A 
ATOM      6  C5  UNL d   1       0.560   1.044   0.664  0.00  0.00    -0.074 A 
ATOM      7  C6  UNL d   1       0.860  -0.206  -0.110  0.00  0.00     0.077 C 
ATOM      8  C7  UNL d   1       1.564   1.646   1.435  0.00  0.00    -0.001 A 
ENDROOT
TORSDOF 0
ENDMDL
