MODEL 1
REMARK minimizedAffinity -3.38344002
REMARK minimizedRMSD -1
REMARK  0 active torsions:
REMARK  status: ('A' for Active; 'I' for Inactive)
ROOT
ATOM      1  C   UNL d   1      -6.000   3.973  -5.998  0.00  0.00     0.077 C 
ATOM      2  C1  UNL d   1      -4.553   4.246  -5.712  0.00  0.00    -0.074 A 
ATOM      3  C2  UNL d   1      -4.146   5.470  -5.170  0.00  0.00    -0.005 A 
ATOM      4  C3  UNL d   1      -2.797   5.706  -4.901  0.00  0.00     0.006 A 
ATOM      5  C4  UNL d   1      -1.845   4.722  -5.170  0.00  0.00    -0.005 A 
ATOM      6  C5  UNL d   1      -2.233   3.493  -5.711  0.00  0.00    -0.074 A 
ATOM      7  C6  UNL d   1      -1.223   2.422  -5.998  0.00  0.00     0.077 C 
ATOM      8  C7  UNL d   1      -3.591   3.261  -5.972  0.00  0.00    -0.001 A 
ENDROOT
TORSDOF 0
ENDMDL
