MODEL 1
REMARK minimizedAffinity -3.17474127
REMARK minimizedRMSD -1
REMARK  0 active torsions:
REMARK  status: ('A' for Active; 'I' for Inactive)
ROOT
ATOM      1  C   UNL d   1       0.066   2.766   1.419  0.00  0.00     0.077 C 
ATOM      2  C1  UNL d   1      -0.908   1.766   0.871  0.00  0.00    -0.074 A 
ATOM      3  C2  UNL d   1      -0.484   0.496   0.466  0.00  0.00    -0.005 A 
ATOM      4  C3  UNL d   1      -1.403  -0.427  -0.032  0.00  0.00     0.006 A 
ATOM      5  C4  UNL d   1      -2.754  -0.090  -0.130  0.00  0.00    -0.005 A 
ATOM      6  C5  UNL d   1      -3.197   1.174   0.272  0.00  0.00    -0.074 A 
ATOM      7  C6  UNL d   1      -4.647   1.548   0.183  0.00  0.00     0.077 C 
ATOM      8  C7  UNL d   1      -2.268   2.094   0.778  0.00  0.00    -0.001 A 
ENDROOT
TORSDOF 0
ENDMDL
