MODEL 1
REMARK minimizedAffinity 3.29038715
REMARK minimizedRMSD -1
REMARK  0 active torsions:
REMARK  status: ('A' for Active; 'I' for Inactive)
ROOT
ATOM      1  C   UNL d   1       2.421   3.424   2.901  0.00  0.00     0.077 C 
ATOM      2  C1  UNL d   1       1.517   2.608   2.026  0.00  0.00    -0.074 A 
ATOM      3  C2  UNL d   1       2.041   1.734   1.068  0.00  0.00    -0.005 A 
ATOM      4  C3  UNL d   1       1.188   0.974   0.267  0.00  0.00     0.006 A 
ATOM      5  C4  UNL d   1      -0.196   1.081   0.416  0.00  0.00    -0.005 A 
ATOM      6  C5  UNL d   1      -0.737   1.949   1.369  0.00  0.00    -0.074 A 
ATOM      7  C6  UNL d   1      -2.222   2.069   1.549  0.00  0.00     0.077 C 
ATOM      8  C7  UNL d   1       0.127   2.704   2.175  0.00  0.00    -0.001 A 
ENDROOT
TORSDOF 0
ENDMDL
