MODEL 1
REMARK minimizedAffinity 2.02532339
REMARK minimizedRMSD -1
REMARK  0 active torsions:
REMARK  status: ('A' for Active; 'I' for Inactive)
ROOT
ATOM      1  C   UNL d   1       2.308  -0.812  -2.242  0.00  0.00     0.077 C 
ATOM      2  C1  UNL d   1       1.090  -1.153  -1.437  0.00  0.00    -0.074 A 
ATOM      3  C2  UNL d   1       0.873  -0.575  -0.182  0.00  0.00    -0.005 A 
ATOM      4  C3  UNL d   1      -0.269  -0.894   0.552  0.00  0.00     0.006 A 
ATOM      5  C4  UNL d   1      -1.205  -1.793   0.039  0.00  0.00    -0.005 A 
ATOM      6  C5  UNL d   1      -1.006  -2.380  -1.214  0.00  0.00    -0.074 A 
ATOM      7  C6  UNL d   1      -2.006  -3.341  -1.784  0.00  0.00     0.077 C 
ATOM      8  C7  UNL d   1       0.141  -2.049  -1.948  0.00  0.00    -0.001 A 
ENDROOT
TORSDOF 0
ENDMDL
