MODEL 1
REMARK minimizedAffinity 3.88019323
REMARK minimizedRMSD -1
REMARK  0 active torsions:
REMARK  status: ('A' for Active; 'I' for Inactive)
ROOT
ATOM      1  C   UNL d   1      -5.992   4.842  -5.992  0.00  0.00     0.077 C 
ATOM      2  C1  UNL d   1      -4.596   4.459  -5.600  0.00  0.00    -0.074 A 
ATOM      3  C2  UNL d   1      -4.047   3.236  -6.000  0.00  0.00    -0.005 A 
ATOM      4  C3  UNL d   1      -2.743   2.898  -5.636  0.00  0.00     0.006 A 
ATOM      5  C4  UNL d   1      -1.977   3.777  -4.869  0.00  0.00    -0.005 A 
ATOM      6  C5  UNL d   1      -2.509   5.004  -4.460  0.00  0.00    -0.074 A 
ATOM      7  C6  UNL d   1      -1.696   5.964  -3.644  0.00  0.00     0.077 C 
ATOM      8  C7  UNL d   1      -3.817   5.340  -4.836  0.00  0.00    -0.001 A 
ENDROOT
TORSDOF 0
ENDMDL
