MODEL 1
REMARK minimizedAffinity 1.13418245
REMARK minimizedRMSD -1
REMARK  0 active torsions:
REMARK  status: ('A' for Active; 'I' for Inactive)
ROOT
ATOM      1  C   UNL d   1      -0.209   3.447  -5.723  0.00  0.00     0.077 C 
ATOM      2  C1  UNL d   1       1.225   3.422  -5.285  0.00  0.00    -0.074 A 
ATOM      3  C2  UNL d   1       2.206   4.118  -5.998  0.00  0.00    -0.005 A 
ATOM      4  C3  UNL d   1       3.535   4.093  -5.573  0.00  0.00     0.006 A 
ATOM      5  C4  UNL d   1       3.894   3.373  -4.433  0.00  0.00    -0.005 A 
ATOM      6  C5  UNL d   1       2.927   2.672  -3.707  0.00  0.00    -0.074 A 
ATOM      7  C6  UNL d   1       3.295   1.901  -2.474  0.00  0.00     0.077 C 
ATOM      8  C7  UNL d   1       1.593   2.707  -4.137  0.00  0.00    -0.001 A 
ENDROOT
TORSDOF 0
ENDMDL
