MODEL 1
REMARK minimizedAffinity -1.60743845
REMARK minimizedRMSD -1
REMARK  0 active torsions:
REMARK  status: ('A' for Active; 'I' for Inactive)
ROOT
ATOM      1  C   UNL d   1       3.201   3.027   2.914  0.00  0.00     0.077 C 
ATOM      2  C1  UNL d   1       2.251   2.355   1.967  0.00  0.00    -0.074 A 
ATOM      3  C2  UNL d   1       2.677   1.306   1.146  0.00  0.00    -0.005 A 
ATOM      4  C3  UNL d   1       1.780   0.684   0.277  0.00  0.00     0.006 A 
ATOM      5  C4  UNL d   1       0.451   1.104   0.221  0.00  0.00    -0.005 A 
ATOM      6  C5  UNL d   1       0.007   2.151   1.035  0.00  0.00    -0.074 A 
ATOM      7  C6  UNL d   1      -1.421   2.608   0.995  0.00  0.00     0.077 C 
ATOM      8  C7  UNL d   1       0.912   2.766   1.911  0.00  0.00    -0.001 A 
ENDROOT
TORSDOF 0
ENDMDL
