MODEL 1
REMARK minimizedAffinity -1.13070762
REMARK minimizedRMSD -1
REMARK  0 active torsions:
REMARK  status: ('A' for Active; 'I' for Inactive)
ROOT
ATOM      1  C   UNL d   1       2.342   3.640   2.725  0.00  0.00     0.077 C 
ATOM      2  C1  UNL d   1       1.639   2.726   1.767  0.00  0.00    -0.074 A 
ATOM      3  C2  UNL d   1       2.361   1.862   0.937  0.00  0.00    -0.005 A 
ATOM      4  C3  UNL d   1       1.693   1.010   0.057  0.00  0.00     0.006 A 
ATOM      5  C4  UNL d   1       0.298   1.014  -0.002  0.00  0.00    -0.005 A 
ATOM      6  C5  UNL d   1      -0.440   1.871   0.820  0.00  0.00    -0.074 A 
ATOM      7  C6  UNL d   1      -1.939   1.880   0.776  0.00  0.00     0.077 C 
ATOM      8  C7  UNL d   1       0.238   2.718   1.707  0.00  0.00    -0.001 A 
ENDROOT
TORSDOF 0
ENDMDL
