MODEL 1
REMARK minimizedAffinity 2.68438673
REMARK minimizedRMSD -1
REMARK  0 active torsions:
REMARK  status: ('A' for Active; 'I' for Inactive)
ROOT
ATOM      1  C   UNL d   1      -0.972   2.757  -5.997  0.00  0.00     0.077 C 
ATOM      2  C1  UNL d   1      -2.173   3.656  -5.988  0.00  0.00    -0.074 A 
ATOM      3  C2  UNL d   1      -2.029   5.047  -5.991  0.00  0.00    -0.005 A 
ATOM      4  C3  UNL d   1      -3.155   5.870  -5.992  0.00  0.00     0.006 A 
ATOM      5  C4  UNL d   1      -4.434   5.312  -5.991  0.00  0.00    -0.005 A 
ATOM      6  C5  UNL d   1      -4.597   3.923  -5.990  0.00  0.00    -0.074 A 
ATOM      7  C6  UNL d   1      -5.964   3.306  -5.999  0.00  0.00     0.077 C 
ATOM      8  C7  UNL d   1      -3.461   3.102  -5.995  0.00  0.00    -0.001 A 
ENDROOT
TORSDOF 0
ENDMDL
