MODEL 1
REMARK minimizedAffinity 6.45247889
REMARK minimizedRMSD -1
REMARK  0 active torsions:
REMARK  status: ('A' for Active; 'I' for Inactive)
ROOT
ATOM      1  C   UNL d   1      -2.294   1.867   1.132  0.00  0.00     0.077 C 
ATOM      2  C1  UNL d   1      -0.811   1.650   1.184  0.00  0.00    -0.074 A 
ATOM      3  C2  UNL d   1      -0.193   0.705   0.359  0.00  0.00    -0.005 A 
ATOM      4  C3  UNL d   1       1.188   0.521   0.411  0.00  0.00     0.006 A 
ATOM      5  C4  UNL d   1       1.965   1.280   1.288  0.00  0.00    -0.005 A 
ATOM      6  C5  UNL d   1       1.365   2.231   2.119  0.00  0.00    -0.074 A 
ATOM      7  C6  UNL d   1       2.186   3.062   3.060  0.00  0.00     0.077 C 
ATOM      8  C7  UNL d   1      -0.023   2.414   2.056  0.00  0.00    -0.001 A 
ENDROOT
TORSDOF 0
ENDMDL
