MODEL 1
REMARK minimizedAffinity 10.5608511
REMARK minimizedRMSD -1
REMARK  1 active torsions:
REMARK  status: ('A' for Active; 'I' for Inactive)
REMARK    1  A    between atoms: C1_2  and  C2_3 
ROOT
ATOM      1  C2  UNL d   1       3.773   0.295  -0.658  0.00  0.00    -0.073 A 
ATOM      2  C3  UNL d   1       4.357   0.613  -1.889  0.00  0.00    -0.002 A 
ATOM      3  C4  UNL d   1       5.462   1.463  -1.947  0.00  0.00     0.004 A 
ATOM      4  C5  UNL d   1       5.998   1.998  -0.776  0.00  0.00    -0.004 A 
ATOM      5  C6  UNL d   1       5.436   1.682   0.466  0.00  0.00    -0.075 A 
ATOM      6  C7  UNL d   1       6.000   2.251   1.735  0.00  0.00     0.076 C 
ATOM      7  C8  UNL d   1       4.325   0.830   0.515  0.00  0.00     0.001 A 
ENDROOT
BRANCH   1   8
ATOM      8  C1  UNL d   1       2.584  -0.628  -0.590  0.00  0.00     0.053 C 
ATOM      9  C   UNL d   1       2.997  -2.077  -0.391  0.00  0.00     0.018 C 
ENDBRANCH   1   8
TORSDOF 1
ENDMDL
