MODEL 1
REMARK minimizedAffinity 3.76982093
REMARK minimizedRMSD -1
REMARK  1 active torsions:
REMARK  status: ('A' for Active; 'I' for Inactive)
REMARK    1  A    between atoms: C1_2  and  C2_3 
ROOT
ATOM      1  C2  UNL d   1       2.312  -2.941  -1.349  0.00  0.00    -0.073 A 
ATOM      2  C3  UNL d   1       2.684  -3.353  -2.633  0.00  0.00    -0.002 A 
ATOM      3  C4  UNL d   1       3.579  -2.592  -3.386  0.00  0.00     0.004 A 
ATOM      4  C5  UNL d   1       4.117  -1.418  -2.860  0.00  0.00    -0.004 A 
ATOM      5  C6  UNL d   1       3.767  -0.996  -1.573  0.00  0.00    -0.075 A 
ATOM      6  C7  UNL d   1       4.334   0.267  -0.994  0.00  0.00     0.076 C 
ATOM      7  C8  UNL d   1       2.865  -1.764  -0.825  0.00  0.00     0.001 A 
ENDROOT
BRANCH   1   8
ATOM      8  C1  UNL d   1       1.350  -3.763  -0.530  0.00  0.00     0.053 C 
ATOM      9  C   UNL d   1       0.203  -4.302  -1.369  0.00  0.00     0.018 C 
ENDBRANCH   1   8
TORSDOF 1
ENDMDL
