MODEL 1
REMARK minimizedAffinity -3.83070588
REMARK minimizedRMSD -1
REMARK  0 active torsions:
REMARK  status: ('A' for Active; 'I' for Inactive)
ROOT
ATOM      1  C4' PXY d   1       3.152  -0.872  -1.029  0.00  0.00     0.077 C 
ATOM      2  C1' PXY d   1      -2.291   1.060  -0.789  0.00  0.00     0.077 C 
ATOM      3  C1  PXY d   1      -0.866   0.545  -0.842  0.00  0.00    -0.082 A 
ATOM      4  C2  PXY d   1       0.090   1.316  -1.335  0.00  0.00     0.003 A 
ATOM      5  C3  PXY d   1       1.378   0.854  -1.420  0.00  0.00     0.003 A 
ATOM      6  C4  PXY d   1       1.701  -0.390  -0.947  0.00  0.00    -0.082 A 
ATOM      7  C5  PXY d   1       0.733  -1.178  -0.433  0.00  0.00     0.003 A 
ATOM      8  C6  PXY d   1      -0.576  -0.706  -0.393  0.00  0.00     0.003 A 
ENDROOT
TORSDOF 0
ENDMDL
