MODEL 1
REMARK minimizedAffinity -4.60634327
REMARK minimizedRMSD -1
REMARK  0 active torsions:
REMARK  status: ('A' for Active; 'I' for Inactive)
ROOT
ATOM      1  C4' PXY d   1      -1.022   1.333   2.394  0.00  0.00     0.077 C 
ATOM      2  C1' PXY d   1       2.047  -1.217  -1.789  0.00  0.00     0.077 C 
ATOM      3  C1  PXY d   1       1.232  -0.549  -0.700  0.00  0.00    -0.082 A 
ATOM      4  C2  PXY d   1       1.832   0.240   0.176  0.00  0.00     0.003 A 
ATOM      5  C3  PXY d   1       1.115   0.827   1.187  0.00  0.00     0.003 A 
ATOM      6  C4  PXY d   1      -0.240   0.645   1.271  0.00  0.00    -0.082 A 
ATOM      7  C5  PXY d   1      -0.861  -0.151   0.375  0.00  0.00     0.003 A 
ATOM      8  C6  PXY d   1      -0.109  -0.769  -0.619  0.00  0.00     0.003 A 
ENDROOT
TORSDOF 0
ENDMDL
