MODEL 1
REMARK minimizedAffinity -0.980522573
REMARK minimizedRMSD -1
REMARK  0 active torsions:
REMARK  status: ('A' for Active; 'I' for Inactive)
ROOT
ATOM      1  C4' PXY d   1      -2.319   0.376   1.941  0.00  0.00     0.077 C 
ATOM      2  C1' PXY d   1       1.866  -1.309  -1.674  0.00  0.00     0.077 C 
ATOM      3  C1  PXY d   1       0.765  -0.880  -0.724  0.00  0.00    -0.082 A 
ATOM      4  C2  PXY d   1       0.202   0.308  -0.869  0.00  0.00     0.003 A 
ATOM      5  C3  PXY d   1      -0.772   0.725   0.001  0.00  0.00     0.003 A 
ATOM      6  C4  PXY d   1      -1.211  -0.104   0.998  0.00  0.00    -0.082 A 
ATOM      7  C5  PXY d   1      -0.649  -1.322   1.147  0.00  0.00     0.003 A 
ATOM      8  C6  PXY d   1       0.367  -1.710   0.279  0.00  0.00     0.003 A 
ENDROOT
TORSDOF 0
ENDMDL
