MODEL 1
REMARK minimizedAffinity -5.38789511
REMARK minimizedRMSD -1
REMARK  0 active torsions:
REMARK  status: ('A' for Active; 'I' for Inactive)
ROOT
ATOM      1  C4' PXY d   1       3.262  -0.695  -1.231  0.00  0.00     0.077 C 
ATOM      2  C1' PXY d   1      -2.140   0.727   0.255  0.00  0.00     0.077 C 
ATOM      3  C1  PXY d   1      -0.724   0.344  -0.127  0.00  0.00    -0.082 A 
ATOM      4  C2  PXY d   1       0.111   1.274  -0.561  0.00  0.00     0.003 A 
ATOM      5  C3  PXY d   1       1.385   0.939  -0.941  0.00  0.00     0.003 A 
ATOM      6  C4  PXY d   1       1.826  -0.352  -0.825  0.00  0.00    -0.082 A 
ATOM      7  C5  PXY d   1       0.984  -1.305  -0.373  0.00  0.00     0.003 A 
ATOM      8  C6  PXY d   1      -0.319  -0.952  -0.031  0.00  0.00     0.003 A 
ENDROOT
TORSDOF 0
ENDMDL
