MODEL 1
REMARK minimizedAffinity -4.7475009
REMARK minimizedRMSD -1
REMARK  0 active torsions:
REMARK  status: ('A' for Active; 'I' for Inactive)
ROOT
ATOM      1  C4' PXY d   1       0.025   2.493  -2.535  0.00  0.00     0.077 C 
ATOM      2  C1' PXY d   1       1.147  -2.442   0.258  0.00  0.00     0.077 C 
ATOM      3  C1  PXY d   1       0.840  -1.149  -0.471  0.00  0.00    -0.082 A 
ATOM      4  C2  PXY d   1       1.652  -0.729  -1.428  0.00  0.00     0.003 A 
ATOM      5  C3  PXY d   1       1.407   0.454  -2.076  0.00  0.00     0.003 A 
ATOM      6  C4  PXY d   1       0.290   1.189  -1.779  0.00  0.00    -0.082 A 
ATOM      7  C5  PXY d   1      -0.548   0.762  -0.811  0.00  0.00     0.003 A 
ATOM      8  C6  PXY d   1      -0.260  -0.421  -0.137  0.00  0.00     0.003 A 
ENDROOT
TORSDOF 0
ENDMDL
