MODEL 1
REMARK minimizedAffinity -5.99742174
REMARK minimizedRMSD -1
REMARK  0 active torsions:
REMARK  status: ('A' for Active; 'I' for Inactive)
ROOT
ATOM      1  C4' PXY d   1      -1.873   0.214   0.811  0.00  0.00     0.077 C 
ATOM      2  C1' PXY d   1       3.300  -0.433  -1.686  0.00  0.00     0.077 C 
ATOM      3  C1  PXY d   1       1.941  -0.276  -1.031  0.00  0.00    -0.082 A 
ATOM      4  C2  PXY d   1       1.283   0.865  -1.156  0.00  0.00     0.003 A 
ATOM      5  C3  PXY d   1       0.068   1.035  -0.543  0.00  0.00     0.003 A 
ATOM      6  C4  PXY d   1      -0.503   0.008   0.159  0.00  0.00    -0.082 A 
ATOM      7  C5  PXY d   1       0.157  -1.163   0.282  0.00  0.00     0.003 A 
ATOM      8  C6  PXY d   1       1.408  -1.301  -0.313  0.00  0.00     0.003 A 
ENDROOT
TORSDOF 0
ENDMDL
