MODEL 1
REMARK minimizedAffinity -5.07205391
REMARK minimizedRMSD -1
REMARK  0 active torsions:
REMARK  status: ('A' for Active; 'I' for Inactive)
ROOT
ATOM      1  C4' PXY d   1       2.949  -1.028  -1.543  0.00  0.00     0.077 C 
ATOM      2  C1' PXY d   1      -2.131   0.591   0.690  0.00  0.00     0.077 C 
ATOM      3  C1  PXY d   1      -0.799   0.177   0.097  0.00  0.00    -0.082 A 
ATOM      4  C2  PXY d   1      -0.476  -1.105   0.044  0.00  0.00     0.003 A 
ATOM      5  C3  PXY d   1       0.739  -1.494  -0.459  0.00  0.00     0.003 A 
ATOM      6  C4  PXY d   1       1.610  -0.565  -0.962  0.00  0.00    -0.082 A 
ATOM      7  C5  PXY d   1       1.284   0.744  -0.921  0.00  0.00     0.003 A 
ATOM      8  C6  PXY d   1       0.063   1.121  -0.369  0.00  0.00     0.003 A 
ENDROOT
TORSDOF 0
ENDMDL
