MODEL 1
REMARK minimizedAffinity -4.95682096
REMARK minimizedRMSD -1
REMARK  0 active torsions:
REMARK  status: ('A' for Active; 'I' for Inactive)
ROOT
ATOM      1  C4' PXY d   1      -2.355  -0.203  -0.080  0.00  0.00     0.077 C 
ATOM      2  C1' PXY d   1       3.341  -0.170  -1.064  0.00  0.00     0.077 C 
ATOM      3  C1  PXY d   1       1.848  -0.166  -0.804  0.00  0.00    -0.082 A 
ATOM      4  C2  PXY d   1       1.250  -1.277  -0.404  0.00  0.00     0.003 A 
ATOM      5  C3  PXY d   1      -0.105  -1.299  -0.195  0.00  0.00     0.003 A 
ATOM      6  C4  PXY d   1      -0.848  -0.159  -0.345  0.00  0.00    -0.082 A 
ATOM      7  C5  PXY d   1      -0.244   0.981  -0.742  0.00  0.00     0.003 A 
ATOM      8  C6  PXY d   1       1.126   0.972  -0.989  0.00  0.00     0.003 A 
ENDROOT
TORSDOF 0
ENDMDL
