MODEL 1
REMARK minimizedAffinity -4.31236076
REMARK minimizedRMSD -1
REMARK  0 active torsions:
REMARK  status: ('A' for Active; 'I' for Inactive)
ROOT
ATOM      1  C4' PXY d   1      -0.435  -2.364   0.457  0.00  0.00     0.077 C 
ATOM      2  C1' PXY d   1       0.930   2.693  -1.989  0.00  0.00     0.077 C 
ATOM      3  C1  PXY d   1       0.581   1.361  -1.355  0.00  0.00    -0.082 A 
ATOM      4  C2  PXY d   1      -0.600   1.199  -0.781  0.00  0.00     0.003 A 
ATOM      5  C3  PXY d   1      -0.920   0.012  -0.175  0.00  0.00     0.003 A 
ATOM      6  C4  PXY d   1      -0.043  -1.039  -0.204  0.00  0.00    -0.082 A 
ATOM      7  C5  PXY d   1       1.160  -0.886  -0.797  0.00  0.00     0.003 A 
ATOM      8  C6  PXY d   1       1.482   0.341  -1.370  0.00  0.00     0.003 A 
ENDROOT
TORSDOF 0
ENDMDL
