MODEL 1
REMARK minimizedAffinity -5.01401615
REMARK minimizedRMSD -1
REMARK  0 active torsions:
REMARK  status: ('A' for Active; 'I' for Inactive)
ROOT
ATOM      1  C4' PXY d   1       1.864   1.905  -1.229  0.00  0.00     0.077 C 
ATOM      2  C1' PXY d   1      -0.755  -3.112  -0.055  0.00  0.00     0.077 C 
ATOM      3  C1  PXY d   1      -0.056  -1.803  -0.363  0.00  0.00    -0.082 A 
ATOM      4  C2  PXY d   1      -0.626  -0.660  -0.015  0.00  0.00     0.003 A 
ATOM      5  C3  PXY d   1      -0.023   0.535  -0.315  0.00  0.00     0.003 A 
ATOM      6  C4  PXY d   1       1.200   0.559  -0.930  0.00  0.00    -0.082 A 
ATOM      7  C5  PXY d   1       1.792  -0.603  -1.278  0.00  0.00     0.003 A 
ATOM      8  C6  PXY d   1       1.145  -1.804  -1.002  0.00  0.00     0.003 A 
ENDROOT
TORSDOF 0
ENDMDL
