MODEL 1
REMARK minimizedAffinity -4.55429363
REMARK minimizedRMSD -1
REMARK  0 active torsions:
REMARK  status: ('A' for Active; 'I' for Inactive)
ROOT
ATOM      1  C4' PXY d   1      -1.448   0.386   1.091  0.00  0.00     0.077 C 
ATOM      2  C1' PXY d   1       3.539  -0.645  -1.645  0.00  0.00     0.077 C 
ATOM      3  C1  PXY d   1       2.225  -0.382  -0.936  0.00  0.00    -0.082 A 
ATOM      4  C2  PXY d   1       2.091   0.699  -0.185  0.00  0.00     0.003 A 
ATOM      5  C3  PXY d   1       0.921   0.936   0.488  0.00  0.00     0.003 A 
ATOM      6  C4  PXY d   1      -0.143   0.085   0.350  0.00  0.00    -0.082 A 
ATOM      7  C5  PXY d   1      -0.018  -1.015  -0.423  0.00  0.00     0.003 A 
ATOM      8  C6  PXY d   1       1.192  -1.259  -1.065  0.00  0.00     0.003 A 
ENDROOT
TORSDOF 0
ENDMDL
