MODEL 1
REMARK minimizedAffinity -5.24796915
REMARK minimizedRMSD -1
REMARK  0 active torsions:
REMARK  status: ('A' for Active; 'I' for Inactive)
ROOT
ATOM      1  C4' PXY d   1      -1.862   0.371   0.561  0.00  0.00     0.077 C 
ATOM      2  C1' PXY d   1       3.395  -0.606  -1.634  0.00  0.00     0.077 C 
ATOM      3  C1  PXY d   1       2.013  -0.362  -1.061  0.00  0.00    -0.082 A 
ATOM      4  C2  PXY d   1       1.519   0.865  -1.044  0.00  0.00     0.003 A 
ATOM      5  C3  PXY d   1       0.284   1.108  -0.500  0.00  0.00     0.003 A 
ATOM      6  C4  PXY d   1      -0.475   0.077  -0.017  0.00  0.00    -0.082 A 
ATOM      7  C5  PXY d   1       0.017  -1.180  -0.040  0.00  0.00     0.003 A 
ATOM      8  C6  PXY d   1       1.290  -1.400  -0.559  0.00  0.00     0.003 A 
ENDROOT
TORSDOF 0
ENDMDL
