MODEL 1
REMARK minimizedAffinity -2.26612711
REMARK minimizedRMSD -1
REMARK  0 active torsions:
REMARK  status: ('A' for Active; 'I' for Inactive)
ROOT
ATOM      1  C4' PXY d   1       1.090   2.738  -1.471  0.00  0.00     0.077 C 
ATOM      2  C1' PXY d   1      -0.836  -2.573  -0.246  0.00  0.00     0.077 C 
ATOM      3  C1  PXY d   1      -0.320  -1.183  -0.561  0.00  0.00    -0.082 A 
ATOM      4  C2  PXY d   1      -1.178  -0.210  -0.822  0.00  0.00     0.003 A 
ATOM      5  C3  PXY d   1      -0.728   1.046  -1.140  0.00  0.00     0.003 A 
ATOM      6  C4  PXY d   1       0.614   1.321  -1.139  0.00  0.00    -0.082 A 
ATOM      7  C5  PXY d   1       1.495   0.337  -0.863  0.00  0.00     0.003 A 
ATOM      8  C6  PXY d   1       1.019  -0.941  -0.583  0.00  0.00     0.003 A 
ENDROOT
TORSDOF 0
ENDMDL
