MODEL 1
REMARK minimizedAffinity -5.04787207
REMARK minimizedRMSD -1
REMARK  0 active torsions:
REMARK  status: ('A' for Active; 'I' for Inactive)
ROOT
ATOM      1  C4' PXY d   1      -1.811   0.425   1.057  0.00  0.00     0.077 C 
ATOM      2  C1' PXY d   1       3.257  -0.763  -1.457  0.00  0.00     0.077 C 
ATOM      3  C1  PXY d   1       1.932  -0.440  -0.794  0.00  0.00    -0.082 A 
ATOM      4  C2  PXY d   1       1.163  -1.423  -0.357  0.00  0.00     0.003 A 
ATOM      5  C3  PXY d   1      -0.053  -1.150   0.216  0.00  0.00     0.003 A 
ATOM      6  C4  PXY d   1      -0.461   0.145   0.390  0.00  0.00    -0.082 A 
ATOM      7  C5  PXY d   1       0.324   1.154  -0.044  0.00  0.00     0.003 A 
ATOM      8  C6  PXY d   1       1.535   0.855  -0.660  0.00  0.00     0.003 A 
ENDROOT
TORSDOF 0
ENDMDL
