MODEL 1
REMARK minimizedAffinity -4.08859253
REMARK minimizedRMSD -1
REMARK  0 active torsions:
REMARK  status: ('A' for Active; 'I' for Inactive)
ROOT
ATOM      1  C4' PXY d   1      -1.622   0.004   0.638  0.00  0.00     0.077 C 
ATOM      2  C1' PXY d   1       3.494  -0.539  -1.997  0.00  0.00     0.077 C 
ATOM      3  C1  PXY d   1       2.151  -0.410  -1.306  0.00  0.00    -0.082 A 
ATOM      4  C2  PXY d   1       1.470   0.720  -1.407  0.00  0.00     0.003 A 
ATOM      5  C3  PXY d   1       0.269   0.866  -0.762  0.00  0.00     0.003 A 
ATOM      6  C4  PXY d   1      -0.266  -0.175  -0.051  0.00  0.00    -0.082 A 
ATOM      7  C5  PXY d   1       0.417  -1.335   0.047  0.00  0.00     0.003 A 
ATOM      8  C6  PXY d   1       1.654  -1.448  -0.581  0.00  0.00     0.003 A 
ENDROOT
TORSDOF 0
ENDMDL
