MODEL 1
REMARK minimizedAffinity -4.59623528
REMARK minimizedRMSD -1
REMARK  0 active torsions:
REMARK  status: ('A' for Active; 'I' for Inactive)
ROOT
ATOM      1  C4' PXY d   1      -1.699   0.371   1.496  0.00  0.00     0.077 C 
ATOM      2  C1' PXY d   1       2.756  -1.224  -1.823  0.00  0.00     0.077 C 
ATOM      3  C1  PXY d   1       1.585  -0.818  -0.951  0.00  0.00    -0.082 A 
ATOM      4  C2  PXY d   1       1.039   0.377  -1.104  0.00  0.00     0.003 A 
ATOM      5  C3  PXY d   1      -0.000   0.772  -0.301  0.00  0.00     0.003 A 
ATOM      6  C4  PXY d   1      -0.521  -0.085   0.631  0.00  0.00    -0.082 A 
ATOM      7  C5  PXY d   1       0.024  -1.310   0.785  0.00  0.00     0.003 A 
ATOM      8  C6  PXY d   1       1.105  -1.677  -0.011  0.00  0.00     0.003 A 
ENDROOT
TORSDOF 0
ENDMDL
