MODEL 1
REMARK minimizedAffinity -4.2886982
REMARK minimizedRMSD -1
REMARK  0 active torsions:
REMARK  status: ('A' for Active; 'I' for Inactive)
ROOT
ATOM      1  C4' PXY d   1      -0.019  -3.315  -0.031  0.00  0.00     0.077 C 
ATOM      2  C1' PXY d   1       1.703   2.029  -1.406  0.00  0.00     0.077 C 
ATOM      3  C1  PXY d   1       1.241   0.632  -1.039  0.00  0.00    -0.082 A 
ATOM      4  C2  PXY d   1       2.109  -0.367  -1.046  0.00  0.00     0.003 A 
ATOM      5  C3  PXY d   1       1.702  -1.641  -0.747  0.00  0.00     0.003 A 
ATOM      6  C4  PXY d   1       0.404  -1.887  -0.386  0.00  0.00    -0.082 A 
ATOM      7  C5  PXY d   1      -0.485  -0.872  -0.365  0.00  0.00     0.003 A 
ATOM      8  C6  PXY d   1      -0.060   0.408  -0.712  0.00  0.00     0.003 A 
ENDROOT
TORSDOF 0
ENDMDL
