MODEL 1
REMARK minimizedAffinity -3.84070754
REMARK minimizedRMSD -1
REMARK  0 active torsions:
REMARK  status: ('A' for Active; 'I' for Inactive)
ROOT
ATOM      1  C4' PXY d   1      -2.197   0.546   1.909  0.00  0.00     0.077 C 
ATOM      2  C1' PXY d   1       2.017  -0.844  -1.796  0.00  0.00     0.077 C 
ATOM      3  C1  PXY d   1       0.913  -0.467  -0.828  0.00  0.00    -0.082 A 
ATOM      4  C2  PXY d   1       0.697  -1.215   0.242  0.00  0.00     0.003 A 
ATOM      5  C3  PXY d   1      -0.318  -0.907   1.110  0.00  0.00     0.003 A 
ATOM      6  C4  PXY d   1      -1.087   0.209   0.910  0.00  0.00    -0.082 A 
ATOM      7  C5  PXY d   1      -0.866   0.982  -0.174  0.00  0.00     0.003 A 
ATOM      8  C6  PXY d   1       0.143   0.629  -1.065  0.00  0.00     0.003 A 
ENDROOT
TORSDOF 0
ENDMDL
