MODEL 1
REMARK minimizedAffinity -4.60922623
REMARK minimizedRMSD -1
REMARK  0 active torsions:
REMARK  status: ('A' for Active; 'I' for Inactive)
ROOT
ATOM      1  C4' PXY d   1      -2.079   0.997   2.851  0.00  0.00     0.077 C 
ATOM      2  C1' PXY d   1       1.855   0.147  -1.299  0.00  0.00     0.077 C 
ATOM      3  C1  PXY d   1       0.814   0.374  -0.219  0.00  0.00    -0.082 A 
ATOM      4  C2  PXY d   1       1.202   0.619   1.022  0.00  0.00     0.003 A 
ATOM      5  C3  PXY d   1       0.275   0.795   2.016  0.00  0.00     0.003 A 
ATOM      6  C4  PXY d   1      -1.063   0.771   1.727  0.00  0.00    -0.082 A 
ATOM      7  C5  PXY d   1      -1.467   0.532   0.462  0.00  0.00     0.003 A 
ATOM      8  C6  PXY d   1      -0.510   0.316  -0.526  0.00  0.00     0.003 A 
ENDROOT
TORSDOF 0
ENDMDL
