MODEL 1
REMARK minimizedAffinity -5.56359482
REMARK minimizedRMSD -1
REMARK  0 active torsions:
REMARK  status: ('A' for Active; 'I' for Inactive)
ROOT
ATOM      1  C4' PXY d   1      -1.785   0.432   1.218  0.00  0.00     0.077 C 
ATOM      2  C1' PXY d   1       3.014  -0.643  -1.820  0.00  0.00     0.077 C 
ATOM      3  C1  PXY d   1       1.758  -0.348  -1.024  0.00  0.00    -0.082 A 
ATOM      4  C2  PXY d   1       1.257  -1.276  -0.225  0.00  0.00     0.003 A 
ATOM      5  C3  PXY d   1       0.104  -1.038   0.477  0.00  0.00     0.003 A 
ATOM      6  C4  PXY d   1      -0.513   0.182   0.403  0.00  0.00    -0.082 A 
ATOM      7  C5  PXY d   1      -0.002   1.138  -0.401  0.00  0.00     0.003 A 
ATOM      8  C6  PXY d   1       1.146   0.862  -1.138  0.00  0.00     0.003 A 
ENDROOT
TORSDOF 0
ENDMDL
