MODEL 1
REMARK minimizedAffinity -4.29432869
REMARK minimizedRMSD -1
REMARK  1 active torsions:
REMARK  status: ('A' for Active; 'I' for Inactive)
REMARK    1  A    between atoms: C1_2  and  C2_3 
ROOT
ATOM      1  C2  UNL d   1       1.626  -0.769   0.128  0.00  0.00    -0.077 A 
ATOM      2  C3  UNL d   1       2.903  -1.051  -0.377  0.00  0.00     0.002 A 
ATOM      3  C4  UNL d   1       3.780  -0.014  -0.698  0.00  0.00     0.002 A 
ATOM      4  C5  UNL d   1       3.392   1.311  -0.515  0.00  0.00    -0.004 A 
ATOM      5  C6  UNL d   1       2.123   1.602  -0.015  0.00  0.00     0.002 A 
ATOM      6  C7  UNL d   1       1.244   0.567   0.306  0.00  0.00     0.002 A 
ENDROOT
BRANCH   1   7
ATOM      7  C1  UNL d   1       0.696  -1.888   0.522  0.00  0.00     0.055 C 
ATOM      8  C   UNL d   1       0.434  -2.826  -0.646  0.00  0.00     0.019 C 
ENDBRANCH   1   7
TORSDOF 1
ENDMDL
