MODEL 1
REMARK minimizedAffinity -4.13046074
REMARK minimizedRMSD -1
REMARK  1 active torsions:
REMARK  status: ('A' for Active; 'I' for Inactive)
REMARK    1  A    between atoms: C1_2  and  C2_3 
ROOT
ATOM      1  C2  UNL d   1       0.030   0.093  -0.875  0.00  0.00    -0.077 A 
ATOM      2  C3  UNL d   1       0.408   1.254  -0.186  0.00  0.00     0.002 A 
ATOM      3  C4  UNL d   1       1.437   1.212   0.757  0.00  0.00     0.002 A 
ATOM      4  C5  UNL d   1       2.097   0.014   1.017  0.00  0.00    -0.004 A 
ATOM      5  C6  UNL d   1       1.727  -1.147   0.339  0.00  0.00     0.002 A 
ATOM      6  C7  UNL d   1       0.698  -1.107  -0.603  0.00  0.00     0.002 A 
ENDROOT
BRANCH   1   7
ATOM      7  C1  UNL d   1      -1.046   0.147  -1.928  0.00  0.00     0.055 C 
ATOM      8  C   UNL d   1      -0.719  -0.768  -3.100  0.00  0.00     0.019 C 
ENDBRANCH   1   7
TORSDOF 1
ENDMDL
