MODEL 1
REMARK minimizedAffinity -4.81867123
REMARK minimizedRMSD -1
REMARK  1 active torsions:
REMARK  status: ('A' for Active; 'I' for Inactive)
REMARK    1  A    between atoms: C1_2  and  C2_3 
ROOT
ATOM      1  C2  UNL d   1       0.674  -0.105  -0.033  0.00  0.00    -0.077 A 
ATOM      2  C3  UNL d   1       1.555   0.384   0.941  0.00  0.00     0.002 A 
ATOM      3  C4  UNL d   1       2.760  -0.273   1.197  0.00  0.00     0.002 A 
ATOM      4  C5  UNL d   1       3.096  -1.420   0.481  0.00  0.00    -0.004 A 
ATOM      5  C6  UNL d   1       2.225  -1.916  -0.488  0.00  0.00     0.002 A 
ATOM      6  C7  UNL d   1       1.020  -1.261  -0.745  0.00  0.00     0.002 A 
ENDROOT
BRANCH   1   7
ATOM      7  C1  UNL d   1      -0.603   0.630  -0.346  0.00  0.00     0.055 C 
ATOM      8  C   UNL d   1      -1.002   0.452  -1.804  0.00  0.00     0.019 C 
ENDBRANCH   1   7
TORSDOF 1
ENDMDL
