MODEL 1
REMARK minimizedAffinity -2.75479722
REMARK minimizedRMSD -1
REMARK  1 active torsions:
REMARK  status: ('A' for Active; 'I' for Inactive)
REMARK    1  A    between atoms: C1_2  and  C2_3 
ROOT
ATOM      1  C2  UNL d   1       1.855  -1.586  -0.717  0.00  0.00    -0.077 A 
ATOM      2  C3  UNL d   1       0.575  -1.059  -0.492  0.00  0.00     0.002 A 
ATOM      3  C4  UNL d   1       0.382  -0.051   0.455  0.00  0.00     0.002 A 
ATOM      4  C5  UNL d   1       1.465   0.441   1.181  0.00  0.00    -0.004 A 
ATOM      5  C6  UNL d   1       2.741  -0.078   0.966  0.00  0.00     0.002 A 
ATOM      6  C7  UNL d   1       2.936  -1.086   0.021  0.00  0.00     0.002 A 
ENDROOT
BRANCH   1   7
ATOM      7  C1  UNL d   1       2.073  -2.638  -1.773  0.00  0.00     0.055 C 
ATOM      8  C   UNL d   1       3.183  -2.236  -2.733  0.00  0.00     0.019 C 
ENDBRANCH   1   7
TORSDOF 1
ENDMDL
