MODEL 1
REMARK minimizedAffinity -1.76597524
REMARK minimizedRMSD -1
REMARK  1 active torsions:
REMARK  status: ('A' for Active; 'I' for Inactive)
REMARK    1  A    between atoms: C1_2  and  C2_3 
ROOT
ATOM      1  C2  UNL d   1      -1.006   0.919   0.501  0.00  0.00    -0.077 A 
ATOM      2  C3  UNL d   1      -0.711  -0.446   0.621  0.00  0.00     0.002 A 
ATOM      3  C4  UNL d   1       0.604  -0.898   0.498  0.00  0.00     0.002 A 
ATOM      4  C5  UNL d   1       1.635   0.008   0.259  0.00  0.00    -0.004 A 
ATOM      5  C6  UNL d   1       1.352   1.368   0.136  0.00  0.00     0.002 A 
ATOM      6  C7  UNL d   1       0.038   1.822   0.258  0.00  0.00     0.002 A 
ENDROOT
BRANCH   1   7
ATOM      7  C1  UNL d   1      -2.417   1.415   0.683  0.00  0.00     0.055 C 
ATOM      8  C   UNL d   1      -3.393   0.258   0.841  0.00  0.00     0.019 C 
ENDBRANCH   1   7
TORSDOF 1
ENDMDL
