MODEL 1
REMARK minimizedAffinity -1.72045624
REMARK minimizedRMSD -1
REMARK  1 active torsions:
REMARK  status: ('A' for Active; 'I' for Inactive)
REMARK    1  A    between atoms: C1_2  and  C2_3 
ROOT
ATOM      1  C2  UNL d   1       1.530  -0.602  -0.252  0.00  0.00    -0.077 A 
ATOM      2  C3  UNL d   1       2.404  -1.004   0.768  0.00  0.00     0.002 A 
ATOM      3  C4  UNL d   1       2.944  -0.064   1.647  0.00  0.00     0.002 A 
ATOM      4  C5  UNL d   1       2.614   1.284   1.518  0.00  0.00    -0.004 A 
ATOM      5  C6  UNL d   1       1.747   1.694   0.505  0.00  0.00     0.002 A 
ATOM      6  C7  UNL d   1       1.207   0.755  -0.375  0.00  0.00     0.002 A 
ENDROOT
BRANCH   1   7
ATOM      7  C1  UNL d   1       0.908  -1.622  -1.170  0.00  0.00     0.055 C 
ATOM      8  C   UNL d   1      -0.099  -0.977  -2.111  0.00  0.00     0.019 C 
ENDBRANCH   1   7
TORSDOF 1
ENDMDL
