MODEL 1
REMARK minimizedAffinity -2.89576983
REMARK minimizedRMSD -1
REMARK  0 active torsions:
REMARK  status: ('A' for Active; 'I' for Inactive)
ROOT
ATOM      1  C   UNL d   1      -2.349   1.275  -3.918  0.00  0.00     0.077 C 
ATOM      2  C1  UNL d   1      -1.885   1.288  -2.492  0.00  0.00    -0.074 A 
ATOM      3  C2  UNL d   1      -2.150   2.381  -1.660  0.00  0.00    -0.005 A 
ATOM      4  C3  UNL d   1      -1.720   2.374  -0.333  0.00  0.00     0.006 A 
ATOM      5  C4  UNL d   1      -1.023   1.277   0.175  0.00  0.00    -0.005 A 
ATOM      6  C5  UNL d   1      -0.751   0.175  -0.642  0.00  0.00    -0.074 A 
ATOM      7  C6  UNL d   1      -0.011  -1.016  -0.109  0.00  0.00     0.077 C 
ATOM      8  C7  UNL d   1      -1.191   0.186  -1.973  0.00  0.00    -0.001 A 
ENDROOT
TORSDOF 0
ENDMDL
