MODEL 1
REMARK minimizedAffinity -0.901903629
REMARK minimizedRMSD -1
REMARK  0 active torsions:
REMARK  status: ('A' for Active; 'I' for Inactive)
ROOT
ATOM      1  C   UNL d   1      -0.754   4.528  -4.715  0.00  0.00     0.077 C 
ATOM      2  C1  UNL d   1      -1.473   3.577  -3.805  0.00  0.00    -0.074 A 
ATOM      3  C2  UNL d   1      -2.650   2.942  -4.214  0.00  0.00    -0.005 A 
ATOM      4  C3  UNL d   1      -3.303   2.053  -3.361  0.00  0.00     0.006 A 
ATOM      5  C4  UNL d   1      -2.786   1.790  -2.091  0.00  0.00    -0.005 A 
ATOM      6  C5  UNL d   1      -1.610   2.415  -1.665  0.00  0.00    -0.074 A 
ATOM      7  C6  UNL d   1      -1.036   2.136  -0.308  0.00  0.00     0.077 C 
ATOM      8  C7  UNL d   1      -0.956   3.302  -2.531  0.00  0.00    -0.001 A 
ENDROOT
TORSDOF 0
ENDMDL
