MODEL 1
REMARK minimizedAffinity -5.28642273
REMARK minimizedRMSD -1
REMARK  0 active torsions:
REMARK  status: ('A' for Active; 'I' for Inactive)
ROOT
ATOM      1  C   UNL d   1      -1.619   1.004  -0.497  0.00  0.00     0.077 C 
ATOM      2  C1  UNL d   1      -0.335   0.306  -0.159  0.00  0.00    -0.074 A 
ATOM      3  C2  UNL d   1       0.899   0.860  -0.514  0.00  0.00    -0.005 A 
ATOM      4  C3  UNL d   1       2.085   0.204  -0.184  0.00  0.00     0.006 A 
ATOM      5  C4  UNL d   1       2.049  -1.010   0.501  0.00  0.00    -0.005 A 
ATOM      6  C5  UNL d   1       0.824  -1.579   0.865  0.00  0.00    -0.074 A 
ATOM      7  C6  UNL d   1       0.768  -2.880   1.610  0.00  0.00     0.077 C 
ATOM      8  C7  UNL d   1      -0.363  -0.911   0.536  0.00  0.00    -0.001 A 
ENDROOT
TORSDOF 0
ENDMDL
