MODEL 1
REMARK minimizedAffinity -5.3469491
REMARK minimizedRMSD -1
REMARK  0 active torsions:
REMARK  status: ('A' for Active; 'I' for Inactive)
ROOT
ATOM      1  C   UNL d   1       1.057  -2.801   1.171  0.00  0.00     0.077 C 
ATOM      2  C1  UNL d   1       0.223  -1.555   1.149  0.00  0.00    -0.074 A 
ATOM      3  C2  UNL d   1      -0.742  -1.318   2.134  0.00  0.00    -0.005 A 
ATOM      4  C3  UNL d   1      -1.503  -0.150   2.106  0.00  0.00     0.006 A 
ATOM      5  C4  UNL d   1      -1.308   0.792   1.095  0.00  0.00    -0.005 A 
ATOM      6  C5  UNL d   1      -0.347   0.573   0.103  0.00  0.00    -0.074 A 
ATOM      7  C6  UNL d   1      -0.117   1.580  -0.985  0.00  0.00     0.077 C 
ATOM      8  C7  UNL d   1       0.419  -0.600   0.142  0.00  0.00    -0.001 A 
ENDROOT
TORSDOF 0
ENDMDL
