MODEL 1
REMARK minimizedAffinity -4.16856098
REMARK minimizedRMSD -1
REMARK  0 active torsions:
REMARK  status: ('A' for Active; 'I' for Inactive)
ROOT
ATOM      1  C   UNL d   1       1.165  -2.905   1.483  0.00  0.00     0.077 C 
ATOM      2  C1  UNL d   1       1.287  -1.667   0.645  0.00  0.00    -0.074 A 
ATOM      3  C2  UNL d   1       2.438  -1.420  -0.109  0.00  0.00    -0.005 A 
ATOM      4  C3  UNL d   1       2.533  -0.269  -0.891  0.00  0.00     0.006 A 
ATOM      5  C4  UNL d   1       1.479   0.645  -0.927  0.00  0.00    -0.005 A 
ATOM      6  C5  UNL d   1       0.320   0.414  -0.181  0.00  0.00    -0.074 A 
ATOM      7  C6  UNL d   1      -0.826   1.382  -0.215  0.00  0.00     0.077 C 
ATOM      8  C7  UNL d   1       0.229  -0.748   0.598  0.00  0.00    -0.001 A 
ENDROOT
TORSDOF 0
ENDMDL
