MODEL 1
REMARK minimizedAffinity -4.81078339
REMARK minimizedRMSD -1
REMARK  0 active torsions:
REMARK  status: ('A' for Active; 'I' for Inactive)
ROOT
ATOM      1  C   UNL d   1       2.710   1.882  -0.844  0.00  0.00     0.077 C 
ATOM      2  C1  UNL d   1       1.443   1.214  -0.400  0.00  0.00    -0.074 A 
ATOM      3  C2  UNL d   1       0.244   1.930  -0.314  0.00  0.00    -0.005 A 
ATOM      4  C3  UNL d   1      -0.928   1.292   0.091  0.00  0.00     0.006 A 
ATOM      5  C4  UNL d   1      -0.914  -0.065   0.414  0.00  0.00    -0.005 A 
ATOM      6  C5  UNL d   1       0.274  -0.798   0.333  0.00  0.00    -0.074 A 
ATOM      7  C6  UNL d   1       0.304  -2.260   0.666  0.00  0.00     0.077 C 
ATOM      8  C7  UNL d   1       1.447  -0.151  -0.082  0.00  0.00    -0.001 A 
ENDROOT
TORSDOF 0
ENDMDL
