MODEL 1
REMARK minimizedAffinity -5.32624674
REMARK minimizedRMSD -1
REMARK  0 active torsions:
REMARK  status: ('A' for Active; 'I' for Inactive)
ROOT
ATOM      1  C   UNL d   1      -1.679   0.024   1.989  0.00  0.00     0.077 C 
ATOM      2  C1  UNL d   1      -0.484  -0.606   1.337  0.00  0.00    -0.074 A 
ATOM      3  C2  UNL d   1      -0.194  -1.961   1.526  0.00  0.00    -0.005 A 
ATOM      4  C3  UNL d   1       0.916  -2.535   0.905  0.00  0.00     0.006 A 
ATOM      5  C4  UNL d   1       1.745  -1.762   0.092  0.00  0.00    -0.005 A 
ATOM      6  C5  UNL d   1       1.469  -0.406  -0.109  0.00  0.00    -0.074 A 
ATOM      7  C6  UNL d   1       2.344   0.438  -0.988  0.00  0.00     0.077 C 
ATOM      8  C7  UNL d   1       0.349   0.162   0.512  0.00  0.00    -0.001 A 
ENDROOT
TORSDOF 0
ENDMDL
