MODEL 1
REMARK minimizedAffinity -4.24840736
REMARK minimizedRMSD -1
REMARK  0 active torsions:
REMARK  status: ('A' for Active; 'I' for Inactive)
ROOT
ATOM      1  C   UNL d   1       0.990  -3.237   1.361  0.00  0.00     0.077 C 
ATOM      2  C1  UNL d   1       0.352  -1.923   1.022  0.00  0.00    -0.074 A 
ATOM      3  C2  UNL d   1      -0.975  -1.657   1.375  0.00  0.00    -0.005 A 
ATOM      4  C3  UNL d   1      -1.553  -0.426   1.062  0.00  0.00     0.006 A 
ATOM      5  C4  UNL d   1      -0.811   0.548   0.393  0.00  0.00    -0.005 A 
ATOM      6  C5  UNL d   1       0.518   0.300   0.033  0.00  0.00    -0.074 A 
ATOM      7  C6  UNL d   1       1.332   1.340  -0.677  0.00  0.00     0.077 C 
ATOM      8  C7  UNL d   1       1.093  -0.936   0.358  0.00  0.00    -0.001 A 
ENDROOT
TORSDOF 0
ENDMDL
