MODEL 1
REMARK minimizedAffinity -2.69835877
REMARK minimizedRMSD -1
REMARK  0 active torsions:
REMARK  status: ('A' for Active; 'I' for Inactive)
ROOT
ATOM      1  C   UNL d   1       1.354  -3.014   0.630  0.00  0.00     0.077 C 
ATOM      2  C1  UNL d   1       0.391  -1.866   0.566  0.00  0.00    -0.074 A 
ATOM      3  C2  UNL d   1      -0.439  -1.563   1.650  0.00  0.00    -0.005 A 
ATOM      4  C3  UNL d   1      -1.323  -0.486   1.579  0.00  0.00     0.006 A 
ATOM      5  C4  UNL d   1      -1.385   0.297   0.426  0.00  0.00    -0.005 A 
ATOM      6  C5  UNL d   1      -0.562   0.010  -0.668  0.00  0.00    -0.074 A 
ATOM      7  C6  UNL d   1      -0.610   0.847  -1.911  0.00  0.00     0.077 C 
ATOM      8  C7  UNL d   1       0.328  -1.070  -0.586  0.00  0.00    -0.001 A 
ENDROOT
TORSDOF 0
ENDMDL
