MODEL 1
REMARK minimizedAffinity -3.46819234
REMARK minimizedRMSD -1
REMARK  0 active torsions:
REMARK  status: ('A' for Active; 'I' for Inactive)
ROOT
ATOM      1  C   UNL d   1      -0.006  -3.110   0.710  0.00  0.00     0.077 C 
ATOM      2  C1  UNL d   1       0.378  -1.710   0.331  0.00  0.00    -0.074 A 
ATOM      3  C2  UNL d   1       1.700  -1.270   0.454  0.00  0.00    -0.005 A 
ATOM      4  C3  UNL d   1       2.044   0.032   0.089  0.00  0.00     0.006 A 
ATOM      5  C4  UNL d   1       1.072   0.904  -0.402  0.00  0.00    -0.005 A 
ATOM      6  C5  UNL d   1      -0.255   0.481  -0.533  0.00  0.00    -0.074 A 
ATOM      7  C6  UNL d   1      -1.310   1.403  -1.068  0.00  0.00     0.077 C 
ATOM      8  C7  UNL d   1      -0.592  -0.830  -0.170  0.00  0.00    -0.001 A 
ENDROOT
TORSDOF 0
ENDMDL
