MODEL 1
REMARK minimizedAffinity -3.60534668
REMARK minimizedRMSD -1
REMARK  0 active torsions:
REMARK  status: ('A' for Active; 'I' for Inactive)
ROOT
ATOM      1  C   UNL d   1      -1.061   1.487  -1.315  0.00  0.00     0.077 C 
ATOM      2  C1  UNL d   1      -0.991   0.497  -0.191  0.00  0.00    -0.074 A 
ATOM      3  C2  UNL d   1      -1.918   0.532   0.856  0.00  0.00    -0.005 A 
ATOM      4  C3  UNL d   1      -1.846  -0.401   1.890  0.00  0.00     0.006 A 
ATOM      5  C4  UNL d   1      -0.850  -1.378   1.887  0.00  0.00    -0.005 A 
ATOM      6  C5  UNL d   1       0.084  -1.430   0.848  0.00  0.00    -0.074 A 
ATOM      7  C6  UNL d   1       1.155  -2.480   0.824  0.00  0.00     0.077 C 
ATOM      8  C7  UNL d   1       0.002  -0.493  -0.191  0.00  0.00    -0.001 A 
ENDROOT
TORSDOF 0
ENDMDL
