MODEL 1
REMARK minimizedAffinity -4.09586382
REMARK minimizedRMSD -1
REMARK  0 active torsions:
REMARK  status: ('A' for Active; 'I' for Inactive)
ROOT
ATOM      1  C   UNL d   1      -1.158   1.184  -0.097  0.00  0.00     0.077 C 
ATOM      2  C1  UNL d   1       0.100   0.367  -0.115  0.00  0.00    -0.074 A 
ATOM      3  C2  UNL d   1       1.278   0.872  -0.675  0.00  0.00    -0.005 A 
ATOM      4  C3  UNL d   1       2.442   0.104  -0.675  0.00  0.00     0.006 A 
ATOM      5  C4  UNL d   1       2.441  -1.174  -0.117  0.00  0.00    -0.005 A 
ATOM      6  C5  UNL d   1       1.273  -1.696   0.449  0.00  0.00    -0.074 A 
ATOM      7  C6  UNL d   1       1.257  -3.064   1.062  0.00  0.00     0.077 C 
ATOM      8  C7  UNL d   1       0.109  -0.915   0.452  0.00  0.00    -0.001 A 
ENDROOT
TORSDOF 0
ENDMDL
