MODEL 1
REMARK minimizedAffinity -5.17253828
REMARK minimizedRMSD -1
REMARK  0 active torsions:
REMARK  status: ('A' for Active; 'I' for Inactive)
ROOT
ATOM      1  C   UNL d   1      -1.887   0.383   2.241  0.00  0.00     0.077 C 
ATOM      2  C1  UNL d   1      -0.765   0.018   1.315  0.00  0.00    -0.074 A 
ATOM      3  C2  UNL d   1      -0.315   0.917   0.343  0.00  0.00    -0.005 A 
ATOM      4  C3  UNL d   1       0.737   0.567  -0.505  0.00  0.00     0.006 A 
ATOM      5  C4  UNL d   1       1.347  -0.682  -0.389  0.00  0.00    -0.005 A 
ATOM      6  C5  UNL d   1       0.911  -1.593   0.578  0.00  0.00    -0.074 A 
ATOM      7  C6  UNL d   1       1.563  -2.936   0.723  0.00  0.00     0.077 C 
ATOM      8  C7  UNL d   1      -0.141  -1.232   1.431  0.00  0.00    -0.001 A 
ENDROOT
TORSDOF 0
ENDMDL
