MODEL 1
REMARK minimizedAffinity 2.51914549
REMARK minimizedRMSD -1
REMARK  0 active torsions:
REMARK  status: ('A' for Active; 'I' for Inactive)
ROOT
ATOM      1  C2' OXE d   1       2.716   1.457  -0.285  0.00  0.00     0.078 C 
ATOM      2  C1' OXE d   1      -0.053   1.152  -0.629  0.00  0.00     0.078 C 
ATOM      3  C1  OXE d   1       0.461   1.378   0.770  0.00  0.00    -0.078 A 
ATOM      4  C2  OXE d   1       1.822   1.479   0.936  0.00  0.00    -0.078 A 
ATOM      5  C3  OXE d   1       2.345   1.743   2.198  0.00  0.00     0.003 A 
ATOM      6  C4  OXE d   1       1.511   1.752   3.323  0.00  0.00    -0.002 A 
ATOM      7  C5  OXE d   1       0.127   1.610   3.182  0.00  0.00    -0.002 A 
ATOM      8  C6  OXE d   1      -0.417   1.466   1.911  0.00  0.00     0.003 A 
ENDROOT
TORSDOF 0
ENDMDL
