MODEL 1
REMARK minimizedAffinity 10.0039444
REMARK minimizedRMSD -1
REMARK  0 active torsions:
REMARK  status: ('A' for Active; 'I' for Inactive)
ROOT
ATOM      1  C2' OXE d   1       1.690  -2.905  -0.725  0.00  0.00     0.078 C 
ATOM      2  C1' OXE d   1       3.493  -2.602  -2.855  0.00  0.00     0.078 C 
ATOM      3  C1  OXE d   1       3.403  -1.485  -1.845  0.00  0.00    -0.078 A 
ATOM      4  C2  OXE d   1       2.485  -1.622  -0.832  0.00  0.00    -0.078 A 
ATOM      5  C3  OXE d   1       2.400  -0.646   0.157  0.00  0.00     0.003 A 
ATOM      6  C4  OXE d   1       3.131   0.543   0.045  0.00  0.00    -0.002 A 
ATOM      7  C5  OXE d   1       4.043   0.719  -1.001  0.00  0.00    -0.002 A 
ATOM      8  C6  OXE d   1       4.222  -0.301  -1.929  0.00  0.00     0.003 A 
ENDROOT
TORSDOF 0
ENDMDL
