MODEL 1
REMARK minimizedAffinity 13.5570822
REMARK minimizedRMSD -1
REMARK  0 active torsions:
REMARK  status: ('A' for Active; 'I' for Inactive)
ROOT
ATOM      1  C2' OXE d   1      -2.803   1.180  -3.760  0.00  0.00     0.078 C 
ATOM      2  C1' OXE d   1      -5.063   2.831  -3.542  0.00  0.00     0.078 C 
ATOM      3  C1  OXE d   1      -4.981   1.628  -2.636  0.00  0.00    -0.078 A 
ATOM      4  C2  OXE d   1      -3.894   0.800  -2.782  0.00  0.00    -0.078 A 
ATOM      5  C3  OXE d   1      -3.741  -0.294  -1.934  0.00  0.00     0.003 A 
ATOM      6  C4  OXE d   1      -4.759  -0.644  -1.040  0.00  0.00    -0.002 A 
ATOM      7  C5  OXE d   1      -5.893   0.163  -0.903  0.00  0.00    -0.002 A 
ATOM      8  C6  OXE d   1      -5.999   1.323  -1.662  0.00  0.00     0.003 A 
ENDROOT
TORSDOF 0
ENDMDL
