MODEL 1
REMARK minimizedAffinity 5.31244373
REMARK minimizedRMSD -1
REMARK  0 active torsions:
REMARK  status: ('A' for Active; 'I' for Inactive)
ROOT
ATOM      1  C2' OXE d   1       0.059   1.369  -1.017  0.00  0.00     0.078 C 
ATOM      2  C1' OXE d   1       2.148   0.121   0.383  0.00  0.00     0.078 C 
ATOM      3  C1  OXE d   1       1.033   0.740   1.188  0.00  0.00    -0.078 A 
ATOM      4  C2  OXE d   1       0.039   1.389   0.497  0.00  0.00    -0.078 A 
ATOM      5  C3  OXE d   1      -1.041   1.930   1.188  0.00  0.00     0.003 A 
ATOM      6  C4  OXE d   1      -1.047   1.953   2.588  0.00  0.00    -0.002 A 
ATOM      7  C5  OXE d   1      -0.025   1.332   3.312  0.00  0.00    -0.002 A 
ATOM      8  C6  OXE d   1       0.999   0.685   2.629  0.00  0.00     0.003 A 
ENDROOT
TORSDOF 0
ENDMDL
