MODEL 1
REMARK minimizedAffinity 5.79304266
REMARK minimizedRMSD -1
REMARK  0 active torsions:
REMARK  status: ('A' for Active; 'I' for Inactive)
ROOT
ATOM      1  C2' OXE d   1       3.193  -2.702  -2.836  0.00  0.00     0.078 C 
ATOM      2  C1' OXE d   1       1.178  -2.804  -0.884  0.00  0.00     0.078 C 
ATOM      3  C1  OXE d   1       2.069  -1.587  -0.913  0.00  0.00    -0.078 A 
ATOM      4  C2  OXE d   1       3.081  -1.567  -1.841  0.00  0.00    -0.078 A 
ATOM      5  C3  OXE d   1       3.898  -0.444  -1.946  0.00  0.00     0.003 A 
ATOM      6  C4  OXE d   1       3.795   0.597  -1.016  0.00  0.00    -0.002 A 
ATOM      7  C5  OXE d   1       2.796   0.578  -0.037  0.00  0.00    -0.002 A 
ATOM      8  C6  OXE d   1       1.899  -0.484   0.001  0.00  0.00     0.003 A 
ENDROOT
TORSDOF 0
ENDMDL
