MODEL 1
REMARK minimizedAffinity 4.86390066
REMARK minimizedRMSD -1
REMARK  0 active torsions:
REMARK  status: ('A' for Active; 'I' for Inactive)
ROOT
ATOM      1  C2' OXE d   1      -0.027   0.607   2.903  0.00  0.00     0.078 C 
ATOM      2  C1' OXE d   1      -0.218   1.660   0.307  0.00  0.00     0.078 C 
ATOM      3  C1  OXE d   1      -0.631   2.545   1.457  0.00  0.00    -0.078 A 
ATOM      4  C2  OXE d   1      -0.578   2.005   2.720  0.00  0.00    -0.078 A 
ATOM      5  C3  OXE d   1      -0.895   2.795   3.821  0.00  0.00     0.003 A 
ATOM      6  C4  OXE d   1      -1.414   4.084   3.643  0.00  0.00    -0.002 A 
ATOM      7  C5  OXE d   1      -1.513   4.638   2.363  0.00  0.00    -0.002 A 
ATOM      8  C6  OXE d   1      -1.087   3.899   1.265  0.00  0.00     0.003 A 
ENDROOT
TORSDOF 0
ENDMDL
