MODEL 1
REMARK minimizedAffinity 6.57322931
REMARK minimizedRMSD -1
REMARK  0 active torsions:
REMARK  status: ('A' for Active; 'I' for Inactive)
ROOT
ATOM      1  C2' OXE d   1       3.207  -2.986  -2.700  0.00  0.00     0.078 C 
ATOM      2  C1' OXE d   1       1.563  -2.667  -0.448  0.00  0.00     0.078 C 
ATOM      3  C1  OXE d   1       2.427  -1.501  -0.859  0.00  0.00    -0.078 A 
ATOM      4  C2  OXE d   1       3.262  -1.682  -1.934  0.00  0.00    -0.078 A 
ATOM      5  C3  OXE d   1       4.040  -0.621  -2.389  0.00  0.00     0.003 A 
ATOM      6  C4  OXE d   1       4.093   0.578  -1.669  0.00  0.00    -0.002 A 
ATOM      7  C5  OXE d   1       3.280   0.770  -0.547  0.00  0.00    -0.002 A 
ATOM      8  C6  OXE d   1       2.411  -0.243  -0.155  0.00  0.00     0.003 A 
ENDROOT
TORSDOF 0
ENDMDL
