MODEL 1
REMARK minimizedAffinity -3.25375485
REMARK minimizedRMSD -1
REMARK  0 active torsions:
REMARK  status: ('A' for Active; 'I' for Inactive)
ROOT
ATOM      1  C4' PXY d   1      -2.281   0.599  -1.033  0.00  0.00     0.077 C 
ATOM      2  C1' PXY d   1       2.816  -0.315   1.535  0.00  0.00     0.077 C 
ATOM      3  C1  PXY d   1       1.478  -0.088   0.859  0.00  0.00    -0.082 A 
ATOM      4  C2  PXY d   1       1.199   1.098   0.343  0.00  0.00     0.003 A 
ATOM      5  C3  PXY d   1      -0.019   1.329  -0.244  0.00  0.00     0.003 A 
ATOM      6  C4  PXY d   1      -0.939   0.322  -0.350  0.00  0.00    -0.082 A 
ATOM      7  C5  PXY d   1      -0.658  -0.894   0.165  0.00  0.00     0.003 A 
ATOM      8  C6  PXY d   1       0.568  -1.097   0.793  0.00  0.00     0.003 A 
ENDROOT
TORSDOF 0
ENDMDL
