MODEL 1
REMARK minimizedAffinity 7.7204361
REMARK minimizedRMSD -1
REMARK  0 active torsions:
REMARK  status: ('A' for Active; 'I' for Inactive)
ROOT
ATOM      1  C4' PXY d   1       1.785   1.959  -2.167  0.00  0.00     0.077 C 
ATOM      2  C1' PXY d   1       1.472   0.778   3.483  0.00  0.00     0.077 C 
ATOM      3  C1  PXY d   1       1.566   1.093   2.003  0.00  0.00    -0.082 A 
ATOM      4  C2  PXY d   1       0.459   1.251   1.296  0.00  0.00     0.003 A 
ATOM      5  C3  PXY d   1       0.525   1.504  -0.050  0.00  0.00     0.003 A 
ATOM      6  C4  PXY d   1       1.738   1.650  -0.668  0.00  0.00    -0.082 A 
ATOM      7  C5  PXY d   1       2.872   1.501   0.048  0.00  0.00     0.003 A 
ATOM      8  C6  PXY d   1       2.783   1.203   1.405  0.00  0.00     0.003 A 
ENDROOT
TORSDOF 0
ENDMDL
