MODEL 1
REMARK minimizedAffinity -3.70224881
REMARK minimizedRMSD -1
REMARK  0 active torsions:
REMARK  status: ('A' for Active; 'I' for Inactive)
ROOT
ATOM      1  C4' PXY d   1       3.931  -1.255   1.095  0.00  0.00     0.077 C 
ATOM      2  C1' PXY d   1      -0.934   1.669   0.002  0.00  0.00     0.077 C 
ATOM      3  C1  PXY d   1       0.335   0.893   0.295  0.00  0.00    -0.082 A 
ATOM      4  C2  PXY d   1       1.497   1.525   0.317  0.00  0.00     0.003 A 
ATOM      5  C3  PXY d   1       2.658   0.833   0.549  0.00  0.00     0.003 A 
ATOM      6  C4  PXY d   1       2.623  -0.510   0.813  0.00  0.00    -0.082 A 
ATOM      7  C5  PXY d   1       1.440  -1.160   0.802  0.00  0.00     0.003 A 
ATOM      8  C6  PXY d   1       0.277  -0.447   0.524  0.00  0.00     0.003 A 
ENDROOT
TORSDOF 0
ENDMDL
