MODEL 1
REMARK minimizedAffinity -4.13877344
REMARK minimizedRMSD -1
REMARK  0 active torsions:
REMARK  status: ('A' for Active; 'I' for Inactive)
ROOT
ATOM      1  C4' PXY d   1      -2.103   0.426  -0.723  0.00  0.00     0.077 C 
ATOM      2  C1' PXY d   1       3.298  -0.366   1.180  0.00  0.00     0.077 C 
ATOM      3  C1  PXY d   1       1.883  -0.145   0.681  0.00  0.00    -0.082 A 
ATOM      4  C2  PXY d   1       0.975  -1.092   0.850  0.00  0.00     0.003 A 
ATOM      5  C3  PXY d   1      -0.300  -0.922   0.377  0.00  0.00     0.003 A 
ATOM      6  C4  PXY d   1      -0.664   0.251  -0.228  0.00  0.00    -0.082 A 
ATOM      7  C5  PXY d   1       0.254   1.226  -0.394  0.00  0.00     0.003 A 
ATOM      8  C6  PXY d   1       1.554   1.018   0.056  0.00  0.00     0.003 A 
ENDROOT
TORSDOF 0
ENDMDL
