MODEL 1
REMARK minimizedAffinity -5.26484632
REMARK minimizedRMSD -1
REMARK  0 active torsions:
REMARK  status: ('A' for Active; 'I' for Inactive)
ROOT
ATOM      1  C4' PXY d   1      -1.929  -0.190   0.589  0.00  0.00     0.077 C 
ATOM      2  C1' PXY d   1       3.750  -1.125   1.125  0.00  0.00     0.077 C 
ATOM      3  C1  PXY d   1       2.259  -0.892   0.987  0.00  0.00    -0.082 A 
ATOM      4  C2  PXY d   1       1.819   0.110   0.244  0.00  0.00     0.003 A 
ATOM      5  C3  PXY d   1       0.474   0.355   0.135  0.00  0.00     0.003 A 
ATOM      6  C4  PXY d   1      -0.432  -0.468   0.749  0.00  0.00    -0.082 A 
ATOM      7  C5  PXY d   1       0.009  -1.500   1.500  0.00  0.00     0.003 A 
ATOM      8  C6  PXY d   1       1.379  -1.706   1.632  0.00  0.00     0.003 A 
ENDROOT
TORSDOF 0
ENDMDL
