MODEL 1
REMARK minimizedAffinity -3.8043592
REMARK minimizedRMSD -1
REMARK  0 active torsions:
REMARK  status: ('A' for Active; 'I' for Inactive)
ROOT
ATOM      1  C4' PXY d   1      -2.727  -0.036  -1.951  0.00  0.00     0.077 C 
ATOM      2  C1' PXY d   1       2.172   0.177   1.109  0.00  0.00     0.077 C 
ATOM      3  C1  PXY d   1       0.886   0.109   0.310  0.00  0.00    -0.082 A 
ATOM      4  C2  PXY d   1       0.691   0.953  -0.690  0.00  0.00     0.003 A 
ATOM      5  C3  PXY d   1      -0.480   0.926  -1.402  0.00  0.00     0.003 A 
ATOM      6  C4  PXY d   1      -1.440  -0.009  -1.123  0.00  0.00    -0.082 A 
ATOM      7  C5  PXY d   1      -1.244  -0.881  -0.111  0.00  0.00     0.003 A 
ATOM      8  C6  PXY d   1      -0.066  -0.811   0.626  0.00  0.00     0.003 A 
ENDROOT
TORSDOF 0
ENDMDL
