MODEL 1
REMARK minimizedAffinity -5.76647282
REMARK minimizedRMSD -1
REMARK  0 active torsions:
REMARK  status: ('A' for Active; 'I' for Inactive)
ROOT
ATOM      1  C4' PXY d   1       1.812   0.304   0.503  0.00  0.00     0.077 C 
ATOM      2  C1' PXY d   1      -2.367  -0.513  -3.406  0.00  0.00     0.077 C 
ATOM      3  C1  PXY d   1      -1.278  -0.291  -2.375  0.00  0.00    -0.082 A 
ATOM      4  C2  PXY d   1      -0.013  -0.494  -2.704  0.00  0.00     0.003 A 
ATOM      5  C3  PXY d   1       0.981  -0.328  -1.774  0.00  0.00     0.003 A 
ATOM      6  C4  PXY d   1       0.682   0.101  -0.509  0.00  0.00    -0.082 A 
ATOM      7  C5  PXY d   1      -0.606   0.320  -0.168  0.00  0.00     0.003 A 
ATOM      8  C6  PXY d   1      -1.604   0.107  -1.115  0.00  0.00     0.003 A 
ENDROOT
TORSDOF 0
ENDMDL
