MODEL 1
REMARK minimizedAffinity -5.10185099
REMARK minimizedRMSD -1
REMARK  0 active torsions:
REMARK  status: ('A' for Active; 'I' for Inactive)
ROOT
ATOM      1  C4' PXY d   1      -1.155   0.956  -1.276  0.00  0.00     0.077 C 
ATOM      2  C1' PXY d   1       3.247  -1.100   1.855  0.00  0.00     0.077 C 
ATOM      3  C1  PXY d   1       2.091  -0.551   1.043  0.00  0.00    -0.082 A 
ATOM      4  C2  PXY d   1       1.411  -1.358   0.245  0.00  0.00     0.003 A 
ATOM      5  C3  PXY d   1       0.383  -0.872  -0.521  0.00  0.00     0.003 A 
ATOM      6  C4  PXY d   1       0.013   0.443  -0.430  0.00  0.00    -0.082 A 
ATOM      7  C5  PXY d   1       0.696   1.271   0.389  0.00  0.00     0.003 A 
ATOM      8  C6  PXY d   1       1.763   0.767   1.128  0.00  0.00     0.003 A 
ENDROOT
TORSDOF 0
ENDMDL
