MODEL 1
REMARK minimizedAffinity -4.63509941
REMARK minimizedRMSD -1
REMARK  0 active torsions:
REMARK  status: ('A' for Active; 'I' for Inactive)
ROOT
ATOM      1  C4' PXY d   1       1.591  -0.537   0.884  0.00  0.00     0.077 C 
ATOM      2  C1' PXY d   1      -3.082   0.270  -2.422  0.00  0.00     0.077 C 
ATOM      3  C1  PXY d   1      -1.850   0.055  -1.566  0.00  0.00    -0.082 A 
ATOM      4  C2  PXY d   1      -1.986  -0.181  -0.271  0.00  0.00     0.003 A 
ATOM      5  C3  PXY d   1      -0.881  -0.346   0.524  0.00  0.00     0.003 A 
ATOM      6  C4  PXY d   1       0.374  -0.323  -0.021  0.00  0.00    -0.082 A 
ATOM      7  C5  PXY d   1       0.522  -0.093  -1.343  0.00  0.00     0.003 A 
ATOM      8  C6  PXY d   1      -0.611   0.113  -2.126  0.00  0.00     0.003 A 
ENDROOT
TORSDOF 0
ENDMDL
