MODEL 1
REMARK minimizedAffinity -4.96498394
REMARK minimizedRMSD -1
REMARK  0 active torsions:
REMARK  status: ('A' for Active; 'I' for Inactive)
ROOT
ATOM      1  C4' PXY d   1      -1.884   0.426  -1.424  0.00  0.00     0.077 C 
ATOM      2  C1' PXY d   1       3.276  -0.867   0.837  0.00  0.00     0.077 C 
ATOM      3  C1  PXY d   1       1.919  -0.539   0.248  0.00  0.00    -0.082 A 
ATOM      4  C2  PXY d   1       1.826   0.350  -0.727  0.00  0.00     0.003 A 
ATOM      5  C3  PXY d   1       0.602   0.682  -1.250  0.00  0.00     0.003 A 
ATOM      6  C4  PXY d   1      -0.533   0.057  -0.806  0.00  0.00    -0.082 A 
ATOM      7  C5  PXY d   1      -0.445  -0.859   0.181  0.00  0.00     0.003 A 
ATOM      8  C6  PXY d   1       0.802  -1.152   0.726  0.00  0.00     0.003 A 
ENDROOT
TORSDOF 0
ENDMDL
