MODEL 1
REMARK minimizedAffinity -5.45682001
REMARK minimizedRMSD -1
REMARK  0 active torsions:
REMARK  status: ('A' for Active; 'I' for Inactive)
ROOT
ATOM      1  C   UNL d   1      -1.147  -0.915   2.473  0.00  0.00     0.078 C 
ATOM      2  C1  UNL d   1      -0.604  -1.349   1.144  0.00  0.00    -0.077 A 
ATOM      3  C2  UNL d   1      -0.629  -2.696   0.760  0.00  0.00    -0.001 A 
ATOM      4  C3  UNL d   1      -0.110  -3.087  -0.476  0.00  0.00     0.003 A 
ATOM      5  C4  UNL d   1       0.437  -2.138  -1.337  0.00  0.00    -0.005 A 
ATOM      6  C5  UNL d   1       0.468  -0.796  -0.962  0.00  0.00     0.003 A 
ATOM      7  C6  UNL d   1      -0.050  -0.403   0.273  0.00  0.00    -0.001 A 
ENDROOT
TORSDOF 0
ENDMDL
