MODEL 1
REMARK minimizedAffinity -3.93042517
REMARK minimizedRMSD -1
REMARK  0 active torsions:
REMARK  status: ('A' for Active; 'I' for Inactive)
ROOT
ATOM      1  C   UNL d   1      -1.321  -0.740   2.016  0.00  0.00     0.078 C 
ATOM      2  C1  UNL d   1      -0.568  -0.781   0.720  0.00  0.00    -0.077 A 
ATOM      3  C2  UNL d   1      -0.279   0.395   0.016  0.00  0.00    -0.001 A 
ATOM      4  C3  UNL d   1       0.414   0.341  -1.194  0.00  0.00     0.003 A 
ATOM      5  C4  UNL d   1       0.824  -0.887  -1.712  0.00  0.00    -0.005 A 
ATOM      6  C5  UNL d   1       0.540  -2.062  -1.019  0.00  0.00     0.003 A 
ATOM      7  C6  UNL d   1      -0.154  -2.010   0.191  0.00  0.00    -0.001 A 
ENDROOT
TORSDOF 0
ENDMDL
