MODEL 1
REMARK minimizedAffinity -5.06487989
REMARK minimizedRMSD -1
REMARK  0 active torsions:
REMARK  status: ('A' for Active; 'I' for Inactive)
ROOT
ATOM      1  C   UNL d   1      -1.329  -0.412   2.443  0.00  0.00     0.078 C 
ATOM      2  C1  UNL d   1      -0.801  -0.694   1.068  0.00  0.00    -0.077 A 
ATOM      3  C2  UNL d   1      -0.282   0.333   0.269  0.00  0.00    -0.001 A 
ATOM      4  C3  UNL d   1       0.196   0.057  -1.012  0.00  0.00     0.003 A 
ATOM      5  C4  UNL d   1       0.160  -1.245  -1.508  0.00  0.00    -0.005 A 
ATOM      6  C5  UNL d   1      -0.357  -2.273  -0.722  0.00  0.00     0.003 A 
ATOM      7  C6  UNL d   1      -0.836  -1.999   0.560  0.00  0.00    -0.001 A 
ENDROOT
TORSDOF 0
ENDMDL
