MODEL 1
REMARK minimizedAffinity -5.1154871
REMARK minimizedRMSD -1
REMARK  0 active torsions:
REMARK  status: ('A' for Active; 'I' for Inactive)
ROOT
ATOM      1  C   UNL d   1       0.621   1.891   0.370  0.00  0.00     0.078 C 
ATOM      2  C1  UNL d   1       0.265   0.453   0.600  0.00  0.00    -0.077 A 
ATOM      3  C2  UNL d   1       0.286  -0.472  -0.451  0.00  0.00    -0.001 A 
ATOM      4  C3  UNL d   1      -0.057  -1.806  -0.224  0.00  0.00     0.003 A 
ATOM      5  C4  UNL d   1      -0.424  -2.227   1.053  0.00  0.00    -0.005 A 
ATOM      6  C5  UNL d   1      -0.449  -1.313   2.104  0.00  0.00     0.003 A 
ATOM      7  C6  UNL d   1      -0.107   0.021   1.879  0.00  0.00    -0.001 A 
ENDROOT
TORSDOF 0
ENDMDL
