MODEL 1
REMARK minimizedAffinity -5.48965979
REMARK minimizedRMSD -1
REMARK  0 active torsions:
REMARK  status: ('A' for Active; 'I' for Inactive)
ROOT
ATOM      1  C   UNL d   1      -0.197   1.601  -0.128  0.00  0.00     0.078 C 
ATOM      2  C1  UNL d   1      -0.321   0.167   0.290  0.00  0.00    -0.077 A 
ATOM      3  C2  UNL d   1      -0.998  -0.187   1.464  0.00  0.00    -0.001 A 
ATOM      4  C3  UNL d   1      -1.097  -1.525   1.846  0.00  0.00     0.003 A 
ATOM      5  C4  UNL d   1      -0.520  -2.522   1.061  0.00  0.00    -0.005 A 
ATOM      6  C5  UNL d   1       0.158  -2.180  -0.107  0.00  0.00     0.003 A 
ATOM      7  C6  UNL d   1       0.258  -0.841  -0.491  0.00  0.00    -0.001 A 
ENDROOT
TORSDOF 0
ENDMDL
