MODEL 1
REMARK minimizedAffinity -2.82051873
REMARK minimizedRMSD -1
REMARK  0 active torsions:
REMARK  status: ('A' for Active; 'I' for Inactive)
ROOT
ATOM      1  C   UNL d   1      -0.011  -2.621  -2.626  0.00  0.00     0.078 C 
ATOM      2  C1  UNL d   1      -0.172  -2.005  -1.268  0.00  0.00    -0.077 A 
ATOM      3  C2  UNL d   1      -0.706  -2.738  -0.202  0.00  0.00    -0.001 A 
ATOM      4  C3  UNL d   1      -0.859  -2.148   1.054  0.00  0.00     0.003 A 
ATOM      5  C4  UNL d   1      -0.484  -0.822   1.254  0.00  0.00    -0.005 A 
ATOM      6  C5  UNL d   1       0.046  -0.083   0.198  0.00  0.00     0.003 A 
ATOM      7  C6  UNL d   1       0.200  -0.671  -1.058  0.00  0.00    -0.001 A 
ENDROOT
TORSDOF 0
ENDMDL
