MODEL 1
REMARK minimizedAffinity -5.50648308
REMARK minimizedRMSD -1
REMARK  0 active torsions:
REMARK  status: ('A' for Active; 'I' for Inactive)
ROOT
ATOM      1  C   UNL d   1      -0.951  -0.382   1.093  0.00  0.00     0.078 C 
ATOM      2  C1  UNL d   1      -0.403  -1.357   0.094  0.00  0.00    -0.077 A 
ATOM      3  C2  UNL d   1      -0.280  -2.717   0.406  0.00  0.00    -0.001 A 
ATOM      4  C3  UNL d   1       0.241  -3.611  -0.530  0.00  0.00     0.003 A 
ATOM      5  C4  UNL d   1       0.645  -3.156  -1.783  0.00  0.00    -0.005 A 
ATOM      6  C5  UNL d   1       0.529  -1.805  -2.102  0.00  0.00     0.003 A 
ATOM      7  C6  UNL d   1       0.008  -0.909  -1.167  0.00  0.00    -0.001 A 
ENDROOT
TORSDOF 0
ENDMDL
