MODEL 1
REMARK minimizedAffinity -3.05833483
REMARK minimizedRMSD -1
REMARK  0 active torsions:
REMARK  status: ('A' for Active; 'I' for Inactive)
ROOT
ATOM      1  C   UNL d   1       0.732   3.004   0.503  0.00  0.00     0.078 C 
ATOM      2  C1  UNL d   1       0.518   1.596   0.034  0.00  0.00    -0.077 A 
ATOM      3  C2  UNL d   1       0.084   1.328  -1.270  0.00  0.00    -0.001 A 
ATOM      4  C3  UNL d   1      -0.120   0.013  -1.690  0.00  0.00     0.003 A 
ATOM      5  C4  UNL d   1       0.107  -1.045  -0.812  0.00  0.00    -0.005 A 
ATOM      6  C5  UNL d   1       0.537  -0.788   0.488  0.00  0.00     0.003 A 
ATOM      7  C6  UNL d   1       0.741   0.526   0.910  0.00  0.00    -0.001 A 
ENDROOT
TORSDOF 0
ENDMDL
