MODEL 1
REMARK minimizedAffinity -3.59469795
REMARK minimizedRMSD -1
REMARK  0 active torsions:
REMARK  status: ('A' for Active; 'I' for Inactive)
ROOT
ATOM      1  C   UNL d   1      -0.305  -3.579   0.548  0.00  0.00     0.078 C 
ATOM      2  C1  UNL d   1      -0.156  -2.089   0.481  0.00  0.00    -0.077 A 
ATOM      3  C2  UNL d   1       0.547  -1.480  -0.566  0.00  0.00    -0.001 A 
ATOM      4  C3  UNL d   1       0.685  -0.092  -0.611  0.00  0.00     0.003 A 
ATOM      5  C4  UNL d   1       0.125   0.700   0.390  0.00  0.00    -0.005 A 
ATOM      6  C5  UNL d   1      -0.575   0.103   1.437  0.00  0.00     0.003 A 
ATOM      7  C6  UNL d   1      -0.714  -1.285   1.483  0.00  0.00    -0.001 A 
ENDROOT
TORSDOF 0
ENDMDL
