MODEL 1
REMARK minimizedAffinity -4.2823844
REMARK minimizedRMSD -1
REMARK  0 active torsions:
REMARK  status: ('A' for Active; 'I' for Inactive)
ROOT
ATOM      1  C   UNL d   1      -0.572  -3.204   0.796  0.00  0.00     0.078 C 
ATOM      2  C1  UNL d   1      -0.346  -1.786   0.363  0.00  0.00    -0.077 A 
ATOM      3  C2  UNL d   1       0.125  -1.491  -0.922  0.00  0.00    -0.001 A 
ATOM      4  C3  UNL d   1       0.340  -0.167  -1.309  0.00  0.00     0.003 A 
ATOM      5  C4  UNL d   1       0.089   0.872  -0.415  0.00  0.00    -0.005 A 
ATOM      6  C5  UNL d   1      -0.377   0.588   0.867  0.00  0.00     0.003 A 
ATOM      7  C6  UNL d   1      -0.593  -0.735   1.255  0.00  0.00    -0.001 A 
ENDROOT
TORSDOF 0
ENDMDL
