MODEL 1
REMARK minimizedAffinity -4.4441781
REMARK minimizedRMSD -1
REMARK  0 active torsions:
REMARK  status: ('A' for Active; 'I' for Inactive)
ROOT
ATOM      1  C   UNL d   1       0.462   1.434   0.145  0.00  0.00     0.078 C 
ATOM      2  C1  UNL d   1       0.210  -0.040   0.264  0.00  0.00    -0.077 A 
ATOM      3  C2  UNL d   1      -0.699  -0.542   1.203  0.00  0.00    -0.001 A 
ATOM      4  C3  UNL d   1      -0.916  -1.917   1.309  0.00  0.00     0.003 A 
ATOM      5  C4  UNL d   1      -0.228  -2.800   0.480  0.00  0.00    -0.005 A 
ATOM      6  C5  UNL d   1       0.680  -2.310  -0.456  0.00  0.00     0.003 A 
ATOM      7  C6  UNL d   1       0.899  -0.935  -0.564  0.00  0.00    -0.001 A 
ENDROOT
TORSDOF 0
ENDMDL
