MODEL 1
REMARK minimizedAffinity -5.59570265
REMARK minimizedRMSD -1
REMARK  0 active torsions:
REMARK  status: ('A' for Active; 'I' for Inactive)
ROOT
ATOM      1  C   UNL d   1       0.290   1.767  -0.741  0.00  0.00     0.078 C 
ATOM      2  C1  UNL d   1       0.147   0.325  -0.352  0.00  0.00    -0.077 A 
ATOM      3  C2  UNL d   1       0.624  -0.696  -1.182  0.00  0.00    -0.001 A 
ATOM      4  C3  UNL d   1       0.475  -2.034  -0.812  0.00  0.00     0.003 A 
ATOM      5  C4  UNL d   1      -0.153  -2.362   0.387  0.00  0.00    -0.005 A 
ATOM      6  C5  UNL d   1      -0.633  -1.352   1.219  0.00  0.00     0.003 A 
ATOM      7  C6  UNL d   1      -0.485  -0.014   0.851  0.00  0.00    -0.001 A 
ENDROOT
TORSDOF 0
ENDMDL
