MODEL 1
REMARK minimizedAffinity -3.85433435
REMARK minimizedRMSD -1
REMARK  0 active torsions:
REMARK  status: ('A' for Active; 'I' for Inactive)
ROOT
ATOM      1  C   UNL d   1      -0.655  -3.279   0.740  0.00  0.00     0.078 C 
ATOM      2  C1  UNL d   1      -0.279  -1.828   0.727  0.00  0.00    -0.077 A 
ATOM      3  C2  UNL d   1       0.040  -1.176  -0.470  0.00  0.00    -0.001 A 
ATOM      4  C3  UNL d   1       0.398   0.173  -0.466  0.00  0.00     0.003 A 
ATOM      5  C4  UNL d   1       0.440   0.882   0.733  0.00  0.00    -0.005 A 
ATOM      6  C5  UNL d   1       0.125   0.242   1.930  0.00  0.00     0.003 A 
ATOM      7  C6  UNL d   1      -0.232  -1.108   1.927  0.00  0.00    -0.001 A 
ENDROOT
TORSDOF 0
ENDMDL
