MODEL 1
REMARK minimizedAffinity 4.40103817
REMARK minimizedRMSD -1
REMARK  3 active torsions:
REMARK  status: ('A' for Active; 'I' for Inactive)
REMARK    1  A    between atoms: C3'_2  and  C2'_3 
REMARK    2  A    between atoms: C2'_3  and  C1'_4 
REMARK    3  A    between atoms: C1'_4  and  C1_5 
ROOT
ATOM      1  C1  N4B d   1       2.977  -3.397   2.914  0.00  0.00    -0.075 A 
ATOM      2  C2  N4B d   1       2.420  -2.112   3.092  0.00  0.00     0.002 A 
ATOM      3  C3  N4B d   1       1.441  -1.663   2.240  0.00  0.00     0.002 A 
ATOM      4  C4  N4B d   1       1.018  -2.472   1.196  0.00  0.00    -0.004 A 
ATOM      5  C5  N4B d   1       1.543  -3.722   1.046  0.00  0.00     0.002 A 
ATOM      6  C6  N4B d   1       2.525  -4.187   1.897  0.00  0.00     0.002 A 
ENDROOT
BRANCH   1   7
ATOM      7  C1' N4B d   1       4.110  -3.897   3.767  0.00  0.00     0.057 C 
BRANCH   7   8
ATOM      8  C2' N4B d   1       4.272  -2.977   4.974  0.00  0.00     0.009 C 
BRANCH   8   9
ATOM      9  C3' N4B d   1       5.235  -3.550   6.000  0.00  0.00     0.004 C 
ATOM     10  C4' N4B d   1       5.259  -5.050   6.000  0.00  0.00     0.003 C 
ENDBRANCH   8   9
ENDBRANCH   7   8
ENDBRANCH   1   7
TORSDOF 3
ENDMDL
