MODEL 1
REMARK minimizedAffinity 6.17192602
REMARK minimizedRMSD -1
REMARK  3 active torsions:
REMARK  status: ('A' for Active; 'I' for Inactive)
REMARK    1  A    between atoms: C3'_2  and  C2'_3 
REMARK    2  A    between atoms: C2'_3  and  C1'_4 
REMARK    3  A    between atoms: C1'_4  and  C1_5 
ROOT
ATOM      1  C1  N4B d   1       5.527   1.686  -4.351  0.00  0.00    -0.075 A 
ATOM      2  C2  N4B d   1       5.536   1.195  -5.675  0.00  0.00     0.002 A 
ATOM      3  C3  N4B d   1       5.762  -0.139  -5.911  0.00  0.00     0.002 A 
ATOM      4  C4  N4B d   1       5.999  -0.993  -4.844  0.00  0.00    -0.004 A 
ATOM      5  C5  N4B d   1       5.963  -0.516  -3.567  0.00  0.00     0.002 A 
ATOM      6  C6  N4B d   1       5.733   0.822  -3.315  0.00  0.00     0.002 A 
ENDROOT
BRANCH   1   7
ATOM      7  C1' N4B d   1       5.370   3.152  -4.049  0.00  0.00     0.057 C 
BRANCH   7   8
ATOM      8  C2' N4B d   1       4.036   3.638  -4.609  0.00  0.00     0.009 C 
BRANCH   8   9
ATOM      9  C3' N4B d   1       3.971   5.154  -4.686  0.00  0.00     0.004 C 
ATOM     10  C4' N4B d   1       3.015   5.642  -5.733  0.00  0.00     0.003 C 
ENDBRANCH   8   9
ENDBRANCH   7   8
ENDBRANCH   1   7
TORSDOF 3
ENDMDL
