MODEL 1
REMARK minimizedAffinity 6.32932758
REMARK minimizedRMSD -1
REMARK  3 active torsions:
REMARK  status: ('A' for Active; 'I' for Inactive)
REMARK    1  A    between atoms: C3'_2  and  C2'_3 
REMARK    2  A    between atoms: C2'_3  and  C1'_4 
REMARK    3  A    between atoms: C1'_4  and  C1_5 
ROOT
ATOM      1  C1  N4B d   1       0.577  -2.112   1.927  0.00  0.00    -0.075 A 
ATOM      2  C2  N4B d   1       1.931  -2.149   2.325  0.00  0.00     0.002 A 
ATOM      3  C3  N4B d   1       2.926  -2.061   1.382  0.00  0.00     0.002 A 
ATOM      4  C4  N4B d   1       2.592  -1.955   0.040  0.00  0.00    -0.004 A 
ATOM      5  C5  N4B d   1       1.281  -1.895  -0.333  0.00  0.00     0.002 A 
ATOM      6  C6  N4B d   1       0.271  -1.978   0.604  0.00  0.00     0.002 A 
ENDROOT
BRANCH   1   7
ATOM      7  C1' N4B d   1      -0.545  -2.291   2.913  0.00  0.00     0.057 C 
BRANCH   7   8
ATOM      8  C2' N4B d   1      -1.673  -1.322   2.571  0.00  0.00     0.009 C 
BRANCH   8   9
ATOM      9  C3' N4B d   1      -1.783  -0.197   3.586  0.00  0.00     0.004 C 
ATOM     10  C4' N4B d   1      -2.964   0.694   3.340  0.00  0.00     0.003 C 
ENDBRANCH   8   9
ENDBRANCH   7   8
ENDBRANCH   1   7
TORSDOF 3
ENDMDL
