MODEL 1
REMARK minimizedAffinity 12.2103109
REMARK minimizedRMSD -1
REMARK  3 active torsions:
REMARK  status: ('A' for Active; 'I' for Inactive)
REMARK    1  A    between atoms: C3'_2  and  C2'_3 
REMARK    2  A    between atoms: C2'_3  and  C1'_4 
REMARK    3  A    between atoms: C1'_4  and  C1_5 
ROOT
ATOM      1  C1  N4B d   1       0.616  -2.352   2.299  0.00  0.00    -0.075 A 
ATOM      2  C2  N4B d   1       1.261  -1.444   3.168  0.00  0.00     0.002 A 
ATOM      3  C3  N4B d   1       0.516  -0.628   3.983  0.00  0.00     0.002 A 
ATOM      4  C4  N4B d   1      -0.868  -0.687   3.934  0.00  0.00    -0.004 A 
ATOM      5  C5  N4B d   1      -1.483  -1.585   3.111  0.00  0.00     0.002 A 
ATOM      6  C6  N4B d   1      -0.747  -2.414   2.289  0.00  0.00     0.002 A 
ENDROOT
BRANCH   1   7
ATOM      7  C1' N4B d   1       1.386  -3.204   1.327  0.00  0.00     0.057 C 
BRANCH   7   8
ATOM      8  C2' N4B d   1       1.815  -2.346   0.140  0.00  0.00     0.009 C 
BRANCH   8   9
ATOM      9  C3' N4B d   1       2.608  -1.126   0.578  0.00  0.00     0.004 C 
ATOM     10  C4' N4B d   1       4.059  -1.427   0.803  0.00  0.00     0.003 C 
ENDBRANCH   8   9
ENDBRANCH   7   8
ENDBRANCH   1   7
TORSDOF 3
ENDMDL
