MODEL 1
REMARK minimizedAffinity 1.70131838
REMARK minimizedRMSD -1
REMARK  3 active torsions:
REMARK  status: ('A' for Active; 'I' for Inactive)
REMARK    1  A    between atoms: C3'_2  and  C2'_3 
REMARK    2  A    between atoms: C2'_3  and  C1'_4 
REMARK    3  A    between atoms: C1'_4  and  C1_5 
ROOT
ATOM      1  C1  N4B d   1      -0.142  -1.480   2.479  0.00  0.00    -0.075 A 
ATOM      2  C2  N4B d   1      -0.201  -1.151   1.107  0.00  0.00     0.002 A 
ATOM      3  C3  N4B d   1       0.810  -1.541   0.263  0.00  0.00     0.002 A 
ATOM      4  C4  N4B d   1       1.894  -2.242   0.769  0.00  0.00    -0.004 A 
ATOM      5  C5  N4B d   1       1.931  -2.578   2.091  0.00  0.00     0.002 A 
ATOM      6  C6  N4B d   1       0.920  -2.196   2.950  0.00  0.00     0.002 A 
ENDROOT
BRANCH   1   7
ATOM      7  C1' N4B d   1      -1.181  -1.002   3.456  0.00  0.00     0.057 C 
BRANCH   7   8
ATOM      8  C2' N4B d   1      -2.277  -0.259   2.698  0.00  0.00     0.009 C 
BRANCH   8   9
ATOM      9  C3' N4B d   1      -2.566   1.103   3.305  0.00  0.00     0.004 C 
ATOM     10  C4' N4B d   1      -3.986   1.244   3.766  0.00  0.00     0.003 C 
ENDBRANCH   8   9
ENDBRANCH   7   8
ENDBRANCH   1   7
TORSDOF 3
ENDMDL
