MODEL 1
REMARK minimizedAffinity 6.53496885
REMARK minimizedRMSD -1
REMARK  3 active torsions:
REMARK  status: ('A' for Active; 'I' for Inactive)
REMARK    1  A    between atoms: C3'_2  and  C2'_3 
REMARK    2  A    between atoms: C2'_3  and  C1'_4 
REMARK    3  A    between atoms: C1'_4  and  C1_5 
ROOT
ATOM      1  C1  N4B d   1       0.652  -0.596  -0.004  0.00  0.00    -0.075 A 
ATOM      2  C2  N4B d   1       1.710   0.173   0.530  0.00  0.00     0.002 A 
ATOM      3  C3  N4B d   1       2.067   1.357  -0.066  0.00  0.00     0.002 A 
ATOM      4  C4  N4B d   1       1.397   1.782  -1.203  0.00  0.00    -0.004 A 
ATOM      5  C5  N4B d   1       0.359   1.047  -1.697  0.00  0.00     0.002 A 
ATOM      6  C6  N4B d   1      -0.013  -0.143  -1.106  0.00  0.00     0.002 A 
ENDROOT
BRANCH   1   7
ATOM      7  C1' N4B d   1       0.282  -1.939   0.563  0.00  0.00     0.057 C 
BRANCH   7   8
ATOM      8  C2' N4B d   1       1.360  -2.382   1.548  0.00  0.00     0.009 C 
BRANCH   8   9
ATOM      9  C3' N4B d   1       1.613  -3.878   1.479  0.00  0.00     0.004 C 
ATOM     10  C4' N4B d   1       3.030  -4.212   1.121  0.00  0.00     0.003 C 
ENDBRANCH   8   9
ENDBRANCH   7   8
ENDBRANCH   1   7
TORSDOF 3
ENDMDL
