MODEL 1
REMARK minimizedAffinity 6.14311171
REMARK minimizedRMSD -1
REMARK  3 active torsions:
REMARK  status: ('A' for Active; 'I' for Inactive)
REMARK    1  A    between atoms: C3'_2  and  C2'_3 
REMARK    2  A    between atoms: C2'_3  and  C1'_4 
REMARK    3  A    between atoms: C1'_4  and  C1_5 
ROOT
ATOM      1  C1  N4B d   1       2.828   0.252  -2.386  0.00  0.00    -0.075 A 
ATOM      2  C2  N4B d   1       3.718   0.006  -1.318  0.00  0.00     0.002 A 
ATOM      3  C3  N4B d   1       5.018  -0.354  -1.577  0.00  0.00     0.002 A 
ATOM      4  C4  N4B d   1       5.443  -0.493  -2.889  0.00  0.00    -0.004 A 
ATOM      5  C5  N4B d   1       4.583  -0.228  -3.916  0.00  0.00     0.002 A 
ATOM      6  C6  N4B d   1       3.276   0.138  -3.670  0.00  0.00     0.002 A 
ENDROOT
BRANCH   1   7
ATOM      7  C1' N4B d   1       1.375   0.565  -2.153  0.00  0.00     0.057 C 
BRANCH   7   8
ATOM      8  C2' N4B d   1       1.176   2.077  -2.189  0.00  0.00     0.009 C 
BRANCH   8   9
ATOM      9  C3' N4B d   1       0.178   2.494  -3.255  0.00  0.00     0.004 C 
ATOM     10  C4' N4B d   1      -1.148   2.899  -2.683  0.00  0.00     0.003 C 
ENDBRANCH   8   9
ENDBRANCH   7   8
ENDBRANCH   1   7
TORSDOF 3
ENDMDL
