MODEL 1
REMARK minimizedAffinity 8.17472649
REMARK minimizedRMSD -1
REMARK  2 active torsions:
REMARK  status: ('A' for Active; 'I' for Inactive)
REMARK    1  A    between atoms: C1_2  and  C2_3 
REMARK    2  A    between atoms: C2_3  and  C3_4 
ROOT
ATOM      1  C3  UNL d   1      -1.205   1.153   2.205  0.00  0.00    -0.075 A 
ATOM      2  C4  UNL d   1      -1.070   2.515   1.898  0.00  0.00     0.002 A 
ATOM      3  C5  UNL d   1       0.188   3.118   1.888  0.00  0.00     0.002 A 
ATOM      4  C6  UNL d   1       1.324   2.372   2.194  0.00  0.00    -0.004 A 
ATOM      5  C7  UNL d   1       1.200   1.022   2.517  0.00  0.00     0.002 A 
ATOM      6  C8  UNL d   1      -0.057   0.415   2.524  0.00  0.00     0.002 A 
ENDROOT
BRANCH   1   7
ATOM      7  C2  UNL d   1      -2.560   0.488   2.189  0.00  0.00     0.056 C 
BRANCH   7   8
ATOM      8  C1  UNL d   1      -3.120   0.178   3.582  0.00  0.00     0.007 C 
ATOM      9  C   UNL d   1      -4.607  -0.149   3.572  0.00  0.00     0.009 C 
ENDBRANCH   7   8
ENDBRANCH   1   7
TORSDOF 2
ENDMDL
