MODEL 1
REMARK minimizedAffinity 15.0749016
REMARK minimizedRMSD -1
REMARK  2 active torsions:
REMARK  status: ('A' for Active; 'I' for Inactive)
REMARK    1  A    between atoms: C1_2  and  C2_3 
REMARK    2  A    between atoms: C2_3  and  C3_4 
ROOT
ATOM      1  C3  UNL d   1      -3.933  -4.877   1.024  0.00  0.00    -0.075 A 
ATOM      2  C4  UNL d   1      -2.832  -4.852   1.893  0.00  0.00     0.002 A 
ATOM      3  C5  UNL d   1      -1.576  -5.276   1.458  0.00  0.00     0.002 A 
ATOM      4  C6  UNL d   1      -1.407  -5.739   0.155  0.00  0.00    -0.004 A 
ATOM      5  C7  UNL d   1      -2.497  -5.784  -0.712  0.00  0.00     0.002 A 
ATOM      6  C8  UNL d   1      -3.754  -5.356  -0.280  0.00  0.00     0.002 A 
ENDROOT
BRANCH   1   7
ATOM      7  C2  UNL d   1      -5.288  -4.392   1.480  0.00  0.00     0.056 C 
BRANCH   7   8
ATOM      8  C1  UNL d   1      -5.999  -5.346   2.446  0.00  0.00     0.007 C 
ATOM      9  C   UNL d   1      -5.993  -4.855   3.887  0.00  0.00     0.009 C 
ENDBRANCH   7   8
ENDBRANCH   1   7
TORSDOF 2
ENDMDL
