MODEL 1
REMARK minimizedAffinity 3.24988389
REMARK minimizedRMSD -1
REMARK  2 active torsions:
REMARK  status: ('A' for Active; 'I' for Inactive)
REMARK    1  A    between atoms: C1_2  and  C2_3 
REMARK    2  A    between atoms: C2_3  and  C3_4 
ROOT
ATOM      1  C3  UNL d   1       3.688  -3.904  -0.781  0.00  0.00    -0.075 A 
ATOM      2  C4  UNL d   1       4.384  -5.121  -0.755  0.00  0.00     0.002 A 
ATOM      3  C5  UNL d   1       4.319  -5.999  -1.838  0.00  0.00     0.002 A 
ATOM      4  C6  UNL d   1       3.551  -5.676  -2.954  0.00  0.00    -0.004 A 
ATOM      5  C7  UNL d   1       2.842  -4.477  -2.985  0.00  0.00     0.002 A 
ATOM      6  C8  UNL d   1       2.909  -3.595  -1.904  0.00  0.00     0.002 A 
ENDROOT
BRANCH   1   7
ATOM      7  C2  UNL d   1       3.777  -2.937   0.375  0.00  0.00     0.056 C 
BRANCH   7   8
ATOM      8  C1  UNL d   1       4.987  -1.999   0.311  0.00  0.00     0.007 C 
ATOM      9  C   UNL d   1       4.603  -0.525   0.301  0.00  0.00     0.009 C 
ENDBRANCH   7   8
ENDBRANCH   1   7
TORSDOF 2
ENDMDL
