MODEL 1
REMARK minimizedAffinity 9.08882141
REMARK minimizedRMSD -1
REMARK  2 active torsions:
REMARK  status: ('A' for Active; 'I' for Inactive)
REMARK    1  A    between atoms: C1_2  and  C2_3 
REMARK    2  A    between atoms: C2_3  and  C3_4 
ROOT
ATOM      1  C3  UNL d   1       3.008   2.711   1.816  0.00  0.00    -0.075 A 
ATOM      2  C4  UNL d   1       1.913   2.046   2.387  0.00  0.00     0.002 A 
ATOM      3  C5  UNL d   1       1.588   0.748   1.990  0.00  0.00     0.002 A 
ATOM      4  C6  UNL d   1       2.344   0.105   1.013  0.00  0.00    -0.004 A 
ATOM      5  C7  UNL d   1       3.424   0.762   0.428  0.00  0.00     0.002 A 
ATOM      6  C8  UNL d   1       3.754   2.059   0.825  0.00  0.00     0.002 A 
ENDROOT
BRANCH   1   7
ATOM      7  C2  UNL d   1       3.383   4.104   2.261  0.00  0.00     0.056 C 
BRANCH   7   8
ATOM      8  C1  UNL d   1       4.829   4.495   1.936  0.00  0.00     0.007 C 
ATOM      9  C   UNL d   1       5.061   6.000   1.947  0.00  0.00     0.009 C 
ENDBRANCH   7   8
ENDBRANCH   1   7
TORSDOF 2
ENDMDL
