MODEL 1
REMARK minimizedAffinity 6.60680532
REMARK minimizedRMSD -1
REMARK  2 active torsions:
REMARK  status: ('A' for Active; 'I' for Inactive)
REMARK    1  A    between atoms: C1_2  and  C2_3 
REMARK    2  A    between atoms: C2_3  and  C3_4 
ROOT
ATOM      1  C3  UNL d   1       2.933  -4.245  -1.745  0.00  0.00    -0.075 A 
ATOM      2  C4  UNL d   1       3.512  -5.474  -2.090  0.00  0.00     0.002 A 
ATOM      3  C5  UNL d   1       4.562  -6.000  -1.336  0.00  0.00     0.002 A 
ATOM      4  C6  UNL d   1       5.051  -5.299  -0.236  0.00  0.00    -0.004 A 
ATOM      5  C7  UNL d   1       4.495  -4.069   0.106  0.00  0.00     0.002 A 
ATOM      6  C8  UNL d   1       3.442  -3.543  -0.644  0.00  0.00     0.002 A 
ENDROOT
BRANCH   1   7
ATOM      7  C2  UNL d   1       1.777  -3.685  -2.540  0.00  0.00     0.056 C 
BRANCH   7   8
ATOM      8  C1  UNL d   1       2.200  -2.878  -3.772  0.00  0.00     0.007 C 
ATOM      9  C   UNL d   1       3.368  -3.501  -4.525  0.00  0.00     0.009 C 
ENDBRANCH   7   8
ENDBRANCH   1   7
TORSDOF 2
ENDMDL
