MODEL 1
REMARK minimizedAffinity 0.142895252
REMARK minimizedRMSD -1
REMARK  2 active torsions:
REMARK  status: ('A' for Active; 'I' for Inactive)
REMARK    1  A    between atoms: C1_2  and  C2_3 
REMARK    2  A    between atoms: C2_3  and  C3_4 
ROOT
ATOM      1  C3  UNL d   1       2.601  -0.533  -1.681  0.00  0.00    -0.075 A 
ATOM      2  C4  UNL d   1       1.543  -1.421  -1.438  0.00  0.00     0.002 A 
ATOM      3  C5  UNL d   1       1.650  -2.394  -0.443  0.00  0.00     0.002 A 
ATOM      4  C6  UNL d   1       2.815  -2.497   0.312  0.00  0.00    -0.004 A 
ATOM      5  C7  UNL d   1       3.879  -1.630   0.068  0.00  0.00     0.002 A 
ATOM      6  C8  UNL d   1       3.773  -0.653  -0.924  0.00  0.00     0.002 A 
ENDROOT
BRANCH   1   7
ATOM      7  C2  UNL d   1       2.480   0.541  -2.736  0.00  0.00     0.056 C 
BRANCH   7   8
ATOM      8  C1  UNL d   1       1.609   0.145  -3.933  0.00  0.00     0.007 C 
ATOM      9  C   UNL d   1       0.903   1.329  -4.580  0.00  0.00     0.009 C 
ENDBRANCH   7   8
ENDBRANCH   1   7
TORSDOF 2
ENDMDL
