MODEL 1
REMARK minimizedAffinity 17.8450546
REMARK minimizedRMSD -1
REMARK  2 active torsions:
REMARK  status: ('A' for Active; 'I' for Inactive)
REMARK    1  A    between atoms: C1_2  and  C2_3 
REMARK    2  A    between atoms: C2_3  and  C3_4 
ROOT
ATOM      1  C3  UNL d   1      -0.079  -2.718  -1.909  0.00  0.00    -0.075 A 
ATOM      2  C4  UNL d   1       0.616  -3.365  -0.876  0.00  0.00     0.002 A 
ATOM      3  C5  UNL d   1       1.616  -2.698  -0.169  0.00  0.00     0.002 A 
ATOM      4  C6  UNL d   1       1.942  -1.383  -0.491  0.00  0.00    -0.004 A 
ATOM      5  C7  UNL d   1       1.271  -0.735  -1.526  0.00  0.00     0.002 A 
ATOM      6  C8  UNL d   1       0.266  -1.399  -2.232  0.00  0.00     0.002 A 
ENDROOT
BRANCH   1   7
ATOM      7  C2  UNL d   1      -1.183  -3.424  -2.658  0.00  0.00     0.056 C 
BRANCH   7   8
ATOM      8  C1  UNL d   1      -1.475  -4.840  -2.150  0.00  0.00     0.007 C 
ATOM      9  C   UNL d   1      -2.662  -4.903  -1.198  0.00  0.00     0.009 C 
ENDBRANCH   7   8
ENDBRANCH   1   7
TORSDOF 2
ENDMDL
