MODEL 1
REMARK minimizedAffinity 13.0561562
REMARK minimizedRMSD -1
REMARK  2 active torsions:
REMARK  status: ('A' for Active; 'I' for Inactive)
REMARK    1  A    between atoms: C1_2  and  C2_3 
REMARK    2  A    between atoms: C2_3  and  C3_4 
ROOT
ATOM      1  C3  UNL d   1       2.177   1.426   5.012  0.00  0.00    -0.075 A 
ATOM      2  C4  UNL d   1       1.970   1.286   3.633  0.00  0.00     0.002 A 
ATOM      3  C5  UNL d   1       1.200   0.235   3.135  0.00  0.00     0.002 A 
ATOM      4  C6  UNL d   1       0.637  -0.694   4.007  0.00  0.00    -0.004 A 
ATOM      5  C7  UNL d   1       0.851  -0.575   5.379  0.00  0.00     0.002 A 
ATOM      6  C8  UNL d   1       1.617   0.479   5.880  0.00  0.00     0.002 A 
ENDROOT
BRANCH   1   7
ATOM      7  C2  UNL d   1       2.985   2.579   5.560  0.00  0.00     0.056 C 
BRANCH   7   8
ATOM      8  C1  UNL d   1       2.623   3.938   4.952  0.00  0.00     0.007 C 
ATOM      9  C   UNL d   1       3.141   5.116   5.766  0.00  0.00     0.009 C 
ENDBRANCH   7   8
ENDBRANCH   1   7
TORSDOF 2
ENDMDL
