MODEL 1
REMARK minimizedAffinity 7.39832783
REMARK minimizedRMSD -1
REMARK  2 active torsions:
REMARK  status: ('A' for Active; 'I' for Inactive)
REMARK    1  A    between atoms: C1_2  and  C2_3 
REMARK    2  A    between atoms: C2_3  and  C3_4 
ROOT
ATOM      1  C3  UNL d   1       0.719  -3.359  -1.556  0.00  0.00    -0.075 A 
ATOM      2  C4  UNL d   1       1.863  -4.006  -1.068  0.00  0.00     0.002 A 
ATOM      3  C5  UNL d   1       2.781  -3.319  -0.273  0.00  0.00     0.002 A 
ATOM      4  C6  UNL d   1       2.573  -1.976   0.034  0.00  0.00    -0.004 A 
ATOM      5  C7  UNL d   1       1.449  -1.318  -0.459  0.00  0.00     0.002 A 
ATOM      6  C8  UNL d   1       0.526  -2.005  -1.250  0.00  0.00     0.002 A 
ENDROOT
BRANCH   1   7
ATOM      7  C2  UNL d   1      -0.294  -4.105  -2.391  0.00  0.00     0.056 C 
BRANCH   7   8
ATOM      8  C1  UNL d   1      -1.749  -3.849  -1.983  0.00  0.00     0.007 C 
ATOM      9  C   UNL d   1      -2.269  -4.849  -0.959  0.00  0.00     0.009 C 
ENDBRANCH   7   8
ENDBRANCH   1   7
TORSDOF 2
ENDMDL
