MODEL 1
REMARK minimizedAffinity 11.2646055
REMARK minimizedRMSD -1
REMARK  2 active torsions:
REMARK  status: ('A' for Active; 'I' for Inactive)
REMARK    1  A    between atoms: C1_2  and  C2_3 
REMARK    2  A    between atoms: C2_3  and  C3_4 
ROOT
ATOM      1  C3  UNL d   1       0.156  -2.394  -2.026  0.00  0.00    -0.075 A 
ATOM      2  C4  UNL d   1       0.020  -3.788  -1.951  0.00  0.00     0.002 A 
ATOM      3  C5  UNL d   1      -1.236  -4.384  -2.067  0.00  0.00     0.002 A 
ATOM      4  C6  UNL d   1      -2.370  -3.596  -2.249  0.00  0.00    -0.004 A 
ATOM      5  C7  UNL d   1      -2.249  -2.209  -2.307  0.00  0.00     0.002 A 
ATOM      6  C8  UNL d   1      -0.993  -1.610  -2.196  0.00  0.00     0.002 A 
ENDROOT
BRANCH   1   7
ATOM      7  C2  UNL d   1       1.516  -1.745  -1.930  0.00  0.00     0.056 C 
BRANCH   7   8
ATOM      8  C1  UNL d   1       1.534  -0.453  -1.106  0.00  0.00     0.007 C 
ATOM      9  C   UNL d   1       1.865   0.782  -1.933  0.00  0.00     0.009 C 
ENDBRANCH   7   8
ENDBRANCH   1   7
TORSDOF 2
ENDMDL
