MODEL 1
REMARK minimizedAffinity 5.72713995
REMARK minimizedRMSD -1
REMARK  2 active torsions:
REMARK  status: ('A' for Active; 'I' for Inactive)
REMARK    1  A    between atoms: C1_2  and  C2_3 
REMARK    2  A    between atoms: C2_3  and  C3_4 
ROOT
ATOM      1  C3  UNL d   1       1.799   3.431  -2.023  0.00  0.00    -0.075 A 
ATOM      2  C4  UNL d   1       1.437   3.642  -0.685  0.00  0.00     0.002 A 
ATOM      3  C5  UNL d   1       1.494   4.920  -0.129  0.00  0.00     0.002 A 
ATOM      4  C6  UNL d   1       1.923   5.999  -0.898  0.00  0.00    -0.004 A 
ATOM      5  C7  UNL d   1       2.302   5.799  -2.223  0.00  0.00     0.002 A 
ATOM      6  C8  UNL d   1       2.241   4.522  -2.784  0.00  0.00     0.002 A 
ENDROOT
BRANCH   1   7
ATOM      7  C2  UNL d   1       1.711   2.056  -2.640  0.00  0.00     0.056 C 
BRANCH   7   8
ATOM      8  C1  UNL d   1       2.501   0.982  -1.885  0.00  0.00     0.007 C 
ATOM      9  C   UNL d   1       1.702  -0.291  -1.640  0.00  0.00     0.009 C 
ENDBRANCH   7   8
ENDBRANCH   1   7
TORSDOF 2
ENDMDL
