MODEL 1
REMARK minimizedAffinity 1.53423131
REMARK minimizedRMSD -1
REMARK  2 active torsions:
REMARK  status: ('A' for Active; 'I' for Inactive)
REMARK    1  A    between atoms: C1_2  and  C2_3 
REMARK    2  A    between atoms: C2_3  and  C3_4 
ROOT
ATOM      1  C3  UNL d   1       1.008  -2.257  -2.007  0.00  0.00    -0.075 A 
ATOM      2  C4  UNL d   1       1.793  -2.286  -0.846  0.00  0.00     0.002 A 
ATOM      3  C5  UNL d   1       2.585  -1.191  -0.499  0.00  0.00     0.002 A 
ATOM      4  C6  UNL d   1       2.610  -0.060  -1.312  0.00  0.00    -0.004 A 
ATOM      5  C7  UNL d   1       1.847  -0.027  -2.477  0.00  0.00     0.002 A 
ATOM      6  C8  UNL d   1       1.050  -1.119  -2.824  0.00  0.00     0.002 A 
ENDROOT
BRANCH   1   7
ATOM      7  C2  UNL d   1       0.125  -3.427  -2.373  0.00  0.00     0.056 C 
BRANCH   7   8
ATOM      8  C1  UNL d   1      -1.301  -3.329  -1.821  0.00  0.00     0.007 C 
ATOM      9  C   UNL d   1      -2.156  -2.300  -2.547  0.00  0.00     0.009 C 
ENDBRANCH   7   8
ENDBRANCH   1   7
TORSDOF 2
ENDMDL
