MODEL 1
REMARK minimizedAffinity 13.4735012
REMARK minimizedRMSD -1
REMARK  2 active torsions:
REMARK  status: ('A' for Active; 'I' for Inactive)
REMARK    1  A    between atoms: C1_2  and  C2_3 
REMARK    2  A    between atoms: C2_3  and  C3_4 
ROOT
ATOM      1  C3  UNL d   1       2.623   1.131  -0.685  0.00  0.00    -0.075 A 
ATOM      2  C4  UNL d   1       2.328   2.080  -1.675  0.00  0.00     0.002 A 
ATOM      3  C5  UNL d   1       1.671   1.701  -2.846  0.00  0.00     0.002 A 
ATOM      4  C6  UNL d   1       1.312   0.370  -3.048  0.00  0.00    -0.004 A 
ATOM      5  C7  UNL d   1       1.615  -0.584  -2.079  0.00  0.00     0.002 A 
ATOM      6  C8  UNL d   1       2.268  -0.207  -0.904  0.00  0.00     0.002 A 
ENDROOT
BRANCH   1   7
ATOM      7  C2  UNL d   1       3.307   1.539   0.597  0.00  0.00     0.056 C 
BRANCH   7   8
ATOM      8  C1  UNL d   1       2.447   2.421   1.509  0.00  0.00     0.007 C 
ATOM      9  C   UNL d   1       1.930   1.688   2.739  0.00  0.00     0.009 C 
ENDBRANCH   7   8
ENDBRANCH   1   7
TORSDOF 2
ENDMDL
