MODEL 1
REMARK minimizedAffinity 1.84223747
REMARK minimizedRMSD -1
REMARK  0 active torsions:
REMARK  status: ('A' for Active; 'I' for Inactive)
ROOT
ATOM      1  C   UNL d   1      -2.507  -0.750   3.059  0.00  0.00     0.077 C 
ATOM      2  C1  UNL d   1      -2.237  -1.356   1.714  0.00  0.00    -0.074 A 
ATOM      3  C2  UNL d   1      -2.731  -2.622   1.383  0.00  0.00    -0.005 A 
ATOM      4  C3  UNL d   1      -2.480  -3.168   0.124  0.00  0.00     0.006 A 
ATOM      5  C4  UNL d   1      -1.734  -2.455  -0.815  0.00  0.00    -0.005 A 
ATOM      6  C5  UNL d   1      -1.234  -1.186  -0.503  0.00  0.00    -0.074 A 
ATOM      7  C6  UNL d   1      -0.440  -0.402  -1.505  0.00  0.00     0.077 C 
ATOM      8  C7  UNL d   1      -1.496  -0.642   0.761  0.00  0.00    -0.001 A 
ENDROOT
TORSDOF 0
ENDMDL
