MODEL 1
REMARK minimizedAffinity 6.36001778
REMARK minimizedRMSD -1
REMARK  0 active torsions:
REMARK  status: ('A' for Active; 'I' for Inactive)
ROOT
ATOM      1  C   UNL d   1       5.959  -2.410   1.894  0.00  0.00     0.077 C 
ATOM      2  C1  UNL d   1       5.530  -2.495   3.329  0.00  0.00    -0.074 A 
ATOM      3  C2  UNL d   1       5.922  -1.523   4.255  0.00  0.00    -0.005 A 
ATOM      4  C3  UNL d   1       5.508  -1.610   5.584  0.00  0.00     0.006 A 
ATOM      5  C4  UNL d   1       4.699  -2.669   6.000  0.00  0.00    -0.005 A 
ATOM      6  C5  UNL d   1       4.296  -3.649   5.088  0.00  0.00    -0.074 A 
ATOM      7  C6  UNL d   1       3.419  -4.788   5.516  0.00  0.00     0.077 C 
ATOM      8  C7  UNL d   1       4.711  -3.551   3.753  0.00  0.00    -0.001 A 
ENDROOT
TORSDOF 0
ENDMDL
