MODEL 1
REMARK minimizedAffinity -5.98418427
REMARK minimizedRMSD -1
REMARK  0 active torsions:
REMARK  status: ('A' for Active; 'I' for Inactive)
ROOT
ATOM      1  C   UNL d   1       0.118  -1.768  -2.362  0.00  0.00     0.077 C 
ATOM      2  C1  UNL d   1      -0.061  -2.145  -0.921  0.00  0.00    -0.074 A 
ATOM      3  C2  UNL d   1       0.164  -3.456  -0.488  0.00  0.00    -0.005 A 
ATOM      4  C3  UNL d   1       0.002  -3.789   0.857  0.00  0.00     0.006 A 
ATOM      5  C4  UNL d   1      -0.386  -2.818   1.780  0.00  0.00    -0.005 A 
ATOM      6  C5  UNL d   1      -0.615  -1.502   1.365  0.00  0.00    -0.074 A 
ATOM      7  C6  UNL d   1      -1.023  -0.443   2.346  0.00  0.00     0.077 C 
ATOM      8  C7  UNL d   1      -0.443  -1.173   0.014  0.00  0.00    -0.001 A 
ENDROOT
TORSDOF 0
ENDMDL
