MODEL 1
REMARK minimizedAffinity -6.05107117
REMARK minimizedRMSD -1
REMARK  0 active torsions:
REMARK  status: ('A' for Active; 'I' for Inactive)
ROOT
ATOM      1  C   UNL d   1      -2.009   0.116   1.907  0.00  0.00     0.077 C 
ATOM      2  C1  UNL d   1      -1.348  -1.039   1.216  0.00  0.00    -0.074 A 
ATOM      3  C2  UNL d   1      -1.792  -2.350   1.423  0.00  0.00    -0.005 A 
ATOM      4  C3  UNL d   1      -1.173  -3.413   0.767  0.00  0.00     0.006 A 
ATOM      5  C4  UNL d   1      -0.106  -3.179  -0.102  0.00  0.00    -0.005 A 
ATOM      6  C5  UNL d   1       0.351  -1.875  -0.321  0.00  0.00    -0.074 A 
ATOM      7  C6  UNL d   1       1.490  -1.604  -1.259  0.00  0.00     0.077 C 
ATOM      8  C7  UNL d   1      -0.281  -0.811   0.336  0.00  0.00    -0.001 A 
ENDROOT
TORSDOF 0
ENDMDL
