MODEL 1
REMARK minimizedAffinity -4.82157564
REMARK minimizedRMSD -1
REMARK  0 active torsions:
REMARK  status: ('A' for Active; 'I' for Inactive)
ROOT
ATOM      1  C   UNL d   1      -2.973  -2.755   1.444  0.00  0.00     0.077 C 
ATOM      2  C1  UNL d   1      -1.722  -2.203   0.827  0.00  0.00    -0.074 A 
ATOM      3  C2  UNL d   1      -0.762  -3.052   0.268  0.00  0.00    -0.005 A 
ATOM      4  C3  UNL d   1       0.392  -2.523  -0.311  0.00  0.00     0.006 A 
ATOM      5  C4  UNL d   1       0.597  -1.143  -0.336  0.00  0.00    -0.005 A 
ATOM      6  C5  UNL d   1      -0.353  -0.279   0.218  0.00  0.00    -0.074 A 
ATOM      7  C6  UNL d   1      -0.153   1.207   0.191  0.00  0.00     0.077 C 
ATOM      8  C7  UNL d   1      -1.513  -0.817   0.792  0.00  0.00    -0.001 A 
ENDROOT
TORSDOF 0
ENDMDL
