MODEL 1
REMARK minimizedAffinity -4.34839106
REMARK minimizedRMSD -1
REMARK  0 active torsions:
REMARK  status: ('A' for Active; 'I' for Inactive)
ROOT
ATOM      1  C   UNL d   1       0.488  -0.693  -3.212  0.00  0.00     0.077 C 
ATOM      2  C1  UNL d   1       0.068  -0.580  -1.777  0.00  0.00    -0.074 A 
ATOM      3  C2  UNL d   1       0.228   0.618  -1.073  0.00  0.00    -0.005 A 
ATOM      4  C3  UNL d   1      -0.177   0.710   0.259  0.00  0.00     0.006 A 
ATOM      5  C4  UNL d   1      -0.745  -0.392   0.899  0.00  0.00    -0.005 A 
ATOM      6  C5  UNL d   1      -0.913  -1.598   0.211  0.00  0.00    -0.074 A 
ATOM      7  C6  UNL d   1      -1.531  -2.789   0.881  0.00  0.00     0.077 C 
ATOM      8  C7  UNL d   1      -0.511  -1.681  -1.129  0.00  0.00    -0.001 A 
ENDROOT
TORSDOF 0
ENDMDL
