MODEL 1
REMARK minimizedAffinity -2.43779516
REMARK minimizedRMSD -1
REMARK  0 active torsions:
REMARK  status: ('A' for Active; 'I' for Inactive)
ROOT
ATOM      1  C   UNL d   1       0.540   0.709  -1.872  0.00  0.00     0.077 C 
ATOM      2  C1  UNL d   1       0.409  -0.374  -0.843  0.00  0.00    -0.074 A 
ATOM      3  C2  UNL d   1       1.308  -1.445  -0.808  0.00  0.00    -0.005 A 
ATOM      4  C3  UNL d   1       1.179  -2.440   0.161  0.00  0.00     0.006 A 
ATOM      5  C4  UNL d   1       0.152  -2.375   1.103  0.00  0.00    -0.005 A 
ATOM      6  C5  UNL d   1      -0.757  -1.312   1.083  0.00  0.00    -0.074 A 
ATOM      7  C6  UNL d   1      -1.861  -1.222   2.094  0.00  0.00     0.077 C 
ATOM      8  C7  UNL d   1      -0.616  -0.312   0.111  0.00  0.00    -0.001 A 
ENDROOT
TORSDOF 0
ENDMDL
