MODEL 1
REMARK minimizedAffinity -4.69812489
REMARK minimizedRMSD -1
REMARK  0 active torsions:
REMARK  status: ('A' for Active; 'I' for Inactive)
ROOT
ATOM      1  C   UNL d   1       0.140  -2.915   0.968  0.00  0.00     0.077 C 
ATOM      2  C1  UNL d   1       0.190  -1.754   0.019  0.00  0.00    -0.074 A 
ATOM      3  C2  UNL d   1       0.622  -1.923  -1.300  0.00  0.00    -0.005 A 
ATOM      4  C3  UNL d   1       0.654  -0.836  -2.174  0.00  0.00     0.006 A 
ATOM      5  C4  UNL d   1       0.255   0.428  -1.738  0.00  0.00    -0.005 A 
ATOM      6  C5  UNL d   1      -0.180   0.615  -0.422  0.00  0.00    -0.074 A 
ATOM      7  C6  UNL d   1      -0.622   1.965   0.060  0.00  0.00     0.077 C 
ATOM      8  C7  UNL d   1      -0.216  -0.483   0.448  0.00  0.00    -0.001 A 
ENDROOT
TORSDOF 0
ENDMDL
