MODEL 1
REMARK minimizedAffinity -2.99935126
REMARK minimizedRMSD -1
REMARK  0 active torsions:
REMARK  status: ('A' for Active; 'I' for Inactive)
ROOT
ATOM      1  C   UNL d   1       0.538  -3.786   0.365  0.00  0.00     0.077 C 
ATOM      2  C1  UNL d   1      -0.187  -2.486   0.553  0.00  0.00    -0.074 A 
ATOM      3  C2  UNL d   1      -1.500  -2.458   1.033  0.00  0.00    -0.005 A 
ATOM      4  C3  UNL d   1      -2.158  -1.241   1.212  0.00  0.00     0.006 A 
ATOM      5  C4  UNL d   1      -1.510  -0.042   0.912  0.00  0.00    -0.005 A 
ATOM      6  C5  UNL d   1      -0.197  -0.050   0.432  0.00  0.00    -0.074 A 
ATOM      7  C6  UNL d   1       0.517   1.230   0.115  0.00  0.00     0.077 C 
ATOM      8  C7  UNL d   1       0.460  -1.277   0.262  0.00  0.00    -0.001 A 
ENDROOT
TORSDOF 0
ENDMDL
