MODEL 1
REMARK minimizedAffinity -4.31675196
REMARK minimizedRMSD -1
REMARK  0 active torsions:
REMARK  status: ('A' for Active; 'I' for Inactive)
ROOT
ATOM      1  C   UNL d   1      -0.126   1.444   0.368  0.00  0.00     0.077 C 
ATOM      2  C1  UNL d   1      -0.305   0.018  -0.061  0.00  0.00    -0.074 A 
ATOM      3  C2  UNL d   1       0.368  -0.486  -1.178  0.00  0.00    -0.005 A 
ATOM      4  C3  UNL d   1       0.200  -1.817  -1.560  0.00  0.00     0.006 A 
ATOM      5  C4  UNL d   1      -0.643  -2.656  -0.829  0.00  0.00    -0.005 A 
ATOM      6  C5  UNL d   1      -1.324  -2.170   0.292  0.00  0.00    -0.074 A 
ATOM      7  C6  UNL d   1      -2.225  -3.061   1.094  0.00  0.00     0.077 C 
ATOM      8  C7  UNL d   1      -1.143  -0.834   0.673  0.00  0.00    -0.001 A 
ENDROOT
TORSDOF 0
ENDMDL
