MODEL 1
REMARK minimizedAffinity -4.43422461
REMARK minimizedRMSD -1
REMARK  0 active torsions:
REMARK  status: ('A' for Active; 'I' for Inactive)
ROOT
ATOM      1  C   UNL d   1       1.704  -2.992   0.422  0.00  0.00     0.077 C 
ATOM      2  C1  UNL d   1       0.636  -1.941   0.485  0.00  0.00    -0.074 A 
ATOM      3  C2  UNL d   1      -0.668  -2.264   0.874  0.00  0.00    -0.005 A 
ATOM      4  C3  UNL d   1      -1.649  -1.274   0.938  0.00  0.00     0.006 A 
ATOM      5  C4  UNL d   1      -1.336   0.046   0.614  0.00  0.00    -0.005 A 
ATOM      6  C5  UNL d   1      -0.037   0.389   0.225  0.00  0.00    -0.074 A 
ATOM      7  C6  UNL d   1       0.318   1.805  -0.116  0.00  0.00     0.077 C 
ATOM      8  C7  UNL d   1       0.945  -0.610   0.170  0.00  0.00    -0.001 A 
ENDROOT
TORSDOF 0
ENDMDL
