MODEL 1
REMARK minimizedAffinity -5.27612019
REMARK minimizedRMSD -1
REMARK  0 active torsions:
REMARK  status: ('A' for Active; 'I' for Inactive)
ROOT
ATOM      1  C   UNL d   1       0.686  -3.570   0.728  0.00  0.00     0.077 C 
ATOM      2  C1  UNL d   1      -0.063  -2.271   0.746  0.00  0.00    -0.074 A 
ATOM      3  C2  UNL d   1      -1.427  -2.232   1.056  0.00  0.00    -0.005 A 
ATOM      4  C3  UNL d   1      -2.108  -1.015   1.078  0.00  0.00     0.006 A 
ATOM      5  C4  UNL d   1      -1.435   0.173   0.790  0.00  0.00    -0.005 A 
ATOM      6  C5  UNL d   1      -0.072   0.153   0.478  0.00  0.00    -0.074 A 
ATOM      7  C6  UNL d   1       0.669   1.421   0.175  0.00  0.00     0.077 C 
ATOM      8  C7  UNL d   1       0.608  -1.073   0.465  0.00  0.00    -0.001 A 
ENDROOT
TORSDOF 0
ENDMDL
