MODEL 1
REMARK minimizedAffinity -3.7298553
REMARK minimizedRMSD -1
REMARK  0 active torsions:
REMARK  status: ('A' for Active; 'I' for Inactive)
ROOT
ATOM      1  C   UNL d   1      -0.693   4.474   2.976  0.00  0.00     0.077 C 
ATOM      2  C1  UNL d   1       0.080   3.831   1.864  0.00  0.00    -0.074 A 
ATOM      3  C2  UNL d   1       1.271   4.397   1.395  0.00  0.00    -0.005 A 
ATOM      4  C3  UNL d   1       1.984   3.782   0.367  0.00  0.00     0.006 A 
ATOM      5  C4  UNL d   1       1.516   2.597  -0.203  0.00  0.00    -0.005 A 
ATOM      6  C5  UNL d   1       0.328   2.017   0.253  0.00  0.00    -0.074 A 
ATOM      7  C6  UNL d   1      -0.184   0.739  -0.342  0.00  0.00     0.077 C 
ATOM      8  C7  UNL d   1      -0.380   2.637   1.292  0.00  0.00    -0.001 A 
ENDROOT
TORSDOF 0
ENDMDL
