MODEL 1
REMARK minimizedAffinity -4.96044397
REMARK minimizedRMSD -1
REMARK  0 active torsions:
REMARK  status: ('A' for Active; 'I' for Inactive)
ROOT
ATOM      1  C   UNL d   1      -0.095   1.532  -1.036  0.00  0.00     0.077 C 
ATOM      2  C1  UNL d   1       0.689   2.264   0.012  0.00  0.00    -0.074 A 
ATOM      3  C2  UNL d   1       2.079   2.387  -0.085  0.00  0.00    -0.005 A 
ATOM      4  C3  UNL d   1       2.794   3.079   0.892  0.00  0.00     0.006 A 
ATOM      5  C4  UNL d   1       2.127   3.654   1.975  0.00  0.00    -0.005 A 
ATOM      6  C5  UNL d   1       0.738   3.542   2.089  0.00  0.00    -0.074 A 
ATOM      7  C6  UNL d   1       0.005   4.162   3.241  0.00  0.00     0.077 C 
ATOM      8  C7  UNL d   1       0.026   2.851   1.099  0.00  0.00    -0.001 A 
ENDROOT
TORSDOF 0
ENDMDL
