MODEL 1
REMARK minimizedAffinity -4.77751875
REMARK minimizedRMSD -1
REMARK  0 active torsions:
REMARK  status: ('A' for Active; 'I' for Inactive)
ROOT
ATOM      1  C   UNL d   1       0.182  -3.460   1.174  0.00  0.00     0.077 C 
ATOM      2  C1  UNL d   1       0.169  -2.485   0.035  0.00  0.00    -0.074 A 
ATOM      3  C2  UNL d   1       0.297  -2.922  -1.288  0.00  0.00    -0.005 A 
ATOM      4  C3  UNL d   1       0.273  -2.004  -2.337  0.00  0.00     0.006 A 
ATOM      5  C4  UNL d   1       0.123  -0.641  -2.076  0.00  0.00    -0.005 A 
ATOM      6  C5  UNL d   1      -0.007  -0.186  -0.760  0.00  0.00    -0.074 A 
ATOM      7  C6  UNL d   1      -0.180   1.274  -0.462  0.00  0.00     0.077 C 
ATOM      8  C7  UNL d   1       0.010  -1.115   0.289  0.00  0.00    -0.001 A 
ENDROOT
TORSDOF 0
ENDMDL
