MODEL 1
REMARK minimizedAffinity -5.87930727
REMARK minimizedRMSD -1
REMARK  0 active torsions:
REMARK  status: ('A' for Active; 'I' for Inactive)
ROOT
ATOM      1  C   UNL d   1       0.028   1.293   0.047  0.00  0.00     0.077 C 
ATOM      2  C1  UNL d   1      -0.125  -0.198  -0.020  0.00  0.00    -0.074 A 
ATOM      3  C2  UNL d   1      -0.783  -0.900   0.994  0.00  0.00    -0.005 A 
ATOM      4  C3  UNL d   1      -0.926  -2.285   0.913  0.00  0.00     0.006 A 
ATOM      5  C4  UNL d   1      -0.413  -2.981  -0.182  0.00  0.00    -0.005 A 
ATOM      6  C5  UNL d   1       0.248  -2.296  -1.207  0.00  0.00    -0.074 A 
ATOM      7  C6  UNL d   1       0.798  -3.028  -2.395  0.00  0.00     0.077 C 
ATOM      8  C7  UNL d   1       0.382  -0.903  -1.121  0.00  0.00    -0.001 A 
ENDROOT
TORSDOF 0
ENDMDL
