MODEL 1
REMARK minimizedAffinity -3.6191833
REMARK minimizedRMSD -1
REMARK  0 active torsions:
REMARK  status: ('A' for Active; 'I' for Inactive)
ROOT
ATOM      1  C4' PXY d   1      -0.749   1.761  -1.133  0.00  0.00     0.077 C 
ATOM      2  C1' PXY d   1       1.533  -2.989   1.244  0.00  0.00     0.077 C 
ATOM      3  C1  PXY d   1       0.946  -1.737   0.623  0.00  0.00    -0.082 A 
ATOM      4  C2  PXY d   1      -0.365  -1.561   0.621  0.00  0.00     0.003 A 
ATOM      5  C3  PXY d   1      -0.915  -0.450   0.034  0.00  0.00     0.003 A 
ATOM      6  C4  PXY d   1      -0.111   0.517  -0.508  0.00  0.00    -0.082 A 
ATOM      7  C5  PXY d   1       1.228   0.350  -0.500  0.00  0.00     0.003 A 
ATOM      8  C6  PXY d   1       1.764  -0.805   0.063  0.00  0.00     0.003 A 
ENDROOT
TORSDOF 0
ENDMDL
