MODEL 1
REMARK minimizedAffinity -4.35450935
REMARK minimizedRMSD -1
REMARK  0 active torsions:
REMARK  status: ('A' for Active; 'I' for Inactive)
ROOT
ATOM      1  C4' PXY d   1      -1.051   1.515  -0.786  0.00  0.00     0.077 C 
ATOM      2  C1' PXY d   1       1.414  -3.231   1.409  0.00  0.00     0.077 C 
ATOM      3  C1  PXY d   1       0.779  -1.980   0.835  0.00  0.00    -0.082 A 
ATOM      4  C2  PXY d   1      -0.536  -1.839   0.871  0.00  0.00     0.003 A 
ATOM      5  C3  PXY d   1      -1.130  -0.728   0.328  0.00  0.00     0.003 A 
ATOM      6  C4  PXY d   1      -0.365   0.272  -0.210  0.00  0.00    -0.082 A 
ATOM      7  C5  PXY d   1       0.978   0.141  -0.241  0.00  0.00     0.003 A 
ATOM      8  C6  PXY d   1       1.558  -1.013   0.279  0.00  0.00     0.003 A 
ENDROOT
TORSDOF 0
ENDMDL
