MODEL 1
REMARK minimizedAffinity -4.489573
REMARK minimizedRMSD -1
REMARK  0 active torsions:
REMARK  status: ('A' for Active; 'I' for Inactive)
ROOT
ATOM      1  C4' PXY d   1      -0.661   2.102  -0.682  0.00  0.00     0.077 C 
ATOM      2  C1' PXY d   1       1.521  -3.053   0.758  0.00  0.00     0.077 C 
ATOM      3  C1  PXY d   1       0.958  -1.695   0.387  0.00  0.00    -0.082 A 
ATOM      4  C2  PXY d   1      -0.309  -1.590   0.022  0.00  0.00     0.003 A 
ATOM      5  C3  PXY d   1      -0.826  -0.375  -0.347  0.00  0.00     0.003 A 
ATOM      6  C4  PXY d   1      -0.053   0.753  -0.290  0.00  0.00    -0.082 A 
ATOM      7  C5  PXY d   1       1.239   0.656   0.092  0.00  0.00     0.003 A 
ATOM      8  C6  PXY d   1       1.755  -0.593   0.423  0.00  0.00     0.003 A 
ENDROOT
TORSDOF 0
ENDMDL
