MODEL 1
REMARK minimizedAffinity -2.70753646
REMARK minimizedRMSD -1
REMARK  0 active torsions:
REMARK  status: ('A' for Active; 'I' for Inactive)
ROOT
ATOM      1  C4' PXY d   1      -1.164   1.780  -2.226  0.00  0.00     0.077 C 
ATOM      2  C1' PXY d   1       1.711  -1.933   1.144  0.00  0.00     0.077 C 
ATOM      3  C1  PXY d   1       0.969  -0.955   0.256  0.00  0.00    -0.082 A 
ATOM      4  C2  PXY d   1      -0.263  -0.589   0.572  0.00  0.00     0.003 A 
ATOM      5  C3  PXY d   1      -0.960   0.271  -0.237  0.00  0.00     0.003 A 
ATOM      6  C4  PXY d   1      -0.373   0.802  -1.353  0.00  0.00    -0.082 A 
ATOM      7  C5  PXY d   1       0.887   0.442  -1.677  0.00  0.00     0.003 A 
ATOM      8  C6  PXY d   1       1.564  -0.464  -0.865  0.00  0.00     0.003 A 
ENDROOT
TORSDOF 0
ENDMDL
