MODEL 1
REMARK minimizedAffinity -6.00185776
REMARK minimizedRMSD -1
REMARK  0 active torsions:
REMARK  status: ('A' for Active; 'I' for Inactive)
ROOT
ATOM      1  C4' PXY d   1      -1.163  -1.779   2.884  0.00  0.00     0.077 C 
ATOM      2  C1' PXY d   1       2.654  -0.338  -1.211  0.00  0.00     0.077 C 
ATOM      3  C1  PXY d   1       1.658  -0.728  -0.137  0.00  0.00    -0.082 A 
ATOM      4  C2  PXY d   1       0.517  -0.067  -0.032  0.00  0.00     0.003 A 
ATOM      5  C3  PXY d   1      -0.381  -0.385   0.954  0.00  0.00     0.003 A 
ATOM      6  C4  PXY d   1      -0.132  -1.426   1.808  0.00  0.00    -0.082 A 
ATOM      7  C5  PXY d   1       1.025  -2.113   1.701  0.00  0.00     0.003 A 
ATOM      8  C6  PXY d   1       1.942  -1.747   0.719  0.00  0.00     0.003 A 
ENDROOT
TORSDOF 0
ENDMDL
