MODEL 1
REMARK minimizedAffinity -5.85810423
REMARK minimizedRMSD -1
REMARK  0 active torsions:
REMARK  status: ('A' for Active; 'I' for Inactive)
ROOT
ATOM      1  C4' PXY d   1      -1.193   1.952  -0.517  0.00  0.00     0.077 C 
ATOM      2  C1' PXY d   1       1.869  -2.667   1.126  0.00  0.00     0.077 C 
ATOM      3  C1  PXY d   1       1.077  -1.449   0.692  0.00  0.00    -0.082 A 
ATOM      4  C2  PXY d   1      -0.137  -1.252   1.178  0.00  0.00     0.003 A 
ATOM      5  C3  PXY d   1      -0.880  -0.173   0.773  0.00  0.00     0.003 A 
ATOM      6  C4  PXY d   1      -0.353   0.742  -0.100  0.00  0.00    -0.082 A 
ATOM      7  C5  PXY d   1       0.889   0.553  -0.592  0.00  0.00     0.003 A 
ATOM      8  C6  PXY d   1       1.611  -0.571  -0.199  0.00  0.00     0.003 A 
ENDROOT
TORSDOF 0
ENDMDL
