MODEL 1
REMARK minimizedAffinity -4.34902716
REMARK minimizedRMSD -1
REMARK  0 active torsions:
REMARK  status: ('A' for Active; 'I' for Inactive)
ROOT
ATOM      1  C4' PXY d   1      -0.914   2.501  -1.619  0.00  0.00     0.077 C 
ATOM      2  C1' PXY d   1       1.847  -1.912   0.894  0.00  0.00     0.077 C 
ATOM      3  C1  PXY d   1       1.112  -0.761   0.236  0.00  0.00    -0.082 A 
ATOM      4  C2  PXY d   1       1.771   0.069  -0.556  0.00  0.00     0.003 A 
ATOM      5  C3  PXY d   1       1.128   1.134  -1.134  0.00  0.00     0.003 A 
ATOM      6  C4  PXY d   1      -0.215   1.320  -0.941  0.00  0.00    -0.082 A 
ATOM      7  C5  PXY d   1      -0.896   0.471  -0.143  0.00  0.00     0.003 A 
ATOM      8  C6  PXY d   1      -0.217  -0.579   0.467  0.00  0.00     0.003 A 
ENDROOT
TORSDOF 0
ENDMDL
