MODEL 1
REMARK minimizedAffinity -5.73029947
REMARK minimizedRMSD -1
REMARK  0 active torsions:
REMARK  status: ('A' for Active; 'I' for Inactive)
ROOT
ATOM      1  C4' PXY d   1       1.833  -2.997   0.487  0.00  0.00     0.077 C 
ATOM      2  C1' PXY d   1      -1.418   1.688  -0.461  0.00  0.00     0.077 C 
ATOM      3  C1  PXY d   1      -0.557   0.463  -0.222  0.00  0.00    -0.082 A 
ATOM      4  C2  PXY d   1      -1.099  -0.625   0.302  0.00  0.00     0.003 A 
ATOM      5  C3  PXY d   1      -0.328  -1.730   0.554  0.00  0.00     0.003 A 
ATOM      6  C4  PXY d   1       1.000  -1.741   0.219  0.00  0.00    -0.082 A 
ATOM      7  C5  PXY d   1       1.557  -0.638  -0.326  0.00  0.00     0.003 A 
ATOM      8  C6  PXY d   1       0.766   0.488  -0.536  0.00  0.00     0.003 A 
ENDROOT
TORSDOF 0
ENDMDL
