MODEL 1
REMARK minimizedAffinity -3.89557076
REMARK minimizedRMSD -1
REMARK  0 active torsions:
REMARK  status: ('A' for Active; 'I' for Inactive)
ROOT
ATOM      1  C4' PXY d   1      -2.108   1.825  -1.829  0.00  0.00     0.077 C 
ATOM      2  C1' PXY d   1       1.784  -1.374   1.006  0.00  0.00     0.077 C 
ATOM      3  C1  PXY d   1       0.762  -0.527   0.273  0.00  0.00    -0.082 A 
ATOM      4  C2  PXY d   1       0.079  -1.050  -0.732  0.00  0.00     0.003 A 
ATOM      5  C3  PXY d   1      -0.826  -0.290  -1.426  0.00  0.00     0.003 A 
ATOM      6  C4  PXY d   1      -1.073   1.005  -1.054  0.00  0.00    -0.082 A 
ATOM      7  C5  PXY d   1      -0.388   1.543  -0.023  0.00  0.00     0.003 A 
ATOM      8  C6  PXY d   1       0.556   0.766   0.642  0.00  0.00     0.003 A 
ENDROOT
TORSDOF 0
ENDMDL
