MODEL 1
REMARK minimizedAffinity -4.65191412
REMARK minimizedRMSD -1
REMARK  0 active torsions:
REMARK  status: ('A' for Active; 'I' for Inactive)
ROOT
ATOM      1  C4' PXY d   1      -1.126  -1.878   2.256  0.00  0.00     0.077 C 
ATOM      2  C1' PXY d   1       3.328  -0.638  -1.215  0.00  0.00     0.077 C 
ATOM      3  C1  PXY d   1       2.162  -0.976  -0.306  0.00  0.00    -0.082 A 
ATOM      4  C2  PXY d   1       1.175  -0.108  -0.159  0.00  0.00     0.003 A 
ATOM      5  C3  PXY d   1       0.129  -0.384   0.684  0.00  0.00     0.003 A 
ATOM      6  C4  PXY d   1       0.066  -1.583   1.342  0.00  0.00    -0.082 A 
ATOM      7  C5  PXY d   1       1.065  -2.479   1.188  0.00  0.00     0.003 A 
ATOM      8  C6  PXY d   1       2.138  -2.162   0.360  0.00  0.00     0.003 A 
ENDROOT
TORSDOF 0
ENDMDL
