MODEL 1
REMARK minimizedAffinity -2.98293567
REMARK minimizedRMSD -1
REMARK  0 active torsions:
REMARK  status: ('A' for Active; 'I' for Inactive)
ROOT
ATOM      1  C4' PXY d   1      -1.136   2.150  -1.345  0.00  0.00     0.077 C 
ATOM      2  C1' PXY d   1       1.930  -2.217   0.877  0.00  0.00     0.077 C 
ATOM      3  C1  PXY d   1       1.115  -1.078   0.297  0.00  0.00    -0.082 A 
ATOM      4  C2  PXY d   1       1.670  -0.257  -0.579  0.00  0.00     0.003 A 
ATOM      5  C3  PXY d   1       0.957   0.797  -1.090  0.00  0.00     0.003 A 
ATOM      6  C4  PXY d   1      -0.354   0.981  -0.740  0.00  0.00    -0.082 A 
ATOM      7  C5  PXY d   1      -0.931   0.141   0.145  0.00  0.00     0.003 A 
ATOM      8  C6  PXY d   1      -0.178  -0.898   0.683  0.00  0.00     0.003 A 
ENDROOT
TORSDOF 0
ENDMDL
