MODEL 1
REMARK minimizedAffinity -4.24355412
REMARK minimizedRMSD -1
REMARK  0 active torsions:
REMARK  status: ('A' for Active; 'I' for Inactive)
ROOT
ATOM      1  C4' PXY d   1      -0.654   1.220  -1.055  0.00  0.00     0.077 C 
ATOM      2  C1' PXY d   1       1.550  -3.535   1.382  0.00  0.00     0.077 C 
ATOM      3  C1  PXY d   1       0.983  -2.282   0.746  0.00  0.00    -0.082 A 
ATOM      4  C2  PXY d   1      -0.328  -2.136   0.642  0.00  0.00     0.003 A 
ATOM      5  C3  PXY d   1      -0.857  -1.024   0.040  0.00  0.00     0.003 A 
ATOM      6  C4  PXY d   1      -0.037  -0.024  -0.412  0.00  0.00    -0.082 A 
ATOM      7  C5  PXY d   1       1.301  -0.160  -0.300  0.00  0.00     0.003 A 
ATOM      8  C6  PXY d   1       1.820  -1.316   0.277  0.00  0.00     0.003 A 
ENDROOT
TORSDOF 0
ENDMDL
