MODEL 1
REMARK minimizedAffinity -2.65613222
REMARK minimizedRMSD -1
REMARK  0 active torsions:
REMARK  status: ('A' for Active; 'I' for Inactive)
ROOT
ATOM      1  C4' PXY d   1      -1.329   1.698  -0.779  0.00  0.00     0.077 C 
ATOM      2  C1' PXY d   1       1.884  -2.791   0.932  0.00  0.00     0.077 C 
ATOM      3  C1  PXY d   1       1.031  -1.620   0.488  0.00  0.00    -0.082 A 
ATOM      4  C2  PXY d   1       1.462  -0.826  -0.479  0.00  0.00     0.003 A 
ATOM      5  C3  PXY d   1       0.718   0.257  -0.871  0.00  0.00     0.003 A 
ATOM      6  C4  PXY d   1      -0.505   0.498  -0.305  0.00  0.00    -0.082 A 
ATOM      7  C5  PXY d   1      -0.957  -0.313   0.675  0.00  0.00     0.003 A 
ATOM      8  C6  PXY d   1      -0.167  -1.383   1.087  0.00  0.00     0.003 A 
ENDROOT
TORSDOF 0
ENDMDL
