MODEL 1
REMARK minimizedAffinity -0.946545243
REMARK minimizedRMSD -1
REMARK  0 active torsions:
REMARK  status: ('A' for Active; 'I' for Inactive)
ROOT
ATOM      1  C4' PXY d   1      -2.231  -2.065   1.390  0.00  0.00     0.077 C 
ATOM      2  C1' PXY d   1       2.604   0.295  -0.723  0.00  0.00     0.077 C 
ATOM      3  C1  PXY d   1       1.334  -0.313  -0.162  0.00  0.00    -0.082 A 
ATOM      4  C2  PXY d   1       1.211  -1.629  -0.099  0.00  0.00     0.003 A 
ATOM      5  C3  PXY d   1       0.056  -2.195   0.375  0.00  0.00     0.003 A 
ATOM      6  C4  PXY d   1      -0.962  -1.407   0.840  0.00  0.00    -0.082 A 
ATOM      7  C5  PXY d   1      -0.840  -0.064   0.789  0.00  0.00     0.003 A 
ATOM      8  C6  PXY d   1       0.324   0.492   0.266  0.00  0.00     0.003 A 
ENDROOT
TORSDOF 0
ENDMDL
