MODEL 1
REMARK minimizedAffinity -3.79382157
REMARK minimizedRMSD -1
REMARK  0 active torsions:
REMARK  status: ('A' for Active; 'I' for Inactive)
ROOT
ATOM      1  C4' PXY d   1      -0.223   1.412  -0.566  0.00  0.00     0.077 C 
ATOM      2  C1' PXY d   1       1.079  -3.660   1.881  0.00  0.00     0.077 C 
ATOM      3  C1  PXY d   1       0.750  -2.327   1.239  0.00  0.00    -0.082 A 
ATOM      4  C2  PXY d   1      -0.446  -1.791   1.420  0.00  0.00     0.003 A 
ATOM      5  C3  PXY d   1      -0.771  -0.601   0.820  0.00  0.00     0.003 A 
ATOM      6  C4  PXY d   1       0.156   0.072   0.071  0.00  0.00    -0.082 A 
ATOM      7  C5  PXY d   1       1.382  -0.463  -0.110  0.00  0.00     0.003 A 
ATOM      8  C6  PXY d   1       1.678  -1.691   0.473  0.00  0.00     0.003 A 
ENDROOT
TORSDOF 0
ENDMDL
