MODEL 1
REMARK minimizedAffinity -3.69632387
REMARK minimizedRMSD -1
REMARK  0 active torsions:
REMARK  status: ('A' for Active; 'I' for Inactive)
ROOT
ATOM      1  C4' PXY d   1      -1.658   2.303  -3.410  0.00  0.00     0.077 C 
ATOM      2  C1' PXY d   1      -0.969  -1.019   1.270  0.00  0.00     0.077 C 
ATOM      3  C1  PXY d   1      -1.157  -0.158   0.037  0.00  0.00    -0.082 A 
ATOM      4  C2  PXY d   1      -0.322   0.842  -0.195  0.00  0.00     0.003 A 
ATOM      5  C3  PXY d   1      -0.495   1.651  -1.289  0.00  0.00     0.003 A 
ATOM      6  C4  PXY d   1      -1.502   1.401  -2.183  0.00  0.00    -0.082 A 
ATOM      7  C5  PXY d   1      -2.352   0.376  -1.958  0.00  0.00     0.003 A 
ATOM      8  C6  PXY d   1      -2.183  -0.408  -0.821  0.00  0.00     0.003 A 
ENDROOT
TORSDOF 0
ENDMDL
