MODEL 1
REMARK minimizedAffinity -5.48894548
REMARK minimizedRMSD -1
REMARK  0 active torsions:
REMARK  status: ('A' for Active; 'I' for Inactive)
ROOT
ATOM      1  C4' PXY d   1       1.252  -2.915   0.964  0.00  0.00     0.077 C 
ATOM      2  C1' PXY d   1      -0.950   2.040  -1.039  0.00  0.00     0.077 C 
ATOM      3  C1  PXY d   1      -0.362   0.742  -0.522  0.00  0.00    -0.082 A 
ATOM      4  C2  PXY d   1      -1.161  -0.179  -0.007  0.00  0.00     0.003 A 
ATOM      5  C3  PXY d   1      -0.643  -1.345   0.495  0.00  0.00     0.003 A 
ATOM      6  C4  PXY d   1       0.701  -1.594   0.421  0.00  0.00    -0.082 A 
ATOM      7  C5  PXY d   1       1.522  -0.664  -0.113  0.00  0.00     0.003 A 
ATOM      8  C6  PXY d   1       0.981   0.531  -0.579  0.00  0.00     0.003 A 
ENDROOT
TORSDOF 0
ENDMDL
