MODEL 1
REMARK minimizedAffinity -2.60613871
REMARK minimizedRMSD -1
REMARK  0 active torsions:
REMARK  status: ('A' for Active; 'I' for Inactive)
ROOT
ATOM      1  C4' PXY d   1      -1.450   1.677  -2.201  0.00  0.00     0.077 C 
ATOM      2  C1' PXY d   1       1.995  -1.650   1.036  0.00  0.00     0.077 C 
ATOM      3  C1  PXY d   1       1.082  -0.786   0.189  0.00  0.00    -0.082 A 
ATOM      4  C2  PXY d   1       1.603   0.025  -0.718  0.00  0.00     0.003 A 
ATOM      5  C3  PXY d   1       0.794   0.837  -1.470  0.00  0.00     0.003 A 
ATOM      6  C4  PXY d   1      -0.567   0.780  -1.330  0.00  0.00    -0.082 A 
ATOM      7  C5  PXY d   1      -1.107  -0.053  -0.415  0.00  0.00     0.003 A 
ATOM      8  C6  PXY d   1      -0.266  -0.838   0.367  0.00  0.00     0.003 A 
ENDROOT
TORSDOF 0
ENDMDL
