MODEL 1
REMARK minimizedAffinity 9.95151615
REMARK minimizedRMSD -1
REMARK  0 active torsions:
REMARK  status: ('A' for Active; 'I' for Inactive)
ROOT
ATOM      1  C   UNL d   1       3.044   4.774  -0.160  0.00  0.00     0.020 A 
ATOM      2  C1  UNL d   1       2.583   5.796   0.669  0.00  0.00     0.020 A 
ATOM      3  C2  UNL d   1       3.172   6.000   1.919  0.00  0.00     0.034 A 
ATOM      4  C3  UNL d   1       4.225   5.181   2.343  0.00  0.00     0.017 A 
ATOM      5  C4  UNL d   1       4.687   4.156   1.510  0.00  0.00     0.017 A 
ATOM      6  C5  UNL d   1       4.094   3.956   0.260  0.00  0.00     0.034 A 
ATOM      7 Cl   UNL d   1       5.982   3.105   1.964  0.00  0.00    -0.070 Cl
ATOM      8 Cl1  UNL d   1       4.907   5.490   3.900  0.00  0.00    -0.070 Cl
ENDROOT
TORSDOF 0
ENDMDL
