MODEL 1
REMARK minimizedAffinity 7.53483057
REMARK minimizedRMSD -1
REMARK  0 active torsions:
REMARK  status: ('A' for Active; 'I' for Inactive)
ROOT
ATOM      1  C   UNL d   1      -4.177  -2.192  -0.749  0.00  0.00     0.020 A 
ATOM      2  C1  UNL d   1      -5.453  -2.625  -0.390  0.00  0.00     0.020 A 
ATOM      3  C2  UNL d   1      -5.997  -2.250   0.840  0.00  0.00     0.034 A 
ATOM      4  C3  UNL d   1      -5.265  -1.440   1.716  0.00  0.00     0.017 A 
ATOM      5  C4  UNL d   1      -3.984  -1.006   1.355  0.00  0.00     0.017 A 
ATOM      6  C5  UNL d   1      -3.444  -1.385   0.122  0.00  0.00     0.034 A 
ATOM      7 Cl   UNL d   1      -3.020  -0.006   2.383  0.00  0.00    -0.070 Cl
ATOM      8 Cl1  UNL d   1      -5.999  -1.015   3.221  0.00  0.00    -0.070 Cl
ENDROOT
TORSDOF 0
ENDMDL
