MODEL 1
REMARK minimizedAffinity 10.5220213
REMARK minimizedRMSD -1
REMARK  0 active torsions:
REMARK  status: ('A' for Active; 'I' for Inactive)
ROOT
ATOM      1  C   UNL d   1      -3.488   5.541   6.000  0.00  0.00     0.020 A 
ATOM      2  C1  UNL d   1      -2.143   5.906   6.000  0.00  0.00     0.020 A 
ATOM      3  C2  UNL d   1      -1.444   5.999   4.794  0.00  0.00     0.034 A 
ATOM      4  C3  UNL d   1      -2.091   5.728   3.583  0.00  0.00     0.017 A 
ATOM      5  C4  UNL d   1      -3.442   5.362   3.584  0.00  0.00     0.017 A 
ATOM      6  C5  UNL d   1      -4.137   5.270   4.794  0.00  0.00     0.034 A 
ATOM      7 Cl   UNL d   1      -4.308   5.011   2.130  0.00  0.00    -0.070 Cl
ATOM      8 Cl1  UNL d   1      -1.166   5.863   2.130  0.00  0.00    -0.070 Cl
ENDROOT
TORSDOF 0
ENDMDL
