MODEL 1
REMARK minimizedAffinity 2.01951885
REMARK minimizedRMSD -1
REMARK  0 active torsions:
REMARK  status: ('A' for Active; 'I' for Inactive)
ROOT
ATOM      1  C   UNL d   1      -3.127  -0.275   2.700  0.00  0.00     0.020 A 
ATOM      2  C1  UNL d   1      -2.109   0.674   2.618  0.00  0.00     0.020 A 
ATOM      3  C2  UNL d   1      -1.297   0.730   1.483  0.00  0.00     0.034 A 
ATOM      4  C3  UNL d   1      -1.503  -0.163   0.426  0.00  0.00     0.017 A 
ATOM      5  C4  UNL d   1      -2.525  -1.115   0.509  0.00  0.00     0.017 A 
ATOM      6  C5  UNL d   1      -3.335  -1.167   1.648  0.00  0.00     0.034 A 
ATOM      7 Cl   UNL d   1      -2.840  -2.251  -0.755  0.00  0.00    -0.070 Cl
ATOM      8 Cl1  UNL d   1      -0.461  -0.036  -0.947  0.00  0.00    -0.070 Cl
ENDROOT
TORSDOF 0
ENDMDL
