MODEL 1
REMARK minimizedAffinity 0.438515693
REMARK minimizedRMSD -1
REMARK  0 active torsions:
REMARK  status: ('A' for Active; 'I' for Inactive)
ROOT
ATOM      1  C   UNL d   1       5.044  -5.791   5.574  0.00  0.00     0.020 A 
ATOM      2  C1  UNL d   1       4.179  -5.817   4.481  0.00  0.00     0.020 A 
ATOM      3  C2  UNL d   1       3.863  -4.632   3.812  0.00  0.00     0.034 A 
ATOM      4  C3  UNL d   1       4.413  -3.417   4.236  0.00  0.00     0.017 A 
ATOM      5  C4  UNL d   1       5.282  -3.392   5.333  0.00  0.00     0.017 A 
ATOM      6  C5  UNL d   1       5.594  -4.581   5.999  0.00  0.00     0.034 A 
ATOM      7 Cl   UNL d   1       5.999  -1.931   5.914  0.00  0.00    -0.070 Cl
ATOM      8 Cl1  UNL d   1       3.979  -1.991   3.362  0.00  0.00    -0.070 Cl
ENDROOT
TORSDOF 0
ENDMDL
