MODEL 1
REMARK minimizedAffinity 9.68766212
REMARK minimizedRMSD -1
REMARK  0 active torsions:
REMARK  status: ('A' for Active; 'I' for Inactive)
ROOT
ATOM      1  C   UNL d   1       5.703   5.645   0.905  0.00  0.00     0.020 A 
ATOM      2  C1  UNL d   1       4.392   5.902   0.506  0.00  0.00     0.020 A 
ATOM      3  C2  UNL d   1       3.377   5.997   1.460  0.00  0.00     0.034 A 
ATOM      4  C3  UNL d   1       3.671   5.834   2.819  0.00  0.00     0.017 A 
ATOM      5  C4  UNL d   1       4.987   5.576   3.219  0.00  0.00     0.017 A 
ATOM      6  C5  UNL d   1       6.000   5.483   2.259  0.00  0.00     0.034 A 
ATOM      7 Cl   UNL d   1       5.428   5.364   4.877  0.00  0.00    -0.070 Cl
ATOM      8 Cl1  UNL d   1       2.367   5.965   3.945  0.00  0.00    -0.070 Cl
ENDROOT
TORSDOF 0
ENDMDL
