MODEL 1
REMARK minimizedAffinity 13.5763273
REMARK minimizedRMSD -1
REMARK  0 active torsions:
REMARK  status: ('A' for Active; 'I' for Inactive)
ROOT
ATOM      1  C   UNL d   1       4.248   2.246  -4.020  0.00  0.00     0.020 A 
ATOM      2  C1  UNL d   1       4.125   2.245  -5.409  0.00  0.00     0.020 A 
ATOM      3  C2  UNL d   1       2.884   1.995  -5.999  0.00  0.00     0.034 A 
ATOM      4  C3  UNL d   1       1.762   1.744  -5.201  0.00  0.00     0.017 A 
ATOM      5  C4  UNL d   1       1.887   1.745  -3.807  0.00  0.00     0.017 A 
ATOM      6  C5  UNL d   1       3.131   1.997  -3.221  0.00  0.00     0.034 A 
ATOM      7 Cl   UNL d   1       0.548   1.444  -2.756  0.00  0.00    -0.070 Cl
ATOM      8 Cl1  UNL d   1       0.260   1.442  -5.999  0.00  0.00    -0.070 Cl
ENDROOT
TORSDOF 0
ENDMDL
