MODEL 1
REMARK minimizedAffinity 3.11786103
REMARK minimizedRMSD -1
REMARK  0 active torsions:
REMARK  status: ('A' for Active; 'I' for Inactive)
ROOT
ATOM      1  C   UNL d   1      -2.743   2.437   3.448  0.00  0.00     0.020 A 
ATOM      2  C1  UNL d   1      -2.300   1.117   3.533  0.00  0.00     0.020 A 
ATOM      3  C2  UNL d   1      -2.036   0.393   2.369  0.00  0.00     0.034 A 
ATOM      4  C3  UNL d   1      -2.215   0.987   1.114  0.00  0.00     0.017 A 
ATOM      5  C4  UNL d   1      -2.660   2.311   1.029  0.00  0.00     0.017 A 
ATOM      6  C5  UNL d   1      -2.922   3.032   2.198  0.00  0.00     0.034 A 
ATOM      7 Cl   UNL d   1      -2.904   3.112  -0.483  0.00  0.00    -0.070 Cl
ATOM      8 Cl1  UNL d   1      -1.869   0.032  -0.284  0.00  0.00    -0.070 Cl
ENDROOT
TORSDOF 0
ENDMDL
