MODEL 1
REMARK minimizedAffinity 14.0788431
REMARK minimizedRMSD -1
REMARK  0 active torsions:
REMARK  status: ('A' for Active; 'I' for Inactive)
ROOT
ATOM      1  C   UNL d   1      -4.878   5.979   5.411  0.00  0.00     0.020 A 
ATOM      2  C1  UNL d   1      -4.999   5.989   4.022  0.00  0.00     0.020 A 
ATOM      3  C2  UNL d   1      -3.856   5.969   3.221  0.00  0.00     0.034 A 
ATOM      4  C3  UNL d   1      -2.586   5.939   3.808  0.00  0.00     0.017 A 
ATOM      5  C4  UNL d   1      -2.465   5.929   5.202  0.00  0.00     0.017 A 
ATOM      6  C5  UNL d   1      -3.613   5.949   6.000  0.00  0.00     0.034 A 
ATOM      7 Cl   UNL d   1      -0.931   5.892   6.000  0.00  0.00    -0.070 Cl
ATOM      8 Cl1  UNL d   1      -1.215   5.914   2.757  0.00  0.00    -0.070 Cl
ENDROOT
TORSDOF 0
ENDMDL
