MODEL 1
REMARK minimizedAffinity 11.8349066
REMARK minimizedRMSD -1
REMARK  0 active torsions:
REMARK  status: ('A' for Active; 'I' for Inactive)
ROOT
ATOM      1  C   UNL d   1       1.550   0.085  -1.949  0.00  0.00     0.020 A 
ATOM      2  C1  UNL d   1       1.865  -1.074  -2.658  0.00  0.00     0.020 A 
ATOM      3  C2  UNL d   1       0.973  -2.148  -2.670  0.00  0.00     0.034 A 
ATOM      4  C3  UNL d   1      -0.238  -2.066  -1.973  0.00  0.00     0.017 A 
ATOM      5  C4  UNL d   1      -0.553  -0.903  -1.262  0.00  0.00     0.017 A 
ATOM      6  C5  UNL d   1       0.344   0.170  -1.253  0.00  0.00     0.034 A 
ATOM      7 Cl   UNL d   1      -2.027  -0.727  -0.377  0.00  0.00    -0.070 Cl
ATOM      8 Cl1  UNL d   1      -1.293  -3.433  -2.032  0.00  0.00    -0.070 Cl
ENDROOT
TORSDOF 0
ENDMDL
