MODEL 1
REMARK minimizedAffinity 14.8973665
REMARK minimizedRMSD -1
REMARK  0 active torsions:
REMARK  status: ('A' for Active; 'I' for Inactive)
ROOT
ATOM      1  C   UNL d   1       1.839   1.838  -2.309  0.00  0.00     0.020 A 
ATOM      2  C1  UNL d   1       0.750   1.170  -2.867  0.00  0.00     0.020 A 
ATOM      3  C2  UNL d   1       0.724  -0.226  -2.890  0.00  0.00     0.034 A 
ATOM      4  C3  UNL d   1       1.790  -0.958  -2.355  0.00  0.00     0.017 A 
ATOM      5  C4  UNL d   1       2.883  -0.287  -1.795  0.00  0.00     0.017 A 
ATOM      6  C5  UNL d   1       2.903   1.111  -1.775  0.00  0.00     0.034 A 
ATOM      7 Cl   UNL d   1       4.234  -1.123  -1.116  0.00  0.00    -0.070 Cl
ATOM      8 Cl1  UNL d   1       1.691  -2.682  -2.417  0.00  0.00    -0.070 Cl
ENDROOT
TORSDOF 0
ENDMDL
