MODEL 1
REMARK minimizedAffinity 7.78250504
REMARK minimizedRMSD -1
REMARK  0 active torsions:
REMARK  status: ('A' for Active; 'I' for Inactive)
ROOT
ATOM      1  C   UNL d   1      -3.040   0.980   3.568  0.00  0.00     0.020 A 
ATOM      2  C1  UNL d   1      -3.235   2.044   2.688  0.00  0.00     0.020 A 
ATOM      3  C2  UNL d   1      -3.056   1.858   1.316  0.00  0.00     0.034 A 
ATOM      4  C3  UNL d   1      -2.682   0.604   0.819  0.00  0.00     0.017 A 
ATOM      5  C4  UNL d   1      -2.487  -0.464   1.702  0.00  0.00     0.017 A 
ATOM      6  C5  UNL d   1      -2.667  -0.271   3.075  0.00  0.00     0.034 A 
ATOM      7 Cl   UNL d   1      -2.025  -2.040   1.163  0.00  0.00    -0.070 Cl
ATOM      8 Cl1  UNL d   1      -2.480   0.445  -0.890  0.00  0.00    -0.070 Cl
ENDROOT
TORSDOF 0
ENDMDL
