MODEL 1
REMARK minimizedAffinity 7.26707172
REMARK minimizedRMSD -1
REMARK  0 active torsions:
REMARK  status: ('A' for Active; 'I' for Inactive)
ROOT
ATOM      1  C   UNL d   1      -1.390   0.235  -0.491  0.00  0.00     0.020 A 
ATOM      2  C1  UNL d   1      -2.053   1.306  -1.089  0.00  0.00     0.020 A 
ATOM      3  C2  UNL d   1      -2.859   2.147  -0.318  0.00  0.00     0.034 A 
ATOM      4  C3  UNL d   1      -3.004   1.919   1.055  0.00  0.00     0.017 A 
ATOM      5  C4  UNL d   1      -2.338   0.843   1.654  0.00  0.00     0.017 A 
ATOM      6  C5  UNL d   1      -1.532   0.004   0.878  0.00  0.00     0.034 A 
ATOM      7 Cl   UNL d   1      -2.468   0.498   3.343  0.00  0.00    -0.070 Cl
ATOM      8 Cl1  UNL d   1      -4.015   2.999   1.947  0.00  0.00    -0.070 Cl
ENDROOT
TORSDOF 0
ENDMDL
