MODEL 1
REMARK minimizedAffinity 7.17320824
REMARK minimizedRMSD -1
REMARK  0 active torsions:
REMARK  status: ('A' for Active; 'I' for Inactive)
ROOT
ATOM      1  C   UNL d   1      -1.523   0.805   2.904  0.00  0.00     0.020 A 
ATOM      2  C1  UNL d   1      -2.845   0.377   3.023  0.00  0.00     0.020 A 
ATOM      3  C2  UNL d   1      -3.465  -0.277   1.956  0.00  0.00     0.034 A 
ATOM      4  C3  UNL d   1      -2.764  -0.506   0.767  0.00  0.00     0.017 A 
ATOM      5  C4  UNL d   1      -1.437  -0.077   0.649  0.00  0.00     0.017 A 
ATOM      6  C5  UNL d   1      -0.821   0.578   1.720  0.00  0.00     0.034 A 
ATOM      7 Cl   UNL d   1      -0.507  -0.323  -0.787  0.00  0.00    -0.070 Cl
ATOM      8 Cl1  UNL d   1      -3.593  -1.322  -0.511  0.00  0.00    -0.070 Cl
ENDROOT
TORSDOF 0
ENDMDL
