MODEL 1
REMARK minimizedAffinity 13.806016
REMARK minimizedRMSD -1
REMARK  0 active torsions:
REMARK  status: ('A' for Active; 'I' for Inactive)
ROOT
ATOM      1  C   UNL d   1      -1.804  -0.689   0.677  0.00  0.00     0.020 A 
ATOM      2  C1  UNL d   1      -2.563  -0.018  -0.281  0.00  0.00     0.020 A 
ATOM      3  C2  UNL d   1      -3.415   1.019   0.105  0.00  0.00     0.034 A 
ATOM      4  C3  UNL d   1      -3.509   1.388   1.452  0.00  0.00     0.017 A 
ATOM      5  C4  UNL d   1      -2.747   0.714   2.412  0.00  0.00     0.017 A 
ATOM      6  C5  UNL d   1      -1.896  -0.324   2.021  0.00  0.00     0.034 A 
ATOM      7 Cl   UNL d   1      -2.810   1.113   4.093  0.00  0.00    -0.070 Cl
ATOM      8 Cl1  UNL d   1      -4.583   2.681   1.857  0.00  0.00    -0.070 Cl
ENDROOT
TORSDOF 0
ENDMDL
