MODEL 1
REMARK minimizedAffinity 9.16013622
REMARK minimizedRMSD -1
REMARK  0 active torsions:
REMARK  status: ('A' for Active; 'I' for Inactive)
ROOT
ATOM      1  C   UNL d   1       5.001   5.501   2.679  0.00  0.00     0.020 A 
ATOM      2  C1  UNL d   1       3.707   5.997   2.526  0.00  0.00     0.020 A 
ATOM      3  C2  UNL d   1       3.101   5.989   1.268  0.00  0.00     0.034 A 
ATOM      4  C3  UNL d   1       3.789   5.486   0.158  0.00  0.00     0.017 A 
ATOM      5  C4  UNL d   1       5.088   4.988   0.313  0.00  0.00     0.017 A 
ATOM      6  C5  UNL d   1       5.690   4.998   1.575  0.00  0.00     0.034 A 
ATOM      7 Cl   UNL d   1       6.000   4.351  -1.010  0.00  0.00    -0.070 Cl
ATOM      8 Cl1  UNL d   1       2.978   5.507  -1.368  0.00  0.00    -0.070 Cl
ENDROOT
TORSDOF 0
ENDMDL
