MODEL 1
REMARK minimizedAffinity 6.01666164
REMARK minimizedRMSD -1
REMARK  0 active torsions:
REMARK  status: ('A' for Active; 'I' for Inactive)
ROOT
ATOM      1  C   UNL d   1       5.122   5.672   2.386  0.00  0.00     0.020 A 
ATOM      2  C1  UNL d   1       5.998   4.897   1.627  0.00  0.00     0.020 A 
ATOM      3  C2  UNL d   1       5.615   4.448   0.361  0.00  0.00     0.034 A 
ATOM      4  C3  UNL d   1       4.354   4.775  -0.150  0.00  0.00     0.017 A 
ATOM      5  C4  UNL d   1       3.475   5.553   0.613  0.00  0.00     0.017 A 
ATOM      6  C5  UNL d   1       3.864   6.000   1.880  0.00  0.00     0.034 A 
ATOM      7 Cl   UNL d   1       1.902   5.996   0.050  0.00  0.00    -0.070 Cl
ATOM      8 Cl1  UNL d   1       3.947   4.186  -1.722  0.00  0.00    -0.070 Cl
ENDROOT
TORSDOF 0
ENDMDL
