MODEL 1
REMARK minimizedAffinity 10.1015167
REMARK minimizedRMSD -1
REMARK  0 active torsions:
REMARK  status: ('A' for Active; 'I' for Inactive)
ROOT
ATOM      1  C   UNL d   1       0.473   1.385  -2.028  0.00  0.00     0.020 A 
ATOM      2  C1  UNL d   1       1.499   2.166  -2.558  0.00  0.00     0.020 A 
ATOM      3  C2  UNL d   1       2.672   1.560  -3.015  0.00  0.00     0.034 A 
ATOM      4  C3  UNL d   1       2.821   0.170  -2.943  0.00  0.00     0.017 A 
ATOM      5  C4  UNL d   1       1.790  -0.612  -2.411  0.00  0.00     0.017 A 
ATOM      6  C5  UNL d   1       0.618  -0.001  -1.955  0.00  0.00     0.034 A 
ATOM      7 Cl   UNL d   1       1.900  -2.333  -2.290  0.00  0.00    -0.070 Cl
ATOM      8 Cl1  UNL d   1       4.297  -0.511  -3.528  0.00  0.00    -0.070 Cl
ENDROOT
TORSDOF 0
ENDMDL
