MODEL 1
REMARK minimizedAffinity -1.5275737
REMARK minimizedRMSD -1
REMARK  0 active torsions:
REMARK  status: ('A' for Active; 'I' for Inactive)
ROOT
ATOM      1  N1  IND d   1       0.484  -0.539   1.891  0.00  0.00    -0.196 N 
ATOM      2  C2  IND d   1       0.663  -1.267   0.748  0.00  0.00     0.054 A 
ATOM      3  C3  IND d   1       0.034  -0.673  -0.291  0.00  0.00    -0.031 A 
ATOM      4  C4  IND d   1      -1.260   1.551  -0.365  0.00  0.00     0.051 A 
ATOM      5  C5  IND d   1      -1.723   2.555   0.439  0.00  0.00    -0.031 A 
ATOM      6  C6  IND d   1      -1.466   2.581   1.794  0.00  0.00     0.015 A 
ATOM      7  C7  IND d   1      -0.724   1.606   2.398  0.00  0.00    -0.016 A 
ATOM      8  C8  IND d   1      -0.259   0.581   1.586  0.00  0.00    -0.047 A 
ATOM      9  C9  IND d   1      -0.552   0.526   0.218  0.00  0.00    -0.096 A 
ATOM     10  HN1 IND d   1       0.784  -0.746   2.670  0.00  0.00     0.298 HD
ENDROOT
TORSDOF 0
ENDMDL
