MODEL 1
REMARK minimizedAffinity 1.41110587
REMARK minimizedRMSD -1
REMARK  0 active torsions:
REMARK  status: ('A' for Active; 'I' for Inactive)
ROOT
ATOM      1  N1  IND d   1      -0.937   1.137   2.675  0.00  0.00    -0.196 N 
ATOM      2  C2  IND d   1      -1.899   1.924   2.105  0.00  0.00     0.054 A 
ATOM      3  C3  IND d   1      -1.977   1.684   0.777  0.00  0.00    -0.031 A 
ATOM      4  C4  IND d   1      -0.693  -0.028  -0.654  0.00  0.00     0.051 A 
ATOM      5  C5  IND d   1       0.316  -0.947  -0.587  0.00  0.00    -0.031 A 
ATOM      6  C6  IND d   1       0.970  -1.227   0.595  0.00  0.00     0.015 A 
ATOM      7  C7  IND d   1       0.630  -0.602   1.762  0.00  0.00    -0.016 A 
ATOM      8  C8  IND d   1      -0.389   0.337   1.696  0.00  0.00    -0.047 A 
ATOM      9  C9  IND d   1      -1.028   0.656   0.491  0.00  0.00    -0.096 A 
ATOM     10  HN1 IND d   1      -0.712   1.141   3.505  0.00  0.00     0.298 HD
ENDROOT
TORSDOF 0
ENDMDL
