MODEL 1
REMARK minimizedAffinity -2.78977275
REMARK minimizedRMSD -1
REMARK  0 active torsions:
REMARK  status: ('A' for Active; 'I' for Inactive)
ROOT
ATOM      1  N1  IND d   1       0.539   1.506  -0.990  0.00  0.00    -0.196 N 
ATOM      2  C2  IND d   1       1.517   0.599  -1.290  0.00  0.00     0.054 A 
ATOM      3  C3  IND d   1       1.503  -0.419  -0.400  0.00  0.00    -0.031 A 
ATOM      4  C4  IND d   1      -0.102  -0.850   1.567  0.00  0.00     0.051 A 
ATOM      5  C5  IND d   1      -1.135  -0.282   2.258  0.00  0.00    -0.031 A 
ATOM      6  C6  IND d   1      -1.676   0.933   1.893  0.00  0.00     0.015 A 
ATOM      7  C7  IND d   1      -1.209   1.625   0.811  0.00  0.00    -0.016 A 
ATOM      8  C8  IND d   1      -0.155   1.055   0.111  0.00  0.00    -0.047 A 
ATOM      9  C9  IND d   1       0.426  -0.158   0.502  0.00  0.00    -0.096 A 
ATOM     10  HN1 IND d   1       0.383   2.236  -1.418  0.00  0.00     0.298 HD
ENDROOT
TORSDOF 0
ENDMDL
