MODEL 1
REMARK minimizedAffinity -3.30528307
REMARK minimizedRMSD -1
REMARK  0 active torsions:
REMARK  status: ('A' for Active; 'I' for Inactive)
ROOT
ATOM      1  N1  IND d   1       1.004  -0.375   0.496  0.00  0.00    -0.196 N 
ATOM      2  C2  IND d   1       0.494  -1.103  -0.543  0.00  0.00     0.054 A 
ATOM      3  C3  IND d   1      -0.803  -0.783  -0.750  0.00  0.00    -0.031 A 
ATOM      4  C4  IND d   1      -2.261   0.980   0.431  0.00  0.00     0.051 A 
ATOM      5  C5  IND d   1      -2.248   1.869   1.469  0.00  0.00    -0.031 A 
ATOM      6  C6  IND d   1      -1.126   2.061   2.250  0.00  0.00     0.015 A 
ATOM      7  C7  IND d   1       0.032   1.377   2.013  0.00  0.00    -0.016 A 
ATOM      8  C8  IND d   1       0.020   0.468   0.964  0.00  0.00    -0.047 A 
ATOM      9  C9  IND d   1      -1.128   0.238   0.195  0.00  0.00    -0.096 A 
ATOM     10  HN1 IND d   1       1.804  -0.434   0.804  0.00  0.00     0.298 HD
ENDROOT
TORSDOF 0
ENDMDL
