MODEL 1
REMARK minimizedAffinity -0.451739997
REMARK minimizedRMSD -1
REMARK  0 active torsions:
REMARK  status: ('A' for Active; 'I' for Inactive)
ROOT
ATOM      1  N1  IND d   1      -0.934  -0.090   2.386  0.00  0.00    -0.196 N 
ATOM      2  C2  IND d   1      -1.527   1.120   2.612  0.00  0.00     0.054 A 
ATOM      3  C3  IND d   1      -1.386   1.922   1.533  0.00  0.00    -0.031 A 
ATOM      4  C4  IND d   1      -0.309   1.416  -0.750  0.00  0.00     0.051 A 
ATOM      5  C5  IND d   1       0.399   0.457  -1.418  0.00  0.00    -0.031 A 
ATOM      6  C6  IND d   1       0.702  -0.760  -0.842  0.00  0.00     0.015 A 
ATOM      7  C7  IND d   1       0.297  -1.068   0.426  0.00  0.00    -0.016 A 
ATOM      8  C8  IND d   1      -0.415  -0.093   1.110  0.00  0.00    -0.047 A 
ATOM      9  C9  IND d   1      -0.689   1.159   0.546  0.00  0.00    -0.096 A 
ATOM     10  HN1 IND d   1      -0.892  -0.741   2.947  0.00  0.00     0.298 HD
ENDROOT
TORSDOF 0
ENDMDL
