MODEL 1
REMARK minimizedAffinity -1.1822499
REMARK minimizedRMSD -1
REMARK  0 active torsions:
REMARK  status: ('A' for Active; 'I' for Inactive)
ROOT
ATOM      1  N1  IND d   1      -0.022   0.255  -1.510  0.00  0.00    -0.196 N 
ATOM      2  C2  IND d   1       0.104   0.366  -0.153  0.00  0.00     0.054 A 
ATOM      3  C3  IND d   1       0.444  -0.826   0.387  0.00  0.00    -0.031 A 
ATOM      4  C4  IND d   1       0.944  -3.066  -0.778  0.00  0.00     0.051 A 
ATOM      5  C5  IND d   1       0.925  -3.671  -2.003  0.00  0.00    -0.031 A 
ATOM      6  C6  IND d   1       0.585  -2.983  -3.151  0.00  0.00     0.015 A 
ATOM      7  C7  IND d   1       0.261  -1.656  -3.116  0.00  0.00    -0.016 A 
ATOM      8  C8  IND d   1       0.272  -1.041  -1.872  0.00  0.00    -0.047 A 
ATOM      9  C9  IND d   1       0.575  -1.744  -0.699  0.00  0.00    -0.096 A 
ATOM     10  HN1 IND d   1      -0.248   0.888  -2.046  0.00  0.00     0.298 HD
ENDROOT
TORSDOF 0
ENDMDL
