MODEL 1
REMARK minimizedAffinity -1.34981501
REMARK minimizedRMSD -1
REMARK  0 active torsions:
REMARK  status: ('A' for Active; 'I' for Inactive)
ROOT
ATOM      1  N1  IND d   1       0.903   2.179  -1.595  0.00  0.00    -0.196 N 
ATOM      2  C2  IND d   1      -0.231   2.940  -1.544  0.00  0.00     0.054 A 
ATOM      3  C3  IND d   1      -1.219   2.269  -0.909  0.00  0.00    -0.031 A 
ATOM      4  C4  IND d   1      -1.164  -0.046   0.215  0.00  0.00     0.051 A 
ATOM      5  C5  IND d   1      -0.360  -1.136   0.398  0.00  0.00    -0.031 A 
ATOM      6  C6  IND d   1       0.934  -1.177  -0.082  0.00  0.00     0.015 A 
ATOM      7  C7  IND d   1       1.477  -0.119  -0.755  0.00  0.00    -0.016 A 
ATOM      8  C8  IND d   1       0.661   0.986  -0.949  0.00  0.00    -0.047 A 
ATOM      9  C9  IND d   1      -0.666   1.017  -0.501  0.00  0.00    -0.096 A 
ATOM     10  HN1 IND d   1       1.644   2.406  -1.968  0.00  0.00     0.298 HD
ENDROOT
TORSDOF 0
ENDMDL
