MODEL 1
REMARK minimizedAffinity -1.36441278
REMARK minimizedRMSD -1
REMARK  0 active torsions:
REMARK  status: ('A' for Active; 'I' for Inactive)
ROOT
ATOM      1  N1  IND d   1      -0.731   1.806   1.203  0.00  0.00    -0.196 N 
ATOM      2  C2  IND d   1      -1.415   0.890   1.952  0.00  0.00     0.054 A 
ATOM      3  C3  IND d   1      -1.169  -0.362   1.503  0.00  0.00    -0.031 A 
ATOM      4  C4  IND d   1       0.404  -1.145  -0.379  0.00  0.00     0.051 A 
ATOM      5  C5  IND d   1       1.216  -0.671  -1.371  0.00  0.00    -0.031 A 
ATOM      6  C6  IND d   1       1.427   0.680  -1.558  0.00  0.00     0.015 A 
ATOM      7  C7  IND d   1       0.840   1.611  -0.748  0.00  0.00    -0.016 A 
ATOM      8  C8  IND d   1       0.009   1.134   0.256  0.00  0.00    -0.047 A 
ATOM      9  C9  IND d   1      -0.242  -0.234   0.423  0.00  0.00    -0.096 A 
ATOM     10  HN1 IND d   1      -0.758   2.659   1.307  0.00  0.00     0.298 HD
ENDROOT
TORSDOF 0
ENDMDL
