MODEL 1
REMARK minimizedAffinity -3.1387372
REMARK minimizedRMSD -1
REMARK  0 active torsions:
REMARK  status: ('A' for Active; 'I' for Inactive)
ROOT
ATOM      1  N1  IND d   1       0.322   1.833  -0.818  0.00  0.00    -0.196 N 
ATOM      2  C2  IND d   1       1.039   0.848  -1.437  0.00  0.00     0.054 A 
ATOM      3  C3  IND d   1       1.034  -0.278  -0.689  0.00  0.00    -0.031 A 
ATOM      4  C4  IND d   1      -0.170  -0.759   1.535  0.00  0.00     0.051 A 
ATOM      5  C5  IND d   1      -0.918  -0.157   2.507  0.00  0.00    -0.031 A 
ATOM      6  C6  IND d   1      -1.300   1.166   2.418  0.00  0.00     0.015 A 
ATOM      7  C7  IND d   1      -0.958   1.936   1.343  0.00  0.00    -0.016 A 
ATOM      8  C8  IND d   1      -0.192   1.329   0.357  0.00  0.00    -0.047 A 
ATOM      9  C9  IND d   1       0.235  -0.001   0.462  0.00  0.00    -0.096 A 
ATOM     10  HN1 IND d   1       0.211   2.634  -1.112  0.00  0.00     0.298 HD
ENDROOT
TORSDOF 0
ENDMDL
