MODEL 1
REMARK minimizedAffinity -4.4021244
REMARK minimizedRMSD -1
REMARK  0 active torsions:
REMARK  status: ('A' for Active; 'I' for Inactive)
ROOT
ATOM      1  N1  IND d   1       0.958   0.343  -0.917  0.00  0.00    -0.196 N 
ATOM      2  C2  IND d   1       0.994  -1.018  -1.038  0.00  0.00     0.054 A 
ATOM      3  C3  IND d   1      -0.103  -1.570  -0.472  0.00  0.00    -0.031 A 
ATOM      4  C4  IND d   1      -2.133  -0.422   0.619  0.00  0.00     0.051 A 
ATOM      5  C5  IND d   1      -2.603   0.804   0.995  0.00  0.00    -0.031 A 
ATOM      6  C6  IND d   1      -1.898   1.964   0.746  0.00  0.00     0.015 A 
ATOM      7  C7  IND d   1      -0.695   1.940   0.098  0.00  0.00    -0.016 A 
ATOM      8  C8  IND d   1      -0.211   0.696  -0.279  0.00  0.00    -0.047 A 
ATOM      9  C9  IND d   1      -0.903  -0.488   0.009  0.00  0.00    -0.096 A 
ATOM     10  HN1 IND d   1       1.564   0.888  -1.193  0.00  0.00     0.298 HD
ENDROOT
TORSDOF 0
ENDMDL
