MODEL 1
REMARK minimizedAffinity -5.00712919
REMARK minimizedRMSD -1
REMARK  0 active torsions:
REMARK  status: ('A' for Active; 'I' for Inactive)
ROOT
ATOM      1  N1  IND d   1       0.804  -0.252   0.002  0.00  0.00    -0.196 N 
ATOM      2  C2  IND d   1      -0.364   0.339   0.394  0.00  0.00     0.054 A 
ATOM      3  C3  IND d   1      -1.412  -0.211  -0.259  0.00  0.00    -0.031 A 
ATOM      4  C4  IND d   1      -1.451  -2.162  -1.939  0.00  0.00     0.051 A 
ATOM      5  C5  IND d   1      -0.626  -2.999  -2.637  0.00  0.00    -0.031 A 
ATOM      6  C6  IND d   1       0.745  -2.964  -2.486  0.00  0.00     0.015 A 
ATOM      7  C7  IND d   1       1.344  -2.095  -1.619  0.00  0.00    -0.016 A 
ATOM      8  C8  IND d   1       0.511  -1.239  -0.914  0.00  0.00    -0.047 A 
ATOM      9  C9  IND d   1      -0.879  -1.240  -1.094  0.00  0.00    -0.096 A 
ATOM     10  HN1 IND d   1       1.591  -0.043   0.280  0.00  0.00     0.298 HD
ENDROOT
TORSDOF 0
ENDMDL
