MODEL 1
REMARK minimizedAffinity -4.05296516
REMARK minimizedRMSD -1
REMARK  0 active torsions:
REMARK  status: ('A' for Active; 'I' for Inactive)
ROOT
ATOM      1  N1  IND d   1       0.234   0.419  -0.517  0.00  0.00    -0.196 N 
ATOM      2  C2  IND d   1      -0.019  -0.803   0.040  0.00  0.00     0.054 A 
ATOM      3  C3  IND d   1      -0.937  -0.689   1.027  0.00  0.00    -0.031 A 
ATOM      4  C4  IND d   1      -2.229   1.389   1.827  0.00  0.00     0.051 A 
ATOM      5  C5  IND d   1      -2.312   2.741   1.646  0.00  0.00    -0.031 A 
ATOM      6  C6  IND d   1      -1.537   3.401   0.714  0.00  0.00     0.015 A 
ATOM      7  C7  IND d   1      -0.654   2.729  -0.083  0.00  0.00    -0.016 A 
ATOM      8  C8  IND d   1      -0.562   1.357   0.103  0.00  0.00    -0.047 A 
ATOM      9  C9  IND d   1      -1.315   0.687   1.076  0.00  0.00    -0.096 A 
ATOM     10  HN1 IND d   1       0.797   0.576  -1.148  0.00  0.00     0.298 HD
ENDROOT
TORSDOF 0
ENDMDL
