MODEL 1
REMARK minimizedAffinity -4.85818529
REMARK minimizedRMSD -1
REMARK  0 active torsions:
REMARK  status: ('A' for Active; 'I' for Inactive)
ROOT
ATOM      1  N1  IND d   1       0.402   0.246  -0.684  0.00  0.00    -0.196 N 
ATOM      2  C2  IND d   1       0.119  -0.884   0.032  0.00  0.00     0.054 A 
ATOM      3  C3  IND d   1      -0.664  -0.585   1.093  0.00  0.00    -0.031 A 
ATOM      4  C4  IND d   1      -1.682   1.675   1.789  0.00  0.00     0.051 A 
ATOM      5  C5  IND d   1      -1.679   3.003   1.467  0.00  0.00    -0.031 A 
ATOM      6  C6  IND d   1      -0.969   3.490   0.388  0.00  0.00     0.015 A 
ATOM      7  C7  IND d   1      -0.243   2.661  -0.419  0.00  0.00    -0.016 A 
ATOM      8  C8  IND d   1      -0.239   1.312  -0.091  0.00  0.00    -0.047 A 
ATOM      9  C9  IND d   1      -0.922   0.819   1.028  0.00  0.00    -0.096 A 
ATOM     10  HN1 IND d   1       0.896   0.285  -1.386  0.00  0.00     0.298 HD
ENDROOT
TORSDOF 0
ENDMDL
