MODEL 1
REMARK minimizedAffinity -1.05716276
REMARK minimizedRMSD -1
REMARK  0 active torsions:
REMARK  status: ('A' for Active; 'I' for Inactive)
ROOT
ATOM      1  N1  IND d   1      -0.645   0.029  -1.348  0.00  0.00    -0.196 N 
ATOM      2  C2  IND d   1       0.435  -0.737  -1.005  0.00  0.00     0.054 A 
ATOM      3  C3  IND d   1       0.722  -0.583   0.307  0.00  0.00    -0.031 A 
ATOM      4  C4  IND d   1      -0.507   0.794   2.101  0.00  0.00     0.051 A 
ATOM      5  C5  IND d   1      -1.528   1.689   2.260  0.00  0.00    -0.031 A 
ATOM      6  C6  IND d   1      -2.324   2.082   1.204  0.00  0.00     0.015 A 
ATOM      7  C7  IND d   1      -2.136   1.584  -0.054  0.00  0.00    -0.016 A 
ATOM      8  C8  IND d   1      -1.096   0.680  -0.221  0.00  0.00    -0.047 A 
ATOM      9  C9  IND d   1      -0.257   0.310   0.839  0.00  0.00    -0.096 A 
ATOM     10  HN1 IND d   1      -0.985   0.092  -2.135  0.00  0.00     0.298 HD
ENDROOT
TORSDOF 0
ENDMDL
