MODEL 1
REMARK minimizedAffinity -2.23435092
REMARK minimizedRMSD -1
REMARK  0 active torsions:
REMARK  status: ('A' for Active; 'I' for Inactive)
ROOT
ATOM      1  N1  IND d   1      -1.723  -0.942   0.513  0.00  0.00    -0.196 N 
ATOM      2  C2  IND d   1      -1.412   0.286   1.027  0.00  0.00     0.054 A 
ATOM      3  C3  IND d   1      -0.198   0.686   0.586  0.00  0.00    -0.031 A 
ATOM      4  C4  IND d   1       1.405  -0.469  -1.064  0.00  0.00     0.051 A 
ATOM      5  C5  IND d   1       1.573  -1.626  -1.772  0.00  0.00    -0.031 A 
ATOM      6  C6  IND d   1       0.630  -2.633  -1.756  0.00  0.00     0.015 A 
ATOM      7  C7  IND d   1      -0.526  -2.516  -1.038  0.00  0.00    -0.016 A 
ATOM      8  C8  IND d   1      -0.696  -1.345  -0.312  0.00  0.00    -0.047 A 
ATOM      9  C9  IND d   1       0.277  -0.337  -0.290  0.00  0.00    -0.096 A 
ATOM     10  HN1 IND d   1      -2.440  -1.388   0.678  0.00  0.00     0.298 HD
ENDROOT
TORSDOF 0
ENDMDL
