MODEL 1
REMARK minimizedAffinity -5.09361744
REMARK minimizedRMSD -1
REMARK  0 active torsions:
REMARK  status: ('A' for Active; 'I' for Inactive)
ROOT
ATOM      1  N1  IND d   1       0.995   1.533  -0.848  0.00  0.00    -0.196 N 
ATOM      2  C2  IND d   1       1.366   0.243  -1.110  0.00  0.00     0.054 A 
ATOM      3  C3  IND d   1       0.481  -0.621  -0.565  0.00  0.00    -0.031 A 
ATOM      4  C4  IND d   1      -1.701  -0.139   0.713  0.00  0.00     0.051 A 
ATOM      5  C5  IND d   1      -2.441   0.886   1.232  0.00  0.00    -0.031 A 
ATOM      6  C6  IND d   1      -2.068   2.205   1.079  0.00  0.00     0.015 A 
ATOM      7  C7  IND d   1      -0.941   2.551   0.388  0.00  0.00    -0.016 A 
ATOM      8  C8  IND d   1      -0.183   1.513  -0.134  0.00  0.00    -0.047 A 
ATOM      9  C9  IND d   1      -0.534   0.170   0.055  0.00  0.00    -0.096 A 
ATOM     10  HN1 IND d   1       1.425   2.237  -1.088  0.00  0.00     0.298 HD
ENDROOT
TORSDOF 0
ENDMDL
