MODEL 1
REMARK minimizedAffinity -6.04210615
REMARK minimizedRMSD -1
REMARK  0 active torsions:
REMARK  status: ('A' for Active; 'I' for Inactive)
ROOT
ATOM      1  N1  IND d   1      -1.424  -0.545  -3.681  0.00  0.00    -0.196 N 
ATOM      2  C2  IND d   1      -2.289  -1.453  -3.137  0.00  0.00     0.054 A 
ATOM      3  C3  IND d   1      -2.036  -1.612  -1.819  0.00  0.00    -0.031 A 
ATOM      4  C4  IND d   1      -0.319  -0.407  -0.326  0.00  0.00     0.051 A 
ATOM      5  C5  IND d   1       0.719   0.480  -0.378  0.00  0.00    -0.031 A 
ATOM      6  C6  IND d   1       1.101   1.086  -1.557  0.00  0.00     0.015 A 
ATOM      7  C7  IND d   1       0.450   0.834  -2.732  0.00  0.00    -0.016 A 
ATOM      8  C8  IND d   1      -0.600  -0.072  -2.684  0.00  0.00    -0.047 A 
ATOM      9  C9  IND d   1      -0.965  -0.722  -1.498  0.00  0.00    -0.096 A 
ATOM     10  HN1 IND d   1      -1.399  -0.308  -4.508  0.00  0.00     0.298 HD
ENDROOT
TORSDOF 0
ENDMDL
