MODEL 1
REMARK minimizedAffinity -3.62973261
REMARK minimizedRMSD -1
REMARK  0 active torsions:
REMARK  status: ('A' for Active; 'I' for Inactive)
ROOT
ATOM      1  N1  IND d   1       1.033   0.187  -0.636  0.00  0.00    -0.196 N 
ATOM      2  C2  IND d   1       0.717  -1.016  -1.203  0.00  0.00     0.054 A 
ATOM      3  C3  IND d   1      -0.543  -1.376  -0.872  0.00  0.00    -0.031 A 
ATOM      4  C4  IND d   1      -2.302  -0.094   0.503  0.00  0.00     0.051 A 
ATOM      5  C5  IND d   1      -2.467   1.032   1.259  0.00  0.00    -0.031 A 
ATOM      6  C6  IND d   1      -1.454   1.955   1.422  0.00  0.00     0.015 A 
ATOM      7  C7  IND d   1      -0.237   1.790   0.824  0.00  0.00    -0.016 A 
ATOM      8  C8  IND d   1      -0.064   0.644   0.062  0.00  0.00    -0.047 A 
ATOM      9  C9  IND d   1      -1.074  -0.317  -0.073  0.00  0.00    -0.096 A 
ATOM     10  HN1 IND d   1       1.789   0.591  -0.705  0.00  0.00     0.298 HD
ENDROOT
TORSDOF 0
ENDMDL
