MODEL 1
REMARK minimizedAffinity 1.38935637
REMARK minimizedRMSD -1
REMARK  0 active torsions:
REMARK  status: ('A' for Active; 'I' for Inactive)
ROOT
ATOM      1  C   UNL d   1       2.373   0.690   1.574  0.00  0.00     0.077 C 
ATOM      2  C1  UNL d   1       2.048  -0.565   2.329  0.00  0.00    -0.074 A 
ATOM      3  C2  UNL d   1       1.103  -0.559   3.360  0.00  0.00    -0.005 A 
ATOM      4  C3  UNL d   1       0.804  -1.736   4.047  0.00  0.00     0.006 A 
ATOM      5  C4  UNL d   1       1.447  -2.928   3.711  0.00  0.00    -0.005 A 
ATOM      6  C5  UNL d   1       2.395  -2.953   2.683  0.00  0.00    -0.074 A 
ATOM      7  C6  UNL d   1       3.088  -4.228   2.303  0.00  0.00     0.077 C 
ATOM      8  C7  UNL d   1       2.684  -1.768   1.993  0.00  0.00    -0.001 A 
ENDROOT
TORSDOF 0
ENDMDL
