MODEL 1
REMARK minimizedAffinity 8.63754272
REMARK minimizedRMSD -1
REMARK  0 active torsions:
REMARK  status: ('A' for Active; 'I' for Inactive)
ROOT
ATOM      1  C   UNL d   1      -3.615  -2.219  -3.037  0.00  0.00     0.077 C 
ATOM      2  C1  UNL d   1      -3.238  -0.882  -2.473  0.00  0.00    -0.074 A 
ATOM      3  C2  UNL d   1      -3.801   0.295  -2.976  0.00  0.00    -0.005 A 
ATOM      4  C3  UNL d   1      -3.448   1.532  -2.435  0.00  0.00     0.006 A 
ATOM      5  C4  UNL d   1      -2.529   1.603  -1.388  0.00  0.00    -0.005 A 
ATOM      6  C5  UNL d   1      -1.956   0.437  -0.871  0.00  0.00    -0.074 A 
ATOM      7  C6  UNL d   1      -0.974   0.495   0.262  0.00  0.00     0.077 C 
ATOM      8  C7  UNL d   1      -2.321  -0.802  -1.415  0.00  0.00    -0.001 A 
ENDROOT
TORSDOF 0
ENDMDL
