MODEL 1
REMARK minimizedAffinity 0.238228843
REMARK minimizedRMSD -1
REMARK  0 active torsions:
REMARK  status: ('A' for Active; 'I' for Inactive)
ROOT
ATOM      1  C   UNL d   1       2.592   0.367   2.358  0.00  0.00     0.077 C 
ATOM      2  C1  UNL d   1       2.262  -1.069   2.634  0.00  0.00    -0.074 A 
ATOM      3  C2  UNL d   1       1.435  -1.424   3.704  0.00  0.00    -0.005 A 
ATOM      4  C3  UNL d   1       1.129  -2.764   3.943  0.00  0.00     0.006 A 
ATOM      5  C4  UNL d   1       1.646  -3.761   3.115  0.00  0.00    -0.005 A 
ATOM      6  C5  UNL d   1       2.474  -3.425   2.039  0.00  0.00    -0.074 A 
ATOM      7  C6  UNL d   1       3.031  -4.484   1.134  0.00  0.00     0.077 C 
ATOM      8  C7  UNL d   1       2.771  -2.076   1.802  0.00  0.00    -0.001 A 
ENDROOT
TORSDOF 0
ENDMDL
