MODEL 1
REMARK minimizedAffinity 6.37378454
REMARK minimizedRMSD -1
REMARK  0 active torsions:
REMARK  status: ('A' for Active; 'I' for Inactive)
ROOT
ATOM      1  C   UNL d   1       1.661  -1.218   2.278  0.00  0.00     0.077 C 
ATOM      2  C1  UNL d   1       2.233  -2.339   3.094  0.00  0.00    -0.074 A 
ATOM      3  C2  UNL d   1       3.609  -2.424   3.333  0.00  0.00    -0.005 A 
ATOM      4  C3  UNL d   1       4.125  -3.467   4.101  0.00  0.00     0.006 A 
ATOM      5  C4  UNL d   1       3.274  -4.434   4.637  0.00  0.00    -0.005 A 
ATOM      6  C5  UNL d   1       1.896  -4.365   4.409  0.00  0.00    -0.074 A 
ATOM      7  C6  UNL d   1       0.965  -5.390   4.985  0.00  0.00     0.077 C 
ATOM      8  C7  UNL d   1       1.383  -3.310   3.642  0.00  0.00    -0.001 A 
ENDROOT
TORSDOF 0
ENDMDL
