MODEL 1
REMARK minimizedAffinity 5.64845848
REMARK minimizedRMSD -1
REMARK  0 active torsions:
REMARK  status: ('A' for Active; 'I' for Inactive)
ROOT
ATOM      1  C   UNL d   1      -3.947  -2.029  -5.994  0.00  0.00     0.077 C 
ATOM      2  C1  UNL d   1      -3.690  -1.136  -4.816  0.00  0.00    -0.074 A 
ATOM      3  C2  UNL d   1      -3.431  -1.673  -3.551  0.00  0.00    -0.005 A 
ATOM      4  C3  UNL d   1      -3.185  -0.831  -2.466  0.00  0.00     0.006 A 
ATOM      5  C4  UNL d   1      -3.196   0.554  -2.635  0.00  0.00    -0.005 A 
ATOM      6  C5  UNL d   1      -3.453   1.109  -3.893  0.00  0.00    -0.074 A 
ATOM      7  C6  UNL d   1      -3.458   2.595  -4.095  0.00  0.00     0.077 C 
ATOM      8  C7  UNL d   1      -3.692   0.256  -4.979  0.00  0.00    -0.001 A 
ENDROOT
TORSDOF 0
ENDMDL
