MODEL 1
REMARK minimizedAffinity 7.21951246
REMARK minimizedRMSD -1
REMARK  0 active torsions:
REMARK  status: ('A' for Active; 'I' for Inactive)
ROOT
ATOM      1  C   UNL d   1       5.664  -3.155   3.420  0.00  0.00     0.077 C 
ATOM      2  C1  UNL d   1       4.166  -3.135   3.488  0.00  0.00    -0.074 A 
ATOM      3  C2  UNL d   1       3.428  -2.157   2.814  0.00  0.00    -0.005 A 
ATOM      4  C3  UNL d   1       2.035  -2.157   2.879  0.00  0.00     0.006 A 
ATOM      5  C4  UNL d   1       1.366  -3.134   3.618  0.00  0.00    -0.005 A 
ATOM      6  C5  UNL d   1       2.087  -4.121   4.298  0.00  0.00    -0.074 A 
ATOM      7  C6  UNL d   1       1.383  -5.184   5.089  0.00  0.00     0.077 C 
ATOM      8  C7  UNL d   1       3.486  -4.118   4.222  0.00  0.00    -0.001 A 
ENDROOT
TORSDOF 0
ENDMDL
