MODEL 1
REMARK minimizedAffinity -1.4347347
REMARK minimizedRMSD -1
REMARK  0 active torsions:
REMARK  status: ('A' for Active; 'I' for Inactive)
ROOT
ATOM      1  C   UNL d   1       1.475  -0.437   2.657  0.00  0.00     0.077 C 
ATOM      2  C1  UNL d   1       1.898  -1.832   3.009  0.00  0.00    -0.074 A 
ATOM      3  C2  UNL d   1       2.817  -2.527   2.216  0.00  0.00    -0.005 A 
ATOM      4  C3  UNL d   1       3.208  -3.820   2.561  0.00  0.00     0.006 A 
ATOM      5  C4  UNL d   1       2.685  -4.432   3.702  0.00  0.00    -0.005 A 
ATOM      6  C5  UNL d   1       1.766  -3.752   4.507  0.00  0.00    -0.074 A 
ATOM      7  C6  UNL d   1       1.201  -4.391   5.741  0.00  0.00     0.077 C 
ATOM      8  C7  UNL d   1       1.383  -2.450   4.157  0.00  0.00    -0.001 A 
ENDROOT
TORSDOF 0
ENDMDL
