MODEL 1
REMARK minimizedAffinity -4.87125397
REMARK minimizedRMSD -1
REMARK  0 active torsions:
REMARK  status: ('A' for Active; 'I' for Inactive)
ROOT
ATOM      1  C4' PXY d   1       0.738  -1.153  -0.543  0.00  0.00     0.077 C 
ATOM      2  C1' PXY d   1      -1.129   4.002   1.289  0.00  0.00     0.077 C 
ATOM      3  C1  PXY d   1      -0.633   2.648   0.820  0.00  0.00    -0.082 A 
ATOM      4  C2  PXY d   1      -0.487   2.418  -0.475  0.00  0.00     0.003 A 
ATOM      5  C3  PXY d   1      -0.071   1.189  -0.918  0.00  0.00     0.003 A 
ATOM      6  C4  PXY d   1       0.250   0.202  -0.024  0.00  0.00    -0.082 A 
ATOM      7  C5  PXY d   1       0.114   0.433   1.299  0.00  0.00     0.003 A 
ATOM      8  C6  PXY d   1      -0.350   1.674   1.727  0.00  0.00     0.003 A 
ENDROOT
TORSDOF 0
ENDMDL
