MODEL 1
REMARK minimizedAffinity -4.99516439
REMARK minimizedRMSD -1
REMARK  0 active torsions:
REMARK  status: ('A' for Active; 'I' for Inactive)
ROOT
ATOM      1  C4' PXY d   1       2.367  -5.999   1.509  0.00  0.00     0.077 C 
ATOM      2  C1' PXY d   1      -0.844  -3.252  -2.435  0.00  0.00     0.077 C 
ATOM      3  C1  PXY d   1      -0.012  -3.979  -1.397  0.00  0.00    -0.082 A 
ATOM      4  C2  PXY d   1       1.111  -3.434  -0.960  0.00  0.00     0.003 A 
ATOM      5  C3  PXY d   1       1.892  -4.092  -0.045  0.00  0.00     0.003 A 
ATOM      6  C4  PXY d   1       1.491  -5.297   0.468  0.00  0.00    -0.082 A 
ATOM      7  C5  PXY d   1       0.340  -5.855   0.035  0.00  0.00     0.003 A 
ATOM      8  C6  PXY d   1      -0.417  -5.189  -0.925  0.00  0.00     0.003 A 
ENDROOT
TORSDOF 0
ENDMDL
