MODEL 1
REMARK minimizedAffinity 0.199543402
REMARK minimizedRMSD -1
REMARK  0 active torsions:
REMARK  status: ('A' for Active; 'I' for Inactive)
ROOT
ATOM      1  C4' PXY d   1       0.195  -1.881  -1.660  0.00  0.00     0.077 C 
ATOM      2  C1' PXY d   1      -0.423   2.605   1.933  0.00  0.00     0.077 C 
ATOM      3  C1  PXY d   1      -0.266   1.436   0.981  0.00  0.00    -0.082 A 
ATOM      4  C2  PXY d   1      -0.251   0.201   1.458  0.00  0.00     0.003 A 
ATOM      5  C3  PXY d   1      -0.077  -0.866   0.614  0.00  0.00     0.003 A 
ATOM      6  C4  PXY d   1       0.029  -0.671  -0.737  0.00  0.00    -0.082 A 
ATOM      7  C5  PXY d   1       0.004   0.585  -1.232  0.00  0.00     0.003 A 
ATOM      8  C6  PXY d   1      -0.132   1.657  -0.355  0.00  0.00     0.003 A 
ENDROOT
TORSDOF 0
ENDMDL
