MODEL 1
REMARK minimizedAffinity -4.40836287
REMARK minimizedRMSD -1
REMARK  0 active torsions:
REMARK  status: ('A' for Active; 'I' for Inactive)
ROOT
ATOM      1  C4' PXY d   1       0.788  -0.700  -1.622  0.00  0.00     0.077 C 
ATOM      2  C1' PXY d   1      -1.423   3.375   1.832  0.00  0.00     0.077 C 
ATOM      3  C1  PXY d   1      -0.835   2.302   0.935  0.00  0.00    -0.082 A 
ATOM      4  C2  PXY d   1      -0.908   2.436  -0.379  0.00  0.00     0.003 A 
ATOM      5  C3  PXY d   1      -0.410   1.460  -1.204  0.00  0.00     0.003 A 
ATOM      6  C4  PXY d   1       0.216   0.362  -0.679  0.00  0.00    -0.082 A 
ATOM      7  C5  PXY d   1       0.304   0.224   0.661  0.00  0.00     0.003 A 
ATOM      8  C6  PXY d   1      -0.244   1.205   1.482  0.00  0.00     0.003 A 
ENDROOT
TORSDOF 0
ENDMDL
