MODEL 1
REMARK minimizedAffinity -4.1066556
REMARK minimizedRMSD -1
REMARK  0 active torsions:
REMARK  status: ('A' for Active; 'I' for Inactive)
ROOT
ATOM      1  C4' PXY d   1       1.237  -1.217  -0.397  0.00  0.00     0.077 C 
ATOM      2  C1' PXY d   1      -1.573   3.689   0.809  0.00  0.00     0.077 C 
ATOM      3  C1  PXY d   1      -0.829   2.404   0.504  0.00  0.00    -0.082 A 
ATOM      4  C2  PXY d   1      -0.777   1.958  -0.741  0.00  0.00     0.003 A 
ATOM      5  C3  PXY d   1      -0.135   0.781  -1.030  0.00  0.00     0.003 A 
ATOM      6  C4  PXY d   1       0.505   0.081  -0.043  0.00  0.00    -0.082 A 
ATOM      7  C5  PXY d   1       0.466   0.534   1.227  0.00  0.00     0.003 A 
ATOM      8  C6  PXY d   1      -0.226   1.709   1.507  0.00  0.00     0.003 A 
ENDROOT
TORSDOF 0
ENDMDL
