MODEL 1
REMARK minimizedAffinity -5.55794811
REMARK minimizedRMSD -1
REMARK  0 active torsions:
REMARK  status: ('A' for Active; 'I' for Inactive)
ROOT
ATOM      1  C4' PXY d   1      -1.483   2.989  -1.863  0.00  0.00     0.077 C 
ATOM      2  C1' PXY d   1       0.853   0.889   2.989  0.00  0.00     0.077 C 
ATOM      3  C1  PXY d   1       0.250   1.434   1.710  0.00  0.00    -0.082 A 
ATOM      4  C2  PXY d   1      -0.506   2.518   1.753  0.00  0.00     0.003 A 
ATOM      5  C3  PXY d   1      -1.086   3.006   0.610  0.00  0.00     0.003 A 
ATOM      6  C4  PXY d   1      -0.845   2.409  -0.598  0.00  0.00    -0.082 A 
ATOM      7  C5  PXY d   1      -0.066   1.308  -0.652  0.00  0.00     0.003 A 
ATOM      8  C6  PXY d   1       0.479   0.804   0.525  0.00  0.00     0.003 A 
ENDROOT
TORSDOF 0
ENDMDL
