MODEL 1
REMARK minimizedAffinity -2.90006971
REMARK minimizedRMSD -1
REMARK  0 active torsions:
REMARK  status: ('A' for Active; 'I' for Inactive)
ROOT
ATOM      1  C4' PXY d   1      -1.627   2.104   1.844  0.00  0.00     0.077 C 
ATOM      2  C1' PXY d   1       1.712  -0.796  -1.879  0.00  0.00     0.077 C 
ATOM      3  C1  PXY d   1       0.841  -0.044  -0.893  0.00  0.00    -0.082 A 
ATOM      4  C2  PXY d   1      -0.221   0.615  -1.329  0.00  0.00     0.003 A 
ATOM      5  C3  PXY d   1      -1.002   1.328  -0.455  0.00  0.00     0.003 A 
ATOM      6  C4  PXY d   1      -0.724   1.322   0.886  0.00  0.00    -0.082 A 
ATOM      7  C5  PXY d   1       0.351   0.643   1.339  0.00  0.00     0.003 A 
ATOM      8  C6  PXY d   1       1.155  -0.040   0.431  0.00  0.00     0.003 A 
ENDROOT
TORSDOF 0
ENDMDL
