MODEL 1
REMARK minimizedAffinity -2.42167306
REMARK minimizedRMSD -1
REMARK  0 active torsions:
REMARK  status: ('A' for Active; 'I' for Inactive)
ROOT
ATOM      1  C4' PXY d   1       0.863  -1.401  -1.006  0.00  0.00     0.077 C 
ATOM      2  C1' PXY d   1      -1.216   3.365   1.519  0.00  0.00     0.077 C 
ATOM      3  C1  PXY d   1      -0.662   2.113   0.867  0.00  0.00    -0.082 A 
ATOM      4  C2  PXY d   1      -0.775   1.953  -0.442  0.00  0.00     0.003 A 
ATOM      5  C3  PXY d   1      -0.308   0.813  -1.044  0.00  0.00     0.003 A 
ATOM      6  C4  PXY d   1       0.328  -0.150  -0.306  0.00  0.00    -0.082 A 
ATOM      7  C5  PXY d   1       0.456   0.011   1.028  0.00  0.00     0.003 A 
ATOM      8  C6  PXY d   1      -0.061   1.157   1.626  0.00  0.00     0.003 A 
ENDROOT
TORSDOF 0
ENDMDL
