MODEL 1
REMARK minimizedAffinity -3.15021777
REMARK minimizedRMSD -1
REMARK  0 active torsions:
REMARK  status: ('A' for Active; 'I' for Inactive)
ROOT
ATOM      1  C4' PXY d   1       1.836  -5.702   1.330  0.00  0.00     0.077 C 
ATOM      2  C1' PXY d   1      -1.500  -2.774  -2.374  0.00  0.00     0.077 C 
ATOM      3  C1  PXY d   1      -0.636  -3.547  -1.397  0.00  0.00    -0.082 A 
ATOM      4  C2  PXY d   1       0.585  -3.118  -1.122  0.00  0.00     0.003 A 
ATOM      5  C3  PXY d   1       1.391  -3.822  -0.265  0.00  0.00     0.003 A 
ATOM      6  C4  PXY d   1       0.924  -4.949   0.357  0.00  0.00    -0.082 A 
ATOM      7  C5  PXY d   1      -0.324  -5.387   0.090  0.00  0.00     0.003 A 
ATOM      8  C6  PXY d   1      -1.112  -4.681  -0.814  0.00  0.00     0.003 A 
ENDROOT
TORSDOF 0
ENDMDL
