MODEL 1
REMARK minimizedAffinity -2.20266652
REMARK minimizedRMSD -1
REMARK  0 active torsions:
REMARK  status: ('A' for Active; 'I' for Inactive)
ROOT
ATOM      1  C4' PXY d   1       0.412  -2.422  -1.411  0.00  0.00     0.077 C 
ATOM      2  C1' PXY d   1      -0.153   2.567   1.453  0.00  0.00     0.077 C 
ATOM      3  C1  PXY d   1      -0.003   1.266   0.691  0.00  0.00    -0.082 A 
ATOM      4  C2  PXY d   1      -0.549   0.160   1.171  0.00  0.00     0.003 A 
ATOM      5  C3  PXY d   1      -0.395  -1.032   0.511  0.00  0.00     0.003 A 
ATOM      6  C4  PXY d   1       0.278  -1.083  -0.680  0.00  0.00    -0.082 A 
ATOM      7  C5  PXY d   1       0.829   0.043  -1.182  0.00  0.00     0.003 A 
ATOM      8  C6  PXY d   1       0.697   1.235  -0.476  0.00  0.00     0.003 A 
ENDROOT
TORSDOF 0
ENDMDL
