MODEL 1
REMARK minimizedAffinity 1.54955995
REMARK minimizedRMSD -1
REMARK  0 active torsions:
REMARK  status: ('A' for Active; 'I' for Inactive)
ROOT
ATOM      1  C4' PXY d   1      -0.117   2.085  -2.611  0.00  0.00     0.077 C 
ATOM      2  C1' PXY d   1       0.987   1.112   2.979  0.00  0.00     0.077 C 
ATOM      3  C1  PXY d   1       0.704   1.356   1.509  0.00  0.00    -0.082 A 
ATOM      4  C2  PXY d   1       0.428   2.581   1.091  0.00  0.00     0.003 A 
ATOM      5  C3  PXY d   1       0.139   2.815  -0.228  0.00  0.00     0.003 A 
ATOM      6  C4  PXY d   1       0.184   1.793  -1.139  0.00  0.00    -0.082 A 
ATOM      7  C5  PXY d   1       0.475   0.543  -0.722  0.00  0.00     0.003 A 
ATOM      8  C6  PXY d   1       0.726   0.320   0.629  0.00  0.00     0.003 A 
ENDROOT
TORSDOF 0
ENDMDL
