MODEL 1
REMARK minimizedAffinity -3.21496463
REMARK minimizedRMSD -1
REMARK  0 active torsions:
REMARK  status: ('A' for Active; 'I' for Inactive)
ROOT
ATOM      1  C4' PXY d   1      -1.746   3.247   1.257  0.00  0.00     0.077 C 
ATOM      2  C1' PXY d   1       0.789  -1.337  -1.186  0.00  0.00     0.077 C 
ATOM      3  C1  PXY d   1       0.128  -0.127  -0.555  0.00  0.00    -0.082 A 
ATOM      4  C2  PXY d   1      -0.063  -0.095   0.753  0.00  0.00     0.003 A 
ATOM      5  C3  PXY d   1      -0.689   0.977   1.336  0.00  0.00     0.003 A 
ATOM      6  C4  PXY d   1      -1.074   2.051   0.579  0.00  0.00    -0.082 A 
ATOM      7  C5  PXY d   1      -0.873   2.029  -0.756  0.00  0.00     0.003 A 
ATOM      8  C6  PXY d   1      -0.274   0.914  -1.334  0.00  0.00     0.003 A 
ENDROOT
TORSDOF 0
ENDMDL
