MODEL 1
REMARK minimizedAffinity 9.13466167
REMARK minimizedRMSD -1
REMARK  2 active torsions:
REMARK  status: ('A' for Active; 'I' for Inactive)
REMARK    1  A    between atoms: C2'_3  and  C1'_4 
REMARK    2  A    between atoms: C1'_4  and  C1_5 
ROOT
ATOM      1  C1  I4B d   1      -4.533  -3.318  -5.125  0.00  0.00    -0.075 A 
ATOM      2  C2  I4B d   1      -5.611  -3.673  -5.898  0.00  0.00     0.003 A 
ATOM      3  C3  I4B d   1      -6.000  -5.031  -5.999  0.00  0.00     0.002 A 
ATOM      4  C4  I4B d   1      -5.257  -6.000  -5.356  0.00  0.00    -0.004 A 
ATOM      5  C5  I4B d   1      -4.179  -5.636  -4.554  0.00  0.00     0.002 A 
ATOM      6  C6  I4B d   1      -3.822  -4.286  -4.428  0.00  0.00     0.003 A 
ENDROOT
BRANCH   1   7
ATOM      7  C1' I4B d   1      -4.130  -1.879  -5.067  0.00  0.00     0.060 C 
BRANCH   7   8
ATOM      8  C2' I4B d   1      -3.853  -1.530  -3.619  0.00  0.00    -0.013 C 
ATOM      9  C4' I4B d   1      -3.231  -0.164  -3.497  0.00  0.00     0.013 C 
ATOM     10  C3' I4B d   1      -5.148  -1.604  -2.868  0.00  0.00     0.013 C 
ENDBRANCH   7   8
ENDBRANCH   1   7
TORSDOF 2
ENDMDL
