MODEL 1
REMARK minimizedAffinity 21.2045422
REMARK minimizedRMSD -1
REMARK  2 active torsions:
REMARK  status: ('A' for Active; 'I' for Inactive)
REMARK    1  A    between atoms: C2'_3  and  C1'_4 
REMARK    2  A    between atoms: C1'_4  and  C1_5 
ROOT
ATOM      1  C1  I4B d   1      -5.536   3.483  -1.261  0.00  0.00    -0.075 A 
ATOM      2  C2  I4B d   1      -5.630   3.546   0.107  0.00  0.00     0.003 A 
ATOM      3  C3  I4B d   1      -5.888   4.782   0.747  0.00  0.00     0.002 A 
ATOM      4  C4  I4B d   1      -5.995   5.931  -0.010  0.00  0.00    -0.004 A 
ATOM      5  C5  I4B d   1      -5.922   5.862  -1.398  0.00  0.00     0.002 A 
ATOM      6  C6  I4B d   1      -5.704   4.628  -2.029  0.00  0.00     0.003 A 
ENDROOT
BRANCH   1   7
ATOM      7  C1' I4B d   1      -5.230   2.167  -1.903  0.00  0.00     0.060 C 
BRANCH   7   8
ATOM      8  C2' I4B d   1      -3.784   2.194  -2.356  0.00  0.00    -0.013 C 
ATOM      9  C4' I4B d   1      -2.901   2.845  -1.324  0.00  0.00     0.013 C 
ATOM     10  C3' I4B d   1      -3.356   0.781  -2.620  0.00  0.00     0.013 C 
ENDBRANCH   7   8
ENDBRANCH   1   7
TORSDOF 2
ENDMDL
