MODEL 1
REMARK minimizedAffinity 15.0342979
REMARK minimizedRMSD -1
REMARK  2 active torsions:
REMARK  status: ('A' for Active; 'I' for Inactive)
REMARK    1  A    between atoms: C2'_3  and  C1'_4 
REMARK    2  A    between atoms: C1'_4  and  C1_5 
ROOT
ATOM      1  C1  I4B d   1       2.056   3.253  -0.204  0.00  0.00    -0.075 A 
ATOM      2  C2  I4B d   1       2.782   3.895  -1.175  0.00  0.00     0.003 A 
ATOM      3  C3  I4B d   1       2.204   4.956  -1.913  0.00  0.00     0.002 A 
ATOM      4  C4  I4B d   1       0.889   5.307  -1.682  0.00  0.00    -0.004 A 
ATOM      5  C5  I4B d   1       0.162   4.670  -0.681  0.00  0.00     0.002 A 
ATOM      6  C6  I4B d   1       0.752   3.645   0.072  0.00  0.00     0.003 A 
ENDROOT
BRANCH   1   7
ATOM      7  C1' I4B d   1       2.687   2.114   0.533  0.00  0.00     0.060 C 
BRANCH   7   8
ATOM      8  C2' I4B d   1       1.698   1.626   1.573  0.00  0.00    -0.013 C 
ATOM      9  C4' I4B d   1       1.510   0.134   1.488  0.00  0.00     0.013 C 
ATOM     10  C3' I4B d   1       2.209   2.032   2.924  0.00  0.00     0.013 C 
ENDBRANCH   7   8
ENDBRANCH   1   7
TORSDOF 2
ENDMDL
