MODEL 1
REMARK minimizedAffinity 17.1390476
REMARK minimizedRMSD -1
REMARK  2 active torsions:
REMARK  status: ('A' for Active; 'I' for Inactive)
REMARK    1  A    between atoms: C2'_3  and  C1'_4 
REMARK    2  A    between atoms: C1'_4  and  C1_5 
ROOT
ATOM      1  C1  I4B d   1       4.128   5.551  -3.307  0.00  0.00    -0.075 A 
ATOM      2  C2  I4B d   1       5.483   5.597  -3.524  0.00  0.00     0.003 A 
ATOM      3  C3  I4B d   1       5.989   5.825  -4.826  0.00  0.00     0.002 A 
ATOM      4  C4  I4B d   1       5.112   5.952  -5.884  0.00  0.00    -0.004 A 
ATOM      5  C5  I4B d   1       3.739   5.928  -5.659  0.00  0.00     0.002 A 
ATOM      6  C6  I4B d   1       3.243   5.739  -4.361  0.00  0.00     0.003 A 
ENDROOT
BRANCH   1   7
ATOM      7  C1' I4B d   1       3.629   5.275  -1.925  0.00  0.00     0.060 C 
BRANCH   7   8
ATOM      8  C2' I4B d   1       2.491   4.280  -2.030  0.00  0.00    -0.013 C 
ATOM      9  C4' I4B d   1       2.808   3.009  -1.286  0.00  0.00     0.013 C 
ATOM     10  C3' I4B d   1       1.254   4.931  -1.487  0.00  0.00     0.013 C 
ENDBRANCH   7   8
ENDBRANCH   1   7
TORSDOF 2
ENDMDL
