MODEL 1
REMARK minimizedAffinity 3.04454947
REMARK minimizedRMSD -1
REMARK  2 active torsions:
REMARK  status: ('A' for Active; 'I' for Inactive)
REMARK    1  A    between atoms: C2'_3  and  C1'_4 
REMARK    2  A    between atoms: C1'_4  and  C1_5 
ROOT
ATOM      1  C1  I4B d   1       3.790   5.085  -4.347  0.00  0.00    -0.075 A 
ATOM      2  C2  I4B d   1       4.812   5.999  -4.405  0.00  0.00     0.003 A 
ATOM      3  C3  I4B d   1       5.918   5.778  -5.262  0.00  0.00     0.002 A 
ATOM      4  C4  I4B d   1       5.984   4.614  -6.000  0.00  0.00    -0.004 A 
ATOM      5  C5  I4B d   1       4.936   3.700  -5.957  0.00  0.00     0.002 A 
ATOM      6  C6  I4B d   1       3.826   3.942  -5.135  0.00  0.00     0.003 A 
ENDROOT
BRANCH   1   7
ATOM      7  C1' I4B d   1       2.653   5.334  -3.407  0.00  0.00     0.060 C 
BRANCH   7   8
ATOM      8  C2' I4B d   1       3.066   4.840  -2.035  0.00  0.00    -0.013 C 
ATOM      9  C4' I4B d   1       4.165   5.692  -1.457  0.00  0.00     0.013 C 
ATOM     10  C3' I4B d   1       1.852   4.851  -1.155  0.00  0.00     0.013 C 
ENDBRANCH   7   8
ENDBRANCH   1   7
TORSDOF 2
ENDMDL
