MODEL 1
REMARK minimizedAffinity -0.912322462
REMARK minimizedRMSD -1
REMARK  0 active torsions:
REMARK  status: ('A' for Active; 'I' for Inactive)
ROOT
ATOM      1  C1  BNZ d   1       0.140  -0.420  -0.192  0.00  0.00     0.000 A 
ATOM      2  C2  BNZ d   1       0.591  -1.707  -0.311  0.00  0.00     0.000 A 
ATOM      3  C3  BNZ d   1       1.918  -2.001  -0.162  0.00  0.00     0.000 A 
ATOM      4  C4  BNZ d   1       2.796  -1.003   0.065  0.00  0.00     0.000 A 
ATOM      5  C5  BNZ d   1       2.358   0.301   0.178  0.00  0.00     0.000 A 
ATOM      6  C6  BNZ d   1       1.017   0.588   0.067  0.00  0.00     0.000 A 
ENDROOT
TORSDOF 0
ENDMDL
