MODEL 1
REMARK minimizedAffinity -0.124580599
REMARK minimizedRMSD -1
REMARK  0 active torsions:
REMARK  status: ('A' for Active; 'I' for Inactive)
ROOT
ATOM      1  C1  BNZ d   1      -0.661   0.192  -0.447  0.00  0.00     0.000 A 
ATOM      2  C2  BNZ d   1      -0.665  -1.148  -0.730  0.00  0.00     0.000 A 
ATOM      3  C3  BNZ d   1       0.478  -1.889  -0.625  0.00  0.00     0.000 A 
ATOM      4  C4  BNZ d   1       1.631  -1.283  -0.275  0.00  0.00     0.000 A 
ATOM      5  C5  BNZ d   1       1.654   0.069   0.005  0.00  0.00     0.000 A 
ATOM      6  C6  BNZ d   1       0.492   0.804  -0.065  0.00  0.00     0.000 A 
ENDROOT
TORSDOF 0
ENDMDL
