MODEL 1
REMARK minimizedAffinity -3.53799748
REMARK minimizedRMSD -1
REMARK  0 active torsions:
REMARK  status: ('A' for Active; 'I' for Inactive)
ROOT
ATOM      1  C1  BNZ d   1       2.466   1.084   0.800  0.00  0.00     0.000 A 
ATOM      2  C2  BNZ d   1       1.190   1.459   0.472  0.00  0.00     0.000 A 
ATOM      3  C3  BNZ d   1       0.326   0.571  -0.104  0.00  0.00     0.000 A 
ATOM      4  C4  BNZ d   1       0.750  -0.678  -0.387  0.00  0.00     0.000 A 
ATOM      5  C5  BNZ d   1       2.036  -1.068  -0.071  0.00  0.00     0.000 A 
ATOM      6  C6  BNZ d   1       2.891  -0.183   0.544  0.00  0.00     0.000 A 
ENDROOT
TORSDOF 0
ENDMDL
