MODEL 1
REMARK minimizedAffinity -4.69567442
REMARK minimizedRMSD -1
REMARK  0 active torsions:
REMARK  status: ('A' for Active; 'I' for Inactive)
ROOT
ATOM      1  C1  BNZ d   1       1.488   1.190   0.244  0.00  0.00     0.000 A 
ATOM      2  C2  BNZ d   1       2.767   0.793   0.532  0.00  0.00     0.000 A 
ATOM      3  C3  BNZ d   1       3.084  -0.533   0.624  0.00  0.00     0.000 A 
ATOM      4  C4  BNZ d   1       2.116  -1.459   0.468  0.00  0.00     0.000 A 
ATOM      5  C5  BNZ d   1       0.820  -1.074   0.186  0.00  0.00     0.000 A 
ATOM      6  C6  BNZ d   1       0.512   0.261   0.056  0.00  0.00     0.000 A 
ENDROOT
TORSDOF 0
ENDMDL
