MODEL 1
REMARK minimizedAffinity -4.85292339
REMARK minimizedRMSD -1
REMARK  0 active torsions:
REMARK  status: ('A' for Active; 'I' for Inactive)
ROOT
ATOM      1  C1  BNZ d   1       0.161  -1.259  -0.706  0.00  0.00     0.000 A 
ATOM      2  C2  BNZ d   1       1.370  -1.593  -0.155  0.00  0.00     0.000 A 
ATOM      3  C3  BNZ d   1       2.237  -0.625   0.268  0.00  0.00     0.000 A 
ATOM      4  C4  BNZ d   1       1.913   0.674   0.104  0.00  0.00     0.000 A 
ATOM      5  C5  BNZ d   1       0.702   1.027  -0.458  0.00  0.00     0.000 A 
ATOM      6  C6  BNZ d   1      -0.185   0.050  -0.847  0.00  0.00     0.000 A 
ENDROOT
TORSDOF 0
ENDMDL
