MODEL 1
REMARK minimizedAffinity -4.60953808
REMARK minimizedRMSD -1
REMARK  0 active torsions:
REMARK  status: ('A' for Active; 'I' for Inactive)
ROOT
ATOM      1  C1  BNZ d   1       2.159  -1.136   0.015  0.00  0.00     0.000 A 
ATOM      2  C2  BNZ d   1       1.767   0.136   0.335  0.00  0.00     0.000 A 
ATOM      3  C3  BNZ d   1       0.578   0.637  -0.116  0.00  0.00     0.000 A 
ATOM      4  C4  BNZ d   1      -0.198  -0.120  -0.919  0.00  0.00     0.000 A 
ATOM      5  C5  BNZ d   1       0.187  -1.401  -1.258  0.00  0.00     0.000 A 
ATOM      6  C6  BNZ d   1       1.366  -1.916  -0.770  0.00  0.00     0.000 A 
ENDROOT
TORSDOF 0
ENDMDL
