MODEL 1
REMARK minimizedAffinity -3.19952178
REMARK minimizedRMSD -1
REMARK  0 active torsions:
REMARK  status: ('A' for Active; 'I' for Inactive)
ROOT
ATOM      1  C1  BNZ d   1      -0.844  -0.049   0.512  0.00  0.00     0.000 A 
ATOM      2  C2  BNZ d   1       0.359  -0.391   1.069  0.00  0.00     0.000 A 
ATOM      3  C3  BNZ d   1       1.320  -1.021   0.329  0.00  0.00     0.000 A 
ATOM      4  C4  BNZ d   1       1.062  -1.343  -0.955  0.00  0.00     0.000 A 
ATOM      5  C5  BNZ d   1      -0.149  -1.014  -1.529  0.00  0.00     0.000 A 
ATOM      6  C6  BNZ d   1      -1.099  -0.345  -0.792  0.00  0.00     0.000 A 
ENDROOT
TORSDOF 0
ENDMDL
