MODEL 1
REMARK minimizedAffinity -5.03454208
REMARK minimizedRMSD -1
REMARK  0 active torsions:
REMARK  status: ('A' for Active; 'I' for Inactive)
ROOT
ATOM      1  C1  BNZ d   1       0.299   0.185   0.143  0.00  0.00     0.000 A 
ATOM      2  C2  BNZ d   1       0.492  -1.115  -0.243  0.00  0.00     0.000 A 
ATOM      3  C3  BNZ d   1       1.713  -1.713  -0.100  0.00  0.00     0.000 A 
ATOM      4  C4  BNZ d   1       2.747  -1.001   0.390  0.00  0.00     0.000 A 
ATOM      5  C5  BNZ d   1       2.571   0.314   0.774  0.00  0.00     0.000 A 
ATOM      6  C6  BNZ d   1       1.331   0.901   0.665  0.00  0.00     0.000 A 
ENDROOT
TORSDOF 0
ENDMDL
