MODEL 1
REMARK minimizedAffinity -1.79667616
REMARK minimizedRMSD -1
REMARK  3 active torsions:
REMARK  status: ('A' for Active; 'I' for Inactive)
REMARK    1  A    between atoms: C3'_2  and  C2'_3 
REMARK    2  A    between atoms: C2'_3  and  C1'_4 
REMARK    3  A    between atoms: C1'_4  and  C1_5 
ROOT
ATOM      1  C1  N4B d   1      -0.105  -1.317   1.841  0.00  0.00    -0.075 A 
ATOM      2  C2  N4B d   1       0.792  -1.303   0.751  0.00  0.00     0.002 A 
ATOM      3  C3  N4B d   1       0.525  -0.524  -0.348  0.00  0.00     0.002 A 
ATOM      4  C4  N4B d   1      -0.637   0.232  -0.388  0.00  0.00    -0.004 A 
ATOM      5  C5  N4B d   1      -1.486   0.232   0.680  0.00  0.00     0.002 A 
ATOM      6  C6  N4B d   1      -1.228  -0.543   1.793  0.00  0.00     0.002 A 
ENDROOT
BRANCH   1   7
ATOM      7  C1' N4B d   1       0.101  -2.218   3.028  0.00  0.00     0.057 C 
BRANCH   7   8
ATOM      8  C2' N4B d   1      -0.535  -3.575   2.742  0.00  0.00     0.009 C 
BRANCH   8   9
ATOM      9  C3' N4B d   1       0.407  -4.496   1.985  0.00  0.00     0.004 C 
ATOM     10  C4' N4B d   1       1.848  -4.268   2.335  0.00  0.00     0.003 C 
ENDBRANCH   8   9
ENDBRANCH   7   8
ENDBRANCH   1   7
TORSDOF 3
ENDMDL
