MODEL 1
REMARK minimizedAffinity -1.75999057
REMARK minimizedRMSD -1
REMARK  3 active torsions:
REMARK  status: ('A' for Active; 'I' for Inactive)
REMARK    1  A    between atoms: C3'_2  and  C2'_3 
REMARK    2  A    between atoms: C2'_3  and  C1'_4 
REMARK    3  A    between atoms: C1'_4  and  C1_5 
ROOT
ATOM      1  C1  N4B d   1      -0.102  -0.833  -0.005  0.00  0.00    -0.075 A 
ATOM      2  C2  N4B d   1       0.598  -1.887   0.623  0.00  0.00     0.002 A 
ATOM      3  C3  N4B d   1       0.225  -2.308   1.876  0.00  0.00     0.002 A 
ATOM      4  C4  N4B d   1      -0.826  -1.680   2.526  0.00  0.00    -0.004 A 
ATOM      5  C5  N4B d   1      -1.513  -0.679   1.903  0.00  0.00     0.002 A 
ATOM      6  C6  N4B d   1      -1.153  -0.249   0.641  0.00  0.00     0.002 A 
ENDROOT
BRANCH   1   7
ATOM      7  C1' N4B d   1       0.322  -0.282  -1.339  0.00  0.00     0.057 C 
BRANCH   7   8
ATOM      8  C2' N4B d   1       1.798   0.103  -1.275  0.00  0.00     0.009 C 
BRANCH   8   9
ATOM      9  C3' N4B d   1       2.291   0.681  -2.590  0.00  0.00     0.004 C 
ATOM     10  C4' N4B d   1       2.274   2.181  -2.607  0.00  0.00     0.003 C 
ENDBRANCH   8   9
ENDBRANCH   7   8
ENDBRANCH   1   7
TORSDOF 3
ENDMDL
