MODEL 1
REMARK minimizedAffinity 3.29772019
REMARK minimizedRMSD -1
REMARK  1 active torsions:
REMARK  status: ('A' for Active; 'I' for Inactive)
REMARK    1  A    between atoms: C3_4  and  O_7 
ROOT
ATOM      1  C   UNL d   1      -5.991  -1.784   2.107  0.00  0.00    -0.033 A 
ATOM      2  C1  UNL d   1      -5.982  -0.993   3.257  0.00  0.00     0.039 A 
ATOM      3  C2  UNL d   1      -5.983  -1.592   4.518  0.00  0.00    -0.080 A 
ATOM      4  C3  UNL d   1      -5.993  -2.980   4.615  0.00  0.00     0.150 A 
ATOM      5  C4  UNL d   1      -5.999  -3.775   3.474  0.00  0.00    -0.007 A 
ATOM      6  C5  UNL d   1      -5.998  -3.175   2.215  0.00  0.00     0.039 A 
ENDROOT
BRANCH   4   7
ATOM      7  O   UNL d   1      -6.000  -3.610   5.825  0.00  0.00    -0.526 OA
ATOM      8  H5  UNL d   1      -6.024  -2.935   6.523  0.00  0.00     0.418 HD
ENDBRANCH   4   7
TORSDOF 1
ENDMDL
