MODEL 1
REMARK minimizedAffinity 8.1788311
REMARK minimizedRMSD -1
REMARK  1 active torsions:
REMARK  status: ('A' for Active; 'I' for Inactive)
REMARK    1  A    between atoms: C3_4  and  O_7 
ROOT
ATOM      1  C   UNL d   1       0.673   4.182   0.959  0.00  0.00    -0.033 A 
ATOM      2  C1  UNL d   1       0.452   2.897   1.459  0.00  0.00     0.039 A 
ATOM      3  C2  UNL d   1       1.126   2.466   2.603  0.00  0.00    -0.080 A 
ATOM      4  C3  UNL d   1       2.017   3.327   3.237  0.00  0.00     0.150 A 
ATOM      5  C4  UNL d   1       2.239   4.610   2.747  0.00  0.00    -0.007 A 
ATOM      6  C5  UNL d   1       1.566   5.039   1.604  0.00  0.00     0.039 A 
ENDROOT
BRANCH   4   7
ATOM      7  O   UNL d   1       2.702   2.949   4.354  0.00  0.00    -0.526 OA
ATOM      8  H5  UNL d   1       2.469   2.028   4.560  0.00  0.00     0.418 HD
ENDBRANCH   4   7
TORSDOF 1
ENDMDL
