MODEL 1
REMARK minimizedAffinity -4.02212191
REMARK minimizedRMSD -1
REMARK  1 active torsions:
REMARK  status: ('A' for Active; 'I' for Inactive)
REMARK    1  A    between atoms: C3_4  and  O_7 
ROOT
ATOM      1  C   UNL d   1      -0.374   3.180   1.311  0.00  0.00    -0.033 A 
ATOM      2  C1  UNL d   1      -1.208   2.843   0.244  0.00  0.00     0.039 A 
ATOM      3  C2  UNL d   1      -1.163   1.559  -0.302  0.00  0.00    -0.080 A 
ATOM      4  C3  UNL d   1      -0.280   0.622   0.228  0.00  0.00     0.150 A 
ATOM      5  C4  UNL d   1       0.552   0.950   1.294  0.00  0.00    -0.007 A 
ATOM      6  C5  UNL d   1       0.505   2.233   1.837  0.00  0.00     0.039 A 
ENDROOT
BRANCH   4   7
ATOM      7  O   UNL d   1      -0.196  -0.642  -0.274  0.00  0.00    -0.526 OA
ATOM      8  H5  UNL d   1      -0.808  -0.716  -1.025  0.00  0.00     0.418 HD
ENDBRANCH   4   7
TORSDOF 1
ENDMDL
