MODEL 1
REMARK minimizedAffinity -3.27278566
REMARK minimizedRMSD -1
REMARK  1 active torsions:
REMARK  status: ('A' for Active; 'I' for Inactive)
REMARK    1  A    between atoms: C3_4  and  O_7 
ROOT
ATOM      1  C   UNL d   1      -1.462   3.086   0.744  0.00  0.00    -0.033 A 
ATOM      2  C1  UNL d   1      -0.773   1.889   0.540  0.00  0.00     0.039 A 
ATOM      3  C2  UNL d   1       0.419   1.641   1.223  0.00  0.00    -0.080 A 
ATOM      4  C3  UNL d   1       0.910   2.597   2.108  0.00  0.00     0.150 A 
ATOM      5  C4  UNL d   1       0.227   3.790   2.319  0.00  0.00    -0.007 A 
ATOM      6  C5  UNL d   1      -0.962   4.036   1.635  0.00  0.00     0.039 A 
ENDROOT
BRANCH   4   7
ATOM      7  O   UNL d   1       2.072   2.402   2.794  0.00  0.00    -0.526 OA
ATOM      8  H5  UNL d   1       2.448   1.548   2.526  0.00  0.00     0.418 HD
ENDBRANCH   4   7
TORSDOF 1
ENDMDL
