MODEL 1
REMARK minimizedAffinity -2.81078696
REMARK minimizedRMSD -1
REMARK  1 active torsions:
REMARK  status: ('A' for Active; 'I' for Inactive)
REMARK    1  A    between atoms: C3_4  and  O_7 
ROOT
ATOM      1  C   UNL d   1       1.098   1.318   2.322  0.00  0.00    -0.033 A 
ATOM      2  C1  UNL d   1       1.499   0.102   1.766  0.00  0.00     0.039 A 
ATOM      3  C2  UNL d   1       1.388  -0.109   0.390  0.00  0.00    -0.080 A 
ATOM      4  C3  UNL d   1       0.876   0.903  -0.417  0.00  0.00     0.150 A 
ATOM      5  C4  UNL d   1       0.478   2.119   0.130  0.00  0.00    -0.007 A 
ATOM      6  C5  UNL d   1       0.589   2.327   1.504  0.00  0.00     0.039 A 
ENDROOT
BRANCH   4   7
ATOM      7  O   UNL d   1       0.744   0.742  -1.764  0.00  0.00    -0.526 OA
ATOM      8  H5  UNL d   1       1.031  -0.157  -1.996  0.00  0.00     0.418 HD
ENDBRANCH   4   7
TORSDOF 1
ENDMDL
