MODEL 1
REMARK minimizedAffinity 1.25421369
REMARK minimizedRMSD -1
REMARK  1 active torsions:
REMARK  status: ('A' for Active; 'I' for Inactive)
REMARK    1  A    between atoms: C3_4  and  O_7 
ROOT
ATOM      1  C   UNL d   1       1.404   3.276   2.583  0.00  0.00    -0.033 A 
ATOM      2  C1  UNL d   1       2.618   3.875   2.241  0.00  0.00     0.039 A 
ATOM      3  C2  UNL d   1       2.727   4.609   1.058  0.00  0.00    -0.080 A 
ATOM      4  C3  UNL d   1       1.616   4.738   0.229  0.00  0.00     0.150 A 
ATOM      5  C4  UNL d   1       0.403   4.148   0.566  0.00  0.00    -0.007 A 
ATOM      6  C5  UNL d   1       0.296   3.414   1.747  0.00  0.00     0.039 A 
ENDROOT
BRANCH   4   7
ATOM      7  O   UNL d   1       1.675   5.442  -0.937  0.00  0.00    -0.526 OA
ATOM      8  H5  UNL d   1       2.583   5.769  -1.054  0.00  0.00     0.418 HD
ENDBRANCH   4   7
TORSDOF 1
ENDMDL
