MODEL 1
REMARK minimizedAffinity 0.0733932704
REMARK minimizedRMSD -1
REMARK  1 active torsions:
REMARK  status: ('A' for Active; 'I' for Inactive)
REMARK    1  A    between atoms: C3_4  and  O_7 
ROOT
ATOM      1  C   UNL d   1       0.626   2.388   1.640  0.00  0.00    -0.033 A 
ATOM      2  C1  UNL d   1       0.356   1.795   0.405  0.00  0.00     0.039 A 
ATOM      3  C2  UNL d   1       0.321   2.575  -0.752  0.00  0.00    -0.080 A 
ATOM      4  C3  UNL d   1       0.559   3.944  -0.662  0.00  0.00     0.150 A 
ATOM      5  C4  UNL d   1       0.832   4.540   0.565  0.00  0.00    -0.007 A 
ATOM      6  C5  UNL d   1       0.866   3.760   1.720  0.00  0.00     0.039 A 
ENDROOT
BRANCH   4   7
ATOM      7  O   UNL d   1       0.531   4.747  -1.763  0.00  0.00    -0.526 OA
ATOM      8  H5  UNL d   1       0.301   4.202  -2.535  0.00  0.00     0.418 HD
ENDBRANCH   4   7
TORSDOF 1
ENDMDL
