MODEL 1
REMARK minimizedAffinity -2.35925961
REMARK minimizedRMSD -1
REMARK  1 active torsions:
REMARK  status: ('A' for Active; 'I' for Inactive)
REMARK    1  A    between atoms: C3_4  and  O_7 
ROOT
ATOM      1  C   UNL d   1       1.210   0.174   3.041  0.00  0.00    -0.033 A 
ATOM      2  C1  UNL d   1       0.716   1.444   2.736  0.00  0.00     0.039 A 
ATOM      3  C2  UNL d   1       0.289   1.736   1.440  0.00  0.00    -0.080 A 
ATOM      4  C3  UNL d   1       0.358   0.751   0.459  0.00  0.00     0.150 A 
ATOM      5  C4  UNL d   1       0.845  -0.518   0.756  0.00  0.00    -0.007 A 
ATOM      6  C5  UNL d   1       1.273  -0.807   2.052  0.00  0.00     0.039 A 
ENDROOT
BRANCH   4   7
ATOM      7  O   UNL d   1      -0.043   0.990  -0.822  0.00  0.00    -0.526 OA
ATOM      8  H5  UNL d   1      -0.328   1.917  -0.886  0.00  0.00     0.418 HD
ENDBRANCH   4   7
TORSDOF 1
ENDMDL
