MODEL 1
REMARK minimizedAffinity -0.218401536
REMARK minimizedRMSD -1
REMARK  0 active torsions:
REMARK  status: ('A' for Active; 'I' for Inactive)
ROOT
ATOM      1  C   UNL d   1       0.640   3.003   0.659  0.00  0.00     0.077 C 
ATOM      2  C1  UNL d   1       0.068   3.947  -0.356  0.00  0.00    -0.074 A 
ATOM      3  C2  UNL d   1       0.727   5.136  -0.684  0.00  0.00    -0.005 A 
ATOM      4  C3  UNL d   1       0.187   6.000  -1.637  0.00  0.00     0.006 A 
ATOM      5  C4  UNL d   1      -1.016   5.684  -2.270  0.00  0.00    -0.005 A 
ATOM      6  C5  UNL d   1      -1.689   4.500  -1.955  0.00  0.00    -0.074 A 
ATOM      7  C6  UNL d   1      -2.978   4.141  -2.633  0.00  0.00     0.077 C 
ATOM      8  C7  UNL d   1      -1.136   3.633  -1.002  0.00  0.00    -0.001 A 
ENDROOT
TORSDOF 0
ENDMDL
