MODEL 1
REMARK minimizedAffinity -1.11808872
REMARK minimizedRMSD -1
REMARK  0 active torsions:
REMARK  status: ('A' for Active; 'I' for Inactive)
ROOT
ATOM      1  C   UNL d   1      -6.000   1.467  -5.501  0.00  0.00     0.077 C 
ATOM      2  C1  UNL d   1      -5.673   2.517  -4.481  0.00  0.00    -0.074 A 
ATOM      3  C2  UNL d   1      -6.000   2.336  -3.133  0.00  0.00    -0.005 A 
ATOM      4  C3  UNL d   1      -5.681   3.318  -2.195  0.00  0.00     0.006 A 
ATOM      5  C4  UNL d   1      -5.034   4.488  -2.594  0.00  0.00    -0.005 A 
ATOM      6  C5  UNL d   1      -4.699   4.686  -3.938  0.00  0.00    -0.074 A 
ATOM      7  C6  UNL d   1      -3.994   5.933  -4.382  0.00  0.00     0.077 C 
ATOM      8  C7  UNL d   1      -5.016   3.692  -4.873  0.00  0.00    -0.001 A 
ENDROOT
TORSDOF 0
ENDMDL
