MODEL 1
REMARK minimizedAffinity 6.04083729
REMARK minimizedRMSD -1
REMARK  0 active torsions:
REMARK  status: ('A' for Active; 'I' for Inactive)
ROOT
ATOM      1  C   UNL d   1       0.131   3.829  -1.075  0.00  0.00     0.077 C 
ATOM      2  C1  UNL d   1       0.170   3.327   0.338  0.00  0.00    -0.074 A 
ATOM      3  C2  UNL d   1      -1.011   3.049   1.034  0.00  0.00    -0.005 A 
ATOM      4  C3  UNL d   1      -0.959   2.574   2.345  0.00  0.00     0.006 A 
ATOM      5  C4  UNL d   1       0.272   2.371   2.970  0.00  0.00    -0.005 A 
ATOM      6  C5  UNL d   1       1.463   2.642   2.289  0.00  0.00    -0.074 A 
ATOM      7  C6  UNL d   1       2.794   2.420   2.943  0.00  0.00     0.077 C 
ATOM      8  C7  UNL d   1       1.403   3.113   0.970  0.00  0.00    -0.001 A 
ENDROOT
TORSDOF 0
ENDMDL
