MODEL 1
REMARK minimizedAffinity 8.75236702
REMARK minimizedRMSD -1
REMARK  0 active torsions:
REMARK  status: ('A' for Active; 'I' for Inactive)
ROOT
ATOM      1  C   UNL d   1       5.523  -5.998  -0.069  0.00  0.00     0.077 C 
ATOM      2  C1  UNL d   1       5.148  -4.605  -0.478  0.00  0.00    -0.074 A 
ATOM      3  C2  UNL d   1       5.912  -3.900  -1.413  0.00  0.00    -0.005 A 
ATOM      4  C3  UNL d   1       5.544  -2.609  -1.792  0.00  0.00     0.006 A 
ATOM      5  C4  UNL d   1       4.411  -2.011  -1.240  0.00  0.00    -0.005 A 
ATOM      6  C5  UNL d   1       3.634  -2.701  -0.304  0.00  0.00    -0.074 A 
ATOM      7  C6  UNL d   1       2.408  -2.076   0.292  0.00  0.00     0.077 C 
ATOM      8  C7  UNL d   1       4.006  -4.001   0.066  0.00  0.00    -0.001 A 
ENDROOT
TORSDOF 0
ENDMDL
