MODEL 1
REMARK minimizedAffinity 12.1288738
REMARK minimizedRMSD -1
REMARK  0 active torsions:
REMARK  status: ('A' for Active; 'I' for Inactive)
ROOT
ATOM      1  C   UNL d   1      -1.402  -3.108  -3.590  0.00  0.00     0.077 C 
ATOM      2  C1  UNL d   1      -0.452  -3.490  -2.494  0.00  0.00    -0.074 A 
ATOM      3  C2  UNL d   1      -0.093  -4.826  -2.287  0.00  0.00    -0.005 A 
ATOM      4  C3  UNL d   1       0.799  -5.165  -1.270  0.00  0.00     0.006 A 
ATOM      5  C4  UNL d   1       1.340  -4.174  -0.451  0.00  0.00    -0.005 A 
ATOM      6  C5  UNL d   1       0.994  -2.833  -0.643  0.00  0.00    -0.074 A 
ATOM      7  C6  UNL d   1       1.574  -1.754   0.222  0.00  0.00     0.077 C 
ATOM      8  C7  UNL d   1       0.102  -2.499  -1.672  0.00  0.00    -0.001 A 
ENDROOT
TORSDOF 0
ENDMDL
