MODEL 1
REMARK minimizedAffinity 3.04921126
REMARK minimizedRMSD -1
REMARK  0 active torsions:
REMARK  status: ('A' for Active; 'I' for Inactive)
ROOT
ATOM      1  C   UNL d   1      -2.727   3.838  -2.668  0.00  0.00     0.077 C 
ATOM      2  C1  UNL d   1      -1.642   4.294  -1.738  0.00  0.00    -0.074 A 
ATOM      3  C2  UNL d   1      -1.114   5.586  -1.828  0.00  0.00    -0.005 A 
ATOM      4  C3  UNL d   1      -0.112   6.000  -0.950  0.00  0.00     0.006 A 
ATOM      5  C4  UNL d   1       0.372   5.126   0.025  0.00  0.00    -0.005 A 
ATOM      6  C5  UNL d   1      -0.144   3.831   0.131  0.00  0.00    -0.074 A 
ATOM      7  C6  UNL d   1       0.358   2.883   1.179  0.00  0.00     0.077 C 
ATOM      8  C7  UNL d   1      -1.156   3.425  -0.751  0.00  0.00    -0.001 A 
ENDROOT
TORSDOF 0
ENDMDL
