MODEL 1
REMARK minimizedAffinity 4.4495368
REMARK minimizedRMSD -1
REMARK  0 active torsions:
REMARK  status: ('A' for Active; 'I' for Inactive)
ROOT
ATOM      1  C   UNL d   1       3.173   6.000  -0.335  0.00  0.00     0.077 C 
ATOM      2  C1  UNL d   1       1.851   5.290  -0.314  0.00  0.00    -0.074 A 
ATOM      3  C2  UNL d   1       1.680   4.111   0.418  0.00  0.00    -0.005 A 
ATOM      4  C3  UNL d   1       0.443   3.468   0.436  0.00  0.00     0.006 A 
ATOM      5  C4  UNL d   1      -0.634   3.996  -0.277  0.00  0.00    -0.005 A 
ATOM      6  C5  UNL d   1      -0.482   5.174  -1.015  0.00  0.00    -0.074 A 
ATOM      7  C6  UNL d   1      -1.632   5.760  -1.779  0.00  0.00     0.077 C 
ATOM      8  C7  UNL d   1       0.762   5.819  -1.022  0.00  0.00    -0.001 A 
ENDROOT
TORSDOF 0
ENDMDL
