MODEL 1
REMARK minimizedAffinity 7.64263964
REMARK minimizedRMSD -1
REMARK  0 active torsions:
REMARK  status: ('A' for Active; 'I' for Inactive)
ROOT
ATOM      1  C   UNL d   1      -5.997   1.064  -0.891  0.00  0.00     0.077 C 
ATOM      2  C1  UNL d   1      -6.000   1.620  -2.284  0.00  0.00    -0.074 A 
ATOM      3  C2  UNL d   1      -5.986   3.001  -2.506  0.00  0.00    -0.005 A 
ATOM      4  C3  UNL d   1      -5.979   3.503  -3.807  0.00  0.00     0.006 A 
ATOM      5  C4  UNL d   1      -5.987   2.632  -4.897  0.00  0.00    -0.005 A 
ATOM      6  C5  UNL d   1      -6.000   1.248  -4.694  0.00  0.00    -0.074 A 
ATOM      7  C6  UNL d   1      -5.998   0.298  -5.854  0.00  0.00     0.077 C 
ATOM      8  C7  UNL d   1      -5.999   0.751  -3.384  0.00  0.00    -0.001 A 
ENDROOT
TORSDOF 0
ENDMDL
