MODEL 1
REMARK minimizedAffinity 4.75958729
REMARK minimizedRMSD -1
REMARK  0 active torsions:
REMARK  status: ('A' for Active; 'I' for Inactive)
ROOT
ATOM      1  C2' OXE d   1       3.622   5.946   1.065  0.00  0.00     0.078 C 
ATOM      2  C1' OXE d   1       5.847   4.237   0.970  0.00  0.00     0.078 C 
ATOM      3  C1  OXE d   1       5.367   4.693   2.326  0.00  0.00    -0.078 A 
ATOM      4  C2  OXE d   1       4.307   5.566   2.360  0.00  0.00    -0.078 A 
ATOM      5  C3  OXE d   1       3.790   5.975   3.586  0.00  0.00     0.003 A 
ATOM      6  C4  OXE d   1       4.435   5.627   4.779  0.00  0.00    -0.002 A 
ATOM      7  C5  OXE d   1       5.541   4.770   4.764  0.00  0.00    -0.002 A 
ATOM      8  C6  OXE d   1       5.993   4.261   3.551  0.00  0.00     0.003 A 
ENDROOT
TORSDOF 0
ENDMDL
