MODEL 1
REMARK minimizedAffinity -1.88899755
REMARK minimizedRMSD -1
REMARK  0 active torsions:
REMARK  status: ('A' for Active; 'I' for Inactive)
ROOT
ATOM      1  C2' OXE d   1       3.360   2.224  -5.798  0.00  0.00     0.078 C 
ATOM      2  C1' OXE d   1       0.565   1.968  -5.827  0.00  0.00     0.078 C 
ATOM      3  C1  OXE d   1       1.291   1.603  -4.557  0.00  0.00    -0.078 A 
ATOM      4  C2  OXE d   1       2.663   1.687  -4.567  0.00  0.00    -0.078 A 
ATOM      5  C3  OXE d   1       3.379   1.414  -3.405  0.00  0.00     0.003 A 
ATOM      6  C4  OXE d   1       2.727   0.908  -2.273  0.00  0.00    -0.002 A 
ATOM      7  C5  OXE d   1       1.334   0.778  -2.255  0.00  0.00    -0.002 A 
ATOM      8  C6  OXE d   1       0.599   1.160  -3.372  0.00  0.00     0.003 A 
ENDROOT
TORSDOF 0
ENDMDL
