MODEL 1
REMARK minimizedAffinity -0.722785175
REMARK minimizedRMSD -1
REMARK  0 active torsions:
REMARK  status: ('A' for Active; 'I' for Inactive)
ROOT
ATOM      1  C2' OXE d   1       3.089   2.371  -5.709  0.00  0.00     0.078 C 
ATOM      2  C1' OXE d   1       0.450   1.427  -5.875  0.00  0.00     0.078 C 
ATOM      3  C1  OXE d   1       1.148   1.333  -4.541  0.00  0.00    -0.078 A 
ATOM      4  C2  OXE d   1       2.455   1.754  -4.480  0.00  0.00    -0.078 A 
ATOM      5  C3  OXE d   1       3.127   1.740  -3.262  0.00  0.00     0.003 A 
ATOM      6  C4  OXE d   1       2.537   1.159  -2.133  0.00  0.00    -0.002 A 
ATOM      7  C5  OXE d   1       1.221   0.687  -2.183  0.00  0.00    -0.002 A 
ATOM      8  C6  OXE d   1       0.500   0.806  -3.366  0.00  0.00     0.003 A 
ENDROOT
TORSDOF 0
ENDMDL
