MODEL 1
REMARK minimizedAffinity 3.87437296
REMARK minimizedRMSD -1
REMARK  0 active torsions:
REMARK  status: ('A' for Active; 'I' for Inactive)
ROOT
ATOM      1  C2' OXE d   1       4.767   5.670   0.302  0.00  0.00     0.078 C 
ATOM      2  C1' OXE d   1       2.347   5.998   1.686  0.00  0.00     0.078 C 
ATOM      3  C1  OXE d   1       3.611   5.877   2.499  0.00  0.00    -0.078 A 
ATOM      4  C2  OXE d   1       4.785   5.670   1.816  0.00  0.00    -0.078 A 
ATOM      5  C3  OXE d   1       5.988   5.606   2.514  0.00  0.00     0.003 A 
ATOM      6  C4  OXE d   1       5.995   5.597   3.914  0.00  0.00    -0.002 A 
ATOM      7  C5  OXE d   1       4.806   5.767   4.631  0.00  0.00    -0.002 A 
ATOM      8  C6  OXE d   1       3.613   5.951   3.940  0.00  0.00     0.003 A 
ENDROOT
TORSDOF 0
ENDMDL
