MODEL 1
REMARK minimizedAffinity -2.23187232
REMARK minimizedRMSD -1
REMARK  0 active torsions:
REMARK  status: ('A' for Active; 'I' for Inactive)
ROOT
ATOM      1  C2' OXE d   1       3.059   2.235  -5.652  0.00  0.00     0.078 C 
ATOM      2  C1' OXE d   1       0.423   1.299  -5.884  0.00  0.00     0.078 C 
ATOM      3  C1  OXE d   1       1.099   1.171  -4.542  0.00  0.00    -0.078 A 
ATOM      4  C2  OXE d   1       2.405   1.589  -4.450  0.00  0.00    -0.078 A 
ATOM      5  C3  OXE d   1       3.058   1.544  -3.221  0.00  0.00     0.003 A 
ATOM      6  C4  OXE d   1       2.449   0.936  -2.117  0.00  0.00    -0.002 A 
ATOM      7  C5  OXE d   1       1.134   0.468  -2.200  0.00  0.00    -0.002 A 
ATOM      8  C6  OXE d   1       0.431   0.616  -3.391  0.00  0.00     0.003 A 
ENDROOT
TORSDOF 0
ENDMDL
