MODEL 1
REMARK minimizedAffinity -0.871263504
REMARK minimizedRMSD -1
REMARK  0 active torsions:
REMARK  status: ('A' for Active; 'I' for Inactive)
ROOT
ATOM      1  C2' OXE d   1       0.192   1.492  -2.971  0.00  0.00     0.078 C 
ATOM      2  C1' OXE d   1       2.469   0.728  -1.519  0.00  0.00     0.078 C 
ATOM      3  C1  OXE d   1       2.675   1.306  -2.896  0.00  0.00    -0.078 A 
ATOM      4  C2  OXE d   1       1.552   1.634  -3.618  0.00  0.00    -0.078 A 
ATOM      5  C3  OXE d   1       1.687   2.223  -4.872  0.00  0.00     0.003 A 
ATOM      6  C4  OXE d   1       2.949   2.342  -5.468  0.00  0.00    -0.002 A 
ATOM      7  C5  OXE d   1       4.103   1.977  -4.765  0.00  0.00    -0.002 A 
ATOM      8  C6  OXE d   1       3.986   1.499  -3.465  0.00  0.00     0.003 A 
ENDROOT
TORSDOF 0
ENDMDL
