MODEL 1
REMARK minimizedAffinity 3.14799547
REMARK minimizedRMSD -1
REMARK  0 active torsions:
REMARK  status: ('A' for Active; 'I' for Inactive)
ROOT
ATOM      1  C2' OXE d   1       3.034   2.349  -5.705  0.00  0.00     0.078 C 
ATOM      2  C1' OXE d   1       0.481   1.202  -5.926  0.00  0.00     0.078 C 
ATOM      3  C1  OXE d   1       1.146   1.182  -4.572  0.00  0.00    -0.078 A 
ATOM      4  C2  OXE d   1       2.414   1.704  -4.484  0.00  0.00    -0.078 A 
ATOM      5  C3  OXE d   1       3.052   1.761  -3.247  0.00  0.00     0.003 A 
ATOM      6  C4  OXE d   1       2.476   1.153  -2.125  0.00  0.00    -0.002 A 
ATOM      7  C5  OXE d   1       1.202   0.581  -2.202  0.00  0.00    -0.002 A 
ATOM      8  C6  OXE d   1       0.507   0.625  -3.406  0.00  0.00     0.003 A 
ENDROOT
TORSDOF 0
ENDMDL
