MODEL 1
REMARK minimizedAffinity 5.60245085
REMARK minimizedRMSD -1
REMARK  0 active torsions:
REMARK  status: ('A' for Active; 'I' for Inactive)
ROOT
ATOM      1  C2' OXE d   1       5.951   4.956   2.354  0.00  0.00     0.078 C 
ATOM      2  C1' OXE d   1       6.000   5.999  -0.252  0.00  0.00     0.078 C 
ATOM      3  C1  OXE d   1       4.654   5.721   0.369  0.00  0.00    -0.078 A 
ATOM      4  C2  OXE d   1       4.640   5.167   1.627  0.00  0.00    -0.078 A 
ATOM      5  C3  OXE d   1       3.425   4.941   2.267  0.00  0.00     0.003 A 
ATOM      6  C4  OXE d   1       2.218   5.129   1.584  0.00  0.00    -0.002 A 
ATOM      7  C5  OXE d   1       2.210   5.655   0.288  0.00  0.00    -0.002 A 
ATOM      8  C6  OXE d   1       3.416   5.995  -0.317  0.00  0.00     0.003 A 
ENDROOT
TORSDOF 0
ENDMDL
