MODEL 1
REMARK minimizedAffinity -1.09482312
REMARK minimizedRMSD -1
REMARK  0 active torsions:
REMARK  status: ('A' for Active; 'I' for Inactive)
ROOT
ATOM      1  C2' OXE d   1       3.010  -1.249  -1.407  0.00  0.00     0.078 C 
ATOM      2  C1' OXE d   1       0.277  -0.607  -1.425  0.00  0.00     0.078 C 
ATOM      3  C1  OXE d   1       1.212   0.273  -2.218  0.00  0.00    -0.078 A 
ATOM      4  C2  OXE d   1       2.553  -0.022  -2.166  0.00  0.00    -0.078 A 
ATOM      5  C3  OXE d   1       3.452   0.724  -2.923  0.00  0.00     0.003 A 
ATOM      6  C4  OXE d   1       3.023   1.864  -3.613  0.00  0.00    -0.002 A 
ATOM      7  C5  OXE d   1       1.666   2.205  -3.647  0.00  0.00    -0.002 A 
ATOM      8  C6  OXE d   1       0.744   1.397  -2.991  0.00  0.00     0.003 A 
ENDROOT
TORSDOF 0
ENDMDL
