MODEL 1
REMARK minimizedAffinity -2.85648894
REMARK minimizedRMSD -1
REMARK  0 active torsions:
REMARK  status: ('A' for Active; 'I' for Inactive)
ROOT
ATOM      1  C2' OXE d   1       3.337  -0.583  -1.421  0.00  0.00     0.078 C 
ATOM      2  C1' OXE d   1       0.636  -1.346  -1.471  0.00  0.00     0.078 C 
ATOM      3  C1  OXE d   1       0.981   0.050  -1.927  0.00  0.00    -0.078 A 
ATOM      4  C2  OXE d   1       2.299   0.431  -1.854  0.00  0.00    -0.078 A 
ATOM      5  C3  OXE d   1       2.680   1.688  -2.313  0.00  0.00     0.003 A 
ATOM      6  C4  OXE d   1       1.713   2.623  -2.704  0.00  0.00    -0.002 A 
ATOM      7  C5  OXE d   1       0.360   2.269  -2.747  0.00  0.00    -0.002 A 
ATOM      8  C6  OXE d   1      -0.017   0.976  -2.403  0.00  0.00     0.003 A 
ENDROOT
TORSDOF 0
ENDMDL
