MODEL 1
REMARK minimizedAffinity 4.32864237
REMARK minimizedRMSD -1
REMARK  0 active torsions:
REMARK  status: ('A' for Active; 'I' for Inactive)
ROOT
ATOM      1  C2' OXE d   1       0.243   1.875  -5.717  0.00  0.00     0.078 C 
ATOM      2  C1' OXE d   1       0.048   1.489  -2.944  0.00  0.00     0.078 C 
ATOM      3  C1  OXE d   1       1.417   1.739  -3.525  0.00  0.00    -0.078 A 
ATOM      4  C2  OXE d   1       1.509   1.880  -4.888  0.00  0.00    -0.078 A 
ATOM      5  C3  OXE d   1       2.741   2.167  -5.470  0.00  0.00     0.003 A 
ATOM      6  C4  OXE d   1       3.909   2.160  -4.698  0.00  0.00    -0.002 A 
ATOM      7  C5  OXE d   1       3.842   1.979  -3.312  0.00  0.00    -0.002 A 
ATOM      8  C6  OXE d   1       2.602   1.810  -2.706  0.00  0.00     0.003 A 
ENDROOT
TORSDOF 0
ENDMDL
