MODEL 1
REMARK minimizedAffinity -5.40979958
REMARK minimizedRMSD -1
REMARK  0 active torsions:
REMARK  status: ('A' for Active; 'I' for Inactive)
ROOT
ATOM      1  C2' OXE d   1       0.321   1.579  -5.969  0.00  0.00     0.078 C 
ATOM      2  C1' OXE d   1       0.410   1.220  -3.186  0.00  0.00     0.078 C 
ATOM      3  C1  OXE d   1       1.709   1.494  -3.902  0.00  0.00    -0.078 A 
ATOM      4  C2  OXE d   1       1.662   1.622  -5.270  0.00  0.00    -0.078 A 
ATOM      5  C3  OXE d   1       2.823   1.929  -5.974  0.00  0.00     0.003 A 
ATOM      6  C4  OXE d   1       4.062   1.956  -5.321  0.00  0.00    -0.002 A 
ATOM      7  C5  OXE d   1       4.137   1.789  -3.934  0.00  0.00    -0.002 A 
ATOM      8  C6  OXE d   1       2.967   1.600  -3.206  0.00  0.00     0.003 A 
ENDROOT
TORSDOF 0
ENDMDL
