MODEL 1
REMARK minimizedAffinity -1.19723308
REMARK minimizedRMSD -1
REMARK  0 active torsions:
REMARK  status: ('A' for Active; 'I' for Inactive)
ROOT
ATOM      1  C2' OXE d   1      -0.010   0.579  -1.610  0.00  0.00     0.078 C 
ATOM      2  C1' OXE d   1       2.742   0.183  -1.226  0.00  0.00     0.078 C 
ATOM      3  C1  OXE d   1       2.302   0.895  -2.480  0.00  0.00    -0.078 A 
ATOM      4  C2  OXE d   1       0.951   1.043  -2.683  0.00  0.00    -0.078 A 
ATOM      5  C3  OXE d   1       0.493   1.740  -3.797  0.00  0.00     0.003 A 
ATOM      6  C4  OXE d   1       1.389   2.157  -4.789  0.00  0.00    -0.002 A 
ATOM      7  C5  OXE d   1       2.766   1.981  -4.622  0.00  0.00    -0.002 A 
ATOM      8  C6  OXE d   1       3.241   1.391  -3.456  0.00  0.00     0.003 A 
ENDROOT
TORSDOF 0
ENDMDL
