MODEL 1
REMARK minimizedAffinity 2.57917929
REMARK minimizedRMSD -1
REMARK  0 active torsions:
REMARK  status: ('A' for Active; 'I' for Inactive)
ROOT
ATOM      1  C2' OXE d   1      -2.133   0.908   3.268  0.00  0.00     0.078 C 
ATOM      2  C1' OXE d   1      -4.282   2.512   2.439  0.00  0.00     0.078 C 
ATOM      3  C1  OXE d   1      -4.529   1.033   2.600  0.00  0.00    -0.078 A 
ATOM      4  C2  OXE d   1      -3.460   0.249   2.961  0.00  0.00    -0.078 A 
ATOM      5  C3  OXE d   1      -3.646  -1.114   3.177  0.00  0.00     0.003 A 
ATOM      6  C4  OXE d   1      -4.874  -1.717   2.881  0.00  0.00    -0.002 A 
ATOM      7  C5  OXE d   1      -5.966  -0.943   2.474  0.00  0.00    -0.002 A 
ATOM      8  C6  OXE d   1      -5.822   0.436   2.370  0.00  0.00     0.003 A 
ENDROOT
TORSDOF 0
ENDMDL
