MODEL 1
REMARK minimizedAffinity 4.81578302
REMARK minimizedRMSD -1
REMARK  0 active torsions:
REMARK  status: ('A' for Active; 'I' for Inactive)
ROOT
ATOM      1  C2' OXE d   1       2.634   0.998  -1.593  0.00  0.00     0.078 C 
ATOM      2  C1' OXE d   1       0.403   1.369  -3.255  0.00  0.00     0.078 C 
ATOM      3  C1  OXE d   1       1.764   1.688  -3.822  0.00  0.00    -0.078 A 
ATOM      4  C2  OXE d   1       2.845   1.548  -2.986  0.00  0.00    -0.078 A 
ATOM      5  C3  OXE d   1       4.128   1.776  -3.475  0.00  0.00     0.003 A 
ATOM      6  C4  OXE d   1       4.315   2.294  -4.763  0.00  0.00    -0.002 A 
ATOM      7  C5  OXE d   1       3.223   2.482  -5.617  0.00  0.00    -0.002 A 
ATOM      8  C6  OXE d   1       1.948   2.145  -5.178  0.00  0.00     0.003 A 
ENDROOT
TORSDOF 0
ENDMDL
