MODEL 1
REMARK minimizedAffinity 2.17475986
REMARK minimizedRMSD -1
REMARK  0 active torsions:
REMARK  status: ('A' for Active; 'I' for Inactive)
ROOT
ATOM      1  C2' OXE d   1       2.662   5.999   0.878  0.00  0.00     0.078 C 
ATOM      2  C1' OXE d   1       5.082   4.912  -0.041  0.00  0.00     0.078 C 
ATOM      3  C1  OXE d   1       4.948   5.181   1.437  0.00  0.00    -0.078 A 
ATOM      4  C2  OXE d   1       3.778   5.757   1.871  0.00  0.00    -0.078 A 
ATOM      5  C3  OXE d   1       3.581   5.976   3.232  0.00  0.00     0.003 A 
ATOM      6  C4  OXE d   1       4.622   5.759   4.143  0.00  0.00    -0.002 A 
ATOM      7  C5  OXE d   1       5.836   5.210   3.716  0.00  0.00    -0.002 A 
ATOM      8  C6  OXE d   1       5.999   4.877   2.376  0.00  0.00     0.003 A 
ENDROOT
TORSDOF 0
ENDMDL
