MODEL 1
REMARK minimizedAffinity 5.20769978
REMARK minimizedRMSD -1
REMARK  0 active torsions:
REMARK  status: ('A' for Active; 'I' for Inactive)
ROOT
ATOM      1  C2' OXE d   1       5.049   5.254  -0.131  0.00  0.00     0.078 C 
ATOM      2  C1' OXE d   1       2.553   5.985   0.926  0.00  0.00     0.078 C 
ATOM      3  C1  OXE d   1       3.694   5.781   1.892  0.00  0.00    -0.078 A 
ATOM      4  C2  OXE d   1       4.900   5.378   1.370  0.00  0.00    -0.078 A 
ATOM      5  C3  OXE d   1       5.999   5.229   2.211  0.00  0.00     0.003 A 
ATOM      6  C4  OXE d   1       5.850   5.336   3.599  0.00  0.00    -0.002 A 
ATOM      7  C5  OXE d   1       4.621   5.706   4.154  0.00  0.00    -0.002 A 
ATOM      8  C6  OXE d   1       3.546   5.974   3.313  0.00  0.00     0.003 A 
ENDROOT
TORSDOF 0
ENDMDL
