MODEL 1
REMARK minimizedAffinity -5.69473839
REMARK minimizedRMSD -1
REMARK  0 active torsions:
REMARK  status: ('A' for Active; 'I' for Inactive)
ROOT
ATOM      1  C2' OXE d   1       1.934   0.848  -1.929  0.00  0.00     0.078 C 
ATOM      2  C1' OXE d   1       4.061   2.270  -3.083  0.00  0.00     0.078 C 
ATOM      3  C1  OXE d   1       2.825   2.052  -3.919  0.00  0.00    -0.078 A 
ATOM      4  C2  OXE d   1       1.807   1.315  -3.363  0.00  0.00    -0.078 A 
ATOM      5  C3  OXE d   1       0.623   1.131  -4.071  0.00  0.00     0.003 A 
ATOM      6  C4  OXE d   1       0.518   1.558  -5.400  0.00  0.00    -0.002 A 
ATOM      7  C5  OXE d   1       1.558   2.276  -5.999  0.00  0.00    -0.002 A 
ATOM      8  C6  OXE d   1       2.699   2.568  -5.260  0.00  0.00     0.003 A 
ENDROOT
TORSDOF 0
ENDMDL
