MODEL 1
REMARK minimizedAffinity 0.389668524
REMARK minimizedRMSD -1
REMARK  0 active torsions:
REMARK  status: ('A' for Active; 'I' for Inactive)
ROOT
ATOM      1  C2' OXE d   1       0.459   1.129  -6.000  0.00  0.00     0.078 C 
ATOM      2  C1' OXE d   1       2.957   2.409  -5.993  0.00  0.00     0.078 C 
ATOM      3  C1  OXE d   1       2.459   1.831  -4.692  0.00  0.00    -0.078 A 
ATOM      4  C2  OXE d   1       1.215   1.248  -4.694  0.00  0.00    -0.078 A 
ATOM      5  C3  OXE d   1       0.731   0.652  -3.533  0.00  0.00     0.003 A 
ATOM      6  C4  OXE d   1       1.433   0.775  -2.328  0.00  0.00    -0.002 A 
ATOM      7  C5  OXE d   1       2.684   1.400  -2.295  0.00  0.00    -0.002 A 
ATOM      8  C6  OXE d   1       3.229   1.895  -3.474  0.00  0.00     0.003 A 
ENDROOT
TORSDOF 0
ENDMDL
