MODEL 1
REMARK minimizedAffinity -5.37763453
REMARK minimizedRMSD -1
REMARK  0 active torsions:
REMARK  status: ('A' for Active; 'I' for Inactive)
ROOT
ATOM      1  C2' OXE d   1       2.330  -1.073  -1.283  0.00  0.00     0.078 C 
ATOM      2  C1' OXE d   1       0.103  -1.838   0.246  0.00  0.00     0.078 C 
ATOM      3  C1  OXE d   1       0.221  -0.387  -0.147  0.00  0.00    -0.078 A 
ATOM      4  C2  OXE d   1       1.338  -0.013  -0.856  0.00  0.00    -0.078 A 
ATOM      5  C3  OXE d   1       1.470   1.303  -1.291  0.00  0.00     0.003 A 
ATOM      6  C4  OXE d   1       0.553   2.279  -0.883  0.00  0.00    -0.002 A 
ATOM      7  C5  OXE d   1      -0.571   1.927  -0.128  0.00  0.00    -0.002 A 
ATOM      8  C6  OXE d   1      -0.773   0.594   0.211  0.00  0.00     0.003 A 
ENDROOT
TORSDOF 0
ENDMDL
