MODEL 1
REMARK minimizedAffinity 10.8988953
REMARK minimizedRMSD -1
REMARK  0 active torsions:
REMARK  status: ('A' for Active; 'I' for Inactive)
ROOT
ATOM      1  C   UNL d   1       1.055  -3.402  -2.113  0.00  0.00    -0.002 A 
ATOM      2  C1  UNL d   1       2.333  -2.921  -2.361  0.00  0.00     0.010 A 
ATOM      3  C2  UNL d   1       2.894  -1.940  -1.542  0.00  0.00     0.041 A 
ATOM      4  C3  UNL d   1       2.143  -1.447  -0.457  0.00  0.00    -0.075 A 
ATOM      5  S   UNL d   1       2.626  -0.245   0.681  0.00  0.00     0.015 SA
ATOM      6  C4  UNL d   1       1.148  -0.343   1.525  0.00  0.00     0.022 A 
ATOM      7  C5  UNL d   1       0.295  -1.265   0.965  0.00  0.00     0.026 A 
ATOM      8  C6  UNL d   1       0.855  -1.916  -0.186  0.00  0.00    -0.082 A 
ATOM      9  C7  UNL d   1       0.313  -2.911  -1.036  0.00  0.00     0.045 A 
ENDROOT
TORSDOF 0
ENDMDL
