MODEL 1
REMARK minimizedAffinity 9.34680367
REMARK minimizedRMSD -1
REMARK  0 active torsions:
REMARK  status: ('A' for Active; 'I' for Inactive)
ROOT
ATOM      1  C   UNL d   1       1.640  -1.708   4.105  0.00  0.00    -0.002 A 
ATOM      2  C1  UNL d   1       2.050  -0.454   3.676  0.00  0.00     0.010 A 
ATOM      3  C2  UNL d   1       1.930  -0.088   2.334  0.00  0.00     0.041 A 
ATOM      4  C3  UNL d   1       1.383  -1.012   1.422  0.00  0.00    -0.075 A 
ATOM      5  S   UNL d   1       1.139  -0.783  -0.269  0.00  0.00     0.015 SA
ATOM      6  C4  UNL d   1       0.484  -2.344  -0.462  0.00  0.00     0.022 A 
ATOM      7  C5  UNL d   1       0.445  -3.037   0.725  0.00  0.00     0.026 A 
ATOM      8  C6  UNL d   1       0.962  -2.281   1.830  0.00  0.00    -0.082 A 
ATOM      9  C7  UNL d   1       1.098  -2.622   3.197  0.00  0.00     0.045 A 
ENDROOT
TORSDOF 0
ENDMDL
