MODEL 1
REMARK minimizedAffinity 6.51290751
REMARK minimizedRMSD -1
REMARK  0 active torsions:
REMARK  status: ('A' for Active; 'I' for Inactive)
ROOT
ATOM      1  C   UNL d   1      -6.000   2.627  -2.586  0.00  0.00    -0.002 A 
ATOM      2  C1  UNL d   1      -5.998   1.259  -2.354  0.00  0.00     0.010 A 
ATOM      3  C2  UNL d   1      -5.812   0.757  -1.065  0.00  0.00     0.041 A 
ATOM      4  C3  UNL d   1      -5.628   1.662  -0.001  0.00  0.00    -0.075 A 
ATOM      5  S   UNL d   1      -5.383   1.276   1.661  0.00  0.00     0.015 SA
ATOM      6  C4  UNL d   1      -5.275   2.919   2.104  0.00  0.00     0.022 A 
ATOM      7  C5  UNL d   1      -5.420   3.754   1.022  0.00  0.00     0.026 A 
ATOM      8  C6  UNL d   1      -5.626   3.044  -0.209  0.00  0.00    -0.082 A 
ATOM      9  C7  UNL d   1      -5.817   3.522  -1.528  0.00  0.00     0.045 A 
ENDROOT
TORSDOF 0
ENDMDL
