MODEL 1
REMARK minimizedAffinity 8.92758465
REMARK minimizedRMSD -1
REMARK  0 active torsions:
REMARK  status: ('A' for Active; 'I' for Inactive)
ROOT
ATOM      1  C   UNL d   1      -5.917   1.686   0.790  0.00  0.00    -0.002 A 
ATOM      2  C1  UNL d   1      -4.896   2.524   1.217  0.00  0.00     0.010 A 
ATOM      3  C2  UNL d   1      -3.936   2.990   0.316  0.00  0.00     0.041 A 
ATOM      4  C3  UNL d   1      -4.021   2.597  -1.034  0.00  0.00    -0.075 A 
ATOM      5  S   UNL d   1      -2.958   3.044  -2.315  0.00  0.00     0.015 SA
ATOM      6  C4  UNL d   1      -3.834   2.134  -3.460  0.00  0.00     0.022 A 
ATOM      7  C5  UNL d   1      -4.914   1.498  -2.895  0.00  0.00     0.026 A 
ATOM      8  C6  UNL d   1      -5.040   1.755  -1.488  0.00  0.00    -0.082 A 
ATOM      9  C7  UNL d   1      -5.998   1.299  -0.550  0.00  0.00     0.045 A 
ENDROOT
TORSDOF 0
ENDMDL
