MODEL 1
REMARK minimizedAffinity -0.912564516
REMARK minimizedRMSD -1
REMARK  0 active torsions:
REMARK  status: ('A' for Active; 'I' for Inactive)
ROOT
ATOM      1  C   UNL d   1       0.721  -0.675   2.613  0.00  0.00     0.078 C 
ATOM      2  C1  UNL d   1       1.123  -1.711   1.606  0.00  0.00    -0.077 A 
ATOM      3  C2  UNL d   1       0.276  -2.783   1.297  0.00  0.00    -0.001 A 
ATOM      4  C3  UNL d   1       0.668  -3.746   0.366  0.00  0.00     0.003 A 
ATOM      5  C4  UNL d   1       1.907  -3.647  -0.264  0.00  0.00    -0.005 A 
ATOM      6  C5  UNL d   1       2.757  -2.586   0.039  0.00  0.00     0.003 A 
ATOM      7  C6  UNL d   1       2.367  -1.622   0.971  0.00  0.00    -0.001 A 
ENDROOT
TORSDOF 0
ENDMDL
