MODEL 1
REMARK minimizedAffinity -1.12968767
REMARK minimizedRMSD -1
REMARK  0 active torsions:
REMARK  status: ('A' for Active; 'I' for Inactive)
ROOT
ATOM      1  C   UNL d   1       2.408   0.134  -0.892  0.00  0.00     0.078 C 
ATOM      2  C1  UNL d   1       1.481  -0.282   0.212  0.00  0.00    -0.077 A 
ATOM      3  C2  UNL d   1       1.828  -0.091   1.555  0.00  0.00    -0.001 A 
ATOM      4  C3  UNL d   1       0.960  -0.492   2.572  0.00  0.00     0.003 A 
ATOM      5  C4  UNL d   1      -0.260  -1.088   2.256  0.00  0.00    -0.005 A 
ATOM      6  C5  UNL d   1      -0.612  -1.283   0.923  0.00  0.00     0.003 A 
ATOM      7  C6  UNL d   1       0.254  -0.883  -0.096  0.00  0.00    -0.001 A 
ENDROOT
TORSDOF 0
ENDMDL
