MODEL 1
REMARK minimizedAffinity -1.58729374
REMARK minimizedRMSD -1
REMARK  0 active torsions:
REMARK  status: ('A' for Active; 'I' for Inactive)
ROOT
ATOM      1  C   UNL d   1       2.891  -3.931  -0.241  0.00  0.00     0.078 C 
ATOM      2  C1  UNL d   1       1.965  -2.806   0.112  0.00  0.00    -0.077 A 
ATOM      3  C2  UNL d   1       2.422  -1.483   0.160  0.00  0.00    -0.001 A 
ATOM      4  C3  UNL d   1       1.550  -0.447   0.500  0.00  0.00     0.003 A 
ATOM      5  C4  UNL d   1       0.217  -0.723   0.796  0.00  0.00    -0.005 A 
ATOM      6  C5  UNL d   1      -0.246  -2.037   0.753  0.00  0.00     0.003 A 
ATOM      7  C6  UNL d   1       0.623  -3.074   0.413  0.00  0.00    -0.001 A 
ENDROOT
TORSDOF 0
ENDMDL
