MODEL 1
REMARK minimizedAffinity 0.615129828
REMARK minimizedRMSD -1
REMARK  0 active torsions:
REMARK  status: ('A' for Active; 'I' for Inactive)
ROOT
ATOM      1  C   UNL d   1       3.378  -4.275   0.278  0.00  0.00     0.078 C 
ATOM      2  C1  UNL d   1       2.052  -3.584   0.173  0.00  0.00    -0.077 A 
ATOM      3  C2  UNL d   1       1.046  -4.077  -0.666  0.00  0.00    -0.001 A 
ATOM      4  C3  UNL d   1      -0.181  -3.417  -0.762  0.00  0.00     0.003 A 
ATOM      5  C4  UNL d   1      -0.413  -2.260  -0.021  0.00  0.00    -0.005 A 
ATOM      6  C5  UNL d   1       0.583  -1.761   0.816  0.00  0.00     0.003 A 
ATOM      7  C6  UNL d   1       1.810  -2.419   0.913  0.00  0.00    -0.001 A 
ENDROOT
TORSDOF 0
ENDMDL
