MODEL 1
REMARK minimizedAffinity -2.6191113
REMARK minimizedRMSD -1
REMARK  0 active torsions:
REMARK  status: ('A' for Active; 'I' for Inactive)
ROOT
ATOM      1  C   UNL d   1       1.557  -3.988   0.305  0.00  0.00     0.078 C 
ATOM      2  C1  UNL d   1       0.937  -2.646   0.558  0.00  0.00    -0.077 A 
ATOM      3  C2  UNL d   1      -0.453  -2.479   0.535  0.00  0.00    -0.001 A 
ATOM      4  C3  UNL d   1      -1.016  -1.222   0.762  0.00  0.00     0.003 A 
ATOM      5  C4  UNL d   1      -0.197  -0.123   1.013  0.00  0.00    -0.005 A 
ATOM      6  C5  UNL d   1       1.188  -0.280   1.035  0.00  0.00     0.003 A 
ATOM      7  C6  UNL d   1       1.753  -1.536   0.808  0.00  0.00    -0.001 A 
ENDROOT
TORSDOF 0
ENDMDL
