MODEL 1
REMARK minimizedAffinity -1.06813955
REMARK minimizedRMSD -1
REMARK  0 active torsions:
REMARK  status: ('A' for Active; 'I' for Inactive)
ROOT
ATOM      1  C   UNL d   1       1.616  -4.058   0.378  0.00  0.00     0.078 C 
ATOM      2  C1  UNL d   1       1.354  -2.620   0.715  0.00  0.00    -0.077 A 
ATOM      3  C2  UNL d   1       2.410  -1.727   0.935  0.00  0.00    -0.001 A 
ATOM      4  C3  UNL d   1       2.151  -0.394   1.257  0.00  0.00     0.003 A 
ATOM      5  C4  UNL d   1       0.837   0.058   1.365  0.00  0.00    -0.005 A 
ATOM      6  C5  UNL d   1      -0.220  -0.825   1.151  0.00  0.00     0.003 A 
ATOM      7  C6  UNL d   1       0.037  -2.158   0.828  0.00  0.00    -0.001 A 
ENDROOT
TORSDOF 0
ENDMDL
