MODEL 1
REMARK minimizedAffinity 2.11992764
REMARK minimizedRMSD -1
REMARK  0 active torsions:
REMARK  status: ('A' for Active; 'I' for Inactive)
ROOT
ATOM      1  C   UNL d   1       2.250  -2.624  -0.023  0.00  0.00     0.078 C 
ATOM      2  C1  UNL d   1       3.284  -3.709  -0.067  0.00  0.00    -0.077 A 
ATOM      3  C2  UNL d   1       4.547  -3.479  -0.625  0.00  0.00    -0.001 A 
ATOM      4  C3  UNL d   1       5.497  -4.501  -0.669  0.00  0.00     0.003 A 
ATOM      5  C4  UNL d   1       5.193  -5.761  -0.157  0.00  0.00    -0.005 A 
ATOM      6  C5  UNL d   1       3.937  -6.000   0.398  0.00  0.00     0.003 A 
ATOM      7  C6  UNL d   1       2.987  -4.979   0.443  0.00  0.00    -0.001 A 
ENDROOT
TORSDOF 0
ENDMDL
