MODEL 1
REMARK minimizedAffinity -3.63169074
REMARK minimizedRMSD -1
REMARK  0 active torsions:
REMARK  status: ('A' for Active; 'I' for Inactive)
ROOT
ATOM      1  C   UNL d   1       3.821  -4.149   0.006  0.00  0.00     0.078 C 
ATOM      2  C1  UNL d   1       2.684  -3.180   0.134  0.00  0.00    -0.077 A 
ATOM      3  C2  UNL d   1       2.917  -1.804   0.242  0.00  0.00    -0.001 A 
ATOM      4  C3  UNL d   1       1.849  -0.914   0.370  0.00  0.00     0.003 A 
ATOM      5  C4  UNL d   1       0.540  -1.392   0.394  0.00  0.00    -0.005 A 
ATOM      6  C5  UNL d   1       0.298  -2.760   0.290  0.00  0.00     0.003 A 
ATOM      7  C6  UNL d   1       1.365  -3.651   0.161  0.00  0.00    -0.001 A 
ENDROOT
TORSDOF 0
ENDMDL
