MODEL 1
REMARK minimizedAffinity -4.56414604
REMARK minimizedRMSD -1
REMARK  0 active torsions:
REMARK  status: ('A' for Active; 'I' for Inactive)
ROOT
ATOM      1  C   UNL d   1       2.163  -3.874  -0.135  0.00  0.00     0.078 C 
ATOM      2  C1  UNL d   1       1.452  -2.621   0.281  0.00  0.00    -0.077 A 
ATOM      3  C2  UNL d   1       2.100  -1.381   0.253  0.00  0.00    -0.001 A 
ATOM      4  C3  UNL d   1       1.428  -0.224   0.652  0.00  0.00     0.003 A 
ATOM      5  C4  UNL d   1       0.105  -0.297   1.083  0.00  0.00    -0.005 A 
ATOM      6  C5  UNL d   1      -0.548  -1.528   1.116  0.00  0.00     0.003 A 
ATOM      7  C6  UNL d   1       0.122  -2.685   0.717  0.00  0.00    -0.001 A 
ENDROOT
TORSDOF 0
ENDMDL
