MODEL 1
REMARK minimizedAffinity -3.91104746
REMARK minimizedRMSD -1
REMARK  0 active torsions:
REMARK  status: ('A' for Active; 'I' for Inactive)
ROOT
ATOM      1  C   UNL d   1      -0.766  -1.090   0.726  0.00  0.00     0.078 C 
ATOM      2  C1  UNL d   1       0.522  -1.827   0.510  0.00  0.00    -0.077 A 
ATOM      3  C2  UNL d   1       0.527  -3.179   0.146  0.00  0.00    -0.001 A 
ATOM      4  C3  UNL d   1       1.734  -3.854  -0.044  0.00  0.00     0.003 A 
ATOM      5  C4  UNL d   1       2.944  -3.186   0.130  0.00  0.00    -0.005 A 
ATOM      6  C5  UNL d   1       2.949  -1.841   0.494  0.00  0.00     0.003 A 
ATOM      7  C6  UNL d   1       1.743  -1.164   0.684  0.00  0.00    -0.001 A 
ENDROOT
TORSDOF 0
ENDMDL
