MODEL 1
REMARK minimizedAffinity -0.465001196
REMARK minimizedRMSD -1
REMARK  0 active torsions:
REMARK  status: ('A' for Active; 'I' for Inactive)
ROOT
ATOM      1  C   UNL d   1       3.996  -4.977  -0.256  0.00  0.00     0.078 C 
ATOM      2  C1  UNL d   1       2.980  -3.887  -0.084  0.00  0.00    -0.077 A 
ATOM      3  C2  UNL d   1       3.373  -2.552   0.070  0.00  0.00    -0.001 A 
ATOM      4  C3  UNL d   1       2.417  -1.550   0.238  0.00  0.00     0.003 A 
ATOM      5  C4  UNL d   1       1.061  -1.872   0.256  0.00  0.00    -0.005 A 
ATOM      6  C5  UNL d   1       0.660  -3.198   0.106  0.00  0.00     0.003 A 
ATOM      7  C6  UNL d   1       1.615  -4.202  -0.063  0.00  0.00    -0.001 A 
ENDROOT
TORSDOF 0
ENDMDL
