MODEL 1
REMARK minimizedAffinity -3.1516819
REMARK minimizedRMSD -1
REMARK  0 active torsions:
REMARK  status: ('A' for Active; 'I' for Inactive)
ROOT
ATOM      1  C   UNL d   1      -0.641  -0.784   1.093  0.00  0.00     0.078 C 
ATOM      2  C1  UNL d   1       0.506  -1.648   0.659  0.00  0.00    -0.077 A 
ATOM      3  C2  UNL d   1       0.359  -3.035   0.541  0.00  0.00    -0.001 A 
ATOM      4  C3  UNL d   1       1.438  -3.828   0.146  0.00  0.00     0.003 A 
ATOM      5  C4  UNL d   1       2.671  -3.242  -0.134  0.00  0.00    -0.005 A 
ATOM      6  C5  UNL d   1       2.827  -1.863  -0.018  0.00  0.00     0.003 A 
ATOM      7  C6  UNL d   1       1.749  -1.068   0.378  0.00  0.00    -0.001 A 
ENDROOT
TORSDOF 0
ENDMDL
