MODEL 1
REMARK minimizedAffinity 4.44507408
REMARK minimizedRMSD -1
REMARK  0 active torsions:
REMARK  status: ('A' for Active; 'I' for Inactive)
ROOT
ATOM      1  C   UNL d   1      -1.875   4.106   1.126  0.00  0.00     0.078 C 
ATOM      2  C1  UNL d   1      -2.266   2.661   1.038  0.00  0.00    -0.077 A 
ATOM      3  C2  UNL d   1      -1.681   1.703   1.875  0.00  0.00    -0.001 A 
ATOM      4  C3  UNL d   1      -2.048   0.360   1.776  0.00  0.00     0.003 A 
ATOM      5  C4  UNL d   1      -3.000  -0.038   0.839  0.00  0.00    -0.005 A 
ATOM      6  C5  UNL d   1      -3.586   0.908   0.000  0.00  0.00     0.003 A 
ATOM      7  C6  UNL d   1      -3.220   2.251   0.098  0.00  0.00    -0.001 A 
ENDROOT
TORSDOF 0
ENDMDL
