MODEL 1
REMARK minimizedAffinity -2.93544388
REMARK minimizedRMSD -1
REMARK  0 active torsions:
REMARK  status: ('A' for Active; 'I' for Inactive)
ROOT
ATOM      1  C   UNL d   1       3.170  -0.720  -0.455  0.00  0.00     0.078 C 
ATOM      2  C1  UNL d   1       1.780  -1.088  -0.029  0.00  0.00    -0.077 A 
ATOM      3  C2  UNL d   1       0.936  -0.145   0.570  0.00  0.00    -0.001 A 
ATOM      4  C3  UNL d   1      -0.352  -0.504   0.970  0.00  0.00     0.003 A 
ATOM      5  C4  UNL d   1      -0.807  -1.806   0.778  0.00  0.00    -0.005 A 
ATOM      6  C5  UNL d   1       0.026  -2.753   0.185  0.00  0.00     0.003 A 
ATOM      7  C6  UNL d   1       1.315  -2.396  -0.216  0.00  0.00    -0.001 A 
ENDROOT
TORSDOF 0
ENDMDL
