MODEL 1
REMARK minimizedAffinity 0.887943745
REMARK minimizedRMSD -1
REMARK  0 active torsions:
REMARK  status: ('A' for Active; 'I' for Inactive)
ROOT
ATOM      1  C   UNL d   1       2.732  -0.102   1.155  0.00  0.00     0.078 C 
ATOM      2  C1  UNL d   1       1.570  -1.006   0.871  0.00  0.00    -0.077 A 
ATOM      3  C2  UNL d   1       1.745  -2.390   0.748  0.00  0.00    -0.001 A 
ATOM      4  C3  UNL d   1       0.656  -3.218   0.474  0.00  0.00     0.003 A 
ATOM      5  C4  UNL d   1      -0.617  -2.672   0.320  0.00  0.00    -0.005 A 
ATOM      6  C5  UNL d   1      -0.801  -1.296   0.439  0.00  0.00     0.003 A 
ATOM      7  C6  UNL d   1       0.287  -0.466   0.712  0.00  0.00    -0.001 A 
ENDROOT
TORSDOF 0
ENDMDL
