MODEL 1
REMARK minimizedAffinity 4.05124283
REMARK minimizedRMSD -1
REMARK  1 active torsions:
REMARK  status: ('A' for Active; 'I' for Inactive)
REMARK    1  A    between atoms: N_2  and  C1_3 
ROOT
ATOM      1  C1  UNL d   1      -1.523  -0.882   3.237  0.00  0.00     0.143 A 
ATOM      2  C2  UNL d   1      -1.225  -1.710   2.149  0.00  0.00    -0.057 A 
ATOM      3  C3  UNL d   1      -0.486  -1.236   1.057  0.00  0.00     0.033 A 
ATOM      4  C4  UNL d   1      -0.056   0.086   1.022  0.00  0.00    -0.042 A 
ATOM      5  C5  UNL d   1      -0.363   0.934   2.081  0.00  0.00     0.033 A 
ATOM      6  C6  UNL d   1      -1.095   0.453   3.171  0.00  0.00    -0.057 A 
ENDROOT
BRANCH   1   7
ATOM      7  N   UNL d   1      -2.337  -1.266   4.305  0.00  0.00    -0.732 N 
ATOM      8  C   UNL d   1      -3.743  -0.923   4.322  0.00  0.00     0.284 C 
ATOM      9  H3  UNL d   1      -2.136  -2.210   4.628  0.00  0.00     0.395 HD
ENDBRANCH   1   7
TORSDOF 1
ENDMDL
