MODEL 1
REMARK minimizedAffinity 7.46586895
REMARK minimizedRMSD -1
REMARK  1 active torsions:
REMARK  status: ('A' for Active; 'I' for Inactive)
REMARK    1  A    between atoms: N_2  and  C1_3 
ROOT
ATOM      1  C1  UNL d   1      -1.687  -1.075  -2.994  0.00  0.00     0.143 A 
ATOM      2  C2  UNL d   1      -0.728  -1.430  -3.949  0.00  0.00    -0.057 A 
ATOM      3  C3  UNL d   1      -0.711  -2.709  -4.520  0.00  0.00     0.033 A 
ATOM      4  C4  UNL d   1      -1.638  -3.667  -4.124  0.00  0.00    -0.042 A 
ATOM      5  C5  UNL d   1      -2.585  -3.344  -3.158  0.00  0.00     0.033 A 
ATOM      6  C6  UNL d   1      -2.601  -2.064  -2.596  0.00  0.00    -0.057 A 
ENDROOT
BRANCH   1   7
ATOM      7  N   UNL d   1      -1.695   0.147  -2.318  0.00  0.00    -0.732 N 
ATOM      8  C   UNL d   1      -0.757   0.402  -1.246  0.00  0.00     0.284 C 
ATOM      9  H3  UNL d   1      -1.836   0.936  -2.944  0.00  0.00     0.395 HD
ENDBRANCH   1   7
TORSDOF 1
ENDMDL
