MODEL 1
REMARK minimizedAffinity 2.15829253
REMARK minimizedRMSD -1
REMARK  1 active torsions:
REMARK  status: ('A' for Active; 'I' for Inactive)
REMARK    1  A    between atoms: N_2  and  C1_3 
ROOT
ATOM      1  C1  UNL d   1      -1.448  -5.924   1.635  0.00  0.00     0.143 A 
ATOM      2  C2  UNL d   1      -1.547  -5.952   3.030  0.00  0.00    -0.057 A 
ATOM      3  C3  UNL d   1      -0.405  -5.975   3.840  0.00  0.00     0.033 A 
ATOM      4  C4  UNL d   1       0.861  -6.000   3.265  0.00  0.00    -0.042 A 
ATOM      5  C5  UNL d   1       0.984  -5.998   1.880  0.00  0.00     0.033 A 
ATOM      6  C6  UNL d   1      -0.160  -5.968   1.077  0.00  0.00    -0.057 A 
ENDROOT
BRANCH   1   7
ATOM      7  N   UNL d   1      -2.546  -6.000   0.775  0.00  0.00    -0.732 N 
ATOM      8  C   UNL d   1      -3.895  -5.996   1.300  0.00  0.00     0.284 C 
ATOM      9  H3  UNL d   1      -2.424  -5.434  -0.062  0.00  0.00     0.395 HD
ENDBRANCH   1   7
TORSDOF 1
ENDMDL
