MODEL 1
REMARK minimizedAffinity 12.1574869
REMARK minimizedRMSD -1
REMARK  1 active torsions:
REMARK  status: ('A' for Active; 'I' for Inactive)
REMARK    1  A    between atoms: N_2  and  C1_3 
ROOT
ATOM      1  C1  UNL d   1      -0.225  -2.476  -2.849  0.00  0.00     0.143 A 
ATOM      2  C2  UNL d   1      -1.224  -2.225  -1.903  0.00  0.00    -0.057 A 
ATOM      3  C3  UNL d   1      -0.986  -1.398  -0.798  0.00  0.00     0.033 A 
ATOM      4  C4  UNL d   1       0.268  -0.829  -0.605  0.00  0.00    -0.042 A 
ATOM      5  C5  UNL d   1       1.284  -1.085  -1.519  0.00  0.00     0.033 A 
ATOM      6  C6  UNL d   1       1.038  -1.907  -2.624  0.00  0.00    -0.057 A 
ENDROOT
BRANCH   1   7
ATOM      7  N   UNL d   1      -0.370  -3.367  -3.915  0.00  0.00    -0.732 N 
ATOM      8  C   UNL d   1      -1.158  -4.572  -3.767  0.00  0.00     0.284 C 
ATOM      9  H3  UNL d   1      -0.503  -2.891  -4.805  0.00  0.00     0.395 HD
ENDBRANCH   1   7
TORSDOF 1
ENDMDL
