MODEL 1
REMARK minimizedAffinity -1.02363217
REMARK minimizedRMSD -1
REMARK  1 active torsions:
REMARK  status: ('A' for Active; 'I' for Inactive)
REMARK    1  A    between atoms: N_2  and  C1_3 
ROOT
ATOM      1  C1  UNL d   1      -3.431  -6.000   2.333  0.00  0.00     0.143 A 
ATOM      2  C2  UNL d   1      -2.714  -5.967   1.133  0.00  0.00    -0.057 A 
ATOM      3  C3  UNL d   1      -1.314  -5.978   1.122  0.00  0.00     0.033 A 
ATOM      4  C4  UNL d   1      -0.604  -5.991   2.318  0.00  0.00    -0.042 A 
ATOM      5  C5  UNL d   1      -1.295  -5.998   3.524  0.00  0.00     0.033 A 
ATOM      6  C6  UNL d   1      -2.694  -5.995   3.528  0.00  0.00    -0.057 A 
ENDROOT
BRANCH   1   7
ATOM      7  N   UNL d   1      -4.821  -5.892   2.412  0.00  0.00    -0.732 N 
ATOM      8  C   UNL d   1      -5.498  -5.997   3.687  0.00  0.00     0.284 C 
ATOM      9  H3  UNL d   1      -5.190  -5.164   1.805  0.00  0.00     0.395 HD
ENDBRANCH   1   7
TORSDOF 1
ENDMDL
