MODEL 1
REMARK minimizedAffinity 1.59487557
REMARK minimizedRMSD -1
REMARK  1 active torsions:
REMARK  status: ('A' for Active; 'I' for Inactive)
REMARK    1  A    between atoms: N_2  and  C1_3 
ROOT
ATOM      1  C1  UNL d   1      -0.280  -5.952   1.264  0.00  0.00     0.143 A 
ATOM      2  C2  UNL d   1       1.116  -5.860   1.271  0.00  0.00    -0.057 A 
ATOM      3  C3  UNL d   1       1.838  -5.864   2.470  0.00  0.00     0.033 A 
ATOM      4  C4  UNL d   1       1.173  -5.930   3.690  0.00  0.00    -0.042 A 
ATOM      5  C5  UNL d   1      -0.216  -5.997   3.708  0.00  0.00     0.033 A 
ATOM      6  C6  UNL d   1      -0.931  -6.000   2.507  0.00  0.00    -0.057 A 
ENDROOT
BRANCH   1   7
ATOM      7  N   UNL d   1      -1.060  -5.854   0.110  0.00  0.00    -0.732 N 
ATOM      8  C   UNL d   1      -2.499  -6.000   0.178  0.00  0.00     0.284 C 
ATOM      9  H3  UNL d   1      -0.747  -5.110  -0.510  0.00  0.00     0.395 HD
ENDBRANCH   1   7
TORSDOF 1
ENDMDL
