MODEL 1
REMARK minimizedAffinity 6.75598049
REMARK minimizedRMSD -1
REMARK  1 active torsions:
REMARK  status: ('A' for Active; 'I' for Inactive)
REMARK    1  A    between atoms: N_2  and  C1_3 
ROOT
ATOM      1  C1  UNL d   1      -4.621  -0.926   3.422  0.00  0.00     0.143 A 
ATOM      2  C2  UNL d   1      -3.275  -0.928   3.806  0.00  0.00    -0.057 A 
ATOM      3  C3  UNL d   1      -2.300  -1.567   3.031  0.00  0.00     0.033 A 
ATOM      4  C4  UNL d   1      -2.659  -2.243   1.869  0.00  0.00    -0.042 A 
ATOM      5  C5  UNL d   1      -3.994  -2.276   1.482  0.00  0.00     0.033 A 
ATOM      6  C6  UNL d   1      -4.962  -1.630   2.256  0.00  0.00    -0.057 A 
ENDROOT
BRANCH   1   7
ATOM      7  N   UNL d   1      -5.651  -0.392   4.200  0.00  0.00    -0.732 N 
ATOM      8  C   UNL d   1      -6.000   1.008   4.101  0.00  0.00     0.284 C 
ATOM      9  H3  UNL d   1      -6.451  -1.017   4.266  0.00  0.00     0.395 HD
ENDBRANCH   1   7
TORSDOF 1
ENDMDL
