MODEL 1
REMARK minimizedAffinity 5.00486231
REMARK minimizedRMSD -1
REMARK  1 active torsions:
REMARK  status: ('A' for Active; 'I' for Inactive)
REMARK    1  A    between atoms: N_2  and  C1_3 
ROOT
ATOM      1  C1  UNL d   1      -6.000   1.086   5.003  0.00  0.00     0.143 A 
ATOM      2  C2  UNL d   1      -5.990   2.463   5.253  0.00  0.00    -0.057 A 
ATOM      3  C3  UNL d   1      -5.999   3.391   4.205  0.00  0.00     0.033 A 
ATOM      4  C4  UNL d   1      -5.988   2.958   2.883  0.00  0.00    -0.042 A 
ATOM      5  C5  UNL d   1      -5.973   1.594   2.611  0.00  0.00     0.033 A 
ATOM      6  C6  UNL d   1      -5.971   0.672   3.662  0.00  0.00    -0.057 A 
ENDROOT
BRANCH   1   7
ATOM      7  N   UNL d   1      -5.892   0.114   6.000  0.00  0.00    -0.732 N 
ATOM      8  C   UNL d   1      -4.790  -0.824   5.999  0.00  0.00     0.284 C 
ATOM      9  H3  UNL d   1      -6.132   0.474   6.921  0.00  0.00     0.395 HD
ENDBRANCH   1   7
TORSDOF 1
ENDMDL
