MODEL 1
REMARK minimizedAffinity 10.3854656
REMARK minimizedRMSD -1
REMARK  1 active torsions:
REMARK  status: ('A' for Active; 'I' for Inactive)
REMARK    1  A    between atoms: N_2  and  C1_3 
ROOT
ATOM      1  C1  UNL d   1       0.050  -0.315   0.798  0.00  0.00     0.143 A 
ATOM      2  C2  UNL d   1      -0.732  -1.222   1.520  0.00  0.00    -0.057 A 
ATOM      3  C3  UNL d   1      -1.414  -0.832   2.679  0.00  0.00     0.033 A 
ATOM      4  C4  UNL d   1      -1.301   0.471   3.154  0.00  0.00    -0.042 A 
ATOM      5  C5  UNL d   1      -0.508   1.383   2.466  0.00  0.00     0.033 A 
ATOM      6  C6  UNL d   1       0.164   0.989   1.306  0.00  0.00    -0.057 A 
ENDROOT
BRANCH   1   7
ATOM      7  N   UNL d   1       0.831  -0.668  -0.306  0.00  0.00    -0.732 N 
ATOM      8  C   UNL d   1       1.931  -1.597  -0.164  0.00  0.00     0.284 C 
ATOM      9  H3  UNL d   1       0.274  -0.807  -1.146  0.00  0.00     0.395 HD
ENDBRANCH   1   7
TORSDOF 1
ENDMDL
