MODEL 1
REMARK minimizedAffinity 8.98267841
REMARK minimizedRMSD -1
REMARK  1 active torsions:
REMARK  status: ('A' for Active; 'I' for Inactive)
REMARK    1  A    between atoms: N_2  and  C1_3 
ROOT
ATOM      1  C1  UNL d   1      -5.640   0.128   5.178  0.00  0.00     0.143 A 
ATOM      2  C2  UNL d   1      -5.616   1.445   5.651  0.00  0.00    -0.057 A 
ATOM      3  C3  UNL d   1      -5.807   2.530   4.787  0.00  0.00     0.033 A 
ATOM      4  C4  UNL d   1      -5.995   2.319   3.426  0.00  0.00    -0.042 A 
ATOM      5  C5  UNL d   1      -5.997   1.020   2.929  0.00  0.00     0.033 A 
ATOM      6  C6  UNL d   1      -5.814  -0.060   3.798  0.00  0.00    -0.057 A 
ENDROOT
BRANCH   1   7
ATOM      7  N   UNL d   1      -5.359  -0.988   5.970  0.00  0.00    -0.732 N 
ATOM      8  C   UNL d   1      -5.947  -2.274   5.665  0.00  0.00     0.284 C 
ATOM      9  H3  UNL d   1      -4.381  -1.033   6.245  0.00  0.00     0.395 HD
ENDBRANCH   1   7
TORSDOF 1
ENDMDL
