MODEL 1
REMARK minimizedAffinity 8.29930115
REMARK minimizedRMSD -1
REMARK  1 active torsions:
REMARK  status: ('A' for Active; 'I' for Inactive)
REMARK    1  A    between atoms: N_2  and  C1_3 
ROOT
ATOM      1  C1  UNL d   1       1.339  -2.061  -3.581  0.00  0.00     0.143 A 
ATOM      2  C2  UNL d   1       0.218  -1.231  -3.481  0.00  0.00    -0.057 A 
ATOM      3  C3  UNL d   1      -1.038  -1.649  -3.936  0.00  0.00     0.033 A 
ATOM      4  C4  UNL d   1      -1.189  -2.898  -4.528  0.00  0.00    -0.042 A 
ATOM      5  C5  UNL d   1      -0.083  -3.730  -4.661  0.00  0.00     0.033 A 
ATOM      6  C6  UNL d   1       1.167  -3.309  -4.199  0.00  0.00    -0.057 A 
ENDROOT
BRANCH   1   7
ATOM      7  N   UNL d   1       2.634  -1.664  -3.237  0.00  0.00    -0.732 N 
ATOM      8  C   UNL d   1       2.893  -1.012  -1.972  0.00  0.00     0.284 C 
ATOM      9  H3  UNL d   1       3.334  -2.353  -3.501  0.00  0.00     0.395 HD
ENDBRANCH   1   7
TORSDOF 1
ENDMDL
