MODEL 1
REMARK minimizedAffinity -2.56495404
REMARK minimizedRMSD -1
REMARK  0 active torsions:
REMARK  status: ('A' for Active; 'I' for Inactive)
ROOT
ATOM      1  O1  BZF d   1       0.060  -2.630  -0.635  0.00  0.00    -0.204 OA
ATOM      2  C2  BZF d   1      -0.132  -3.012  -1.948  0.00  0.00     0.174 A 
ATOM      3  C3  BZF d   1      -0.369  -1.939  -2.730  0.00  0.00    -0.012 A 
ATOM      4  C3A BZF d   1      -0.231  -0.807  -1.866  0.00  0.00    -0.107 A 
ATOM      5  C4  BZF d   1      -0.332   0.541  -2.061  0.00  0.00     0.055 A 
ATOM      6  C5  BZF d   1      -0.213   1.374  -0.994  0.00  0.00    -0.016 A 
ATOM      7  C6  BZF d   1       0.002   0.893   0.282  0.00  0.00     0.022 A 
ATOM      8  C7  BZF d   1       0.115  -0.435   0.524  0.00  0.00     0.029 A 
ATOM      9  C7A BZF d   1       0.028  -1.277  -0.558  0.00  0.00     0.058 A 
ENDROOT
TORSDOF 0
ENDMDL
