MODEL 1
REMARK minimizedAffinity 6.85310268
REMARK minimizedRMSD -1
REMARK  0 active torsions:
REMARK  status: ('A' for Active; 'I' for Inactive)
ROOT
ATOM      1  O1  BZF d   1       5.339  -0.437  -0.582  0.00  0.00    -0.204 OA
ATOM      2  C2  BZF d   1       4.254  -0.673  -1.403  0.00  0.00     0.174 A 
ATOM      3  C3  BZF d   1       3.140  -0.888  -0.675  0.00  0.00    -0.012 A 
ATOM      4  C3A BZF d   1       3.535  -0.687   0.686  0.00  0.00    -0.107 A 
ATOM      5  C4  BZF d   1       2.867  -0.742   1.876  0.00  0.00     0.055 A 
ATOM      6  C5  BZF d   1       3.561  -0.567   3.031  0.00  0.00    -0.016 A 
ATOM      7  C6  BZF d   1       4.922  -0.341   3.034  0.00  0.00     0.022 A 
ATOM      8  C7  BZF d   1       5.626  -0.272   1.878  0.00  0.00     0.029 A 
ATOM      9  C7A BZF d   1       4.923  -0.416   0.707  0.00  0.00     0.058 A 
ENDROOT
TORSDOF 0
ENDMDL
