MODEL 1
REMARK minimizedAffinity -3.6640985
REMARK minimizedRMSD -1
REMARK  0 active torsions:
REMARK  status: ('A' for Active; 'I' for Inactive)
ROOT
ATOM      1  O1  BZF d   1       1.464   0.228   1.430  0.00  0.00    -0.204 OA
ATOM      2  C2  BZF d   1       1.444  -0.664   0.375  0.00  0.00     0.174 A 
ATOM      3  C3  BZF d   1       0.276  -0.589  -0.294  0.00  0.00    -0.012 A 
ATOM      4  C3A BZF d   1      -0.446   0.478   0.328  0.00  0.00    -0.107 A 
ATOM      5  C4  BZF d   1      -1.668   1.044   0.100  0.00  0.00     0.055 A 
ATOM      6  C5  BZF d   1      -2.109   2.022   0.934  0.00  0.00    -0.016 A 
ATOM      7  C6  BZF d   1      -1.359   2.454   2.008  0.00  0.00     0.022 A 
ATOM      8  C7  BZF d   1      -0.139   1.926   2.272  0.00  0.00     0.029 A 
ATOM      9  C7A BZF d   1       0.324   0.961   1.411  0.00  0.00     0.058 A 
ENDROOT
TORSDOF 0
ENDMDL
