MODEL 1
REMARK minimizedAffinity -4.0817318
REMARK minimizedRMSD -1
REMARK  0 active torsions:
REMARK  status: ('A' for Active; 'I' for Inactive)
ROOT
ATOM      1  O1  BZF d   1       0.943   0.081   1.063  0.00  0.00    -0.204 OA
ATOM      2  C2  BZF d   1       0.877  -0.639  -0.114  0.00  0.00     0.174 A 
ATOM      3  C3  BZF d   1      -0.144  -0.206  -0.882  0.00  0.00    -0.012 A 
ATOM      4  C3A BZF d   1      -0.696   0.912  -0.180  0.00  0.00    -0.107 A 
ATOM      5  C4  BZF d   1      -1.722   1.773  -0.444  0.00  0.00     0.055 A 
ATOM      6  C5  BZF d   1      -2.052   2.712   0.482  0.00  0.00    -0.016 A 
ATOM      7  C6  BZF d   1      -1.381   2.813   1.683  0.00  0.00     0.022 A 
ATOM      8  C7  BZF d   1      -0.353   1.984   1.988  0.00  0.00     0.029 A 
ATOM      9  C7A BZF d   1       0.004   1.057   1.041  0.00  0.00     0.058 A 
ENDROOT
TORSDOF 0
ENDMDL
