MODEL 1
REMARK minimizedAffinity -4.33214617
REMARK minimizedRMSD -1
REMARK  0 active torsions:
REMARK  status: ('A' for Active; 'I' for Inactive)
ROOT
ATOM      1  O1  BZF d   1       0.809   1.392   2.701  0.00  0.00    -0.204 OA
ATOM      2  C2  BZF d   1       1.624   0.298   2.481  0.00  0.00     0.174 A 
ATOM      3  C3  BZF d   1       1.339  -0.281   1.297  0.00  0.00    -0.012 A 
ATOM      4  C3A BZF d   1       0.343   0.555   0.700  0.00  0.00    -0.107 A 
ATOM      5  C4  BZF d   1      -0.329   0.512  -0.488  0.00  0.00     0.055 A 
ATOM      6  C5  BZF d   1      -1.292   1.438  -0.736  0.00  0.00    -0.016 A 
ATOM      7  C6  BZF d   1      -1.612   2.417   0.183  0.00  0.00     0.022 A 
ATOM      8  C7  BZF d   1      -0.969   2.502   1.373  0.00  0.00     0.029 A 
ATOM      9  C7A BZF d   1       0.027   1.588   1.613  0.00  0.00     0.058 A 
ENDROOT
TORSDOF 0
ENDMDL
