MODEL 1
REMARK minimizedAffinity 0.374530852
REMARK minimizedRMSD -1
REMARK  0 active torsions:
REMARK  status: ('A' for Active; 'I' for Inactive)
ROOT
ATOM      1  O1  BZF d   1       2.238  -0.979  -0.114  0.00  0.00    -0.204 OA
ATOM      2  C2  BZF d   1       3.239  -1.021   0.837  0.00  0.00     0.174 A 
ATOM      3  C3  BZF d   1       2.982  -0.158   1.841  0.00  0.00    -0.012 A 
ATOM      4  C3A BZF d   1       1.697   0.395   1.541  0.00  0.00    -0.107 A 
ATOM      5  C4  BZF d   1       0.894   1.301   2.174  0.00  0.00     0.055 A 
ATOM      6  C5  BZF d   1      -0.268   1.681   1.580  0.00  0.00    -0.016 A 
ATOM      7  C6  BZF d   1      -0.655   1.181   0.355  0.00  0.00     0.022 A 
ATOM      8  C7  BZF d   1       0.106   0.276  -0.309  0.00  0.00     0.029 A 
ATOM      9  C7A BZF d   1       1.265  -0.135   0.303  0.00  0.00     0.058 A 
ENDROOT
TORSDOF 0
ENDMDL
