MODEL 1
REMARK minimizedAffinity -2.18425035
REMARK minimizedRMSD -1
REMARK  0 active torsions:
REMARK  status: ('A' for Active; 'I' for Inactive)
ROOT
ATOM      1  O1  BZF d   1       0.448  -1.863  -0.514  0.00  0.00    -0.204 OA
ATOM      2  C2  BZF d   1       1.732  -1.600  -0.077  0.00  0.00     0.174 A 
ATOM      3  C3  BZF d   1       2.418  -2.745   0.111  0.00  0.00    -0.012 A 
ATOM      4  C3A BZF d   1       1.536  -3.787  -0.316  0.00  0.00    -0.107 A 
ATOM      5  C4  BZF d   1       1.652  -5.146  -0.386  0.00  0.00     0.055 A 
ATOM      6  C5  BZF d   1       0.579  -5.881  -0.781  0.00  0.00    -0.016 A 
ATOM      7  C6  BZF d   1      -0.625  -5.291  -1.108  0.00  0.00     0.022 A 
ATOM      8  C7  BZF d   1      -0.786  -3.946  -1.059  0.00  0.00     0.029 A 
ATOM      9  C7A BZF d   1       0.306  -3.199  -0.692  0.00  0.00     0.058 A 
ENDROOT
TORSDOF 0
ENDMDL
