MODEL 1
REMARK minimizedAffinity -3.63401604
REMARK minimizedRMSD -1
REMARK  0 active torsions:
REMARK  status: ('A' for Active; 'I' for Inactive)
ROOT
ATOM      1  O1  BZF d   1       0.757   0.013  -0.385  0.00  0.00    -0.204 OA
ATOM      2  C2  BZF d   1       0.243   0.653  -1.496  0.00  0.00     0.174 A 
ATOM      3  C3  BZF d   1      -0.718   1.531  -1.142  0.00  0.00    -0.012 A 
ATOM      4  C3A BZF d   1      -0.746   1.500   0.288  0.00  0.00    -0.107 A 
ATOM      5  C4  BZF d   1      -1.481   2.166   1.227  0.00  0.00     0.055 A 
ATOM      6  C5  BZF d   1      -1.317   1.852   2.539  0.00  0.00    -0.016 A 
ATOM      7  C6  BZF d   1      -0.431   0.876   2.947  0.00  0.00     0.022 A 
ATOM      8  C7  BZF d   1       0.324   0.193   2.053  0.00  0.00     0.029 A 
ATOM      9  C7A BZF d   1       0.184   0.531   0.729  0.00  0.00     0.058 A 
ENDROOT
TORSDOF 0
ENDMDL
