MODEL 1
REMARK minimizedAffinity -2.8291986
REMARK minimizedRMSD -1
REMARK  0 active torsions:
REMARK  status: ('A' for Active; 'I' for Inactive)
ROOT
ATOM      1  C   UNL d   1       5.606  -2.590   3.357  0.00  0.00     0.078 C 
ATOM      2  C1  UNL d   1       4.146  -2.769   3.651  0.00  0.00    -0.077 A 
ATOM      3  C2  UNL d   1       3.717  -3.612   4.684  0.00  0.00    -0.001 A 
ATOM      4  C3  UNL d   1       2.354  -3.776   4.940  0.00  0.00     0.003 A 
ATOM      5  C4  UNL d   1       1.411  -3.103   4.167  0.00  0.00    -0.005 A 
ATOM      6  C5  UNL d   1       1.828  -2.264   3.136  0.00  0.00     0.003 A 
ATOM      7  C6  UNL d   1       3.190  -2.098   2.879  0.00  0.00    -0.001 A 
ENDROOT
TORSDOF 0
ENDMDL
