MODEL 1
REMARK minimizedAffinity 6.43887091
REMARK minimizedRMSD -1
REMARK  0 active torsions:
REMARK  status: ('A' for Active; 'I' for Inactive)
ROOT
ATOM      1  C   UNL d   1      -2.451   3.347  -0.909  0.00  0.00     0.078 C 
ATOM      2  C1  UNL d   1      -3.501   3.305   0.160  0.00  0.00    -0.077 A 
ATOM      3  C2  UNL d   1      -4.812   3.724  -0.100  0.00  0.00    -0.001 A 
ATOM      4  C3  UNL d   1      -5.777   3.688   0.908  0.00  0.00     0.003 A 
ATOM      5  C4  UNL d   1      -5.442   3.235   2.182  0.00  0.00    -0.005 A 
ATOM      6  C5  UNL d   1      -4.140   2.818   2.451  0.00  0.00     0.003 A 
ATOM      7  C6  UNL d   1      -3.173   2.853   1.445  0.00  0.00    -0.001 A 
ENDROOT
TORSDOF 0
ENDMDL
