MODEL 1
REMARK minimizedAffinity 12.3648739
REMARK minimizedRMSD -1
REMARK  0 active torsions:
REMARK  status: ('A' for Active; 'I' for Inactive)
ROOT
ATOM      1  C   UNL d   1       0.505  -0.043   0.282  0.00  0.00     0.078 C 
ATOM      2  C1  UNL d   1      -0.042   0.083  -1.108  0.00  0.00    -0.077 A 
ATOM      3  C2  UNL d   1      -0.317   1.338  -1.665  0.00  0.00    -0.001 A 
ATOM      4  C3  UNL d   1      -0.836   1.440  -2.956  0.00  0.00     0.003 A 
ATOM      5  C4  UNL d   1      -1.086   0.290  -3.702  0.00  0.00    -0.005 A 
ATOM      6  C5  UNL d   1      -0.818  -0.964  -3.157  0.00  0.00     0.003 A 
ATOM      7  C6  UNL d   1      -0.299  -1.068  -1.865  0.00  0.00    -0.001 A 
ENDROOT
TORSDOF 0
ENDMDL
