MODEL 1
REMARK minimizedAffinity 5.93327665
REMARK minimizedRMSD -1
REMARK  0 active torsions:
REMARK  status: ('A' for Active; 'I' for Inactive)
ROOT
ATOM      1  C   UNL d   1       1.373  -2.864   5.582  0.00  0.00     0.078 C 
ATOM      2  C1  UNL d   1       1.648  -2.198   4.267  0.00  0.00    -0.077 A 
ATOM      3  C2  UNL d   1       2.626  -2.695   3.397  0.00  0.00    -0.001 A 
ATOM      4  C3  UNL d   1       2.878  -2.059   2.181  0.00  0.00     0.003 A 
ATOM      5  C4  UNL d   1       2.157  -0.921   1.824  0.00  0.00    -0.005 A 
ATOM      6  C5  UNL d   1       1.184  -0.417   2.684  0.00  0.00     0.003 A 
ATOM      7  C6  UNL d   1       0.931  -1.052   3.901  0.00  0.00    -0.001 A 
ENDROOT
TORSDOF 0
ENDMDL
