MODEL 1
REMARK minimizedAffinity 9.50632763
REMARK minimizedRMSD -1
REMARK  0 active torsions:
REMARK  status: ('A' for Active; 'I' for Inactive)
ROOT
ATOM      1  C   UNL d   1      -1.790   4.300  -1.104  0.00  0.00     0.078 C 
ATOM      2  C1  UNL d   1      -2.907   4.019  -0.144  0.00  0.00    -0.077 A 
ATOM      3  C2  UNL d   1      -2.746   3.100   0.901  0.00  0.00    -0.001 A 
ATOM      4  C3  UNL d   1      -3.798   2.841   1.781  0.00  0.00     0.003 A 
ATOM      5  C4  UNL d   1      -5.018   3.495   1.625  0.00  0.00    -0.005 A 
ATOM      6  C5  UNL d   1      -5.189   4.409   0.587  0.00  0.00     0.003 A 
ATOM      7  C6  UNL d   1      -4.138   4.669  -0.294  0.00  0.00    -0.001 A 
ENDROOT
TORSDOF 0
ENDMDL
