MODEL 1
REMARK minimizedAffinity 6.29282093
REMARK minimizedRMSD -1
REMARK  0 active torsions:
REMARK  status: ('A' for Active; 'I' for Inactive)
ROOT
ATOM      1  C   UNL d   1       5.264  -2.216   4.753  0.00  0.00     0.078 C 
ATOM      2  C1  UNL d   1       3.827  -2.313   4.336  0.00  0.00    -0.077 A 
ATOM      3  C2  UNL d   1       3.080  -3.471   4.583  0.00  0.00    -0.001 A 
ATOM      4  C3  UNL d   1       1.746  -3.550   4.180  0.00  0.00     0.003 A 
ATOM      5  C4  UNL d   1       1.148  -2.475   3.526  0.00  0.00    -0.005 A 
ATOM      6  C5  UNL d   1       1.884  -1.319   3.274  0.00  0.00     0.003 A 
ATOM      7  C6  UNL d   1       3.218  -1.238   3.676  0.00  0.00    -0.001 A 
ENDROOT
TORSDOF 0
ENDMDL
