MODEL 1
REMARK minimizedAffinity 0.700646639
REMARK minimizedRMSD -1
REMARK  0 active torsions:
REMARK  status: ('A' for Active; 'I' for Inactive)
ROOT
ATOM      1  C   UNL d   1       2.299  -1.412   3.417  0.00  0.00     0.078 C 
ATOM      2  C1  UNL d   1       3.582  -1.837   4.066  0.00  0.00    -0.077 A 
ATOM      3  C2  UNL d   1       3.614  -2.241   5.406  0.00  0.00    -0.001 A 
ATOM      4  C3  UNL d   1       4.817  -2.625   6.000  0.00  0.00     0.003 A 
ATOM      5  C4  UNL d   1       5.999  -2.607   5.261  0.00  0.00    -0.005 A 
ATOM      6  C5  UNL d   1       5.978  -2.204   3.928  0.00  0.00     0.003 A 
ATOM      7  C6  UNL d   1       4.775  -1.820   3.332  0.00  0.00    -0.001 A 
ENDROOT
TORSDOF 0
ENDMDL
