MODEL 1
REMARK minimizedAffinity 1.52994776
REMARK minimizedRMSD -1
REMARK  0 active torsions:
REMARK  status: ('A' for Active; 'I' for Inactive)
ROOT
ATOM      1  C   UNL d   1       1.866  -2.087   3.305  0.00  0.00     0.078 C 
ATOM      2  C1  UNL d   1       2.202  -0.626   3.318  0.00  0.00    -0.077 A 
ATOM      3  C2  UNL d   1       1.876   0.180   4.415  0.00  0.00    -0.001 A 
ATOM      4  C3  UNL d   1       2.186   1.541   4.410  0.00  0.00     0.003 A 
ATOM      5  C4  UNL d   1       2.823   2.108   3.308  0.00  0.00    -0.005 A 
ATOM      6  C5  UNL d   1       3.150   1.315   2.210  0.00  0.00     0.003 A 
ATOM      7  C6  UNL d   1       2.840  -0.046   2.214  0.00  0.00    -0.001 A 
ENDROOT
TORSDOF 0
ENDMDL
