MODEL 1
REMARK minimizedAffinity -4.76431704
REMARK minimizedRMSD -1
REMARK  1 active torsions:
REMARK  status: ('A' for Active; 'I' for Inactive)
REMARK    1  A    between atoms: C1_2  and  C2_3 
ROOT
ATOM      1  C2  UNL d   1      -1.838   0.055   1.605  0.00  0.00    -0.081 A 
ATOM      2  C3  UNL d   1      -0.881   0.037   2.627  0.00  0.00     0.006 A 
ATOM      3  C4  UNL d   1       0.480   0.121   2.323  0.00  0.00     0.002 A 
ATOM      4  C5  UNL d   1       0.906   0.232   0.995  0.00  0.00    -0.080 A 
ATOM      5  C6  UNL d   1       2.362   0.354   0.658  0.00  0.00     0.076 C 
ATOM      6  C7  UNL d   1      -0.050   0.233  -0.027  0.00  0.00     0.002 A 
ATOM      7  C8  UNL d   1      -1.411   0.148   0.276  0.00  0.00     0.006 A 
ENDROOT
BRANCH   1   8
ATOM      8  C1  UNL d   1      -3.309   0.030   1.933  0.00  0.00     0.054 C 
ATOM      9  C   UNL d   1      -3.882   1.438   2.017  0.00  0.00     0.018 C 
ENDBRANCH   1   8
TORSDOF 1
ENDMDL
