MODEL 1
REMARK minimizedAffinity -5.26547527
REMARK minimizedRMSD -1
REMARK  1 active torsions:
REMARK  status: ('A' for Active; 'I' for Inactive)
REMARK    1  A    between atoms: C1_2  and  C2_3 
ROOT
ATOM      1  C2  UNL d   1       0.431  -0.303  -1.895  0.00  0.00    -0.081 A 
ATOM      2  C3  UNL d   1      -0.376   0.703  -1.350  0.00  0.00     0.006 A 
ATOM      3  C4  UNL d   1      -0.481   0.854   0.034  0.00  0.00     0.002 A 
ATOM      4  C5  UNL d   1       0.223   0.007   0.896  0.00  0.00    -0.080 A 
ATOM      5  C6  UNL d   1       0.143   0.177   2.384  0.00  0.00     0.076 C 
ATOM      6  C7  UNL d   1       1.015  -1.010   0.352  0.00  0.00     0.002 A 
ATOM      7  C8  UNL d   1       1.121  -1.162  -1.032  0.00  0.00     0.006 A 
ENDROOT
BRANCH   1   8
ATOM      8  C1  UNL d   1       0.597  -0.427  -3.388  0.00  0.00     0.054 C 
ATOM      9  C   UNL d   1       1.022  -1.835  -3.783  0.00  0.00     0.018 C 
ENDBRANCH   1   8
TORSDOF 1
ENDMDL
