MODEL 1
REMARK minimizedAffinity -5.6934638
REMARK minimizedRMSD -1
REMARK  1 active torsions:
REMARK  status: ('A' for Active; 'I' for Inactive)
REMARK    1  A    between atoms: C1_2  and  C2_3 
ROOT
ATOM      1  C2  UNL d   1       0.600   0.055  -0.678  0.00  0.00    -0.081 A 
ATOM      2  C3  UNL d   1       1.366  -0.155   0.475  0.00  0.00     0.006 A 
ATOM      3  C4  UNL d   1       0.752  -0.258   1.725  0.00  0.00     0.002 A 
ATOM      4  C5  UNL d   1      -0.639  -0.160   1.843  0.00  0.00    -0.080 A 
ATOM      5  C6  UNL d   1      -1.314  -0.299   3.175  0.00  0.00     0.076 C 
ATOM      6  C7  UNL d   1      -1.403   0.067   0.693  0.00  0.00     0.002 A 
ATOM      7  C8  UNL d   1      -0.789   0.171  -0.557  0.00  0.00     0.006 A 
ENDROOT
BRANCH   1   8
ATOM      8  C1  UNL d   1       1.254   0.102  -2.035  0.00  0.00     0.054 C 
ATOM      9  C   UNL d   1       1.069  -1.210  -2.784  0.00  0.00     0.018 C 
ENDBRANCH   1   8
TORSDOF 1
ENDMDL
