MODEL 1
REMARK minimizedAffinity 1.46634114
REMARK minimizedRMSD -1
REMARK  1 active torsions:
REMARK  status: ('A' for Active; 'I' for Inactive)
REMARK    1  A    between atoms: C1_2  and  C2_3 
ROOT
ATOM      1  C2  UNL d   1       0.019  -0.156  -0.007  0.00  0.00    -0.081 A 
ATOM      2  C3  UNL d   1       0.256   0.144   1.340  0.00  0.00     0.006 A 
ATOM      3  C4  UNL d   1      -0.787   0.574   2.164  0.00  0.00     0.002 A 
ATOM      4  C5  UNL d   1      -2.085   0.704   1.657  0.00  0.00    -0.080 A 
ATOM      5  C6  UNL d   1      -3.219   1.136   2.538  0.00  0.00     0.076 C 
ATOM      6  C7  UNL d   1      -2.318   0.421   0.307  0.00  0.00     0.002 A 
ATOM      7  C8  UNL d   1      -1.276  -0.009  -0.517  0.00  0.00     0.006 A 
ENDROOT
BRANCH   1   8
ATOM      8  C1  UNL d   1       1.128  -0.682  -0.881  0.00  0.00     0.054 C 
ATOM      9  C   UNL d   1       0.575  -1.405  -2.101  0.00  0.00     0.018 C 
ENDBRANCH   1   8
TORSDOF 1
ENDMDL
