MODEL 1
REMARK minimizedAffinity -2.44805431
REMARK minimizedRMSD -1
REMARK  1 active torsions:
REMARK  status: ('A' for Active; 'I' for Inactive)
REMARK    1  A    between atoms: C1_2  and  C2_3 
ROOT
ATOM      1  C2  UNL d   1       0.501   0.086  -1.931  0.00  0.00    -0.081 A 
ATOM      2  C3  UNL d   1       0.871   1.265  -1.272  0.00  0.00     0.006 A 
ATOM      3  C4  UNL d   1       0.801   1.351   0.120  0.00  0.00     0.002 A 
ATOM      4  C5  UNL d   1       0.366   0.257   0.877  0.00  0.00    -0.080 A 
ATOM      5  C6  UNL d   1       0.314   0.325   2.375  0.00  0.00     0.076 C 
ATOM      6  C7  UNL d   1      -0.020  -0.915   0.218  0.00  0.00     0.002 A 
ATOM      7  C8  UNL d   1       0.050  -1.000  -1.174  0.00  0.00     0.006 A 
ENDROOT
BRANCH   1   8
ATOM      8  C1  UNL d   1       0.638  -0.030  -3.428  0.00  0.00     0.054 C 
ATOM      9  C   UNL d   1       0.517  -1.478  -3.883  0.00  0.00     0.018 C 
ENDBRANCH   1   8
TORSDOF 1
ENDMDL
