MODEL 1
REMARK minimizedAffinity -4.53855467
REMARK minimizedRMSD -1
REMARK  1 active torsions:
REMARK  status: ('A' for Active; 'I' for Inactive)
REMARK    1  A    between atoms: C1_2  and  C2_3 
ROOT
ATOM      1  C2  UNL d   1      -0.102   0.052  -0.025  0.00  0.00    -0.081 A 
ATOM      2  C3  UNL d   1      -1.483  -0.166   0.050  0.00  0.00     0.006 A 
ATOM      3  C4  UNL d   1      -2.102  -0.369   1.286  0.00  0.00     0.002 A 
ATOM      4  C5  UNL d   1      -1.352  -0.348   2.467  0.00  0.00    -0.080 A 
ATOM      5  C6  UNL d   1      -2.009  -0.534   3.803  0.00  0.00     0.076 C 
ATOM      6  C7  UNL d   1       0.030  -0.148   2.391  0.00  0.00     0.002 A 
ATOM      7  C8  UNL d   1       0.650   0.054   1.155  0.00  0.00     0.006 A 
ENDROOT
BRANCH   1   8
ATOM      8  C1  UNL d   1       0.558   0.335  -1.350  0.00  0.00     0.054 C 
ATOM      9  C   UNL d   1       0.529  -0.888  -2.255  0.00  0.00     0.018 C 
ENDBRANCH   1   8
TORSDOF 1
ENDMDL
