MODEL 1
REMARK minimizedAffinity -3.59565568
REMARK minimizedRMSD -1
REMARK  1 active torsions:
REMARK  status: ('A' for Active; 'I' for Inactive)
REMARK    1  A    between atoms: C1_2  and  C2_3 
ROOT
ATOM      1  C2  UNL d   1      -0.164   0.601  -0.308  0.00  0.00    -0.081 A 
ATOM      2  C3  UNL d   1      -1.547   0.820  -0.282  0.00  0.00     0.006 A 
ATOM      3  C4  UNL d   1      -2.250   0.761   0.924  0.00  0.00     0.002 A 
ATOM      4  C5  UNL d   1      -1.581   0.490   2.123  0.00  0.00    -0.080 A 
ATOM      5  C6  UNL d   1      -2.319   0.454   3.428  0.00  0.00     0.076 C 
ATOM      6  C7  UNL d   1      -0.203   0.254   2.094  0.00  0.00     0.002 A 
ATOM      7  C8  UNL d   1       0.501   0.312   0.889  0.00  0.00     0.006 A 
ENDROOT
BRANCH   1   8
ATOM      8  C1  UNL d   1       0.607   0.728  -1.597  0.00  0.00     0.054 C 
ATOM      9  C   UNL d   1       0.632  -0.590  -2.359  0.00  0.00     0.018 C 
ENDBRANCH   1   8
TORSDOF 1
ENDMDL
