MODEL 1
REMARK minimizedAffinity -3.07488394
REMARK minimizedRMSD -1
REMARK  1 active torsions:
REMARK  status: ('A' for Active; 'I' for Inactive)
REMARK    1  A    between atoms: C1_2  and  C2_3 
ROOT
ATOM      1  C2  UNL d   1       0.922   0.058  -1.784  0.00  0.00    -0.081 A 
ATOM      2  C3  UNL d   1      -0.367  -0.246  -1.327  0.00  0.00     0.006 A 
ATOM      3  C4  UNL d   1      -0.699  -0.078   0.019  0.00  0.00     0.002 A 
ATOM      4  C5  UNL d   1       0.248   0.404   0.929  0.00  0.00    -0.080 A 
ATOM      5  C6  UNL d   1      -0.105   0.618   2.371  0.00  0.00     0.076 C 
ATOM      6  C7  UNL d   1       1.540   0.692   0.476  0.00  0.00     0.002 A 
ATOM      7  C8  UNL d   1       1.873   0.523  -0.870  0.00  0.00     0.006 A 
ENDROOT
BRANCH   1   8
ATOM      8  C1  UNL d   1       1.264  -0.061  -3.247  0.00  0.00     0.054 C 
ATOM      9  C   UNL d   1       0.931  -1.446  -3.783  0.00  0.00     0.018 C 
ENDBRANCH   1   8
TORSDOF 1
ENDMDL
