MODEL 1
REMARK minimizedAffinity 2.8869009
REMARK minimizedRMSD -1
REMARK  2 active torsions:
REMARK  status: ('A' for Active; 'I' for Inactive)
REMARK    1  A    between atoms: C2'_3  and  C1'_4 
REMARK    2  A    between atoms: C1'_4  and  C1_5 
ROOT
ATOM      1  C1  I4B d   1       3.250   4.877   3.779  0.00  0.00    -0.075 A 
ATOM      2  C2  I4B d   1       1.885   4.947   3.903  0.00  0.00     0.003 A 
ATOM      3  C3  I4B d   1       1.068   3.917   3.376  0.00  0.00     0.002 A 
ATOM      4  C4  I4B d   1       1.651   2.869   2.694  0.00  0.00    -0.004 A 
ATOM      5  C5  I4B d   1       3.037   2.789   2.590  0.00  0.00     0.002 A 
ATOM      6  C6  I4B d   1       3.842   3.793   3.146  0.00  0.00     0.003 A 
ENDROOT
BRANCH   1   7
ATOM      7  C1' I4B d   1       4.080   5.999   4.318  0.00  0.00     0.060 C 
BRANCH   7   8
ATOM      8  C2' I4B d   1       4.501   5.633   5.727  0.00  0.00    -0.013 C 
ATOM      9  C4' I4B d   1       4.277   4.169   6.000  0.00  0.00     0.013 C 
ATOM     10  C3' I4B d   1       5.946   5.999   5.889  0.00  0.00     0.013 C 
ENDBRANCH   7   8
ENDBRANCH   1   7
TORSDOF 2
ENDMDL
