MODEL 1
REMARK minimizedAffinity -2.76330233
REMARK minimizedRMSD -1
REMARK  2 active torsions:
REMARK  status: ('A' for Active; 'I' for Inactive)
REMARK    1  A    between atoms: C2'_3  and  C1'_4 
REMARK    2  A    between atoms: C1'_4  and  C1_5 
ROOT
ATOM      1  C1  I4B d   1       2.614   4.506   4.514  0.00  0.00    -0.075 A 
ATOM      2  C2  I4B d   1       3.518   4.965   5.440  0.00  0.00     0.003 A 
ATOM      3  C3  I4B d   1       4.895   5.032   5.119  0.00  0.00     0.002 A 
ATOM      4  C4  I4B d   1       5.329   4.585   3.888  0.00  0.00    -0.004 A 
ATOM      5  C5  I4B d   1       4.409   4.141   2.942  0.00  0.00     0.002 A 
ATOM      6  C6  I4B d   1       3.042   4.113   3.252  0.00  0.00     0.003 A 
ENDROOT
BRANCH   1   7
ATOM      7  C1' I4B d   1       1.171   4.417   4.898  0.00  0.00     0.060 C 
BRANCH   7   8
ATOM      8  C2' I4B d   1       0.897   3.000   5.358  0.00  0.00    -0.013 C 
ATOM      9  C4' I4B d   1       0.462   2.128   4.210  0.00  0.00     0.013 C 
ATOM     10  C3' I4B d   1       2.146   2.471   5.997  0.00  0.00     0.013 C 
ENDBRANCH   7   8
ENDBRANCH   1   7
TORSDOF 2
ENDMDL
