MODEL 1
REMARK minimizedAffinity 8.60824203
REMARK minimizedRMSD -1
REMARK  2 active torsions:
REMARK  status: ('A' for Active; 'I' for Inactive)
REMARK    1  A    between atoms: C2'_3  and  C1'_4 
REMARK    2  A    between atoms: C1'_4  and  C1_5 
ROOT
ATOM      1  C1  I4B d   1       1.942   3.884   4.483  0.00  0.00    -0.075 A 
ATOM      2  C2  I4B d   1       2.027   3.488   3.171  0.00  0.00     0.003 A 
ATOM      3  C3  I4B d   1       3.192   3.767   2.416  0.00  0.00     0.002 A 
ATOM      4  C4  I4B d   1       4.221   4.483   2.994  0.00  0.00    -0.004 A 
ATOM      5  C5  I4B d   1       4.142   4.864   4.330  0.00  0.00     0.002 A 
ATOM      6  C6  I4B d   1       3.001   4.552   5.084  0.00  0.00     0.003 A 
ENDROOT
BRANCH   1   7
ATOM      7  C1' I4B d   1       0.684   3.602   5.241  0.00  0.00     0.060 C 
BRANCH   7   8
ATOM      8  C2' I4B d   1       0.777   2.195   5.793  0.00  0.00    -0.013 C 
ATOM      9  C4' I4B d   1       0.127   1.201   4.867  0.00  0.00     0.013 C 
ATOM     10  C3' I4B d   1       2.227   1.874   6.000  0.00  0.00     0.013 C 
ENDBRANCH   7   8
ENDBRANCH   1   7
TORSDOF 2
ENDMDL
