MODEL 1
REMARK minimizedAffinity 10.8166571
REMARK minimizedRMSD -1
REMARK  2 active torsions:
REMARK  status: ('A' for Active; 'I' for Inactive)
REMARK    1  A    between atoms: C2'_3  and  C1'_4 
REMARK    2  A    between atoms: C1'_4  and  C1_5 
ROOT
ATOM      1  C1  I4B d   1       2.744   3.541   4.966  0.00  0.00    -0.075 A 
ATOM      2  C2  I4B d   1       3.014   3.569   3.621  0.00  0.00     0.003 A 
ATOM      3  C3  I4B d   1       2.046   3.121   2.690  0.00  0.00     0.002 A 
ATOM      4  C4  I4B d   1       0.849   2.609   3.147  0.00  0.00    -0.004 A 
ATOM      5  C5  I4B d   1       0.567   2.602   4.511  0.00  0.00     0.002 A 
ATOM      6  C6  I4B d   1       1.516   3.082   5.426  0.00  0.00     0.003 A 
ENDROOT
BRANCH   1   7
ATOM      7  C1' I4B d   1       3.801   3.991   5.923  0.00  0.00     0.060 C 
BRANCH   7   8
ATOM      8  C2' I4B d   1       4.865   4.725   5.132  0.00  0.00    -0.013 C 
ATOM      9  C4' I4B d   1       5.588   5.728   5.991  0.00  0.00     0.013 C 
ATOM     10  C3' I4B d   1       5.813   3.705   4.575  0.00  0.00     0.013 C 
ENDBRANCH   7   8
ENDBRANCH   1   7
TORSDOF 2
ENDMDL
