MODEL 1
REMARK minimizedAffinity 6.47989511
REMARK minimizedRMSD -1
REMARK  2 active torsions:
REMARK  status: ('A' for Active; 'I' for Inactive)
REMARK    1  A    between atoms: C2'_3  and  C1'_4 
REMARK    2  A    between atoms: C1'_4  and  C1_5 
ROOT
ATOM      1  C1  I4B d   1       0.757   2.646   0.516  0.00  0.00    -0.075 A 
ATOM      2  C2  I4B d   1       1.847   2.553   1.346  0.00  0.00     0.003 A 
ATOM      3  C3  I4B d   1       2.935   1.716   1.002  0.00  0.00     0.002 A 
ATOM      4  C4  I4B d   1       2.871   0.955  -0.148  0.00  0.00    -0.004 A 
ATOM      5  C5  I4B d   1       1.775   1.067  -0.999  0.00  0.00     0.002 A 
ATOM      6  C6  I4B d   1       0.717   1.927  -0.672  0.00  0.00     0.003 A 
ENDROOT
BRANCH   1   7
ATOM      7  C1' I4B d   1      -0.390   3.515   0.926  0.00  0.00     0.060 C 
BRANCH   7   8
ATOM      8  C2' I4B d   1      -1.523   3.286  -0.053  0.00  0.00    -0.013 C 
ATOM      9  C4' I4B d   1      -2.232   1.987   0.227  0.00  0.00     0.013 C 
ATOM     10  C3' I4B d   1      -2.463   4.449   0.047  0.00  0.00     0.013 C 
ENDBRANCH   7   8
ENDBRANCH   1   7
TORSDOF 2
ENDMDL
