MODEL 1
REMARK minimizedAffinity 4.96032143
REMARK minimizedRMSD -1
REMARK  2 active torsions:
REMARK  status: ('A' for Active; 'I' for Inactive)
REMARK    1  A    between atoms: C2'_3  and  C1'_4 
REMARK    2  A    between atoms: C1'_4  and  C1_5 
ROOT
ATOM      1  C1  I4B d   1      -1.201   1.549  -0.614  0.00  0.00    -0.075 A 
ATOM      2  C2  I4B d   1      -2.557   1.670  -0.441  0.00  0.00     0.003 A 
ATOM      3  C3  I4B d   1      -3.085   2.740   0.321  0.00  0.00     0.002 A 
ATOM      4  C4  I4B d   1      -2.225   3.631   0.930  0.00  0.00    -0.004 A 
ATOM      5  C5  I4B d   1      -0.851   3.519   0.735  0.00  0.00     0.002 A 
ATOM      6  C6  I4B d   1      -0.336   2.479  -0.052  0.00  0.00     0.003 A 
ENDROOT
BRANCH   1   7
ATOM      7  C1' I4B d   1      -0.675   0.388  -1.397  0.00  0.00     0.060 C 
BRANCH   7   8
ATOM      8  C2' I4B d   1      -1.797  -0.620  -1.548  0.00  0.00    -0.013 C 
ATOM      9  C4' I4B d   1      -2.436  -0.525  -2.908  0.00  0.00     0.013 C 
ATOM     10  C3' I4B d   1      -1.226  -1.987  -1.312  0.00  0.00     0.013 C 
ENDBRANCH   7   8
ENDBRANCH   1   7
TORSDOF 2
ENDMDL
