MODEL 1
REMARK minimizedAffinity 6.55777073
REMARK minimizedRMSD -1
REMARK  2 active torsions:
REMARK  status: ('A' for Active; 'I' for Inactive)
REMARK    1  A    between atoms: C2'_3  and  C1'_4 
REMARK    2  A    between atoms: C1'_4  and  C1_5 
ROOT
ATOM      1  C1  I4B d   1       0.100   1.275  -0.852  0.00  0.00    -0.075 A 
ATOM      2  C2  I4B d   1      -1.150   0.826  -1.199  0.00  0.00     0.003 A 
ATOM      3  C3  I4B d   1      -2.298   1.586  -0.869  0.00  0.00     0.002 A 
ATOM      4  C4  I4B d   1      -2.154   2.756  -0.152  0.00  0.00    -0.004 A 
ATOM      5  C5  I4B d   1      -0.885   3.221   0.180  0.00  0.00     0.002 A 
ATOM      6  C6  I4B d   1       0.250   2.482  -0.183  0.00  0.00     0.003 A 
ENDROOT
BRANCH   1   7
ATOM      7  C1' I4B d   1       1.288   0.430  -1.187  0.00  0.00     0.060 C 
BRANCH   7   8
ATOM      8  C2' I4B d   1       2.534   1.224  -0.852  0.00  0.00    -0.013 C 
ATOM      9  C4' I4B d   1       3.083   0.834   0.495  0.00  0.00     0.013 C 
ATOM     10  C3' I4B d   1       3.542   0.983  -1.937  0.00  0.00     0.013 C 
ENDBRANCH   7   8
ENDBRANCH   1   7
TORSDOF 2
ENDMDL
