MODEL 1
REMARK minimizedAffinity -4.8911643
REMARK minimizedRMSD -1
REMARK  0 active torsions:
REMARK  status: ('A' for Active; 'I' for Inactive)
ROOT
ATOM      1  C   UNL d   1      -0.706   1.196   3.000  0.00  0.00     0.020 A 
ATOM      2  C1  UNL d   1       0.373   0.714   3.739  0.00  0.00     0.020 A 
ATOM      3  C2  UNL d   1       1.391   0.000   3.104  0.00  0.00     0.034 A 
ATOM      4  C3  UNL d   1       1.332  -0.235   1.725  0.00  0.00     0.017 A 
ATOM      5  C4  UNL d   1       0.248   0.250   0.984  0.00  0.00     0.017 A 
ATOM      6  C5  UNL d   1      -0.769   0.964   1.626  0.00  0.00     0.034 A 
ATOM      7 Cl   UNL d   1       0.105  -0.000  -0.720  0.00  0.00    -0.070 Cl
ATOM      8 Cl1  UNL d   1       2.626  -1.125   1.005  0.00  0.00    -0.070 Cl
ENDROOT
TORSDOF 0
ENDMDL
