MODEL 1
REMARK minimizedAffinity -0.0828938484
REMARK minimizedRMSD -1
REMARK  0 active torsions:
REMARK  status: ('A' for Active; 'I' for Inactive)
ROOT
ATOM      1  C   UNL d   1       1.451   1.399  -4.192  0.00  0.00     0.020 A 
ATOM      2  C1  UNL d   1       1.860   1.506  -2.863  0.00  0.00     0.020 A 
ATOM      3  C2  UNL d   1       1.282   0.692  -1.887  0.00  0.00     0.034 A 
ATOM      4  C3  UNL d   1       0.292  -0.233  -2.239  0.00  0.00     0.017 A 
ATOM      5  C4  UNL d   1      -0.118  -0.340  -3.573  0.00  0.00     0.017 A 
ATOM      6  C5  UNL d   1       0.465   0.478  -4.546  0.00  0.00     0.034 A 
ATOM      7 Cl   UNL d   1      -1.334  -1.457  -4.083  0.00  0.00    -0.070 Cl
ATOM      8 Cl1  UNL d   1      -0.380  -1.208  -0.980  0.00  0.00    -0.070 Cl
ENDROOT
TORSDOF 0
ENDMDL
