MODEL 1
REMARK minimizedAffinity -4.92994928
REMARK minimizedRMSD -1
REMARK  0 active torsions:
REMARK  status: ('A' for Active; 'I' for Inactive)
ROOT
ATOM      1  C   UNL d   1       0.794   0.744   2.910  0.00  0.00     0.020 A 
ATOM      2  C1  UNL d   1      -0.559   1.001   3.130  0.00  0.00     0.020 A 
ATOM      3  C2  UNL d   1      -1.498   0.695   2.142  0.00  0.00     0.034 A 
ATOM      4  C3  UNL d   1      -1.085   0.132   0.930  0.00  0.00     0.017 A 
ATOM      5  C4  UNL d   1       0.273  -0.125   0.710  0.00  0.00     0.017 A 
ATOM      6  C5  UNL d   1       1.209   0.182   1.702  0.00  0.00     0.034 A 
ATOM      7 Cl   UNL d   1       0.859  -0.819  -0.761  0.00  0.00    -0.070 Cl
ATOM      8 Cl1  UNL d   1      -2.299  -0.221  -0.247  0.00  0.00    -0.070 Cl
ENDROOT
TORSDOF 0
ENDMDL
