MODEL 1
REMARK minimizedAffinity -5.40051842
REMARK minimizedRMSD -1
REMARK  0 active torsions:
REMARK  status: ('A' for Active; 'I' for Inactive)
ROOT
ATOM      1  C   UNL d   1       1.126   0.931   2.995  0.00  0.00     0.020 A 
ATOM      2  C1  UNL d   1      -0.170   1.403   3.203  0.00  0.00     0.020 A 
ATOM      3  C2  UNL d   1      -1.187   1.068   2.307  0.00  0.00     0.034 A 
ATOM      4  C3  UNL d   1      -0.911   0.258   1.199  0.00  0.00     0.017 A 
ATOM      5  C4  UNL d   1       0.390  -0.216   0.992  0.00  0.00     0.017 A 
ATOM      6  C5  UNL d   1       1.405   0.123   1.892  0.00  0.00     0.034 A 
ATOM      7 Cl   UNL d   1       0.807  -1.220  -0.352  0.00  0.00    -0.070 Cl
ATOM      8 Cl1  UNL d   1      -2.217  -0.118   0.132  0.00  0.00    -0.070 Cl
ENDROOT
TORSDOF 0
ENDMDL
