MODEL 1
REMARK minimizedAffinity -3.68833423
REMARK minimizedRMSD -1
REMARK  0 active torsions:
REMARK  status: ('A' for Active; 'I' for Inactive)
ROOT
ATOM      1  C   UNL d   1       0.473   0.924   2.410  0.00  0.00     0.020 A 
ATOM      2  C1  UNL d   1      -0.862   1.221   2.681  0.00  0.00     0.020 A 
ATOM      3  C2  UNL d   1      -1.843   0.966   1.720  0.00  0.00     0.034 A 
ATOM      4  C3  UNL d   1      -1.491   0.412   0.484  0.00  0.00     0.017 A 
ATOM      5  C4  UNL d   1      -0.150   0.114   0.213  0.00  0.00     0.017 A 
ATOM      6  C5  UNL d   1       0.828   0.371   1.179  0.00  0.00     0.034 A 
ATOM      7 Cl   UNL d   1       0.362  -0.571  -1.289  0.00  0.00    -0.070 Cl
ATOM      8 Cl1  UNL d   1      -2.755   0.122  -0.657  0.00  0.00    -0.070 Cl
ENDROOT
TORSDOF 0
ENDMDL
