MODEL 1
REMARK minimizedAffinity -2.62154531
REMARK minimizedRMSD -1
REMARK  0 active torsions:
REMARK  status: ('A' for Active; 'I' for Inactive)
ROOT
ATOM      1  C   UNL d   1      -0.770   0.939   3.252  0.00  0.00     0.020 A 
ATOM      2  C1  UNL d   1       0.524   1.253   2.839  0.00  0.00     0.020 A 
ATOM      3  C2  UNL d   1       0.938   0.941   1.542  0.00  0.00     0.034 A 
ATOM      4  C3  UNL d   1       0.057   0.313   0.654  0.00  0.00     0.017 A 
ATOM      5  C4  UNL d   1      -1.241  -0.002   1.070  0.00  0.00     0.017 A 
ATOM      6  C5  UNL d   1      -1.650   0.313   2.370  0.00  0.00     0.034 A 
ATOM      7 Cl   UNL d   1      -2.385  -0.778   0.031  0.00  0.00    -0.070 Cl
ATOM      8 Cl1  UNL d   1       0.636  -0.044  -0.934  0.00  0.00    -0.070 Cl
ENDROOT
TORSDOF 0
ENDMDL
