MODEL 1
REMARK minimizedAffinity -5.11548042
REMARK minimizedRMSD -1
REMARK  0 active torsions:
REMARK  status: ('A' for Active; 'I' for Inactive)
ROOT
ATOM      1  C   UNL d   1      -1.924   0.867   1.275  0.00  0.00     0.020 A 
ATOM      2  C1  UNL d   1      -1.315   1.267   2.464  0.00  0.00     0.020 A 
ATOM      3  C2  UNL d   1       0.007   0.904   2.728  0.00  0.00     0.034 A 
ATOM      4  C3  UNL d   1       0.726   0.140   1.802  0.00  0.00     0.017 A 
ATOM      5  C4  UNL d   1       0.114  -0.261   0.608  0.00  0.00     0.017 A 
ATOM      6  C5  UNL d   1      -1.211   0.104   0.349  0.00  0.00     0.034 A 
ATOM      7 Cl   UNL d   1       0.936  -1.206  -0.583  0.00  0.00    -0.070 Cl
ATOM      8 Cl1  UNL d   1       2.357  -0.272   2.193  0.00  0.00    -0.070 Cl
ENDROOT
TORSDOF 0
ENDMDL
