MODEL 1
REMARK minimizedAffinity -5.08075094
REMARK minimizedRMSD -1
REMARK  0 active torsions:
REMARK  status: ('A' for Active; 'I' for Inactive)
ROOT
ATOM      1  C   UNL d   1      -0.789   1.080   3.093  0.00  0.00     0.020 A 
ATOM      2  C1  UNL d   1      -1.513   0.914   1.913  0.00  0.00     0.020 A 
ATOM      3  C2  UNL d   1      -0.940   0.240   0.832  0.00  0.00     0.034 A 
ATOM      4  C3  UNL d   1       0.360  -0.270   0.930  0.00  0.00     0.017 A 
ATOM      5  C4  UNL d   1       1.085  -0.102   2.115  0.00  0.00     0.017 A 
ATOM      6  C5  UNL d   1       0.507   0.574   3.194  0.00  0.00     0.034 A 
ATOM      7 Cl   UNL d   1       2.694  -0.703   2.310  0.00  0.00    -0.070 Cl
ATOM      8 Cl1  UNL d   1       1.005  -1.092  -0.446  0.00  0.00    -0.070 Cl
ENDROOT
TORSDOF 0
ENDMDL
