MODEL 1
REMARK minimizedAffinity -3.7914629
REMARK minimizedRMSD -1
REMARK  0 active torsions:
REMARK  status: ('A' for Active; 'I' for Inactive)
ROOT
ATOM      1  C   UNL d   1       1.435   0.456   3.353  0.00  0.00     0.020 A 
ATOM      2  C1  UNL d   1       0.187   1.061   3.497  0.00  0.00     0.020 A 
ATOM      3  C2  UNL d   1      -0.715   1.063   2.431  0.00  0.00     0.034 A 
ATOM      4  C3  UNL d   1      -0.371   0.458   1.217  0.00  0.00     0.017 A 
ATOM      5  C4  UNL d   1       0.881  -0.149   1.073  0.00  0.00     0.017 A 
ATOM      6  C5  UNL d   1       1.781  -0.148   2.143  0.00  0.00     0.034 A 
ATOM      7 Cl   UNL d   1       1.377  -0.916  -0.395  0.00  0.00    -0.070 Cl
ATOM      8 Cl1  UNL d   1      -1.536   0.497  -0.059  0.00  0.00    -0.070 Cl
ENDROOT
TORSDOF 0
ENDMDL
