MODEL 1
REMARK minimizedAffinity -4.4459033
REMARK minimizedRMSD -1
REMARK  0 active torsions:
REMARK  status: ('A' for Active; 'I' for Inactive)
ROOT
ATOM      1  C   UNL d   1      -0.744   0.888   3.228  0.00  0.00     0.020 A 
ATOM      2  C1  UNL d   1      -1.705   1.021   2.226  0.00  0.00     0.020 A 
ATOM      3  C2  UNL d   1      -1.422   0.596   0.926  0.00  0.00     0.034 A 
ATOM      4  C3  UNL d   1      -0.176   0.035   0.625  0.00  0.00     0.017 A 
ATOM      5  C4  UNL d   1       0.788  -0.098   1.631  0.00  0.00     0.017 A 
ATOM      6  C5  UNL d   1       0.500   0.330   2.930  0.00  0.00     0.034 A 
ATOM      7 Cl   UNL d   1       2.348  -0.780   1.335  0.00  0.00    -0.070 Cl
ATOM      8 Cl1  UNL d   1       0.105  -0.470  -1.004  0.00  0.00    -0.070 Cl
ENDROOT
TORSDOF 0
ENDMDL
