MODEL 1
REMARK minimizedAffinity -4.55245924
REMARK minimizedRMSD -1
REMARK  0 active torsions:
REMARK  status: ('A' for Active; 'I' for Inactive)
ROOT
ATOM      1  C   UNL d   1       0.813   0.407   3.589  0.00  0.00     0.020 A 
ATOM      2  C1  UNL d   1       1.748  -0.183   2.740  0.00  0.00     0.020 A 
ATOM      3  C2  UNL d   1       1.438  -0.389   1.395  0.00  0.00     0.034 A 
ATOM      4  C3  UNL d   1       0.189  -0.004   0.894  0.00  0.00     0.017 A 
ATOM      5  C4  UNL d   1      -0.750   0.588   1.746  0.00  0.00     0.017 A 
ATOM      6  C5  UNL d   1      -0.433   0.792   3.093  0.00  0.00     0.034 A 
ATOM      7 Cl   UNL d   1      -2.311   1.090   1.201  0.00  0.00    -0.070 Cl
ATOM      8 Cl1  UNL d   1      -0.128  -0.289  -0.781  0.00  0.00    -0.070 Cl
ENDROOT
TORSDOF 0
ENDMDL
