MODEL 1
REMARK minimizedAffinity 0.162051514
REMARK minimizedRMSD -1
REMARK  0 active torsions:
REMARK  status: ('A' for Active; 'I' for Inactive)
ROOT
ATOM      1  C   UNL d   1      -0.687   0.868   2.554  0.00  0.00     0.124 A 
ATOM      2  C1  UNL d   1      -1.812   0.589   1.791  0.00  0.00     0.062 A 
ATOM      3  C2  UNL d   1      -1.676   0.205   0.460  0.00  0.00     0.162 A 
ATOM      4  C3  UNL d   1      -0.410   0.097  -0.116  0.00  0.00    -0.034 A 
ATOM      5  C4  UNL d   1       0.716   0.380   0.658  0.00  0.00     0.162 A 
ATOM      6  C5  UNL d   1       0.576   0.764   1.988  0.00  0.00     0.062 A 
ATOM      7  F   UNL d   1       1.663   1.033   2.724  0.00  0.00    -0.097 F 
ATOM      8  F1  UNL d   1       1.948   0.286   0.136  0.00  0.00    -0.096 F 
ATOM      9  I   UNL d   1      -0.204  -0.478  -2.106  0.00  0.00    -0.060 I 
ATOM     10  F2  UNL d   1      -2.780  -0.059  -0.255  0.00  0.00    -0.096 F 
ATOM     11  F3  UNL d   1      -3.032   0.690   2.336  0.00  0.00    -0.097 F 
ATOM     12  F4  UNL d   1      -0.820   1.239   3.834  0.00  0.00    -0.092 F 
ENDROOT
TORSDOF 0
ENDMDL
