MODEL 1
REMARK minimizedAffinity 3.74280691
REMARK minimizedRMSD -1
REMARK  0 active torsions:
REMARK  status: ('A' for Active; 'I' for Inactive)
ROOT
ATOM      1  C   UNL d   1      -1.110   1.010   0.112  0.00  0.00     0.124 A 
ATOM      2  C1  UNL d   1      -2.391   1.486  -0.130  0.00  0.00     0.062 A 
ATOM      3  C2  UNL d   1      -3.406   0.608  -0.499  0.00  0.00     0.162 A 
ATOM      4  C3  UNL d   1      -3.144  -0.756  -0.627  0.00  0.00    -0.034 A 
ATOM      5  C4  UNL d   1      -1.853  -1.227  -0.382  0.00  0.00     0.162 A 
ATOM      6  C5  UNL d   1      -0.842  -0.346  -0.014  0.00  0.00     0.062 A 
ATOM      7  F   UNL d   1       0.395  -0.808   0.220  0.00  0.00    -0.097 F 
ATOM      8  F1  UNL d   1      -1.567  -2.533  -0.496  0.00  0.00    -0.096 F 
ATOM      9  I   UNL d   1      -4.660  -2.072  -1.178  0.00  0.00    -0.060 I 
ATOM     10  F2  UNL d   1      -4.634   1.096  -0.727  0.00  0.00    -0.096 F 
ATOM     11  F3  UNL d   1      -2.652   2.796  -0.010  0.00  0.00    -0.097 F 
ATOM     12  F4  UNL d   1      -0.135   1.857   0.466  0.00  0.00    -0.092 F 
ENDROOT
TORSDOF 0
ENDMDL
