MODEL 1
REMARK minimizedAffinity -5.43457413
REMARK minimizedRMSD -1
REMARK  0 active torsions:
REMARK  status: ('A' for Active; 'I' for Inactive)
ROOT
ATOM      1  C   UNL d   1      -0.251   0.724   2.880  0.00  0.00     0.124 A 
ATOM      2  C1  UNL d   1      -1.166   0.842   1.844  0.00  0.00     0.062 A 
ATOM      3  C2  UNL d   1      -0.876   0.311   0.590  0.00  0.00     0.162 A 
ATOM      4  C3  UNL d   1       0.335  -0.344   0.367  0.00  0.00    -0.034 A 
ATOM      5  C4  UNL d   1       1.251  -0.458   1.414  0.00  0.00     0.162 A 
ATOM      6  C5  UNL d   1       0.956   0.075   2.665  0.00  0.00     0.062 A 
ATOM      7  F   UNL d   1       1.841  -0.039   3.666  0.00  0.00    -0.097 F 
ATOM      8  F1  UNL d   1       2.425  -1.081   1.234  0.00  0.00    -0.096 F 
ATOM      9  I   UNL d   1       0.773  -1.140  -1.506  0.00  0.00    -0.060 I 
ATOM     10  F2  UNL d   1      -1.779   0.439  -0.393  0.00  0.00    -0.096 F 
ATOM     11  F3  UNL d   1      -2.333   1.470   2.049  0.00  0.00    -0.097 F 
ATOM     12  F4  UNL d   1      -0.533   1.237   4.085  0.00  0.00    -0.092 F 
ENDROOT
TORSDOF 0
ENDMDL
