MODEL 1
REMARK minimizedAffinity -1.5134207
REMARK minimizedRMSD -1
REMARK  0 active torsions:
REMARK  status: ('A' for Active; 'I' for Inactive)
ROOT
ATOM      1  C   UNL d   1      -1.288   1.556   2.036  0.00  0.00     0.124 A 
ATOM      2  C1  UNL d   1      -2.062   0.703   1.261  0.00  0.00     0.062 A 
ATOM      3  C2  UNL d   1      -1.457  -0.156   0.348  0.00  0.00     0.162 A 
ATOM      4  C3  UNL d   1      -0.069  -0.169   0.206  0.00  0.00    -0.034 A 
ATOM      5  C4  UNL d   1       0.703   0.693   0.989  0.00  0.00     0.162 A 
ATOM      6  C5  UNL d   1       0.093   1.550   1.899  0.00  0.00     0.062 A 
ATOM      7  F   UNL d   1       0.842   2.373   2.647  0.00  0.00    -0.097 F 
ATOM      8  F1  UNL d   1       2.039   0.707   0.878  0.00  0.00    -0.096 F 
ATOM      9  I   UNL d   1       0.840  -1.452  -1.157  0.00  0.00    -0.060 I 
ATOM     10  F2  UNL d   1      -2.229  -0.970  -0.387  0.00  0.00    -0.096 F 
ATOM     11  F3  UNL d   1      -3.396   0.707   1.390  0.00  0.00    -0.097 F 
ATOM     12  F4  UNL d   1      -1.873   2.382   2.912  0.00  0.00    -0.092 F 
ENDROOT
TORSDOF 0
ENDMDL
