MODEL 1
REMARK minimizedAffinity -2.27323484
REMARK minimizedRMSD -1
REMARK  0 active torsions:
REMARK  status: ('A' for Active; 'I' for Inactive)
ROOT
ATOM      1  C   UNL d   1       0.697  -1.194  -0.133  0.00  0.00     0.124 A 
ATOM      2  C1  UNL d   1      -0.554  -0.623   0.056  0.00  0.00     0.062 A 
ATOM      3  C2  UNL d   1      -0.842   0.059   1.234  0.00  0.00     0.162 A 
ATOM      4  C3  UNL d   1       0.125   0.176   2.233  0.00  0.00    -0.034 A 
ATOM      5  C4  UNL d   1       1.380  -0.401   2.037  0.00  0.00     0.162 A 
ATOM      6  C5  UNL d   1       1.663  -1.082   0.857  0.00  0.00     0.062 A 
ATOM      7  F   UNL d   1       2.872  -1.632   0.677  0.00  0.00    -0.097 F 
ATOM      8  F1  UNL d   1       2.333  -0.307   2.977  0.00  0.00    -0.096 F 
ATOM      9  I   UNL d   1      -0.302   1.196   3.997  0.00  0.00    -0.060 I 
ATOM     10  F2  UNL d   1      -2.059   0.600   1.389  0.00  0.00    -0.096 F 
ATOM     11  F3  UNL d   1      -1.489  -0.731  -0.899  0.00  0.00    -0.097 F 
ATOM     12  F4  UNL d   1       0.971  -1.851  -1.268  0.00  0.00    -0.092 F 
ENDROOT
TORSDOF 0
ENDMDL
