MODEL 1
REMARK minimizedAffinity -3.1776185
REMARK minimizedRMSD -1
REMARK  0 active torsions:
REMARK  status: ('A' for Active; 'I' for Inactive)
ROOT
ATOM      1  C   UNL d   1       0.112   0.726   1.969  0.00  0.00     0.124 A 
ATOM      2  C1  UNL d   1       1.305   0.303   1.401  0.00  0.00     0.062 A 
ATOM      3  C2  UNL d   1       1.336  -0.127   0.077  0.00  0.00     0.162 A 
ATOM      4  C3  UNL d   1       0.170  -0.136  -0.687  0.00  0.00    -0.034 A 
ATOM      5  C4  UNL d   1      -1.027   0.290  -0.108  0.00  0.00     0.162 A 
ATOM      6  C5  UNL d   1      -1.053   0.719   1.215  0.00  0.00     0.062 A 
ATOM      7  F   UNL d   1      -2.207   1.127   1.763  0.00  0.00    -0.097 F 
ATOM      8  F1  UNL d   1      -2.167   0.295  -0.815  0.00  0.00    -0.096 F 
ATOM      9  I   UNL d   1       0.212  -0.778  -2.666  0.00  0.00    -0.060 I 
ATOM     10  F2  UNL d   1       2.504  -0.530  -0.446  0.00  0.00    -0.096 F 
ATOM     11  F3  UNL d   1       2.432   0.308   2.128  0.00  0.00    -0.097 F 
ATOM     12  F4  UNL d   1       0.085   1.138   3.243  0.00  0.00    -0.092 F 
ENDROOT
TORSDOF 0
ENDMDL
