MODEL 1
REMARK minimizedAffinity 0.0259525105
REMARK minimizedRMSD -1
REMARK  0 active torsions:
REMARK  status: ('A' for Active; 'I' for Inactive)
ROOT
ATOM      1  C   UNL d   1       4.858  -0.037   4.176  0.00  0.00     0.020 A 
ATOM      2  C1  UNL d   1       5.792  -0.214   5.196  0.00  0.00     0.020 A 
ATOM      3  C2  UNL d   1       5.996  -1.482   5.745  0.00  0.00     0.034 A 
ATOM      4  C3  UNL d   1       5.264  -2.578   5.273  0.00  0.00     0.017 A 
ATOM      5  C4  UNL d   1       4.327  -2.400   4.250  0.00  0.00     0.017 A 
ATOM      6  C5  UNL d   1       4.127  -1.128   3.704  0.00  0.00     0.034 A 
ATOM      7 Cl   UNL d   1       3.387  -3.704   3.616  0.00  0.00    -0.070 Cl
ATOM      8 Cl1  UNL d   1       5.568  -4.117   5.997  0.00  0.00    -0.070 Cl
ENDROOT
TORSDOF 0
ENDMDL
