MODEL 1
REMARK minimizedAffinity -1.93693721
REMARK minimizedRMSD -1
REMARK  0 active torsions:
REMARK  status: ('A' for Active; 'I' for Inactive)
ROOT
ATOM      1  C   UNL d   1      -2.575   1.697   3.347  0.00  0.00     0.020 A 
ATOM      2  C1  UNL d   1      -1.842   0.595   3.787  0.00  0.00     0.020 A 
ATOM      3  C2  UNL d   1      -1.233  -0.253   2.860  0.00  0.00     0.034 A 
ATOM      4  C3  UNL d   1      -1.355  -0.001   1.489  0.00  0.00     0.017 A 
ATOM      5  C4  UNL d   1      -2.090   1.105   1.048  0.00  0.00     0.017 A 
ATOM      6  C5  UNL d   1      -2.698   1.952   1.980  0.00  0.00     0.034 A 
ATOM      7 Cl   UNL d   1      -2.285   1.481  -0.628  0.00  0.00    -0.070 Cl
ATOM      8 Cl1  UNL d   1      -0.574  -1.092   0.399  0.00  0.00    -0.070 Cl
ENDROOT
TORSDOF 0
ENDMDL
