MODEL 1
REMARK minimizedAffinity 4.4209466
REMARK minimizedRMSD -1
REMARK  0 active torsions:
REMARK  status: ('A' for Active; 'I' for Inactive)
ROOT
ATOM      1  C   UNL d   1       0.475  -0.694  -1.211  0.00  0.00     0.020 A 
ATOM      2  C1  UNL d   1       0.348   0.686  -1.057  0.00  0.00     0.020 A 
ATOM      3  C2  UNL d   1       0.465   1.526  -2.167  0.00  0.00     0.034 A 
ATOM      4  C3  UNL d   1       0.709   0.987  -3.435  0.00  0.00     0.017 A 
ATOM      5  C4  UNL d   1       0.836  -0.399  -3.589  0.00  0.00     0.017 A 
ATOM      6  C5  UNL d   1       0.718  -1.235  -2.474  0.00  0.00     0.034 A 
ATOM      7 Cl   UNL d   1       1.138  -1.137  -5.122  0.00  0.00    -0.070 Cl
ATOM      8 Cl1  UNL d   1       0.841   2.085  -4.763  0.00  0.00    -0.070 Cl
ENDROOT
TORSDOF 0
ENDMDL
