MODEL 1
REMARK minimizedAffinity 1.98088789
REMARK minimizedRMSD -1
REMARK  0 active torsions:
REMARK  status: ('A' for Active; 'I' for Inactive)
ROOT
ATOM      1  C   UNL d   1       0.207   0.138  -0.358  0.00  0.00     0.020 A 
ATOM      2  C1  UNL d   1       0.207  -1.247  -0.516  0.00  0.00     0.020 A 
ATOM      3  C2  UNL d   1       0.464  -1.807  -1.769  0.00  0.00     0.034 A 
ATOM      4  C3  UNL d   1       0.723  -0.981  -2.869  0.00  0.00     0.017 A 
ATOM      5  C4  UNL d   1       0.723   0.409  -2.710  0.00  0.00     0.017 A 
ATOM      6  C5  UNL d   1       0.465   0.964  -1.453  0.00  0.00     0.034 A 
ATOM      7 Cl   UNL d   1       1.034   1.492  -4.020  0.00  0.00    -0.070 Cl
ATOM      8 Cl1  UNL d   1       1.034  -1.742  -4.389  0.00  0.00    -0.070 Cl
ENDROOT
TORSDOF 0
ENDMDL
