MODEL 1
REMARK minimizedAffinity 13.8222761
REMARK minimizedRMSD -1
REMARK  0 active torsions:
REMARK  status: ('A' for Active; 'I' for Inactive)
ROOT
ATOM      1  C   UNL d   1      -3.599  -1.273   3.394  0.00  0.00     0.020 A 
ATOM      2  C1  UNL d   1      -2.820  -0.598   4.333  0.00  0.00     0.020 A 
ATOM      3  C2  UNL d   1      -1.438  -0.505   4.157  0.00  0.00     0.034 A 
ATOM      4  C3  UNL d   1      -0.830  -1.088   3.039  0.00  0.00     0.017 A 
ATOM      5  C4  UNL d   1      -1.612  -1.765   2.097  0.00  0.00     0.017 A 
ATOM      6  C5  UNL d   1      -2.996  -1.855   2.278  0.00  0.00     0.034 A 
ATOM      7 Cl   UNL d   1      -0.934  -2.510   0.692  0.00  0.00    -0.070 Cl
ATOM      8 Cl1  UNL d   1       0.884  -0.934   2.885  0.00  0.00    -0.070 Cl
ENDROOT
TORSDOF 0
ENDMDL
