MODEL 1
REMARK minimizedAffinity -2.51028943
REMARK minimizedRMSD -1
REMARK  0 active torsions:
REMARK  status: ('A' for Active; 'I' for Inactive)
ROOT
ATOM      1  C   UNL d   1      -3.308   2.031   5.754  0.00  0.00     0.020 A 
ATOM      2  C1  UNL d   1      -3.378   1.554   4.445  0.00  0.00     0.020 A 
ATOM      3  C2  UNL d   1      -3.511   2.450   3.382  0.00  0.00     0.034 A 
ATOM      4  C3  UNL d   1      -3.574   3.826   3.626  0.00  0.00     0.017 A 
ATOM      5  C4  UNL d   1      -3.504   4.304   4.939  0.00  0.00     0.017 A 
ATOM      6  C5  UNL d   1      -3.370   3.403   6.000  0.00  0.00     0.034 A 
ATOM      7 Cl   UNL d   1      -3.575   5.989   5.318  0.00  0.00    -0.070 Cl
ATOM      8 Cl1  UNL d   1      -3.739   4.876   2.263  0.00  0.00    -0.070 Cl
ENDROOT
TORSDOF 0
ENDMDL
