MODEL 1
REMARK minimizedAffinity 6.23245716
REMARK minimizedRMSD -1
REMARK  0 active torsions:
REMARK  status: ('A' for Active; 'I' for Inactive)
ROOT
ATOM      1  C   UNL d   1       1.282   0.639  -2.832  0.00  0.00     0.020 A 
ATOM      2  C1  UNL d   1       0.803   0.110  -1.634  0.00  0.00     0.020 A 
ATOM      3  C2  UNL d   1       1.209   0.660  -0.417  0.00  0.00     0.034 A 
ATOM      4  C3  UNL d   1       2.096   1.742  -0.394  0.00  0.00     0.017 A 
ATOM      5  C4  UNL d   1       2.576   2.273  -1.597  0.00  0.00     0.017 A 
ATOM      6  C5  UNL d   1       2.166   1.718  -2.813  0.00  0.00     0.034 A 
ATOM      7 Cl   UNL d   1       3.673   3.607  -1.649  0.00  0.00    -0.070 Cl
ATOM      8 Cl1  UNL d   1       2.556   2.372   1.148  0.00  0.00    -0.070 Cl
ENDROOT
TORSDOF 0
ENDMDL
