MODEL 1
REMARK minimizedAffinity 8.11267185
REMARK minimizedRMSD -1
REMARK  0 active torsions:
REMARK  status: ('A' for Active; 'I' for Inactive)
ROOT
ATOM      1  C   UNL d   1      -4.928   5.944   6.000  0.00  0.00     0.020 A 
ATOM      2  C1  UNL d   1      -3.535   6.000   5.981  0.00  0.00     0.020 A 
ATOM      3  C2  UNL d   1      -2.845   5.803   4.783  0.00  0.00     0.034 A 
ATOM      4  C3  UNL d   1      -3.547   5.550   3.599  0.00  0.00     0.017 A 
ATOM      5  C4  UNL d   1      -4.946   5.494   3.619  0.00  0.00     0.017 A 
ATOM      6  C5  UNL d   1      -5.632   5.692   4.822  0.00  0.00     0.034 A 
ATOM      7 Cl   UNL d   1      -5.882   5.186   2.199  0.00  0.00    -0.070 Cl
ATOM      8 Cl1  UNL d   1      -2.629   5.317   2.154  0.00  0.00    -0.070 Cl
ENDROOT
TORSDOF 0
ENDMDL
