MODEL 1
REMARK minimizedAffinity 12.9570742
REMARK minimizedRMSD -1
REMARK  0 active torsions:
REMARK  status: ('A' for Active; 'I' for Inactive)
ROOT
ATOM      1  C   UNL d   1       0.422   0.009  -1.333  0.00  0.00     0.020 A 
ATOM      2  C1  UNL d   1       0.950   0.721  -2.410  0.00  0.00     0.020 A 
ATOM      3  C2  UNL d   1       1.346   0.045  -3.566  0.00  0.00     0.034 A 
ATOM      4  C3  UNL d   1       1.215  -1.346  -3.649  0.00  0.00     0.017 A 
ATOM      5  C4  UNL d   1       0.684  -2.059  -2.568  0.00  0.00     0.017 A 
ATOM      6  C5  UNL d   1       0.290  -1.378  -1.412  0.00  0.00     0.034 A 
ATOM      7 Cl   UNL d   1       0.492  -3.777  -2.595  0.00  0.00    -0.070 Cl
ATOM      8 Cl1  UNL d   1       1.724  -2.116  -5.109  0.00  0.00    -0.070 Cl
ENDROOT
TORSDOF 0
ENDMDL
