MODEL 1
REMARK minimizedAffinity 4.17845583
REMARK minimizedRMSD -1
REMARK  0 active torsions:
REMARK  status: ('A' for Active; 'I' for Inactive)
ROOT
ATOM      1  C   UNL d   1       5.449  -0.737   4.270  0.00  0.00     0.020 A 
ATOM      2  C1  UNL d   1       5.999   0.504   4.589  0.00  0.00     0.020 A 
ATOM      3  C2  UNL d   1       5.569   1.651   3.919  0.00  0.00     0.034 A 
ATOM      4  C3  UNL d   1       4.587   1.560   2.926  0.00  0.00     0.017 A 
ATOM      5  C4  UNL d   1       4.036   0.314   2.607  0.00  0.00     0.017 A 
ATOM      6  C5  UNL d   1       4.470  -0.831   3.281  0.00  0.00     0.034 A 
ATOM      7 Cl   UNL d   1       2.819   0.123   1.394  0.00  0.00    -0.070 Cl
ATOM      8 Cl1  UNL d   1       4.103   3.020   2.139  0.00  0.00    -0.070 Cl
ENDROOT
TORSDOF 0
ENDMDL
