MODEL 1
REMARK minimizedAffinity 4.98262215
REMARK minimizedRMSD -1
REMARK  0 active torsions:
REMARK  status: ('A' for Active; 'I' for Inactive)
ROOT
ATOM      1  C   UNL d   1      -4.222   5.337   5.789  0.00  0.00     0.020 A 
ATOM      2  C1  UNL d   1      -2.920   5.303   5.292  0.00  0.00     0.020 A 
ATOM      3  C2  UNL d   1      -2.314   4.078   5.004  0.00  0.00     0.034 A 
ATOM      4  C3  UNL d   1      -3.010   2.882   5.214  0.00  0.00     0.017 A 
ATOM      5  C4  UNL d   1      -4.317   2.917   5.714  0.00  0.00     0.017 A 
ATOM      6  C5  UNL d   1      -4.919   4.146   6.000  0.00  0.00     0.034 A 
ATOM      7 Cl   UNL d   1      -5.239   1.483   5.999  0.00  0.00    -0.070 Cl
ATOM      8 Cl1  UNL d   1      -2.200   1.403   4.837  0.00  0.00    -0.070 Cl
ENDROOT
TORSDOF 0
ENDMDL
