MODEL 1
REMARK minimizedAffinity 7.61791754
REMARK minimizedRMSD -1
REMARK  0 active torsions:
REMARK  status: ('A' for Active; 'I' for Inactive)
ROOT
ATOM      1  C   UNL d   1       0.996  -2.327  -3.454  0.00  0.00     0.020 A 
ATOM      2  C1  UNL d   1       1.171  -1.089  -4.070  0.00  0.00     0.020 A 
ATOM      3  C2  UNL d   1       0.862   0.085  -3.379  0.00  0.00     0.034 A 
ATOM      4  C3  UNL d   1       0.377   0.022  -2.067  0.00  0.00     0.017 A 
ATOM      5  C4  UNL d   1       0.202  -1.221  -1.450  0.00  0.00     0.017 A 
ATOM      6  C5  UNL d   1       0.512  -2.393  -2.147  0.00  0.00     0.034 A 
ATOM      7 Cl   UNL d   1      -0.392  -1.378   0.166  0.00  0.00    -0.070 Cl
ATOM      8 Cl1  UNL d   1       0.017   1.513  -1.272  0.00  0.00    -0.070 Cl
ENDROOT
TORSDOF 0
ENDMDL
