MODEL 1
REMARK minimizedAffinity 3.70429373
REMARK minimizedRMSD -1
REMARK  0 active torsions:
REMARK  status: ('A' for Active; 'I' for Inactive)
ROOT
ATOM      1  C   UNL d   1       5.912   1.240  -4.814  0.00  0.00     0.020 A 
ATOM      2  C1  UNL d   1       4.903   1.060  -5.760  0.00  0.00     0.020 A 
ATOM      3  C2  UNL d   1       3.981   2.080  -6.000  0.00  0.00     0.034 A 
ATOM      4  C3  UNL d   1       4.064   3.285  -5.294  0.00  0.00     0.017 A 
ATOM      5  C4  UNL d   1       5.077   3.466  -4.344  0.00  0.00     0.017 A 
ATOM      6  C5  UNL d   1       5.998   2.441  -4.108  0.00  0.00     0.034 A 
ATOM      7 Cl   UNL d   1       5.245   4.925  -3.434  0.00  0.00    -0.070 Cl
ATOM      8 Cl1  UNL d   1       2.890   4.504  -5.642  0.00  0.00    -0.070 Cl
ENDROOT
TORSDOF 0
ENDMDL
