MODEL 1
REMARK minimizedAffinity 7.48329735
REMARK minimizedRMSD -1
REMARK  0 active torsions:
REMARK  status: ('A' for Active; 'I' for Inactive)
ROOT
ATOM      1  C   UNL d   1      -2.454  -1.383   5.284  0.00  0.00     0.020 A 
ATOM      2  C1  UNL d   1      -3.277  -2.342   4.696  0.00  0.00     0.020 A 
ATOM      3  C2  UNL d   1      -4.305  -1.949   3.838  0.00  0.00     0.034 A 
ATOM      4  C3  UNL d   1      -4.513  -0.592   3.564  0.00  0.00     0.017 A 
ATOM      5  C4  UNL d   1      -3.687   0.371   4.155  0.00  0.00     0.017 A 
ATOM      6  C5  UNL d   1      -2.658  -0.029   5.014  0.00  0.00     0.034 A 
ATOM      7 Cl   UNL d   1      -3.882   2.064   3.865  0.00  0.00    -0.070 Cl
ATOM      8 Cl1  UNL d   1      -5.804  -0.177   2.492  0.00  0.00    -0.070 Cl
ENDROOT
TORSDOF 0
ENDMDL
