MODEL 1
REMARK minimizedAffinity 10.9648972
REMARK minimizedRMSD -1
REMARK  0 active torsions:
REMARK  status: ('A' for Active; 'I' for Inactive)
ROOT
ATOM      1  C   UNL d   1      -3.944   5.991   5.991  0.00  0.00     0.020 A 
ATOM      2  C1  UNL d   1      -5.335   5.988   5.894  0.00  0.00     0.020 A 
ATOM      3  C2  UNL d   1      -5.949   5.741   4.665  0.00  0.00     0.034 A 
ATOM      4  C3  UNL d   1      -5.172   5.496   3.527  0.00  0.00     0.017 A 
ATOM      5  C4  UNL d   1      -3.776   5.498   3.625  0.00  0.00     0.017 A 
ATOM      6  C5  UNL d   1      -3.166   5.746   4.859  0.00  0.00     0.034 A 
ATOM      7 Cl   UNL d   1      -2.750   5.204   2.265  0.00  0.00    -0.070 Cl
ATOM      8 Cl1  UNL d   1      -5.997   5.197   2.039  0.00  0.00    -0.070 Cl
ENDROOT
TORSDOF 0
ENDMDL
