MODEL 1
REMARK minimizedAffinity 7.60970402
REMARK minimizedRMSD -1
REMARK  0 active torsions:
REMARK  status: ('A' for Active; 'I' for Inactive)
ROOT
ATOM      1  C   UNL d   1       5.988   2.598  -4.878  0.00  0.00     0.020 A 
ATOM      2  C1  UNL d   1       5.074   2.183  -5.846  0.00  0.00     0.020 A 
ATOM      3  C2  UNL d   1       3.863   2.862  -5.999  0.00  0.00     0.034 A 
ATOM      4  C3  UNL d   1       3.564   3.960  -5.185  0.00  0.00     0.017 A 
ATOM      5  C4  UNL d   1       4.482   4.376  -4.214  0.00  0.00     0.017 A 
ATOM      6  C5  UNL d   1       5.693   3.692  -4.065  0.00  0.00     0.034 A 
ATOM      7 Cl   UNL d   1       4.183   5.722  -3.172  0.00  0.00    -0.070 Cl
ATOM      8 Cl1  UNL d   1       2.048   4.752  -5.430  0.00  0.00    -0.070 Cl
ENDROOT
TORSDOF 0
ENDMDL
