MODEL 1
REMARK minimizedAffinity 12.8296289
REMARK minimizedRMSD -1
REMARK  0 active torsions:
REMARK  status: ('A' for Active; 'I' for Inactive)
ROOT
ATOM      1  C   UNL d   1       0.229   0.975  -1.256  0.00  0.00     0.020 A 
ATOM      2  C1  UNL d   1       0.972   0.624  -2.382  0.00  0.00     0.020 A 
ATOM      3  C2  UNL d   1       1.120  -0.720  -2.729  0.00  0.00     0.034 A 
ATOM      4  C3  UNL d   1       0.524  -1.719  -1.949  0.00  0.00     0.017 A 
ATOM      5  C4  UNL d   1      -0.222  -1.365  -0.819  0.00  0.00     0.017 A 
ATOM      6  C5  UNL d   1      -0.367  -0.017  -0.476  0.00  0.00     0.034 A 
ATOM      7 Cl   UNL d   1      -0.987  -2.540   0.191  0.00  0.00    -0.070 Cl
ATOM      8 Cl1  UNL d   1       0.748  -3.361  -2.438  0.00  0.00    -0.070 Cl
ENDROOT
TORSDOF 0
ENDMDL
