MODEL 1
REMARK minimizedAffinity 6.22322702
REMARK minimizedRMSD -1
REMARK  0 active torsions:
REMARK  status: ('A' for Active; 'I' for Inactive)
ROOT
ATOM      1  C   UNL d   1      -3.206   5.996   5.956  0.00  0.00     0.020 A 
ATOM      2  C1  UNL d   1      -4.591   5.840   5.996  0.00  0.00     0.020 A 
ATOM      3  C2  UNL d   1      -5.301   5.599   4.818  0.00  0.00     0.034 A 
ATOM      4  C3  UNL d   1      -4.626   5.512   3.595  0.00  0.00     0.017 A 
ATOM      5  C4  UNL d   1      -3.236   5.668   3.556  0.00  0.00     0.017 A 
ATOM      6  C5  UNL d   1      -2.530   5.910   4.738  0.00  0.00     0.034 A 
ATOM      7 Cl   UNL d   1      -2.334   5.573   2.084  0.00  0.00    -0.070 Cl
ATOM      8 Cl1  UNL d   1      -5.568   5.210   2.178  0.00  0.00    -0.070 Cl
ENDROOT
TORSDOF 0
ENDMDL
