MODEL 1
REMARK minimizedAffinity 0.364641994
REMARK minimizedRMSD -1
REMARK  0 active torsions:
REMARK  status: ('A' for Active; 'I' for Inactive)
ROOT
ATOM      1  C   UNL d   1      -0.068  -0.124  -1.482  0.00  0.00     0.020 A 
ATOM      2  C1  UNL d   1       0.559  -0.968  -0.567  0.00  0.00     0.020 A 
ATOM      3  C2  UNL d   1       1.609  -0.489   0.219  0.00  0.00     0.034 A 
ATOM      4  C3  UNL d   1       2.035   0.839   0.091  0.00  0.00     0.017 A 
ATOM      5  C4  UNL d   1       1.405   1.685  -0.828  0.00  0.00     0.017 A 
ATOM      6  C5  UNL d   1       0.354   1.199  -1.613  0.00  0.00     0.034 A 
ATOM      7 Cl   UNL d   1       1.875   3.334  -1.043  0.00  0.00    -0.070 Cl
ATOM      8 Cl1  UNL d   1       3.339   1.364   1.095  0.00  0.00    -0.070 Cl
ENDROOT
TORSDOF 0
ENDMDL
