MODEL 1
REMARK minimizedAffinity 8.58158779
REMARK minimizedRMSD -1
REMARK  0 active torsions:
REMARK  status: ('A' for Active; 'I' for Inactive)
ROOT
ATOM      1  C   UNL d   1       5.988   2.584  -4.591  0.00  0.00     0.020 A 
ATOM      2  C1  UNL d   1       5.222   2.170  -5.679  0.00  0.00     0.020 A 
ATOM      3  C2  UNL d   1       4.042   2.845  -6.000  0.00  0.00     0.034 A 
ATOM      4  C3  UNL d   1       3.625   3.937  -5.231  0.00  0.00     0.017 A 
ATOM      5  C4  UNL d   1       4.395   4.352  -4.138  0.00  0.00     0.017 A 
ATOM      6  C5  UNL d   1       5.575   3.673  -3.822  0.00  0.00     0.034 A 
ATOM      7 Cl   UNL d   1       3.945   5.692  -3.143  0.00  0.00    -0.070 Cl
ATOM      8 Cl1  UNL d   1       2.156   4.725  -5.684  0.00  0.00    -0.070 Cl
ENDROOT
TORSDOF 0
ENDMDL
