MODEL 1
REMARK minimizedAffinity -4.36884975
REMARK minimizedRMSD -1
REMARK  1 active torsions:
REMARK  status: ('A' for Active; 'I' for Inactive)
REMARK    1  A    between atoms: C3_4  and  O_7 
ROOT
ATOM      1  C   UNL d   1      -0.043  -0.147  -0.624  0.00  0.00    -0.033 A 
ATOM      2  C1  UNL d   1       0.907   0.213   0.333  0.00  0.00     0.039 A 
ATOM      3  C2  UNL d   1       0.506   0.822   1.524  0.00  0.00    -0.080 A 
ATOM      4  C3  UNL d   1      -0.847   1.065   1.745  0.00  0.00     0.150 A 
ATOM      5  C4  UNL d   1      -1.799   0.706   0.798  0.00  0.00    -0.007 A 
ATOM      6  C5  UNL d   1      -1.397   0.098  -0.391  0.00  0.00     0.039 A 
ENDROOT
BRANCH   4   7
ATOM      7  O   UNL d   1      -1.286   1.662   2.889  0.00  0.00    -0.526 OA
ATOM      8  H5  UNL d   1      -0.514   1.880   3.438  0.00  0.00     0.418 HD
ENDBRANCH   4   7
TORSDOF 1
ENDMDL
