MODEL 1
REMARK minimizedAffinity -4.54179621
REMARK minimizedRMSD -1
REMARK  1 active torsions:
REMARK  status: ('A' for Active; 'I' for Inactive)
REMARK    1  A    between atoms: C3_4  and  O_7 
ROOT
ATOM      1  C   UNL d   1      -0.273   0.868   2.032  0.00  0.00    -0.033 A 
ATOM      2  C1  UNL d   1      -1.379   0.419   1.309  0.00  0.00     0.039 A 
ATOM      3  C2  UNL d   1      -1.206  -0.160   0.050  0.00  0.00    -0.080 A 
ATOM      4  C3  UNL d   1       0.078  -0.284  -0.473  0.00  0.00     0.150 A 
ATOM      5  C4  UNL d   1       1.186   0.158   0.243  0.00  0.00    -0.007 A 
ATOM      6  C5  UNL d   1       1.010   0.737   1.499  0.00  0.00     0.039 A 
ENDROOT
BRANCH   4   7
ATOM      7  O   UNL d   1       0.297  -0.837  -1.700  0.00  0.00    -0.526 OA
ATOM      8  H5  UNL d   1      -0.562  -1.071  -2.090  0.00  0.00     0.418 HD
ENDBRANCH   4   7
TORSDOF 1
ENDMDL
