MODEL 1
REMARK minimizedAffinity -3.92554259
REMARK minimizedRMSD -1
REMARK  1 active torsions:
REMARK  status: ('A' for Active; 'I' for Inactive)
REMARK    1  A    between atoms: C3_4  and  O_7 
ROOT
ATOM      1  C   UNL d   1      -0.609  -0.439  -0.637  0.00  0.00    -0.033 A 
ATOM      2  C1  UNL d   1       0.506  -0.255   0.183  0.00  0.00     0.039 A 
ATOM      3  C2  UNL d   1       0.367   0.377   1.421  0.00  0.00    -0.080 A 
ATOM      4  C3  UNL d   1      -0.889   0.819   1.825  0.00  0.00     0.150 A 
ATOM      5  C4  UNL d   1      -2.004   0.636   1.014  0.00  0.00    -0.007 A 
ATOM      6  C5  UNL d   1      -1.864   0.006  -0.221  0.00  0.00     0.039 A 
ENDROOT
BRANCH   4   7
ATOM      7  O   UNL d   1      -1.073   1.446   3.022  0.00  0.00    -0.526 OA
ATOM      8  H5  UNL d   1      -0.210   1.528   3.462  0.00  0.00     0.418 HD
ENDBRANCH   4   7
TORSDOF 1
ENDMDL
