MODEL 1
REMARK minimizedAffinity -5.22257614
REMARK minimizedRMSD -1
REMARK  1 active torsions:
REMARK  status: ('A' for Active; 'I' for Inactive)
REMARK    1  A    between atoms: C3_4  and  O_7 
ROOT
ATOM      1  C   UNL d   1      -0.264  -0.319  -0.223  0.00  0.00    -0.033 A 
ATOM      2  C1  UNL d   1       0.732   0.271   0.557  0.00  0.00     0.039 A 
ATOM      3  C2  UNL d   1       0.385   1.037   1.672  0.00  0.00    -0.080 A 
ATOM      4  C3  UNL d   1      -0.958   1.204   1.995  0.00  0.00     0.150 A 
ATOM      5  C4  UNL d   1      -1.955   0.616   1.224  0.00  0.00    -0.007 A 
ATOM      6  C5  UNL d   1      -1.608  -0.148   0.111  0.00  0.00     0.039 A 
ENDROOT
BRANCH   4   7
ATOM      7  O   UNL d   1      -1.345   1.947   3.071  0.00  0.00    -0.526 OA
ATOM      8  H5  UNL d   1      -0.551   2.316   3.492  0.00  0.00     0.418 HD
ENDBRANCH   4   7
TORSDOF 1
ENDMDL
