MODEL 1
REMARK minimizedAffinity -4.64989662
REMARK minimizedRMSD -1
REMARK  1 active torsions:
REMARK  status: ('A' for Active; 'I' for Inactive)
REMARK    1  A    between atoms: C3_4  and  O_7 
ROOT
ATOM      1  C   UNL d   1      -0.911   1.125   3.018  0.00  0.00    -0.033 A 
ATOM      2  C1  UNL d   1      -1.866   0.630   2.127  0.00  0.00     0.039 A 
ATOM      3  C2  UNL d   1      -1.471   0.133   0.883  0.00  0.00    -0.080 A 
ATOM      4  C3  UNL d   1      -0.121   0.134   0.544  0.00  0.00     0.150 A 
ATOM      5  C4  UNL d   1       0.836   0.622   1.428  0.00  0.00    -0.007 A 
ATOM      6  C5  UNL d   1       0.440   1.119   2.669  0.00  0.00     0.039 A 
ENDROOT
BRANCH   4   7
ATOM      7  O   UNL d   1       0.312  -0.337  -0.660  0.00  0.00    -0.526 OA
ATOM      8  H5  UNL d   1      -0.462  -0.614  -1.178  0.00  0.00     0.418 HD
ENDBRANCH   4   7
TORSDOF 1
ENDMDL
