MODEL 1
REMARK minimizedAffinity -2.06750703
REMARK minimizedRMSD -1
REMARK  1 active torsions:
REMARK  status: ('A' for Active; 'I' for Inactive)
REMARK    1  A    between atoms: C3_4  and  O_7 
ROOT
ATOM      1  C   UNL d   1      -0.532   0.192  -0.412  0.00  0.00    -0.033 A 
ATOM      2  C1  UNL d   1      -0.300  -1.172  -0.598  0.00  0.00     0.039 A 
ATOM      3  C2  UNL d   1       0.771  -1.794   0.047  0.00  0.00    -0.080 A 
ATOM      4  C3  UNL d   1       1.600  -1.042   0.875  0.00  0.00     0.150 A 
ATOM      5  C4  UNL d   1       1.373   0.317   1.068  0.00  0.00    -0.007 A 
ATOM      6  C5  UNL d   1       0.303   0.936   0.422  0.00  0.00     0.039 A 
ENDROOT
BRANCH   4   7
ATOM      7  O   UNL d   1       2.661  -1.604   1.522  0.00  0.00    -0.526 OA
ATOM      8  H5  UNL d   1       2.712  -2.541   1.271  0.00  0.00     0.418 HD
ENDBRANCH   4   7
TORSDOF 1
ENDMDL
