MODEL 1
REMARK minimizedAffinity -4.1960516
REMARK minimizedRMSD -1
REMARK  1 active torsions:
REMARK  status: ('A' for Active; 'I' for Inactive)
REMARK    1  A    between atoms: C3_4  and  O_7 
ROOT
ATOM      1  C   UNL d   1      -0.222  -1.142  -0.674  0.00  0.00    -0.033 A 
ATOM      2  C1  UNL d   1      -1.586  -0.864  -0.563  0.00  0.00     0.039 A 
ATOM      3  C2  UNL d   1      -2.064  -0.127   0.521  0.00  0.00    -0.080 A 
ATOM      4  C3  UNL d   1      -1.170   0.328   1.486  0.00  0.00     0.150 A 
ATOM      5  C4  UNL d   1       0.190   0.059   1.381  0.00  0.00    -0.007 A 
ATOM      6  C5  UNL d   1       0.666  -0.679   0.298  0.00  0.00     0.039 A 
ENDROOT
BRANCH   4   7
ATOM      7  O   UNL d   1      -1.591   1.048   2.565  0.00  0.00    -0.526 OA
ATOM      8  H5  UNL d   1      -2.558   1.132   2.521  0.00  0.00     0.418 HD
ENDBRANCH   4   7
TORSDOF 1
ENDMDL
