MODEL 1
REMARK minimizedAffinity -4.05431795
REMARK minimizedRMSD -1
REMARK  1 active torsions:
REMARK  status: ('A' for Active; 'I' for Inactive)
REMARK    1  A    between atoms: C3_4  and  O_7 
ROOT
ATOM      1  C   UNL d   1       0.533  -0.629  -0.273  0.00  0.00    -0.033 A 
ATOM      2  C1  UNL d   1       1.160  -0.197   0.898  0.00  0.00     0.039 A 
ATOM      3  C2  UNL d   1       0.413   0.412   1.908  0.00  0.00    -0.080 A 
ATOM      4  C3  UNL d   1      -0.958   0.582   1.736  0.00  0.00     0.150 A 
ATOM      5  C4  UNL d   1      -1.590   0.151   0.574  0.00  0.00    -0.007 A 
ATOM      6  C5  UNL d   1      -0.843  -0.456  -0.434  0.00  0.00     0.039 A 
ENDROOT
BRANCH   4   7
ATOM      7  O   UNL d   1      -1.728   1.175   2.692  0.00  0.00    -0.526 OA
ATOM      8  H5  UNL d   1      -1.152   1.447   3.426  0.00  0.00     0.418 HD
ENDBRANCH   4   7
TORSDOF 1
ENDMDL
