MODEL 1
REMARK minimizedAffinity -1.82561803
REMARK minimizedRMSD -1
REMARK  0 active torsions:
REMARK  status: ('A' for Active; 'I' for Inactive)
ROOT
ATOM      1  C   UNL d   1       1.381  -1.518   0.764  0.00  0.00     0.023 A 
ATOM      2  C1  UNL d   1      -0.008  -1.469   0.884  0.00  0.00     0.003 A 
ATOM      3  C2  UNL d   1      -0.751  -0.611   0.070  0.00  0.00     0.048 A 
ATOM      4  C3  UNL d   1      -0.098   0.194  -0.862  0.00  0.00     0.023 A 
ATOM      5  C4  UNL d   1       1.291   0.148  -0.987  0.00  0.00     0.048 A 
ATOM      6  C5  UNL d   1       2.030  -0.710  -0.170  0.00  0.00     0.003 A 
ATOM      7  I   UNL d   1      -1.202   1.472  -2.075  0.00  0.00    -0.146 I 
ENDROOT
TORSDOF 0
ENDMDL
