MODEL 1
REMARK minimizedAffinity -5.73477888
REMARK minimizedRMSD -1
REMARK  0 active torsions:
REMARK  status: ('A' for Active; 'I' for Inactive)
ROOT
ATOM      1  C   UNL d   1       1.095  -3.020   1.853  0.00  0.00     0.023 A 
ATOM      2  C1  UNL d   1       0.055  -2.299   2.439  0.00  0.00     0.003 A 
ATOM      3  C2  UNL d   1      -0.407  -1.125   1.841  0.00  0.00     0.048 A 
ATOM      4  C3  UNL d   1       0.176  -0.678   0.655  0.00  0.00     0.023 A 
ATOM      5  C4  UNL d   1       1.216  -1.397   0.064  0.00  0.00     0.048 A 
ATOM      6  C5  UNL d   1       1.675  -2.570   0.667  0.00  0.00     0.003 A 
ATOM      7  I   UNL d   1      -0.510   1.069  -0.238  0.00  0.00    -0.146 I 
ENDROOT
TORSDOF 0
ENDMDL
