MODEL 1
REMARK minimizedAffinity -2.5799427
REMARK minimizedRMSD -1
REMARK  0 active torsions:
REMARK  status: ('A' for Active; 'I' for Inactive)
ROOT
ATOM      1  C   UNL d   1       2.219  -1.559   0.227  0.00  0.00     0.023 A 
ATOM      2  C1  UNL d   1       0.932  -1.467   0.756  0.00  0.00     0.003 A 
ATOM      3  C2  UNL d   1       0.059  -0.475   0.305  0.00  0.00     0.048 A 
ATOM      4  C3  UNL d   1       0.480   0.422  -0.676  0.00  0.00     0.023 A 
ATOM      5  C4  UNL d   1       1.768   0.334  -1.209  0.00  0.00     0.048 A 
ATOM      6  C5  UNL d   1       2.637  -0.659  -0.754  0.00  0.00     0.003 A 
ATOM      7  I   UNL d   1      -0.817   1.900  -1.349  0.00  0.00    -0.146 I 
ENDROOT
TORSDOF 0
ENDMDL
