MODEL 1
REMARK minimizedAffinity -4.62113142
REMARK minimizedRMSD -1
REMARK  0 active torsions:
REMARK  status: ('A' for Active; 'I' for Inactive)
ROOT
ATOM      1  C   UNL d   1       1.705  -2.348   0.226  0.00  0.00     0.023 A 
ATOM      2  C1  UNL d   1       2.163  -1.102  -0.202  0.00  0.00     0.003 A 
ATOM      3  C2  UNL d   1       1.267  -0.042  -0.354  0.00  0.00     0.048 A 
ATOM      4  C3  UNL d   1      -0.085  -0.234  -0.076  0.00  0.00     0.023 A 
ATOM      5  C4  UNL d   1      -0.548  -1.479   0.353  0.00  0.00     0.048 A 
ATOM      6  C5  UNL d   1       0.351  -2.537   0.503  0.00  0.00     0.003 A 
ATOM      7  I   UNL d   1      -1.421   1.342  -0.301  0.00  0.00    -0.146 I 
ENDROOT
TORSDOF 0
ENDMDL
