MODEL 1
REMARK minimizedAffinity -2.66024709
REMARK minimizedRMSD -1
REMARK  0 active torsions:
REMARK  status: ('A' for Active; 'I' for Inactive)
ROOT
ATOM      1  C   UNL d   1       1.731  -2.236   0.799  0.00  0.00     0.023 A 
ATOM      2  C1  UNL d   1       0.405  -2.181   1.228  0.00  0.00     0.003 A 
ATOM      3  C2  UNL d   1      -0.356  -1.033   1.002  0.00  0.00     0.048 A 
ATOM      4  C3  UNL d   1       0.214   0.058   0.347  0.00  0.00     0.023 A 
ATOM      5  C4  UNL d   1       1.541   0.007  -0.084  0.00  0.00     0.048 A 
ATOM      6  C5  UNL d   1       2.299  -1.143   0.144  0.00  0.00     0.003 A 
ATOM      7  I   UNL d   1      -0.917   1.768   0.010  0.00  0.00    -0.146 I 
ENDROOT
TORSDOF 0
ENDMDL
