MODEL 1
REMARK minimizedAffinity -3.9043622
REMARK minimizedRMSD -1
REMARK  0 active torsions:
REMARK  status: ('A' for Active; 'I' for Inactive)
ROOT
ATOM      1  C   UNL d   1       1.568  -2.786   1.147  0.00  0.00     0.023 A 
ATOM      2  C1  UNL d   1       2.236  -1.926   0.276  0.00  0.00     0.003 A 
ATOM      3  C2  UNL d   1       1.597  -0.780  -0.203  0.00  0.00     0.048 A 
ATOM      4  C3  UNL d   1       0.290  -0.500   0.195  0.00  0.00     0.023 A 
ATOM      5  C4  UNL d   1      -0.382  -1.357   1.067  0.00  0.00     0.048 A 
ATOM      6  C5  UNL d   1       0.261  -2.502   1.543  0.00  0.00     0.003 A 
ATOM      7  I   UNL d   1      -0.663   1.205  -0.516  0.00  0.00    -0.146 I 
ENDROOT
TORSDOF 0
ENDMDL
