MODEL 1
REMARK minimizedAffinity -1.363814
REMARK minimizedRMSD -1
REMARK  0 active torsions:
REMARK  status: ('A' for Active; 'I' for Inactive)
ROOT
ATOM      1  C   UNL d   1       2.074  -1.749   0.402  0.00  0.00     0.023 A 
ATOM      2  C1  UNL d   1       2.442  -0.748  -0.497  0.00  0.00     0.003 A 
ATOM      3  C2  UNL d   1       1.511   0.217  -0.888  0.00  0.00     0.048 A 
ATOM      4  C3  UNL d   1       0.215   0.176  -0.374  0.00  0.00     0.023 A 
ATOM      5  C4  UNL d   1      -0.156  -0.823   0.527  0.00  0.00     0.048 A 
ATOM      6  C5  UNL d   1       0.777  -1.786   0.914  0.00  0.00     0.003 A 
ATOM      7  I   UNL d   1      -1.171   1.612  -0.954  0.00  0.00    -0.146 I 
ENDROOT
TORSDOF 0
ENDMDL
