MODEL 1
REMARK minimizedAffinity -1.33568585
REMARK minimizedRMSD -1
REMARK  0 active torsions:
REMARK  status: ('A' for Active; 'I' for Inactive)
ROOT
ATOM      1  C   UNL d   1       2.257  -2.210   0.732  0.00  0.00     0.023 A 
ATOM      2  C1  UNL d   1       2.715  -0.968   0.292  0.00  0.00     0.003 A 
ATOM      3  C2  UNL d   1       1.803   0.023  -0.077  0.00  0.00     0.048 A 
ATOM      4  C3  UNL d   1       0.434  -0.234  -0.003  0.00  0.00     0.023 A 
ATOM      5  C4  UNL d   1      -0.028  -1.475   0.438  0.00  0.00     0.048 A 
ATOM      6  C5  UNL d   1       0.887  -2.463   0.804  0.00  0.00     0.003 A 
ATOM      7  I   UNL d   1      -0.925   1.240  -0.551  0.00  0.00    -0.146 I 
ENDROOT
TORSDOF 0
ENDMDL
