MODEL 1
REMARK minimizedAffinity -0.541952789
REMARK minimizedRMSD -1
REMARK  0 active torsions:
REMARK  status: ('A' for Active; 'I' for Inactive)
ROOT
ATOM      1  C   UNL d   1       1.905  -2.580   0.326  0.00  0.00     0.023 A 
ATOM      2  C1  UNL d   1       0.544  -2.831   0.145  0.00  0.00     0.003 A 
ATOM      3  C2  UNL d   1      -0.354  -1.767   0.030  0.00  0.00     0.048 A 
ATOM      4  C3  UNL d   1       0.116  -0.456   0.095  0.00  0.00     0.023 A 
ATOM      5  C4  UNL d   1       1.476  -0.200   0.275  0.00  0.00     0.048 A 
ATOM      6  C5  UNL d   1       2.370  -1.266   0.391  0.00  0.00     0.003 A 
ATOM      7  I   UNL d   1      -1.219   1.128  -0.077  0.00  0.00    -0.146 I 
ENDROOT
TORSDOF 0
ENDMDL
