MODEL 1
REMARK minimizedAffinity -2.30126715
REMARK minimizedRMSD -1
REMARK  0 active torsions:
REMARK  status: ('A' for Active; 'I' for Inactive)
ROOT
ATOM      1  C   UNL d   1       1.939  -2.730   0.821  0.00  0.00     0.023 A 
ATOM      2  C1  UNL d   1       2.127  -1.454   0.289  0.00  0.00     0.003 A 
ATOM      3  C2  UNL d   1       1.064  -0.549   0.249  0.00  0.00     0.048 A 
ATOM      4  C3  UNL d   1      -0.184  -0.927   0.744  0.00  0.00     0.023 A 
ATOM      5  C4  UNL d   1      -0.376  -2.202   1.277  0.00  0.00     0.048 A 
ATOM      6  C5  UNL d   1       0.689  -3.104   1.314  0.00  0.00     0.003 A 
ATOM      7  I   UNL d   1      -1.768   0.418   0.686  0.00  0.00    -0.146 I 
ENDROOT
TORSDOF 0
ENDMDL
