MODEL 1
REMARK minimizedAffinity -1.95580924
REMARK minimizedRMSD -1
REMARK  0 active torsions:
REMARK  status: ('A' for Active; 'I' for Inactive)
ROOT
ATOM      1  C   UNL d   1       1.665  -1.236   0.491  0.00  0.00     0.023 A 
ATOM      2  C1  UNL d   1       0.290  -1.325   0.710  0.00  0.00     0.003 A 
ATOM      3  C2  UNL d   1      -0.587  -0.516  -0.016  0.00  0.00     0.048 A 
ATOM      4  C3  UNL d   1      -0.083   0.379  -0.959  0.00  0.00     0.023 A 
ATOM      5  C4  UNL d   1       1.292   0.470  -1.182  0.00  0.00     0.048 A 
ATOM      6  C5  UNL d   1       2.165  -0.340  -0.453  0.00  0.00     0.003 A 
ATOM      7  I   UNL d   1      -1.386   1.584  -2.040  0.00  0.00    -0.146 I 
ENDROOT
TORSDOF 0
ENDMDL
