MODEL 1
REMARK minimizedAffinity -2.82369041
REMARK minimizedRMSD -1
REMARK  1 active torsions:
REMARK  status: ('A' for Active; 'I' for Inactive)
REMARK    1  A    between atoms: C3_4  and  O_7 
ROOT
ATOM      1  C   UNL d   1      -0.151  -0.176   0.008  0.00  0.00    -0.033 A 
ATOM      2  C1  UNL d   1      -1.284  -0.401   0.793  0.00  0.00     0.039 A 
ATOM      3  C2  UNL d   1      -1.529   0.395   1.913  0.00  0.00    -0.080 A 
ATOM      4  C3  UNL d   1      -0.636   1.413   2.237  0.00  0.00     0.150 A 
ATOM      5  C4  UNL d   1       0.492   1.646   1.458  0.00  0.00    -0.007 A 
ATOM      6  C5  UNL d   1       0.736   0.849   0.340  0.00  0.00     0.039 A 
ENDROOT
BRANCH   4   7
ATOM      7  O   UNL d   1      -0.831   2.213   3.324  0.00  0.00    -0.526 OA
ATOM      8  H5  UNL d   1      -1.634   1.918   3.783  0.00  0.00     0.418 HD
ENDBRANCH   4   7
TORSDOF 1
ENDMDL
