MODEL 1
REMARK minimizedAffinity -5.56331587
REMARK minimizedRMSD -1
REMARK  1 active torsions:
REMARK  status: ('A' for Active; 'I' for Inactive)
REMARK    1  A    between atoms: C3_4  and  O_7 
ROOT
ATOM      1  C   UNL d   1      -0.548  -0.459  -0.172  0.00  0.00    -0.033 A 
ATOM      2  C1  UNL d   1       0.592  -0.010   0.497  0.00  0.00     0.039 A 
ATOM      3  C2  UNL d   1       0.466   0.742   1.667  0.00  0.00    -0.080 A 
ATOM      4  C3  UNL d   1      -0.804   1.037   2.156  0.00  0.00     0.150 A 
ATOM      5  C4  UNL d   1      -1.944   0.589   1.496  0.00  0.00    -0.007 A 
ATOM      6  C5  UNL d   1      -1.816  -0.161   0.328  0.00  0.00     0.039 A 
ENDROOT
BRANCH   4   7
ATOM      7  O   UNL d   1      -0.977   1.771   3.291  0.00  0.00    -0.526 OA
ATOM      8  H5  UNL d   1      -0.103   2.036   3.623  0.00  0.00     0.418 HD
ENDBRANCH   4   7
TORSDOF 1
ENDMDL
