MODEL 1
REMARK minimizedAffinity -3.60950375
REMARK minimizedRMSD -1
REMARK  1 active torsions:
REMARK  status: ('A' for Active; 'I' for Inactive)
REMARK    1  A    between atoms: C3_4  and  O_7 
ROOT
ATOM      1  C   UNL d   1      -1.206   1.030   2.207  0.00  0.00    -0.033 A 
ATOM      2  C1  UNL d   1      -2.122   0.741   1.194  0.00  0.00     0.039 A 
ATOM      3  C2  UNL d   1      -1.672   0.282  -0.046  0.00  0.00    -0.080 A 
ATOM      4  C3  UNL d   1      -0.306   0.116  -0.259  0.00  0.00     0.150 A 
ATOM      5  C4  UNL d   1       0.611   0.399   0.747  0.00  0.00    -0.007 A 
ATOM      6  C5  UNL d   1       0.161   0.857   1.984  0.00  0.00     0.039 A 
ENDROOT
BRANCH   4   7
ATOM      7  O   UNL d   1       0.180  -0.324  -1.454  0.00  0.00    -0.526 OA
ATOM      8  H5  UNL d   1      -0.567  -0.451  -2.062  0.00  0.00     0.418 HD
ENDBRANCH   4   7
TORSDOF 1
ENDMDL
