MODEL 1
REMARK minimizedAffinity -2.43550134
REMARK minimizedRMSD -1
REMARK  1 active torsions:
REMARK  status: ('A' for Active; 'I' for Inactive)
REMARK    1  A    between atoms: C3_4  and  O_7 
ROOT
ATOM      1  C   UNL d   1       1.131  -1.126  -0.714  0.00  0.00    -0.033 A 
ATOM      2  C1  UNL d   1       1.794  -0.997   0.508  0.00  0.00     0.039 A 
ATOM      3  C2  UNL d   1       1.425   0.009   1.403  0.00  0.00    -0.080 A 
ATOM      4  C3  UNL d   1       0.391   0.879   1.064  0.00  0.00     0.150 A 
ATOM      5  C4  UNL d   1      -0.277   0.754  -0.149  0.00  0.00    -0.007 A 
ATOM      6  C5  UNL d   1       0.094  -0.251  -1.042  0.00  0.00     0.039 A 
ENDROOT
BRANCH   4   7
ATOM      7  O   UNL d   1      -0.001   1.879   1.903  0.00  0.00    -0.526 OA
ATOM      8  H5  UNL d   1       0.568   1.862   2.690  0.00  0.00     0.418 HD
ENDBRANCH   4   7
TORSDOF 1
ENDMDL
