MODEL 1
REMARK minimizedAffinity -4.85217237
REMARK minimizedRMSD -1
REMARK  1 active torsions:
REMARK  status: ('A' for Active; 'I' for Inactive)
REMARK    1  A    between atoms: C3_4  and  O_7 
ROOT
ATOM      1  C   UNL d   1       0.508  -0.201  -0.064  0.00  0.00    -0.033 A 
ATOM      2  C1  UNL d   1       1.346  -0.029   1.039  0.00  0.00     0.039 A 
ATOM      3  C2  UNL d   1       0.862   0.579   2.199  0.00  0.00    -0.080 A 
ATOM      4  C3  UNL d   1      -0.462   1.009   2.243  0.00  0.00     0.150 A 
ATOM      5  C4  UNL d   1      -1.304   0.838   1.149  0.00  0.00    -0.007 A 
ATOM      6  C5  UNL d   1      -0.818   0.231  -0.008  0.00  0.00     0.039 A 
ENDROOT
BRANCH   4   7
ATOM      7  O   UNL d   1      -0.978   1.612   3.351  0.00  0.00    -0.526 OA
ATOM      8  H5  UNL d   1      -0.274   1.689   4.016  0.00  0.00     0.418 HD
ENDBRANCH   4   7
TORSDOF 1
ENDMDL
