MODEL 1
REMARK minimizedAffinity -2.15734768
REMARK minimizedRMSD -1
REMARK  1 active torsions:
REMARK  status: ('A' for Active; 'I' for Inactive)
REMARK    1  A    between atoms: C3_4  and  O_7 
ROOT
ATOM      1  C   UNL d   1       0.267   0.297   1.755  0.00  0.00    -0.033 A 
ATOM      2  C1  UNL d   1       0.254   0.231   0.360  0.00  0.00     0.039 A 
ATOM      3  C2  UNL d   1      -0.944   0.396  -0.337  0.00  0.00    -0.080 A 
ATOM      4  C3  UNL d   1      -2.120   0.629   0.370  0.00  0.00     0.150 A 
ATOM      5  C4  UNL d   1      -2.114   0.700   1.760  0.00  0.00    -0.007 A 
ATOM      6  C5  UNL d   1      -0.917   0.533   2.455  0.00  0.00     0.039 A 
ENDROOT
BRANCH   4   7
ATOM      7  O   UNL d   1      -3.315   0.792  -0.266  0.00  0.00    -0.526 OA
ATOM      8  H5  UNL d   1      -3.171   0.689  -1.222  0.00  0.00     0.418 HD
ENDBRANCH   4   7
TORSDOF 1
ENDMDL
