MODEL 1
REMARK minimizedAffinity -4.47682285
REMARK minimizedRMSD -1
REMARK  1 active torsions:
REMARK  status: ('A' for Active; 'I' for Inactive)
REMARK    1  A    between atoms: C3_4  and  O_7 
ROOT
ATOM      1  C   UNL d   1      -1.298   1.809   2.370  0.00  0.00    -0.033 A 
ATOM      2  C1  UNL d   1      -1.989   0.643   2.036  0.00  0.00     0.039 A 
ATOM      3  C2  UNL d   1      -1.482  -0.216   1.060  0.00  0.00    -0.080 A 
ATOM      4  C3  UNL d   1      -0.284   0.101   0.426  0.00  0.00     0.150 A 
ATOM      5  C4  UNL d   1       0.412   1.259   0.756  0.00  0.00    -0.007 A 
ATOM      6  C5  UNL d   1      -0.097   2.117   1.731  0.00  0.00     0.039 A 
ENDROOT
BRANCH   4   7
ATOM      7  O   UNL d   1       0.249  -0.704  -0.537  0.00  0.00    -0.526 OA
ATOM      8  H5  UNL d   1      -0.355  -1.452  -0.680  0.00  0.00     0.418 HD
ENDBRANCH   4   7
TORSDOF 1
ENDMDL
