MODEL 1
REMARK minimizedAffinity -5.24557543
REMARK minimizedRMSD -1
REMARK  1 active torsions:
REMARK  status: ('A' for Active; 'I' for Inactive)
REMARK    1  A    between atoms: C3_4  and  O_7 
ROOT
ATOM      1  C   UNL d   1      -0.348   0.387  -0.096  0.00  0.00    -0.033 A 
ATOM      2  C1  UNL d   1      -1.365  -0.139   0.704  0.00  0.00     0.039 A 
ATOM      3  C2  UNL d   1      -1.537   0.322   2.010  0.00  0.00    -0.080 A 
ATOM      4  C3  UNL d   1      -0.687   1.308   2.504  0.00  0.00     0.150 A 
ATOM      5  C4  UNL d   1       0.325   1.839   1.712  0.00  0.00    -0.007 A 
ATOM      6  C5  UNL d   1       0.496   1.377   0.408  0.00  0.00     0.039 A 
ENDROOT
BRANCH   4   7
ATOM      7  O   UNL d   1      -0.813   1.786   3.775  0.00  0.00    -0.526 OA
ATOM      8  H5  UNL d   1      -1.536   1.307   4.214  0.00  0.00     0.418 HD
ENDBRANCH   4   7
TORSDOF 1
ENDMDL
