MODEL 1
REMARK minimizedAffinity 18.0073986
REMARK minimizedRMSD -1
REMARK  3 active torsions:
REMARK  status: ('A' for Active; 'I' for Inactive)
REMARK    1  A    between atoms: C3'_2  and  C2'_3 
REMARK    2  A    between atoms: C2'_3  and  C1'_4 
REMARK    3  A    between atoms: C1'_4  and  C1_5 
ROOT
ATOM      1  C1  N4B d   1       2.436  -1.755   3.310  0.00  0.00    -0.075 A 
ATOM      2  C2  N4B d   1       3.121  -0.539   3.096  0.00  0.00     0.002 A 
ATOM      3  C3  N4B d   1       2.779   0.578   3.817  0.00  0.00     0.002 A 
ATOM      4  C4  N4B d   1       1.748   0.509   4.741  0.00  0.00    -0.004 A 
ATOM      5  C5  N4B d   1       1.108  -0.676   4.961  0.00  0.00     0.002 A 
ATOM      6  C6  N4B d   1       1.443  -1.808   4.246  0.00  0.00     0.002 A 
ENDROOT
BRANCH   1   7
ATOM      7  C1' N4B d   1       2.716  -2.981   2.485  0.00  0.00     0.057 C 
BRANCH   7   8
ATOM      8  C2' N4B d   1       2.734  -2.597   1.008  0.00  0.00     0.009 C 
BRANCH   8   9
ATOM      9  C3' N4B d   1       4.059  -2.940   0.349  0.00  0.00     0.004 C 
ATOM     10  C4' N4B d   1       4.672  -1.771  -0.364  0.00  0.00     0.003 C 
ENDBRANCH   8   9
ENDBRANCH   7   8
ENDBRANCH   1   7
TORSDOF 3
ENDMDL
