MODEL 1
REMARK minimizedAffinity 8.39526939
REMARK minimizedRMSD -1
REMARK  3 active torsions:
REMARK  status: ('A' for Active; 'I' for Inactive)
REMARK    1  A    between atoms: C3'_2  and  C2'_3 
REMARK    2  A    between atoms: C2'_3  and  C1'_4 
REMARK    3  A    between atoms: C1'_4  and  C1_5 
ROOT
ATOM      1  C1  N4B d   1       1.253  -3.841  -1.866  0.00  0.00    -0.075 A 
ATOM      2  C2  N4B d   1       1.678  -2.574  -1.409  0.00  0.00     0.002 A 
ATOM      3  C3  N4B d   1       0.774  -1.546  -1.297  0.00  0.00     0.002 A 
ATOM      4  C4  N4B d   1      -0.551  -1.756  -1.651  0.00  0.00    -0.004 A 
ATOM      5  C5  N4B d   1      -0.958  -2.990  -2.068  0.00  0.00     0.002 A 
ATOM      6  C6  N4B d   1      -0.061  -4.033  -2.182  0.00  0.00     0.002 A 
ENDROOT
BRANCH   1   7
ATOM      7  C1' N4B d   1       2.221  -4.971  -2.087  0.00  0.00     0.057 C 
BRANCH   7   8
ATOM      8  C2' N4B d   1       2.961  -4.746  -3.403  0.00  0.00     0.009 C 
BRANCH   8   9
ATOM      9  C3' N4B d   1       4.381  -5.284  -3.356  0.00  0.00     0.004 C 
ATOM     10  C4' N4B d   1       5.240  -4.752  -4.464  0.00  0.00     0.003 C 
ENDBRANCH   8   9
ENDBRANCH   7   8
ENDBRANCH   1   7
TORSDOF 3
ENDMDL
