MODEL 1
REMARK minimizedAffinity 13.7131329
REMARK minimizedRMSD -1
REMARK  3 active torsions:
REMARK  status: ('A' for Active; 'I' for Inactive)
REMARK    1  A    between atoms: C3'_2  and  C2'_3 
REMARK    2  A    between atoms: C2'_3  and  C1'_4 
REMARK    3  A    between atoms: C1'_4  and  C1_5 
ROOT
ATOM      1  C1  N4B d   1       5.415  -3.368  -1.816  0.00  0.00    -0.075 A 
ATOM      2  C2  N4B d   1       5.722  -3.244  -3.189  0.00  0.00     0.002 A 
ATOM      3  C3  N4B d   1       5.230  -4.158  -4.088  0.00  0.00     0.002 A 
ATOM      4  C4  N4B d   1       4.448  -5.211  -3.638  0.00  0.00    -0.004 A 
ATOM      5  C5  N4B d   1       4.135  -5.309  -2.313  0.00  0.00     0.002 A 
ATOM      6  C6  N4B d   1       4.619  -4.395  -1.399  0.00  0.00     0.002 A 
ENDROOT
BRANCH   1   7
ATOM      7  C1' N4B d   1       6.000  -2.442  -0.785  0.00  0.00     0.057 C 
BRANCH   7   8
ATOM      8  C2' N4B d   1       5.232  -1.124  -0.802  0.00  0.00     0.009 C 
BRANCH   8   9
ATOM      9  C3' N4B d   1       3.971  -1.189   0.042  0.00  0.00     0.004 C 
ATOM     10  C4' N4B d   1       2.905  -0.248  -0.434  0.00  0.00     0.003 C 
ENDBRANCH   8   9
ENDBRANCH   7   8
ENDBRANCH   1   7
TORSDOF 3
ENDMDL
