MODEL 1
REMARK minimizedAffinity 15.0986404
REMARK minimizedRMSD -1
REMARK  3 active torsions:
REMARK  status: ('A' for Active; 'I' for Inactive)
REMARK    1  A    between atoms: C3'_2  and  C2'_3 
REMARK    2  A    between atoms: C2'_3  and  C1'_4 
REMARK    3  A    between atoms: C1'_4  and  C1_5 
ROOT
ATOM      1  C1  N4B d   1      -0.164   3.323   0.520  0.00  0.00    -0.075 A 
ATOM      2  C2  N4B d   1      -0.721   4.434  -0.150  0.00  0.00     0.002 A 
ATOM      3  C3  N4B d   1       0.026   5.572  -0.330  0.00  0.00     0.002 A 
ATOM      4  C4  N4B d   1       1.320   5.629   0.165  0.00  0.00    -0.004 A 
ATOM      5  C5  N4B d   1       1.860   4.542   0.788  0.00  0.00     0.002 A 
ATOM      6  C6  N4B d   1       1.122   3.390   0.973  0.00  0.00     0.002 A 
ENDROOT
BRANCH   1   7
ATOM      7  C1' N4B d   1      -0.971   2.088   0.816  0.00  0.00     0.057 C 
BRANCH   7   8
ATOM      8  C2' N4B d   1      -0.954   1.174  -0.405  0.00  0.00     0.009 C 
BRANCH   8   9
ATOM      9  C3' N4B d   1      -2.340   0.652  -0.743  0.00  0.00     0.004 C 
ATOM     10  C4' N4B d   1      -2.867   1.198  -2.036  0.00  0.00     0.003 C 
ENDBRANCH   8   9
ENDBRANCH   7   8
ENDBRANCH   1   7
TORSDOF 3
ENDMDL
