MODEL 1
REMARK minimizedAffinity 11.3236208
REMARK minimizedRMSD -1
REMARK  3 active torsions:
REMARK  status: ('A' for Active; 'I' for Inactive)
REMARK    1  A    between atoms: C3'_2  and  C2'_3 
REMARK    2  A    between atoms: C2'_3  and  C1'_4 
REMARK    3  A    between atoms: C1'_4  and  C1_5 
ROOT
ATOM      1  C1  N4B d   1      -0.328   1.547   0.153  0.00  0.00    -0.075 A 
ATOM      2  C2  N4B d   1       0.793   0.797  -0.264  0.00  0.00     0.002 A 
ATOM      3  C3  N4B d   1       0.617  -0.336  -1.020  0.00  0.00     0.002 A 
ATOM      4  C4  N4B d   1      -0.665  -0.746  -1.355  0.00  0.00    -0.004 A 
ATOM      5  C5  N4B d   1      -1.741  -0.001  -0.969  0.00  0.00     0.002 A 
ATOM      6  C6  N4B d   1      -1.579   1.142  -0.212  0.00  0.00     0.002 A 
ENDROOT
BRANCH   1   7
ATOM      7  C1' N4B d   1      -0.192   2.745   1.053  0.00  0.00     0.057 C 
BRANCH   7   8
ATOM      8  C2' N4B d   1       0.709   3.777   0.381  0.00  0.00     0.009 C 
BRANCH   8   9
ATOM      9  C3' N4B d   1      -0.082   4.748  -0.478  0.00  0.00     0.004 C 
ATOM     10  C4' N4B d   1       0.682   5.999  -0.794  0.00  0.00     0.003 C 
ENDBRANCH   8   9
ENDBRANCH   7   8
ENDBRANCH   1   7
TORSDOF 3
ENDMDL
