MODEL 1
REMARK minimizedAffinity -1.86010575
REMARK minimizedRMSD -1
REMARK  0 active torsions:
REMARK  status: ('A' for Active; 'I' for Inactive)
ROOT
ATOM      1  C1  BNZ d   1      -1.239  -1.653   2.978  0.00  0.00     0.000 A 
ATOM      2  C2  BNZ d   1      -0.439  -2.440   3.763  0.00  0.00     0.000 A 
ATOM      3  C3  BNZ d   1       0.912  -2.232   3.814  0.00  0.00     0.000 A 
ATOM      4  C4  BNZ d   1       1.464  -1.267   3.052  0.00  0.00     0.000 A 
ATOM      5  C5  BNZ d   1       0.671  -0.471   2.249  0.00  0.00     0.000 A 
ATOM      6  C6  BNZ d   1      -0.692  -0.657   2.229  0.00  0.00     0.000 A 
ENDROOT
TORSDOF 0
ENDMDL
