MODEL 1
REMARK minimizedAffinity 1.93560171
REMARK minimizedRMSD -1
REMARK  0 active torsions:
REMARK  status: ('A' for Active; 'I' for Inactive)
ROOT
ATOM      1  C1  BNZ d   1      -1.355  -1.074   1.520  0.00  0.00     0.000 A 
ATOM      2  C2  BNZ d   1      -2.279  -1.076   0.509  0.00  0.00     0.000 A 
ATOM      3  C3  BNZ d   1      -2.558   0.068  -0.185  0.00  0.00     0.000 A 
ATOM      4  C4  BNZ d   1      -1.945   1.219   0.159  0.00  0.00     0.000 A 
ATOM      5  C5  BNZ d   1      -1.019   1.239   1.182  0.00  0.00     0.000 A 
ATOM      6  C6  BNZ d   1      -0.711   0.078   1.853  0.00  0.00     0.000 A 
ENDROOT
TORSDOF 0
ENDMDL
