MODEL 1
REMARK minimizedAffinity 3.6911056
REMARK minimizedRMSD -1
REMARK  0 active torsions:
REMARK  status: ('A' for Active; 'I' for Inactive)
ROOT
ATOM      1  C1  BNZ d   1       0.048  -0.815   3.464  0.00  0.00     0.000 A 
ATOM      2  C2  BNZ d   1      -0.979  -0.204   2.795  0.00  0.00     0.000 A 
ATOM      3  C3  BNZ d   1      -0.803   0.274   1.527  0.00  0.00     0.000 A 
ATOM      4  C4  BNZ d   1       0.410   0.177   0.945  0.00  0.00     0.000 A 
ATOM      5  C5  BNZ d   1       1.458  -0.427   1.610  0.00  0.00     0.000 A 
ATOM      6  C6  BNZ d   1       1.266  -0.942   2.872  0.00  0.00     0.000 A 
ENDROOT
TORSDOF 0
ENDMDL
