MODEL 1
REMARK minimizedAffinity 3.81564784
REMARK minimizedRMSD -1
REMARK  0 active torsions:
REMARK  status: ('A' for Active; 'I' for Inactive)
ROOT
ATOM      1  C1  BNZ d   1      -1.004  -0.912   1.967  0.00  0.00     0.000 A 
ATOM      2  C2  BNZ d   1      -0.062  -1.809   2.393  0.00  0.00     0.000 A 
ATOM      3  C3  BNZ d   1       1.253  -1.450   2.490  0.00  0.00     0.000 A 
ATOM      4  C4  BNZ d   1       1.630  -0.208   2.123  0.00  0.00     0.000 A 
ATOM      5  C5  BNZ d   1       0.694   0.705   1.683  0.00  0.00     0.000 A 
ATOM      6  C6  BNZ d   1      -0.635   0.352   1.623  0.00  0.00     0.000 A 
ENDROOT
TORSDOF 0
ENDMDL
