MODEL 1
REMARK minimizedAffinity 2.10329723
REMARK minimizedRMSD -1
REMARK  0 active torsions:
REMARK  status: ('A' for Active; 'I' for Inactive)
ROOT
ATOM      1  C1  BNZ d   1       3.718   5.419  -0.106  0.00  0.00     0.000 A 
ATOM      2  C2  BNZ d   1       4.926   6.000  -0.385  0.00  0.00     0.000 A 
ATOM      3  C3  BNZ d   1       5.933   6.000   0.540  0.00  0.00     0.000 A 
ATOM      4  C4  BNZ d   1       5.717   5.455   1.755  0.00  0.00     0.000 A 
ATOM      5  C5  BNZ d   1       4.501   4.874   2.054  0.00  0.00     0.000 A 
ATOM      6  C6  BNZ d   1       3.503   4.841   1.107  0.00  0.00     0.000 A 
ENDROOT
TORSDOF 0
ENDMDL
