MODEL 1
REMARK minimizedAffinity -1.97005713
REMARK minimizedRMSD -1
REMARK  0 active torsions:
REMARK  status: ('A' for Active; 'I' for Inactive)
ROOT
ATOM      1  C1  BNZ d   1      -2.115   1.394  -4.502  0.00  0.00     0.000 A 
ATOM      2  C2  BNZ d   1      -3.031   0.886  -5.384  0.00  0.00     0.000 A 
ATOM      3  C3  BNZ d   1      -4.068   0.110  -4.946  0.00  0.00     0.000 A 
ATOM      4  C4  BNZ d   1      -4.165  -0.189  -3.635  0.00  0.00     0.000 A 
ATOM      5  C5  BNZ d   1      -3.244   0.308  -2.734  0.00  0.00     0.000 A 
ATOM      6  C6  BNZ d   1      -2.224   1.120  -3.173  0.00  0.00     0.000 A 
ENDROOT
TORSDOF 0
ENDMDL
