MODEL 1
REMARK minimizedAffinity -2.20163465
REMARK minimizedRMSD -1
REMARK  0 active torsions:
REMARK  status: ('A' for Active; 'I' for Inactive)
ROOT
ATOM      1  C1  BNZ d   1       1.183  -0.424   2.574  0.00  0.00     0.000 A 
ATOM      2  C2  BNZ d   1       0.803   0.714   1.913  0.00  0.00     0.000 A 
ATOM      3  C3  BNZ d   1      -0.508   0.930   1.591  0.00  0.00     0.000 A 
ATOM      4  C4  BNZ d   1      -1.429  -0.008   1.893  0.00  0.00     0.000 A 
ATOM      5  C5  BNZ d   1      -1.059  -1.164   2.550  0.00  0.00     0.000 A 
ATOM      6  C6  BNZ d   1       0.255  -1.361   2.908  0.00  0.00     0.000 A 
ENDROOT
TORSDOF 0
ENDMDL
