MODEL 1
REMARK minimizedAffinity 8.82356262
REMARK minimizedRMSD -1
REMARK  0 active torsions:
REMARK  status: ('A' for Active; 'I' for Inactive)
ROOT
ATOM      1  C   UNL d   1       1.530  -2.942  -1.134  0.00  0.00     0.023 A 
ATOM      2  C1  UNL d   1       2.602  -2.199  -0.640  0.00  0.00     0.003 A 
ATOM      3  C2  UNL d   1       3.831  -2.816  -0.401  0.00  0.00     0.048 A 
ATOM      4  C3  UNL d   1       3.982  -4.178  -0.659  0.00  0.00     0.023 A 
ATOM      5  C4  UNL d   1       2.913  -4.926  -1.155  0.00  0.00     0.048 A 
ATOM      6  C5  UNL d   1       1.686  -4.305  -1.391  0.00  0.00     0.003 A 
ATOM      7  I   UNL d   1       5.811  -5.100  -0.305  0.00  0.00    -0.146 I 
ENDROOT
TORSDOF 0
ENDMDL
