MODEL 1
REMARK minimizedAffinity 13.5651627
REMARK minimizedRMSD -1
REMARK  0 active torsions:
REMARK  status: ('A' for Active; 'I' for Inactive)
ROOT
ATOM      1  C   UNL d   1      -3.591   2.514  -5.119  0.00  0.00     0.023 A 
ATOM      2  C1  UNL d   1      -3.864   1.146  -5.077  0.00  0.00     0.003 A 
ATOM      3  C2  UNL d   1      -4.283   0.553  -3.885  0.00  0.00     0.048 A 
ATOM      4  C3  UNL d   1      -4.429   1.332  -2.738  0.00  0.00     0.023 A 
ATOM      5  C4  UNL d   1      -4.158   2.701  -2.775  0.00  0.00     0.048 A 
ATOM      6  C5  UNL d   1      -3.738   3.290  -3.969  0.00  0.00     0.003 A 
ATOM      7  I   UNL d   1      -5.054   0.451  -0.963  0.00  0.00    -0.146 I 
ENDROOT
TORSDOF 0
ENDMDL
