MODEL 1
REMARK minimizedAffinity 5.93950081
REMARK minimizedRMSD -1
REMARK  0 active torsions:
REMARK  status: ('A' for Active; 'I' for Inactive)
ROOT
ATOM      1  C   UNL d   1       1.475   3.946  -1.132  0.00  0.00     0.023 A 
ATOM      2  C1  UNL d   1       0.201   3.391  -1.258  0.00  0.00     0.003 A 
ATOM      3  C2  UNL d   1      -0.381   2.723  -0.179  0.00  0.00     0.048 A 
ATOM      4  C3  UNL d   1       0.316   2.615   1.024  0.00  0.00     0.023 A 
ATOM      5  C4  UNL d   1       1.590   3.169   1.155  0.00  0.00     0.048 A 
ATOM      6  C5  UNL d   1       2.168   3.835   0.073  0.00  0.00     0.003 A 
ATOM      7  I   UNL d   1      -0.549   1.621   2.632  0.00  0.00    -0.146 I 
ENDROOT
TORSDOF 0
ENDMDL
