MODEL 1
REMARK minimizedAffinity 9.89081669
REMARK minimizedRMSD -1
REMARK  0 active torsions:
REMARK  status: ('A' for Active; 'I' for Inactive)
ROOT
ATOM      1  C   UNL d   1       4.983  -5.681  -2.887  0.00  0.00     0.023 A 
ATOM      2  C1  UNL d   1       4.497  -5.770  -1.582  0.00  0.00     0.003 A 
ATOM      3  C2  UNL d   1       3.180  -5.402  -1.300  0.00  0.00     0.048 A 
ATOM      4  C3  UNL d   1       2.354  -4.948  -2.328  0.00  0.00     0.023 A 
ATOM      5  C4  UNL d   1       2.836  -4.859  -3.635  0.00  0.00     0.048 A 
ATOM      6  C5  UNL d   1       4.154  -5.226  -3.912  0.00  0.00     0.003 A 
ATOM      7  I   UNL d   1       0.392  -4.401  -1.911  0.00  0.00    -0.146 I 
ENDROOT
TORSDOF 0
ENDMDL
