MODEL 1
REMARK minimizedAffinity 3.45497942
REMARK minimizedRMSD -1
REMARK  0 active torsions:
REMARK  status: ('A' for Active; 'I' for Inactive)
ROOT
ATOM      1  C   UNL d   1      -4.107  -6.000  -5.852  0.00  0.00     0.023 A 
ATOM      2  C1  UNL d   1      -5.373  -5.434  -5.999  0.00  0.00     0.003 A 
ATOM      3  C2  UNL d   1      -5.532  -4.048  -5.942  0.00  0.00     0.048 A 
ATOM      4  C3  UNL d   1      -4.418  -3.233  -5.738  0.00  0.00     0.023 A 
ATOM      5  C4  UNL d   1      -3.149  -3.795  -5.592  0.00  0.00     0.048 A 
ATOM      6  C5  UNL d   1      -2.996  -5.181  -5.648  0.00  0.00     0.003 A 
ATOM      7  I   UNL d   1      -4.651  -1.170  -5.653  0.00  0.00    -0.146 I 
ENDROOT
TORSDOF 0
ENDMDL
