MODEL 1
REMARK minimizedAffinity 5.83104849
REMARK minimizedRMSD -1
REMARK  0 active torsions:
REMARK  status: ('A' for Active; 'I' for Inactive)
ROOT
ATOM      1  C   UNL d   1      -2.244   3.033  -0.054  0.00  0.00     0.023 A 
ATOM      2  C1  UNL d   1      -2.458   3.101   1.323  0.00  0.00     0.003 A 
ATOM      3  C2  UNL d   1      -1.413   2.830   2.208  0.00  0.00     0.048 A 
ATOM      4  C3  UNL d   1      -0.155   2.493   1.710  0.00  0.00     0.023 A 
ATOM      5  C4  UNL d   1       0.065   2.424   0.333  0.00  0.00     0.048 A 
ATOM      6  C5  UNL d   1      -0.984   2.695  -0.548  0.00  0.00     0.003 A 
ATOM      7  I   UNL d   1       1.403   2.089   3.026  0.00  0.00    -0.146 I 
ENDROOT
TORSDOF 0
ENDMDL
