MODEL 1
REMARK minimizedAffinity 7.25661325
REMARK minimizedRMSD -1
REMARK  0 active torsions:
REMARK  status: ('A' for Active; 'I' for Inactive)
ROOT
ATOM      1  C   UNL d   1      -2.984   5.997   1.503  0.00  0.00     0.023 A 
ATOM      2  C1  UNL d   1      -4.351   5.999   1.224  0.00  0.00     0.003 A 
ATOM      3  C2  UNL d   1      -4.802   5.729  -0.069  0.00  0.00     0.048 A 
ATOM      4  C3  UNL d   1      -3.881   5.456  -1.080  0.00  0.00     0.023 A 
ATOM      5  C4  UNL d   1      -2.512   5.452  -0.806  0.00  0.00     0.048 A 
ATOM      6  C5  UNL d   1      -2.066   5.724   0.489  0.00  0.00     0.003 A 
ATOM      7  I   UNL d   1      -4.549   5.052  -3.006  0.00  0.00    -0.146 I 
ENDROOT
TORSDOF 0
ENDMDL
