MODEL 1
REMARK minimizedAffinity 8.13344669
REMARK minimizedRMSD -1
REMARK  0 active torsions:
REMARK  status: ('A' for Active; 'I' for Inactive)
ROOT
ATOM      1  C   UNL d   1      -0.707   2.918  -0.834  0.00  0.00     0.023 A 
ATOM      2  C1  UNL d   1      -1.196   1.937   0.028  0.00  0.00     0.003 A 
ATOM      3  C2  UNL d   1      -0.464   0.767   0.243  0.00  0.00     0.048 A 
ATOM      4  C3  UNL d   1       0.757   0.586  -0.406  0.00  0.00     0.023 A 
ATOM      5  C4  UNL d   1       1.251   1.566  -1.268  0.00  0.00     0.048 A 
ATOM      6  C5  UNL d   1       0.515   2.734  -1.481  0.00  0.00     0.003 A 
ATOM      7  I   UNL d   1       1.848  -1.153  -0.086  0.00  0.00    -0.146 I 
ENDROOT
TORSDOF 0
ENDMDL
