MODEL 1
REMARK minimizedAffinity 3.6795814
REMARK minimizedRMSD -1
REMARK  1 active torsions:
REMARK  status: ('A' for Active; 'I' for Inactive)
REMARK    1  A    between atoms: C1_2  and  C2_3 
ROOT
ATOM      1  C2  UNL d   1       1.360   5.924  -5.252  0.00  0.00    -0.081 A 
ATOM      2  C3  UNL d   1       1.283   5.931  -3.854  0.00  0.00     0.006 A 
ATOM      3  C4  UNL d   1       0.042   5.966  -3.213  0.00  0.00     0.002 A 
ATOM      4  C5  UNL d   1      -1.141   5.988  -3.958  0.00  0.00    -0.080 A 
ATOM      5  C6  UNL d   1      -2.480   5.996  -3.282  0.00  0.00     0.076 C 
ATOM      6  C7  UNL d   1      -1.065   6.000  -5.355  0.00  0.00     0.002 A 
ATOM      7  C8  UNL d   1       0.176   5.965  -5.996  0.00  0.00     0.006 A 
ENDROOT
BRANCH   1   8
ATOM      8  C1  UNL d   1       2.694   5.820  -5.946  0.00  0.00     0.054 C 
ATOM      9  C   UNL d   1       3.843   5.966  -4.959  0.00  0.00     0.018 C 
ENDBRANCH   1   8
TORSDOF 1
ENDMDL
