MODEL 1
REMARK minimizedAffinity 4.66736841
REMARK minimizedRMSD -1
REMARK  1 active torsions:
REMARK  status: ('A' for Active; 'I' for Inactive)
REMARK    1  A    between atoms: C1_2  and  C2_3 
ROOT
ATOM      1  C2  UNL d   1      -1.453  -0.043  -0.698  0.00  0.00    -0.081 A 
ATOM      2  C3  UNL d   1      -2.693  -0.547  -1.108  0.00  0.00     0.006 A 
ATOM      3  C4  UNL d   1      -2.851  -1.086  -2.387  0.00  0.00     0.002 A 
ATOM      4  C5  UNL d   1      -1.770  -1.139  -3.273  0.00  0.00    -0.080 A 
ATOM      5  C6  UNL d   1      -1.918  -1.743  -4.638  0.00  0.00     0.076 C 
ATOM      6  C7  UNL d   1      -0.535  -0.620  -2.870  0.00  0.00     0.002 A 
ATOM      7  C8  UNL d   1      -0.377  -0.080  -1.592  0.00  0.00     0.006 A 
ENDROOT
BRANCH   1   8
ATOM      8  C1  UNL d   1      -1.263   0.480   0.703  0.00  0.00     0.054 C 
ATOM      9  C   UNL d   1       0.212   0.649   1.035  0.00  0.00     0.018 C 
ENDBRANCH   1   8
TORSDOF 1
ENDMDL
