MODEL 1
REMARK minimizedAffinity -1.33463764
REMARK minimizedRMSD -1
REMARK  1 active torsions:
REMARK  status: ('A' for Active; 'I' for Inactive)
REMARK    1  A    between atoms: C1_2  and  C2_3 
ROOT
ATOM      1  C2  UNL d   1       2.214   5.390  -5.592  0.00  0.00    -0.081 A 
ATOM      2  C3  UNL d   1       2.255   4.249  -4.781  0.00  0.00     0.006 A 
ATOM      3  C4  UNL d   1       3.479   3.727  -4.355  0.00  0.00     0.002 A 
ATOM      4  C5  UNL d   1       4.680   4.341  -4.725  0.00  0.00    -0.080 A 
ATOM      5  C6  UNL d   1       5.999   3.809  -4.249  0.00  0.00     0.076 C 
ATOM      6  C7  UNL d   1       4.640   5.471  -5.549  0.00  0.00     0.002 A 
ATOM      7  C8  UNL d   1       3.417   5.993  -5.976  0.00  0.00     0.006 A 
ENDROOT
BRANCH   1   8
ATOM      8  C1  UNL d   1       0.894   5.993  -6.000  0.00  0.00     0.054 C 
ATOM      9  C   UNL d   1      -0.093   5.999  -4.841  0.00  0.00     0.018 C 
ENDBRANCH   1   8
TORSDOF 1
ENDMDL
