MODEL 1
REMARK minimizedAffinity 9.56352997
REMARK minimizedRMSD -1
REMARK  1 active torsions:
REMARK  status: ('A' for Active; 'I' for Inactive)
REMARK    1  A    between atoms: C1_2  and  C2_3 
ROOT
ATOM      1  C2  UNL d   1       0.120   1.531   2.130  0.00  0.00    -0.081 A 
ATOM      2  C3  UNL d   1       0.355   0.542   1.165  0.00  0.00     0.006 A 
ATOM      3  C4  UNL d   1       0.930   0.874  -0.063  0.00  0.00     0.002 A 
ATOM      4  C5  UNL d   1       1.288   2.197  -0.346  0.00  0.00    -0.080 A 
ATOM      5  C6  UNL d   1       1.934   2.562  -1.649  0.00  0.00     0.076 C 
ATOM      6  C7  UNL d   1       1.038   3.187   0.611  0.00  0.00     0.002 A 
ATOM      7  C8  UNL d   1       0.462   2.856   1.839  0.00  0.00     0.006 A 
ENDROOT
BRANCH   1   8
ATOM      8  C1  UNL d   1      -0.440   1.166   3.480  0.00  0.00     0.054 C 
ATOM      9  C   UNL d   1      -1.960   1.248   3.489  0.00  0.00     0.018 C 
ENDBRANCH   1   8
TORSDOF 1
ENDMDL
