MODEL 1
REMARK minimizedAffinity -1.85446179
REMARK minimizedRMSD -1
REMARK  1 active torsions:
REMARK  status: ('A' for Active; 'I' for Inactive)
REMARK    1  A    between atoms: C1_2  and  C2_3 
ROOT
ATOM      1  C2  UNL d   1      -0.532   5.938  -3.667  0.00  0.00    -0.081 A 
ATOM      2  C3  UNL d   1      -1.928   5.969  -3.773  0.00  0.00     0.006 A 
ATOM      3  C4  UNL d   1      -2.725   5.976  -2.626  0.00  0.00     0.002 A 
ATOM      4  C5  UNL d   1      -2.141   5.961  -1.355  0.00  0.00    -0.080 A 
ATOM      5  C6  UNL d   1      -2.985   5.999  -0.116  0.00  0.00     0.076 C 
ATOM      6  C7  UNL d   1      -0.747   5.913  -1.249  0.00  0.00     0.002 A 
ATOM      7  C8  UNL d   1       0.051   5.905  -2.395  0.00  0.00     0.006 A 
ENDROOT
BRANCH   1   8
ATOM      8  C1  UNL d   1       0.332   5.996  -4.901  0.00  0.00     0.054 C 
ATOM      9  C   UNL d   1       1.799   5.778  -4.560  0.00  0.00     0.018 C 
ENDBRANCH   1   8
TORSDOF 1
ENDMDL
