MODEL 1
REMARK minimizedAffinity -2.33126593
REMARK minimizedRMSD -1
REMARK  1 active torsions:
REMARK  status: ('A' for Active; 'I' for Inactive)
REMARK    1  A    between atoms: C1_2  and  C2_3 
ROOT
ATOM      1  C2  UNL d   1      -0.689   5.986  -4.564  0.00  0.00    -0.081 A 
ATOM      2  C3  UNL d   1      -0.095   5.913  -5.830  0.00  0.00     0.006 A 
ATOM      3  C4  UNL d   1       1.294   5.846  -5.958  0.00  0.00     0.002 A 
ATOM      4  C5  UNL d   1       2.112   5.842  -4.823  0.00  0.00    -0.080 A 
ATOM      5  C6  UNL d   1       3.603   5.740  -4.945  0.00  0.00     0.076 C 
ATOM      6  C7  UNL d   1       1.520   5.932  -3.558  0.00  0.00     0.002 A 
ATOM      7  C8  UNL d   1       0.131   6.000  -3.430  0.00  0.00     0.006 A 
ENDROOT
BRANCH   1   8
ATOM      8  C1  UNL d   1      -2.190   5.993  -4.421  0.00  0.00     0.054 C 
ATOM      9  C   UNL d   1      -2.606   5.986  -2.956  0.00  0.00     0.018 C 
ENDBRANCH   1   8
TORSDOF 1
ENDMDL
