MODEL 1
REMARK minimizedAffinity -1.58776093
REMARK minimizedRMSD -1
REMARK  1 active torsions:
REMARK  status: ('A' for Active; 'I' for Inactive)
REMARK    1  A    between atoms: C1_2  and  C2_3 
ROOT
ATOM      1  C2  UNL d   1      -0.403   5.941  -3.983  0.00  0.00    -0.081 A 
ATOM      2  C3  UNL d   1      -1.558   5.886  -4.772  0.00  0.00     0.006 A 
ATOM      3  C4  UNL d   1      -2.822   5.892  -4.178  0.00  0.00     0.002 A 
ATOM      4  C5  UNL d   1      -2.952   5.961  -2.786  0.00  0.00    -0.080 A 
ATOM      5  C6  UNL d   1      -4.304   5.999  -2.137  0.00  0.00     0.076 C 
ATOM      6  C7  UNL d   1      -1.798   5.999  -1.997  0.00  0.00     0.002 A 
ATOM      7  C8  UNL d   1      -0.534   5.992  -2.591  0.00  0.00     0.006 A 
ENDROOT
BRANCH   1   8
ATOM      8  C1  UNL d   1       0.961   6.000  -4.623  0.00  0.00     0.054 C 
ATOM      9  C   UNL d   1       0.954   5.349  -5.999  0.00  0.00     0.018 C 
ENDBRANCH   1   8
TORSDOF 1
ENDMDL
