MODEL 1
REMARK minimizedAffinity -0.0455634147
REMARK minimizedRMSD -1
REMARK  1 active torsions:
REMARK  status: ('A' for Active; 'I' for Inactive)
REMARK    1  A    between atoms: C1_2  and  C2_3 
ROOT
ATOM      1  C2  UNL d   1       1.731   5.976  -5.252  0.00  0.00    -0.081 A 
ATOM      2  C3  UNL d   1       1.658   5.988  -3.854  0.00  0.00     0.006 A 
ATOM      3  C4  UNL d   1       0.419   5.997  -3.209  0.00  0.00     0.002 A 
ATOM      4  C5  UNL d   1      -0.767   5.985  -3.951  0.00  0.00    -0.080 A 
ATOM      5  C6  UNL d   1      -2.104   5.964  -3.271  0.00  0.00     0.076 C 
ATOM      6  C7  UNL d   1      -0.695   5.991  -5.348  0.00  0.00     0.002 A 
ATOM      7  C8  UNL d   1       0.544   5.983  -5.993  0.00  0.00     0.006 A 
ENDROOT
BRANCH   1   8
ATOM      8  C1  UNL d   1       3.065   5.901  -5.950  0.00  0.00     0.054 C 
ATOM      9  C   UNL d   1       4.202   5.727  -4.953  0.00  0.00     0.018 C 
ENDBRANCH   1   8
TORSDOF 1
ENDMDL
