MODEL 1
REMARK minimizedAffinity 3.07539964
REMARK minimizedRMSD -1
REMARK  1 active torsions:
REMARK  status: ('A' for Active; 'I' for Inactive)
REMARK    1  A    between atoms: C1_2  and  C2_3 
ROOT
ATOM      1  C2  UNL d   1      -1.916  -3.276   4.051  0.00  0.00    -0.081 A 
ATOM      2  C3  UNL d   1      -1.609  -2.993   2.715  0.00  0.00     0.006 A 
ATOM      3  C4  UNL d   1      -0.811  -3.866   1.971  0.00  0.00     0.002 A 
ATOM      4  C5  UNL d   1      -0.314  -5.039   2.549  0.00  0.00    -0.080 A 
ATOM      5  C6  UNL d   1       0.519  -5.999   1.753  0.00  0.00     0.076 C 
ATOM      6  C7  UNL d   1      -0.605  -5.313   3.889  0.00  0.00     0.002 A 
ATOM      7  C8  UNL d   1      -1.402  -4.440   4.633  0.00  0.00     0.006 A 
ENDROOT
BRANCH   1   8
ATOM      8  C1  UNL d   1      -2.829  -2.369   4.837  0.00  0.00     0.054 C 
ATOM      9  C   UNL d   1      -3.624  -3.149   5.874  0.00  0.00     0.018 C 
ENDBRANCH   1   8
TORSDOF 1
ENDMDL
