MODEL 1
REMARK minimizedAffinity 0.306238502
REMARK minimizedRMSD -1
REMARK  1 active torsions:
REMARK  status: ('A' for Active; 'I' for Inactive)
REMARK    1  A    between atoms: C1_2  and  C2_3 
ROOT
ATOM      1  C2  UNL d   1      -2.342   5.724  -2.953  0.00  0.00    -0.081 A 
ATOM      2  C3  UNL d   1      -0.988   5.635  -2.608  0.00  0.00     0.006 A 
ATOM      3  C4  UNL d   1      -0.000   5.711  -3.593  0.00  0.00     0.002 A 
ATOM      4  C5  UNL d   1      -0.349   5.886  -4.936  0.00  0.00    -0.080 A 
ATOM      5  C6  UNL d   1       0.703   6.000  -5.999  0.00  0.00     0.076 C 
ATOM      6  C7  UNL d   1      -1.703   5.957  -5.283  0.00  0.00     0.002 A 
ATOM      7  C8  UNL d   1      -2.691   5.880  -4.299  0.00  0.00     0.006 A 
ENDROOT
BRANCH   1   8
ATOM      8  C1  UNL d   1      -3.407   5.706  -1.886  0.00  0.00     0.054 C 
ATOM      9  C   UNL d   1      -2.996   4.835  -0.708  0.00  0.00     0.018 C 
ENDBRANCH   1   8
TORSDOF 1
ENDMDL
