MODEL 1
REMARK minimizedAffinity -3.21335578
REMARK minimizedRMSD -1
REMARK  1 active torsions:
REMARK  status: ('A' for Active; 'I' for Inactive)
REMARK    1  A    between atoms: C1_2  and  C2_3 
ROOT
ATOM      1  C2  UNL d   1       0.130   5.961  -3.888  0.00  0.00    -0.081 A 
ATOM      2  C3  UNL d   1      -0.013   5.977  -2.496  0.00  0.00     0.006 A 
ATOM      3  C4  UNL d   1      -1.283   6.000  -1.914  0.00  0.00     0.002 A 
ATOM      4  C5  UNL d   1      -2.430   5.998  -2.714  0.00  0.00    -0.080 A 
ATOM      5  C6  UNL d   1      -3.800   5.992  -2.102  0.00  0.00     0.076 C 
ATOM      6  C7  UNL d   1      -2.288   6.000  -4.106  0.00  0.00     0.002 A 
ATOM      7  C8  UNL d   1      -1.018   5.978  -4.688  0.00  0.00     0.006 A 
ENDROOT
BRANCH   1   8
ATOM      8  C1  UNL d   1       1.496   5.871  -4.518  0.00  0.00     0.054 C 
ATOM      9  C   UNL d   1       1.404   5.498  -5.990  0.00  0.00     0.018 C 
ENDBRANCH   1   8
TORSDOF 1
ENDMDL
