MODEL 1
REMARK minimizedAffinity -2.32462358
REMARK minimizedRMSD -1
REMARK  1 active torsions:
REMARK  status: ('A' for Active; 'I' for Inactive)
REMARK    1  A    between atoms: C1_2  and  C2_3 
ROOT
ATOM      1  C2  UNL d   1       0.385   5.841  -4.905  0.00  0.00    -0.081 A 
ATOM      2  C3  UNL d   1       0.728   5.913  -3.549  0.00  0.00     0.006 A 
ATOM      3  C4  UNL d   1      -0.266   5.977  -2.570  0.00  0.00     0.002 A 
ATOM      4  C5  UNL d   1      -1.618   5.962  -2.928  0.00  0.00    -0.080 A 
ATOM      5  C6  UNL d   1      -2.695   6.000  -1.885  0.00  0.00     0.076 C 
ATOM      6  C7  UNL d   1      -1.961   5.908  -4.283  0.00  0.00     0.002 A 
ATOM      7  C8  UNL d   1      -0.968   5.844  -5.263  0.00  0.00     0.006 A 
ENDROOT
BRANCH   1   8
ATOM      8  C1  UNL d   1       1.453   5.707  -5.960  0.00  0.00     0.054 C 
ATOM      9  C   UNL d   1       2.834   5.996  -5.389  0.00  0.00     0.018 C 
ENDBRANCH   1   8
TORSDOF 1
ENDMDL
