MODEL 1
REMARK minimizedAffinity 3.44264197
REMARK minimizedRMSD -1
REMARK  1 active torsions:
REMARK  status: ('A' for Active; 'I' for Inactive)
REMARK    1  A    between atoms: C1_2  and  C2_3 
ROOT
ATOM      1  C2  UNL d   1      -1.197   6.000  -3.191  0.00  0.00    -0.081 A 
ATOM      2  C3  UNL d   1      -1.388   5.998  -4.578  0.00  0.00     0.006 A 
ATOM      3  C4  UNL d   1      -0.292   5.985  -5.444  0.00  0.00     0.002 A 
ATOM      4  C5  UNL d   1       1.012   5.966  -4.938  0.00  0.00    -0.080 A 
ATOM      5  C6  UNL d   1       2.196   5.922  -5.857  0.00  0.00     0.076 C 
ATOM      6  C7  UNL d   1       1.204   5.986  -3.553  0.00  0.00     0.002 A 
ATOM      7  C8  UNL d   1       0.108   5.999  -2.686  0.00  0.00     0.006 A 
ENDROOT
BRANCH   1   8
ATOM      8  C1  UNL d   1      -2.377   5.948  -2.254  0.00  0.00     0.054 C 
ATOM      9  C   UNL d   1      -3.692   6.000  -3.018  0.00  0.00     0.018 C 
ENDBRANCH   1   8
TORSDOF 1
ENDMDL
