MODEL 1
REMARK minimizedAffinity 5.35584307
REMARK minimizedRMSD -1
REMARK  1 active torsions:
REMARK  status: ('A' for Active; 'I' for Inactive)
REMARK    1  A    between atoms: C1_2  and  C2_3 
ROOT
ATOM      1  C2  UNL d   1       2.043   2.297  -0.436  0.00  0.00    -0.081 A 
ATOM      2  C3  UNL d   1       1.366   3.244   0.343  0.00  0.00     0.006 A 
ATOM      3  C4  UNL d   1       0.479   2.835   1.341  0.00  0.00     0.002 A 
ATOM      4  C5  UNL d   1       0.260   1.475   1.583  0.00  0.00    -0.080 A 
ATOM      5  C6  UNL d   1      -0.667   1.023   2.672  0.00  0.00     0.076 C 
ATOM      6  C7  UNL d   1       0.923   0.529   0.794  0.00  0.00     0.002 A 
ATOM      7  C8  UNL d   1       1.810   0.937  -0.205  0.00  0.00     0.006 A 
ENDROOT
BRANCH   1   8
ATOM      8  C1  UNL d   1       3.050   2.734  -1.470  0.00  0.00     0.054 C 
ATOM      9  C   UNL d   1       2.584   2.385  -2.876  0.00  0.00     0.018 C 
ENDBRANCH   1   8
TORSDOF 1
ENDMDL
