MODEL 1
REMARK minimizedAffinity 0.655757844
REMARK minimizedRMSD -1
REMARK  1 active torsions:
REMARK  status: ('A' for Active; 'I' for Inactive)
REMARK    1  A    between atoms: C1_2  and  C2_3 
ROOT
ATOM      1  C2  UNL d   1      -0.368   5.869  -4.609  0.00  0.00    -0.081 A 
ATOM      2  C3  UNL d   1      -1.763   5.837  -4.723  0.00  0.00     0.006 A 
ATOM      3  C4  UNL d   1      -2.568   5.864  -3.582  0.00  0.00     0.002 A 
ATOM      4  C5  UNL d   1      -1.992   5.931  -2.309  0.00  0.00    -0.080 A 
ATOM      5  C6  UNL d   1      -2.845   5.991  -1.076  0.00  0.00     0.076 C 
ATOM      6  C7  UNL d   1      -0.598   5.946  -2.194  0.00  0.00     0.002 A 
ATOM      7  C8  UNL d   1       0.207   5.918  -3.335  0.00  0.00     0.006 A 
ENDROOT
BRANCH   1   8
ATOM      8  C1  UNL d   1       0.501   5.906  -5.840  0.00  0.00     0.054 C 
ATOM      9  C   UNL d   1       1.976   5.799  -5.480  0.00  0.00     0.018 C 
ENDBRANCH   1   8
TORSDOF 1
ENDMDL
