MODEL 1
REMARK minimizedAffinity 5.1311698
REMARK minimizedRMSD -1
REMARK  1 active torsions:
REMARK  status: ('A' for Active; 'I' for Inactive)
REMARK    1  A    between atoms: C1_2  and  C2_3 
ROOT
ATOM      1  C2  UNL d   1       3.963   4.126  -4.685  0.00  0.00    -0.081 A 
ATOM      2  C3  UNL d   1       3.993   5.387  -5.292  0.00  0.00     0.006 A 
ATOM      3  C4  UNL d   1       2.812   5.991  -5.729  0.00  0.00     0.002 A 
ATOM      4  C5  UNL d   1       1.581   5.348  -5.560  0.00  0.00    -0.080 A 
ATOM      5  C6  UNL d   1       0.302   5.998  -5.997  0.00  0.00     0.076 C 
ATOM      6  C7  UNL d   1       1.552   4.080  -4.969  0.00  0.00     0.002 A 
ATOM      7  C8  UNL d   1       2.733   3.475  -4.532  0.00  0.00     0.006 A 
ENDROOT
BRANCH   1   8
ATOM      8  C1  UNL d   1       5.227   3.500  -4.154  0.00  0.00     0.054 C 
ATOM      9  C   UNL d   1       5.993   4.470  -3.264  0.00  0.00     0.018 C 
ENDBRANCH   1   8
TORSDOF 1
ENDMDL
