MODEL 1
REMARK minimizedAffinity 0.408661455
REMARK minimizedRMSD -1
REMARK  0 active torsions:
REMARK  status: ('A' for Active; 'I' for Inactive)
ROOT
ATOM      1  C   UNL d   1      -5.257   2.150   2.532  0.00  0.00     0.172 C 
ATOM      2  N   UNL d   1      -5.019   1.745   3.898  0.00  0.00    -0.070 N 
ATOM      3  C1  UNL d   1      -3.789   1.564   4.474  0.00  0.00    -0.004 A 
ATOM      4  C2  UNL d   1      -3.989   1.181   5.782  0.00  0.00    -0.047 A 
ATOM      5  C3  UNL d   1      -5.386   1.128   6.000  0.00  0.00    -0.047 A 
ATOM      6  C4  UNL d   1      -6.000   1.482   4.817  0.00  0.00    -0.004 A 
ENDROOT
TORSDOF 0
ENDMDL
