MODEL 1
REMARK minimizedAffinity 9.99332523
REMARK minimizedRMSD -1
REMARK  0 active torsions:
REMARK  status: ('A' for Active; 'I' for Inactive)
ROOT
ATOM      1  C   UNL d   1       2.668  -4.775   0.364  0.00  0.00     0.172 C 
ATOM      2  N   UNL d   1       2.250  -3.474   0.830  0.00  0.00    -0.070 N 
ATOM      3  C1  UNL d   1       1.294  -2.686   0.247  0.00  0.00    -0.004 A 
ATOM      4  C2  UNL d   1       1.189  -1.530   0.990  0.00  0.00    -0.047 A 
ATOM      5  C3  UNL d   1       2.115  -1.626   2.057  0.00  0.00    -0.047 A 
ATOM      6  C4  UNL d   1       2.758  -2.840   1.933  0.00  0.00    -0.004 A 
ENDROOT
TORSDOF 0
ENDMDL
