MODEL 1
REMARK minimizedAffinity -1.31158781
REMARK minimizedRMSD -1
REMARK  0 active torsions:
REMARK  status: ('A' for Active; 'I' for Inactive)
ROOT
ATOM      1  C   UNL d   1       5.261   2.346  -5.634  0.00  0.00     0.172 C 
ATOM      2  N   UNL d   1       5.035   3.768  -5.747  0.00  0.00    -0.070 N 
ATOM      3  C1  UNL d   1       5.999   4.738  -5.675  0.00  0.00    -0.004 A 
ATOM      4  C2  UNL d   1       5.380   5.960  -5.829  0.00  0.00    -0.047 A 
ATOM      5  C3  UNL d   1       3.997   5.716  -5.998  0.00  0.00    -0.047 A 
ATOM      6  C4  UNL d   1       3.811   4.351  -5.944  0.00  0.00    -0.004 A 
ENDROOT
TORSDOF 0
ENDMDL
