MODEL 1
REMARK minimizedAffinity 4.2332015
REMARK minimizedRMSD -1
REMARK  0 active torsions:
REMARK  status: ('A' for Active; 'I' for Inactive)
ROOT
ATOM      1  C   UNL d   1       1.123   3.727   2.627  0.00  0.00     0.172 C 
ATOM      2  N   UNL d   1       1.838   4.541   3.581  0.00  0.00    -0.070 N 
ATOM      3  C1  UNL d   1       1.271   5.424   4.460  0.00  0.00    -0.004 A 
ATOM      4  C2  UNL d   1       2.286   6.000   5.194  0.00  0.00    -0.047 A 
ATOM      5  C3  UNL d   1       3.505   5.445   4.739  0.00  0.00    -0.047 A 
ATOM      6  C4  UNL d   1       3.199   4.545   3.740  0.00  0.00    -0.004 A 
ENDROOT
TORSDOF 0
ENDMDL
