MODEL 1
REMARK minimizedAffinity 4.85680294
REMARK minimizedRMSD -1
REMARK  0 active torsions:
REMARK  status: ('A' for Active; 'I' for Inactive)
ROOT
ATOM      1  C   UNL d   1       2.632  -1.392   3.492  0.00  0.00     0.172 C 
ATOM      2  N   UNL d   1       1.983  -1.838   2.281  0.00  0.00    -0.070 N 
ATOM      3  C1  UNL d   1       1.670  -3.136   1.975  0.00  0.00    -0.004 A 
ATOM      4  C2  UNL d   1       1.062  -3.143   0.738  0.00  0.00    -0.047 A 
ATOM      5  C3  UNL d   1       1.008  -1.803   0.285  0.00  0.00    -0.047 A 
ATOM      6  C4  UNL d   1       1.585  -1.016   1.260  0.00  0.00    -0.004 A 
ENDROOT
TORSDOF 0
ENDMDL
