MODEL 1
REMARK minimizedAffinity 3.6127367
REMARK minimizedRMSD -1
REMARK  0 active torsions:
REMARK  status: ('A' for Active; 'I' for Inactive)
ROOT
ATOM      1  C   UNL d   1       0.895   4.537  -5.214  0.00  0.00     0.172 C 
ATOM      2  N   UNL d   1      -0.116   3.632  -4.719  0.00  0.00    -0.070 N 
ATOM      3  C1  UNL d   1      -0.507   2.466  -5.321  0.00  0.00    -0.004 A 
ATOM      4  C2  UNL d   1      -1.489   1.897  -4.539  0.00  0.00    -0.047 A 
ATOM      5  C3  UNL d   1      -1.697   2.751  -3.431  0.00  0.00    -0.047 A 
ATOM      6  C4  UNL d   1      -0.834   3.818  -3.567  0.00  0.00    -0.004 A 
ENDROOT
TORSDOF 0
ENDMDL
