MODEL 1
REMARK minimizedAffinity 6.32620382
REMARK minimizedRMSD -1
REMARK  0 active torsions:
REMARK  status: ('A' for Active; 'I' for Inactive)
ROOT
ATOM      1  C   UNL d   1       0.467   2.989  -4.481  0.00  0.00     0.172 C 
ATOM      2  N   UNL d   1      -0.682   2.604  -3.695  0.00  0.00    -0.070 N 
ATOM      3  C1  UNL d   1      -1.981   2.948  -3.959  0.00  0.00    -0.004 A 
ATOM      4  C2  UNL d   1      -2.773   2.387  -2.981  0.00  0.00    -0.047 A 
ATOM      5  C3  UNL d   1      -1.920   1.683  -2.098  0.00  0.00    -0.047 A 
ATOM      6  C4  UNL d   1      -0.631   1.834  -2.564  0.00  0.00    -0.004 A 
ENDROOT
TORSDOF 0
ENDMDL
