MODEL 1
REMARK minimizedAffinity 3.83020115
REMARK minimizedRMSD -1
REMARK  0 active torsions:
REMARK  status: ('A' for Active; 'I' for Inactive)
ROOT
ATOM      1  C   UNL d   1       1.139   4.363  -5.631  0.00  0.00     0.172 C 
ATOM      2  N   UNL d   1       2.532   4.724  -5.749  0.00  0.00    -0.070 N 
ATOM      3  C1  UNL d   1       3.589   3.855  -5.694  0.00  0.00    -0.004 A 
ATOM      4  C2  UNL d   1       4.746   4.588  -5.848  0.00  0.00    -0.047 A 
ATOM      5  C3  UNL d   1       4.371   5.945  -6.000  0.00  0.00    -0.047 A 
ATOM      6  C4  UNL d   1       2.995   6.000  -5.935  0.00  0.00    -0.004 A 
ENDROOT
TORSDOF 0
ENDMDL
