MODEL 1
REMARK minimizedAffinity 0.247619241
REMARK minimizedRMSD -1
REMARK  0 active torsions:
REMARK  status: ('A' for Active; 'I' for Inactive)
ROOT
ATOM      1  C   UNL d   1       2.359  -5.606   0.693  0.00  0.00     0.172 C 
ATOM      2  N   UNL d   1       2.302  -4.210   1.059  0.00  0.00    -0.070 N 
ATOM      3  C1  UNL d   1       1.158  -3.480   1.248  0.00  0.00    -0.004 A 
ATOM      4  C2  UNL d   1       1.528  -2.197   1.586  0.00  0.00    -0.047 A 
ATOM      5  C3  UNL d   1       2.943  -2.153   1.600  0.00  0.00    -0.047 A 
ATOM      6  C4  UNL d   1       3.396  -3.413   1.270  0.00  0.00    -0.004 A 
ENDROOT
TORSDOF 0
ENDMDL
