MODEL 1
REMARK minimizedAffinity 5.94825172
REMARK minimizedRMSD -1
REMARK  0 active torsions:
REMARK  status: ('A' for Active; 'I' for Inactive)
ROOT
ATOM      1  C   UNL d   1       2.377   5.899  -1.746  0.00  0.00     0.172 C 
ATOM      2  N   UNL d   1       3.819   5.939  -1.695  0.00  0.00    -0.070 N 
ATOM      3  C1  UNL d   1       4.656   5.958  -2.780  0.00  0.00    -0.004 A 
ATOM      4  C2  UNL d   1       5.952   5.996  -2.312  0.00  0.00    -0.047 A 
ATOM      5  C3  UNL d   1       5.892   5.998  -0.898  0.00  0.00    -0.047 A 
ATOM      6  C4  UNL d   1       4.560   5.962  -0.543  0.00  0.00    -0.004 A 
ENDROOT
TORSDOF 0
ENDMDL
