MODEL 1
REMARK minimizedAffinity 1.84875095
REMARK minimizedRMSD -1
REMARK  0 active torsions:
REMARK  status: ('A' for Active; 'I' for Inactive)
ROOT
ATOM      1  C   UNL d   1       2.247  -1.216   3.569  0.00  0.00     0.172 C 
ATOM      2  N   UNL d   1       2.531   0.028   2.893  0.00  0.00    -0.070 N 
ATOM      3  C1  UNL d   1       2.741   0.176   1.548  0.00  0.00    -0.004 A 
ATOM      4  C2  UNL d   1       2.978   1.511   1.302  0.00  0.00    -0.047 A 
ATOM      5  C3  UNL d   1       2.907   2.189   2.543  0.00  0.00    -0.047 A 
ATOM      6  C4  UNL d   1       2.629   1.247   3.510  0.00  0.00    -0.004 A 
ENDROOT
TORSDOF 0
ENDMDL
