MODEL 1
REMARK minimizedAffinity 2.51304746
REMARK minimizedRMSD -1
REMARK  0 active torsions:
REMARK  status: ('A' for Active; 'I' for Inactive)
ROOT
ATOM      1  C   UNL d   1      -0.343  -2.259   0.365  0.00  0.00     0.172 C 
ATOM      2  N   UNL d   1       0.578  -2.021   1.452  0.00  0.00    -0.070 N 
ATOM      3  C1  UNL d   1       0.767  -2.842   2.532  0.00  0.00    -0.004 A 
ATOM      4  C2  UNL d   1       1.724  -2.265   3.338  0.00  0.00    -0.047 A 
ATOM      5  C3  UNL d   1       2.124  -1.055   2.722  0.00  0.00    -0.047 A 
ATOM      6  C4  UNL d   1       1.398  -0.929   1.556  0.00  0.00    -0.004 A 
ENDROOT
TORSDOF 0
ENDMDL
