MODEL 1
REMARK minimizedAffinity 0.344968617
REMARK minimizedRMSD -1
REMARK  0 active torsions:
REMARK  status: ('A' for Active; 'I' for Inactive)
ROOT
ATOM      1  C   UNL d   1       2.427  -2.089   3.375  0.00  0.00     0.172 C 
ATOM      2  N   UNL d   1       3.811  -2.398   3.647  0.00  0.00    -0.070 N 
ATOM      3  C1  UNL d   1       4.307  -2.861   4.836  0.00  0.00    -0.004 A 
ATOM      4  C2  UNL d   1       5.667  -3.031   4.690  0.00  0.00    -0.047 A 
ATOM      5  C3  UNL d   1       6.000  -2.655   3.367  0.00  0.00    -0.047 A 
ATOM      6  C4  UNL d   1       4.833  -2.267   2.743  0.00  0.00    -0.004 A 
ENDROOT
TORSDOF 0
ENDMDL
