MODEL 1
REMARK minimizedAffinity 3.40296078
REMARK minimizedRMSD -1
REMARK  0 active torsions:
REMARK  status: ('A' for Active; 'I' for Inactive)
ROOT
ATOM      1  C   UNL d   1       1.307  -2.469   3.024  0.00  0.00     0.172 C 
ATOM      2  N   UNL d   1       2.128  -2.984   4.096  0.00  0.00    -0.070 N 
ATOM      3  C1  UNL d   1       1.683  -3.736   5.151  0.00  0.00    -0.004 A 
ATOM      4  C2  UNL d   1       2.769  -4.026   5.948  0.00  0.00    -0.047 A 
ATOM      5  C3  UNL d   1       3.905  -3.428   5.353  0.00  0.00    -0.047 A 
ATOM      6  C4  UNL d   1       3.479  -2.789   4.208  0.00  0.00    -0.004 A 
ENDROOT
TORSDOF 0
ENDMDL
