MODEL 1
REMARK minimizedAffinity 0.931120336
REMARK minimizedRMSD -1
REMARK  0 active torsions:
REMARK  status: ('A' for Active; 'I' for Inactive)
ROOT
ATOM      1  C   UNL d   1       0.006  -2.391   0.712  0.00  0.00     0.172 C 
ATOM      2  N   UNL d   1       0.712  -2.128   1.944  0.00  0.00    -0.070 N 
ATOM      3  C1  UNL d   1       1.390  -0.977   2.245  0.00  0.00    -0.004 A 
ATOM      4  C2  UNL d   1       1.922  -1.118   3.509  0.00  0.00    -0.047 A 
ATOM      5  C3  UNL d   1       1.551  -2.399   3.983  0.00  0.00    -0.047 A 
ATOM      6  C4  UNL d   1       0.803  -3.002   2.994  0.00  0.00    -0.004 A 
ENDROOT
TORSDOF 0
ENDMDL
