MODEL 1
REMARK minimizedAffinity -0.892325759
REMARK minimizedRMSD -1
REMARK  0 active torsions:
REMARK  status: ('A' for Active; 'I' for Inactive)
ROOT
ATOM      1  C   UNL d   1       3.971  -3.345  -5.922  0.00  0.00     0.172 C 
ATOM      2  N   UNL d   1       4.524  -2.012  -5.942  0.00  0.00    -0.070 N 
ATOM      3  C1  UNL d   1       3.803  -0.848  -5.911  0.00  0.00    -0.004 A 
ATOM      4  C2  UNL d   1       4.695   0.202  -5.944  0.00  0.00    -0.047 A 
ATOM      5  C3  UNL d   1       5.997  -0.350  -5.998  0.00  0.00    -0.047 A 
ATOM      6  C4  UNL d   1       5.862  -1.722  -5.995  0.00  0.00    -0.004 A 
ENDROOT
TORSDOF 0
ENDMDL
