MODEL 1
REMARK minimizedAffinity -0.776859939
REMARK minimizedRMSD -1
REMARK  0 active torsions:
REMARK  status: ('A' for Active; 'I' for Inactive)
ROOT
ATOM      1  C   UNL d   1       0.860  -1.757   1.732  0.00  0.00     0.172 C 
ATOM      2  N   UNL d   1       0.246  -2.275   0.533  0.00  0.00    -0.070 N 
ATOM      3  C1  UNL d   1      -0.992  -1.933   0.058  0.00  0.00    -0.004 A 
ATOM      4  C2  UNL d   1      -1.210  -2.642  -1.104  0.00  0.00    -0.047 A 
ATOM      5  C3  UNL d   1      -0.063  -3.438  -1.335  0.00  0.00    -0.047 A 
ATOM      6  C4  UNL d   1       0.822  -3.192  -0.306  0.00  0.00    -0.004 A 
ENDROOT
TORSDOF 0
ENDMDL
