MODEL 1
REMARK minimizedAffinity 0.273246825
REMARK minimizedRMSD -1
REMARK  0 active torsions:
REMARK  status: ('A' for Active; 'I' for Inactive)
ROOT
ATOM      1  C   UNL d   1       2.122  -0.608   3.076  0.00  0.00     0.172 C 
ATOM      2  N   UNL d   1       1.860   0.220   1.923  0.00  0.00    -0.070 N 
ATOM      3  C1  UNL d   1       2.591   1.314   1.543  0.00  0.00    -0.004 A 
ATOM      4  C2  UNL d   1       2.021   1.825   0.397  0.00  0.00    -0.047 A 
ATOM      5  C3  UNL d   1       0.909   1.010   0.077  0.00  0.00    -0.047 A 
ATOM      6  C4  UNL d   1       0.833   0.024   1.038  0.00  0.00    -0.004 A 
ENDROOT
TORSDOF 0
ENDMDL
