MODEL 1
REMARK minimizedAffinity 0.964662135
REMARK minimizedRMSD -1
REMARK  0 active torsions:
REMARK  status: ('A' for Active; 'I' for Inactive)
ROOT
ATOM      1  C   UNL d   1       3.143  -3.085  -5.963  0.00  0.00     0.172 C 
ATOM      2  N   UNL d   1       4.058  -1.968  -5.971  0.00  0.00    -0.070 N 
ATOM      3  C1  UNL d   1       3.702  -0.646  -5.951  0.00  0.00    -0.004 A 
ATOM      4  C2  UNL d   1       4.860   0.103  -5.967  0.00  0.00    -0.047 A 
ATOM      5  C3  UNL d   1       5.948  -0.801  -5.998  0.00  0.00    -0.047 A 
ATOM      6  C4  UNL d   1       5.423  -2.076  -6.000  0.00  0.00    -0.004 A 
ENDROOT
TORSDOF 0
ENDMDL
