MODEL 1
REMARK minimizedAffinity -3.11248946
REMARK minimizedRMSD -1
REMARK  0 active torsions:
REMARK  status: ('A' for Active; 'I' for Inactive)
ROOT
ATOM      1  C   UNL d   1       0.817  -1.898   2.211  0.00  0.00     0.172 C 
ATOM      2  N   UNL d   1       0.018  -2.263   1.065  0.00  0.00    -0.070 N 
ATOM      3  C1  UNL d   1      -1.223  -1.767   0.766  0.00  0.00    -0.004 A 
ATOM      4  C2  UNL d   1      -1.646  -2.364  -0.402  0.00  0.00    -0.047 A 
ATOM      5  C3  UNL d   1      -0.624  -3.250  -0.818  0.00  0.00    -0.047 A 
ATOM      6  C4  UNL d   1       0.394  -3.168   0.108  0.00  0.00    -0.004 A 
ENDROOT
TORSDOF 0
ENDMDL
