MODEL 1
REMARK minimizedAffinity -3.60333395
REMARK minimizedRMSD -1
REMARK  0 active torsions:
REMARK  status: ('A' for Active; 'I' for Inactive)
ROOT
ATOM      1  C   UNL d   1      -0.246  -2.695   0.296  0.00  0.00     0.124 A 
ATOM      2  C1  UNL d   1       0.633  -2.074  -0.580  0.00  0.00     0.062 A 
ATOM      3  C2  UNL d   1       0.785  -0.690  -0.556  0.00  0.00     0.162 A 
ATOM      4  C3  UNL d   1       0.057   0.082   0.350  0.00  0.00    -0.034 A 
ATOM      5  C4  UNL d   1      -0.826  -0.551   1.228  0.00  0.00     0.162 A 
ATOM      6  C5  UNL d   1      -0.974  -1.933   1.199  0.00  0.00     0.062 A 
ATOM      7  F   UNL d   1      -1.823  -2.532   2.047  0.00  0.00    -0.097 F 
ATOM      8  F1  UNL d   1      -1.541   0.161   2.111  0.00  0.00    -0.096 F 
ATOM      9  I   UNL d   1       0.281   2.150   0.390  0.00  0.00    -0.060 I 
ATOM     10  F2  UNL d   1       1.641  -0.117  -1.414  0.00  0.00    -0.096 F 
ATOM     11  F3  UNL d   1       1.337  -2.807  -1.454  0.00  0.00    -0.097 F 
ATOM     12  F4  UNL d   1      -0.390  -4.026   0.270  0.00  0.00    -0.092 F 
ENDROOT
TORSDOF 0
ENDMDL
