MODEL 1
REMARK minimizedAffinity 0.415778518
REMARK minimizedRMSD -1
REMARK  0 active torsions:
REMARK  status: ('A' for Active; 'I' for Inactive)
ROOT
ATOM      1  C   UNL d   1       0.370  -0.082  -2.126  0.00  0.00     0.124 A 
ATOM      2  C1  UNL d   1       0.838  -1.282  -1.610  0.00  0.00     0.062 A 
ATOM      3  C2  UNL d   1       0.366  -1.750  -0.387  0.00  0.00     0.162 A 
ATOM      4  C3  UNL d   1      -0.581  -1.017   0.329  0.00  0.00    -0.034 A 
ATOM      5  C4  UNL d   1      -1.046   0.190  -0.197  0.00  0.00     0.162 A 
ATOM      6  C5  UNL d   1      -0.571   0.653  -1.419  0.00  0.00     0.062 A 
ATOM      7  F   UNL d   1      -1.024   1.813  -1.916  0.00  0.00    -0.097 F 
ATOM      8  F1  UNL d   1      -1.956   0.920   0.465  0.00  0.00    -0.096 F 
ATOM      9  I   UNL d   1      -1.290  -1.712   2.158  0.00  0.00    -0.060 I 
ATOM     10  F2  UNL d   1       0.835  -2.913   0.088  0.00  0.00    -0.096 F 
ATOM     11  F3  UNL d   1       1.748  -1.994  -2.290  0.00  0.00    -0.097 F 
ATOM     12  F4  UNL d   1       0.827   0.366  -3.303  0.00  0.00    -0.092 F 
ENDROOT
TORSDOF 0
ENDMDL
