MODEL 1
REMARK minimizedAffinity -0.860747039
REMARK minimizedRMSD -1
REMARK  0 active torsions:
REMARK  status: ('A' for Active; 'I' for Inactive)
ROOT
ATOM      1  C   UNL d   1       1.671   3.457   0.876  0.00  0.00     0.124 A 
ATOM      2  C1  UNL d   1       2.692   2.602   0.485  0.00  0.00     0.062 A 
ATOM      3  C2  UNL d   1       2.394   1.338  -0.014  0.00  0.00     0.162 A 
ATOM      4  C3  UNL d   1       1.068   0.920  -0.126  0.00  0.00    -0.034 A 
ATOM      5  C4  UNL d   1       0.046   1.785   0.270  0.00  0.00     0.162 A 
ATOM      6  C5  UNL d   1       0.350   3.048   0.768  0.00  0.00     0.062 A 
ATOM      7  F   UNL d   1      -0.638   3.872   1.146  0.00  0.00    -0.097 F 
ATOM      8  F1  UNL d   1      -1.240   1.416   0.176  0.00  0.00    -0.096 F 
ATOM      9  I   UNL d   1       0.617  -0.970  -0.872  0.00  0.00    -0.060 I 
ATOM     10  F2  UNL d   1       3.401   0.532  -0.385  0.00  0.00    -0.096 F 
ATOM     11  F3  UNL d   1       3.970   2.995   0.589  0.00  0.00    -0.097 F 
ATOM     12  F4  UNL d   1       1.961   4.673   1.357  0.00  0.00    -0.092 F 
ENDROOT
TORSDOF 0
ENDMDL
