MODEL 1
REMARK minimizedAffinity 1.82560003
REMARK minimizedRMSD -1
REMARK  0 active torsions:
REMARK  status: ('A' for Active; 'I' for Inactive)
ROOT
ATOM      1  C   UNL d   1      -0.304  -2.456   0.198  0.00  0.00     0.124 A 
ATOM      2  C1  UNL d   1      -1.079  -1.720   1.083  0.00  0.00     0.062 A 
ATOM      3  C2  UNL d   1      -0.944  -0.337   1.150  0.00  0.00     0.162 A 
ATOM      4  C3  UNL d   1      -0.029   0.321   0.327  0.00  0.00    -0.034 A 
ATOM      5  C4  UNL d   1       0.748  -0.426  -0.561  0.00  0.00     0.162 A 
ATOM      6  C5  UNL d   1       0.609  -1.808  -0.623  0.00  0.00     0.062 A 
ATOM      7  F   UNL d   1       1.359  -2.517  -1.479  0.00  0.00    -0.097 F 
ATOM      8  F1  UNL d   1       1.637   0.175  -1.366  0.00  0.00    -0.096 F 
ATOM      9  I   UNL d   1       0.176   2.390   0.423  0.00  0.00    -0.060 I 
ATOM     10  F2  UNL d   1      -1.706   0.349   2.015  0.00  0.00    -0.096 F 
ATOM     11  F3  UNL d   1      -1.961  -2.344   1.878  0.00  0.00    -0.097 F 
ATOM     12  F4  UNL d   1      -0.435  -3.787   0.137  0.00  0.00    -0.092 F 
ENDROOT
TORSDOF 0
ENDMDL
