MODEL 1
REMARK minimizedAffinity -4.00488615
REMARK minimizedRMSD -1
REMARK  0 active torsions:
REMARK  status: ('A' for Active; 'I' for Inactive)
ROOT
ATOM      1  C   UNL d   1      -0.580  -3.190  -0.381  0.00  0.00     0.124 A 
ATOM      2  C1  UNL d   1       0.229  -2.708  -1.401  0.00  0.00     0.062 A 
ATOM      3  C2  UNL d   1       0.517  -1.349  -1.483  0.00  0.00     0.162 A 
ATOM      4  C3  UNL d   1      -0.002  -0.461  -0.540  0.00  0.00    -0.034 A 
ATOM      5  C4  UNL d   1      -0.815  -0.953   0.483  0.00  0.00     0.162 A 
ATOM      6  C5  UNL d   1      -1.100  -2.313   0.560  0.00  0.00     0.062 A 
ATOM      7  F   UNL d   1      -1.881  -2.776   1.546  0.00  0.00    -0.097 F 
ATOM      8  F1  UNL d   1      -1.331  -0.128   1.405  0.00  0.00    -0.096 F 
ATOM      9  I   UNL d   1       0.427   1.572  -0.659  0.00  0.00    -0.060 I 
ATOM     10  F2  UNL d   1       1.301  -0.911  -2.479  0.00  0.00    -0.096 F 
ATOM     11  F3  UNL d   1       0.732  -3.554  -2.312  0.00  0.00    -0.097 F 
ATOM     12  F4  UNL d   1      -0.856  -4.498  -0.305  0.00  0.00    -0.092 F 
ENDROOT
TORSDOF 0
ENDMDL
