MODEL 1
REMARK minimizedAffinity -4.33597231
REMARK minimizedRMSD -1
REMARK  0 active torsions:
REMARK  status: ('A' for Active; 'I' for Inactive)
ROOT
ATOM      1  C   UNL d   1       0.177  -1.906  -0.186  0.00  0.00     0.124 A 
ATOM      2  C1  UNL d   1       0.273  -1.508   1.140  0.00  0.00     0.062 A 
ATOM      3  C2  UNL d   1       0.374  -0.157   1.459  0.00  0.00     0.162 A 
ATOM      4  C3  UNL d   1       0.379   0.806   0.451  0.00  0.00    -0.034 A 
ATOM      5  C4  UNL d   1       0.282   0.398  -0.881  0.00  0.00     0.162 A 
ATOM      6  C5  UNL d   1       0.181  -0.953  -1.195  0.00  0.00     0.062 A 
ATOM      7  F   UNL d   1       0.088  -1.336  -2.477  0.00  0.00    -0.097 F 
ATOM      8  F1  UNL d   1       0.283   1.298  -1.875  0.00  0.00    -0.096 F 
ATOM      9  I   UNL d   1       0.530   2.827   0.924  0.00  0.00    -0.060 I 
ATOM     10  F2  UNL d   1       0.466   0.199   2.749  0.00  0.00    -0.096 F 
ATOM     11  F3  UNL d   1       0.270  -2.427   2.116  0.00  0.00    -0.097 F 
ATOM     12  F4  UNL d   1       0.081  -3.207  -0.491  0.00  0.00    -0.092 F 
ENDROOT
TORSDOF 0
ENDMDL
