MODEL 1
REMARK minimizedAffinity -0.619609118
REMARK minimizedRMSD -1
REMARK  0 active torsions:
REMARK  status: ('A' for Active; 'I' for Inactive)
ROOT
ATOM      1  C   UNL d   1      -1.863  -2.680   0.364  0.00  0.00     0.124 A 
ATOM      2  C1  UNL d   1      -0.529  -2.977   0.608  0.00  0.00     0.062 A 
ATOM      3  C2  UNL d   1       0.373  -1.957   0.895  0.00  0.00     0.162 A 
ATOM      4  C3  UNL d   1      -0.055  -0.630   0.941  0.00  0.00    -0.034 A 
ATOM      5  C4  UNL d   1      -1.397  -0.339   0.693  0.00  0.00     0.162 A 
ATOM      6  C5  UNL d   1      -2.296  -1.362   0.407  0.00  0.00     0.062 A 
ATOM      7  F   UNL d   1      -3.584  -1.073   0.171  0.00  0.00    -0.097 F 
ATOM      8  F1  UNL d   1      -1.843   0.925   0.729  0.00  0.00    -0.096 F 
ATOM      9  I   UNL d   1       1.292   0.897   1.370  0.00  0.00    -0.060 I 
ATOM     10  F2  UNL d   1       1.656  -2.273   1.127  0.00  0.00    -0.096 F 
ATOM     11  F3  UNL d   1      -0.109  -4.249   0.566  0.00  0.00    -0.097 F 
ATOM     12  F4  UNL d   1      -2.730  -3.663   0.087  0.00  0.00    -0.092 F 
ENDROOT
TORSDOF 0
ENDMDL
