MODEL 1
REMARK minimizedAffinity -1.7140677
REMARK minimizedRMSD -1
REMARK  0 active torsions:
REMARK  status: ('A' for Active; 'I' for Inactive)
ROOT
ATOM      1  C   UNL d   1      -1.015  -1.762   1.446  0.00  0.00     0.124 A 
ATOM      2  C1  UNL d   1      -0.146  -2.178   0.447  0.00  0.00     0.062 A 
ATOM      3  C2  UNL d   1       0.412  -1.250  -0.426  0.00  0.00     0.162 A 
ATOM      4  C3  UNL d   1       0.104   0.105  -0.305  0.00  0.00    -0.034 A 
ATOM      5  C4  UNL d   1      -0.772   0.516   0.701  0.00  0.00     0.162 A 
ATOM      6  C5  UNL d   1      -1.327  -0.416   1.572  0.00  0.00     0.062 A 
ATOM      7  F   UNL d   1      -2.167  -0.012   2.536  0.00  0.00    -0.097 F 
ATOM      8  F1  UNL d   1      -1.090   1.811   0.846  0.00  0.00    -0.096 F 
ATOM      9  I   UNL d   1       0.937   1.496  -1.609  0.00  0.00    -0.060 I 
ATOM     10  F2  UNL d   1       1.249  -1.681  -1.382  0.00  0.00    -0.096 F 
ATOM     11  F3  UNL d   1       0.156  -3.479   0.323  0.00  0.00    -0.097 F 
ATOM     12  F4  UNL d   1      -1.552  -2.658   2.285  0.00  0.00    -0.092 F 
ENDROOT
TORSDOF 0
ENDMDL
