MODEL 1
REMARK minimizedAffinity -3.62582016
REMARK minimizedRMSD -1
REMARK  0 active torsions:
REMARK  status: ('A' for Active; 'I' for Inactive)
ROOT
ATOM      1  C   UNL d   1       2.134   3.787   0.645  0.00  0.00     0.124 A 
ATOM      2  C1  UNL d   1       1.766   3.110   1.799  0.00  0.00     0.062 A 
ATOM      3  C2  UNL d   1       1.050   1.919   1.714  0.00  0.00     0.162 A 
ATOM      4  C3  UNL d   1       0.698   1.397   0.470  0.00  0.00    -0.034 A 
ATOM      5  C4  UNL d   1       1.071   2.084  -0.687  0.00  0.00     0.162 A 
ATOM      6  C5  UNL d   1       1.786   3.273  -0.597  0.00  0.00     0.062 A 
ATOM      7  F   UNL d   1       2.141   3.926  -1.713  0.00  0.00    -0.097 F 
ATOM      8  F1  UNL d   1       0.749   1.610  -1.900  0.00  0.00    -0.096 F 
ATOM      9  I   UNL d   1      -0.373  -0.383   0.338  0.00  0.00    -0.060 I 
ATOM     10  F2  UNL d   1       0.707   1.286   2.846  0.00  0.00    -0.096 F 
ATOM     11  F3  UNL d   1       2.100   3.604   3.000  0.00  0.00    -0.097 F 
ATOM     12  F4  UNL d   1       2.822   4.932   0.729  0.00  0.00    -0.092 F 
ENDROOT
TORSDOF 0
ENDMDL
