MODEL 1
REMARK minimizedAffinity -5.49043894
REMARK minimizedRMSD -1
REMARK  0 active torsions:
REMARK  status: ('A' for Active; 'I' for Inactive)
ROOT
ATOM      1  C   UNL d   1       0.155  -2.870  -0.932  0.00  0.00     0.124 A 
ATOM      2  C1  UNL d   1       0.336  -1.896  -1.904  0.00  0.00     0.062 A 
ATOM      3  C2  UNL d   1       0.349  -0.549  -1.552  0.00  0.00     0.162 A 
ATOM      4  C3  UNL d   1       0.183  -0.168  -0.221  0.00  0.00    -0.034 A 
ATOM      5  C4  UNL d   1       0.001  -1.154   0.751  0.00  0.00     0.162 A 
ATOM      6  C5  UNL d   1      -0.012  -2.498   0.394  0.00  0.00     0.062 A 
ATOM      7  F   UNL d   1      -0.186  -3.438   1.335  0.00  0.00    -0.097 F 
ATOM      8  F1  UNL d   1      -0.161  -0.823   2.041  0.00  0.00    -0.096 F 
ATOM      9  I   UNL d   1       0.203   1.844   0.310  0.00  0.00    -0.060 I 
ATOM     10  F2  UNL d   1       0.525   0.370  -2.513  0.00  0.00    -0.096 F 
ATOM     11  F3  UNL d   1       0.496  -2.252  -3.187  0.00  0.00    -0.097 F 
ATOM     12  F4  UNL d   1       0.142  -4.165  -1.274  0.00  0.00    -0.092 F 
ENDROOT
TORSDOF 0
ENDMDL
