MODEL 1
REMARK minimizedAffinity -2.11740804
REMARK minimizedRMSD -1
REMARK  0 active torsions:
REMARK  status: ('A' for Active; 'I' for Inactive)
ROOT
ATOM      1  C   UNL d   1      -0.928  -0.606   1.451  0.00  0.00     0.124 A 
ATOM      2  C1  UNL d   1      -1.030  -1.938   1.075  0.00  0.00     0.062 A 
ATOM      3  C2  UNL d   1      -0.620  -2.341  -0.192  0.00  0.00     0.162 A 
ATOM      4  C3  UNL d   1      -0.103  -1.411  -1.094  0.00  0.00    -0.034 A 
ATOM      5  C4  UNL d   1      -0.004  -0.073  -0.709  0.00  0.00     0.162 A 
ATOM      6  C5  UNL d   1      -0.416   0.325   0.559  0.00  0.00     0.062 A 
ATOM      7  F   UNL d   1      -0.317   1.613   0.920  0.00  0.00    -0.097 F 
ATOM      8  F1  UNL d   1       0.488   0.848  -1.551  0.00  0.00    -0.096 F 
ATOM      9  I   UNL d   1       0.511  -2.010  -2.990  0.00  0.00    -0.060 I 
ATOM     10  F2  UNL d   1      -0.730  -3.635  -0.529  0.00  0.00    -0.096 F 
ATOM     11  F3  UNL d   1      -1.526  -2.840   1.935  0.00  0.00    -0.097 F 
ATOM     12  F4  UNL d   1      -1.324  -0.220   2.670  0.00  0.00    -0.092 F 
ENDROOT
TORSDOF 0
ENDMDL
