MODEL 1
REMARK minimizedAffinity -3.78789067
REMARK minimizedRMSD -1
REMARK  0 active torsions:
REMARK  status: ('A' for Active; 'I' for Inactive)
ROOT
ATOM      1  C   UNL d   1       0.449  -3.447  -0.493  0.00  0.00     0.124 A 
ATOM      2  C1  UNL d   1       0.447  -2.718  -1.674  0.00  0.00     0.062 A 
ATOM      3  C2  UNL d   1       0.220  -1.345  -1.648  0.00  0.00     0.162 A 
ATOM      4  C3  UNL d   1      -0.006  -0.691  -0.436  0.00  0.00    -0.034 A 
ATOM      5  C4  UNL d   1      -0.004  -1.432   0.747  0.00  0.00     0.162 A 
ATOM      6  C5  UNL d   1       0.223  -2.804   0.716  0.00  0.00     0.062 A 
ATOM      7  F   UNL d   1       0.224  -3.507   1.858  0.00  0.00    -0.097 F 
ATOM      8  F1  UNL d   1      -0.219  -0.835   1.929  0.00  0.00    -0.096 F 
ATOM      9  I   UNL d   1      -0.346   1.362  -0.394  0.00  0.00    -0.060 I 
ATOM     10  F2  UNL d   1       0.225  -0.665  -2.804  0.00  0.00    -0.096 F 
ATOM     11  F3  UNL d   1       0.664  -3.337  -2.843  0.00  0.00    -0.097 F 
ATOM     12  F4  UNL d   1       0.666  -4.768  -0.520  0.00  0.00    -0.092 F 
ENDROOT
TORSDOF 0
ENDMDL
