MODEL 1
REMARK minimizedAffinity -3.38108706
REMARK minimizedRMSD -1
REMARK  0 active torsions:
REMARK  status: ('A' for Active; 'I' for Inactive)
ROOT
ATOM      1  C   UNL d   1       0.358  -2.724  -0.074  0.00  0.00     0.124 A 
ATOM      2  C1  UNL d   1       0.865  -2.037  -1.168  0.00  0.00     0.062 A 
ATOM      3  C2  UNL d   1       0.597  -0.681  -1.329  0.00  0.00     0.162 A 
ATOM      4  C3  UNL d   1      -0.182  -0.002  -0.392  0.00  0.00    -0.034 A 
ATOM      5  C4  UNL d   1      -0.690  -0.699   0.705  0.00  0.00     0.162 A 
ATOM      6  C5  UNL d   1      -0.419  -2.055   0.862  0.00  0.00     0.062 A 
ATOM      7  F   UNL d   1      -0.910  -2.717   1.919  0.00  0.00    -0.097 F 
ATOM      8  F1  UNL d   1      -1.442  -0.077   1.625  0.00  0.00    -0.096 F 
ATOM      9  I   UNL d   1      -0.586   2.026  -0.630  0.00  0.00    -0.060 I 
ATOM     10  F2  UNL d   1       1.100  -0.043  -2.396  0.00  0.00    -0.096 F 
ATOM     11  F3  UNL d   1       1.615  -2.682  -2.074  0.00  0.00    -0.097 F 
ATOM     12  F4  UNL d   1       0.617  -4.029   0.078  0.00  0.00    -0.092 F 
ENDROOT
TORSDOF 0
ENDMDL
