MODEL 1
REMARK minimizedAffinity -1.0650481
REMARK minimizedRMSD -1
REMARK  0 active torsions:
REMARK  status: ('A' for Active; 'I' for Inactive)
ROOT
ATOM      1  C   UNL d   1       0.590   1.514  -1.484  0.00  0.00     0.124 A 
ATOM      2  C1  UNL d   1       0.264   0.306  -2.084  0.00  0.00     0.062 A 
ATOM      3  C2  UNL d   1      -0.427  -0.668  -1.369  0.00  0.00     0.162 A 
ATOM      4  C3  UNL d   1      -0.798  -0.437  -0.044  0.00  0.00    -0.034 A 
ATOM      5  C4  UNL d   1      -0.467   0.780   0.553  0.00  0.00     0.162 A 
ATOM      6  C5  UNL d   1       0.224   1.750  -0.166  0.00  0.00     0.062 A 
ATOM      7  F   UNL d   1       0.538   2.917   0.416  0.00  0.00    -0.097 F 
ATOM      8  F1  UNL d   1      -0.809   1.035   1.825  0.00  0.00    -0.096 F 
ATOM      9  I   UNL d   1      -1.832  -1.890   1.029  0.00  0.00    -0.060 I 
ATOM     10  F2  UNL d   1      -0.728  -1.826  -1.974  0.00  0.00    -0.096 F 
ATOM     11  F3  UNL d   1       0.617   0.075  -3.357  0.00  0.00    -0.097 F 
ATOM     12  F4  UNL d   1       1.256   2.448  -2.174  0.00  0.00    -0.092 F 
ENDROOT
TORSDOF 0
ENDMDL
