MODEL 1
REMARK minimizedAffinity -5.5008316
REMARK minimizedRMSD -1
REMARK  0 active torsions:
REMARK  status: ('A' for Active; 'I' for Inactive)
ROOT
ATOM      1  C   UNL d   1      -1.749  -1.376   1.265  0.00  0.00     0.124 A 
ATOM      2  C1  UNL d   1      -2.057  -0.026   1.372  0.00  0.00     0.062 A 
ATOM      3  C2  UNL d   1      -1.172   0.934   0.891  0.00  0.00     0.162 A 
ATOM      4  C3  UNL d   1       0.030   0.548   0.296  0.00  0.00    -0.034 A 
ATOM      5  C4  UNL d   1       0.333  -0.810   0.193  0.00  0.00     0.162 A 
ATOM      6  C5  UNL d   1      -0.555  -1.766   0.676  0.00  0.00     0.062 A 
ATOM      7  F   UNL d   1      -0.256  -3.069   0.572  0.00  0.00    -0.097 F 
ATOM      8  F1  UNL d   1       1.479  -1.216  -0.373  0.00  0.00    -0.096 F 
ATOM      9  I   UNL d   1       1.356   1.981  -0.425  0.00  0.00    -0.060 I 
ATOM     10  F2  UNL d   1      -1.495   2.230   1.008  0.00  0.00    -0.096 F 
ATOM     11  F3  UNL d   1      -3.209   0.354   1.942  0.00  0.00    -0.097 F 
ATOM     12  F4  UNL d   1      -2.602  -2.297   1.731  0.00  0.00    -0.092 F 
ENDROOT
TORSDOF 0
ENDMDL
