MODEL 1
REMARK minimizedAffinity 14.349431
REMARK minimizedRMSD -1
REMARK  2 active torsions:
REMARK  status: ('A' for Active; 'I' for Inactive)
REMARK    1  A    between atoms: C2'_3  and  C1'_4 
REMARK    2  A    between atoms: C1'_4  and  C1_5 
ROOT
ATOM      1  C1  I4B d   1       3.537  -5.468  -3.580  0.00  0.00    -0.075 A 
ATOM      2  C2  I4B d   1       4.495  -4.486  -3.582  0.00  0.00     0.003 A 
ATOM      3  C3  I4B d   1       5.004  -3.989  -4.807  0.00  0.00     0.002 A 
ATOM      4  C4  I4B d   1       4.565  -4.534  -5.996  0.00  0.00    -0.004 A 
ATOM      5  C5  I4B d   1       3.576  -5.513  -5.993  0.00  0.00     0.002 A 
ATOM      6  C6  I4B d   1       3.049  -5.975  -4.778  0.00  0.00     0.003 A 
ENDROOT
BRANCH   1   7
ATOM      7  C1' I4B d   1       3.046  -5.994  -2.268  0.00  0.00     0.060 C 
BRANCH   7   8
ATOM      8  C2' I4B d   1       1.839  -5.174  -1.859  0.00  0.00    -0.013 C 
ATOM      9  C4' I4B d   1       0.908  -4.957  -3.023  0.00  0.00     0.013 C 
ATOM     10  C3' I4B d   1       1.147  -5.895  -0.741  0.00  0.00     0.013 C 
ENDBRANCH   7   8
ENDBRANCH   1   7
TORSDOF 2
ENDMDL
