MODEL 1
REMARK minimizedAffinity 11.6118374
REMARK minimizedRMSD -1
REMARK  2 active torsions:
REMARK  status: ('A' for Active; 'I' for Inactive)
REMARK    1  A    between atoms: C2'_3  and  C1'_4 
REMARK    2  A    between atoms: C1'_4  and  C1_5 
ROOT
ATOM      1  C1  I4B d   1       3.993  -5.620  -3.348  0.00  0.00    -0.075 A 
ATOM      2  C2  I4B d   1       2.706  -5.739  -3.811  0.00  0.00     0.003 A 
ATOM      3  C3  I4B d   1       1.614  -5.418  -2.970  0.00  0.00     0.002 A 
ATOM      4  C4  I4B d   1       1.850  -5.033  -1.666  0.00  0.00    -0.004 A 
ATOM      5  C5  I4B d   1       3.156  -4.891  -1.205  0.00  0.00     0.002 A 
ATOM      6  C6  I4B d   1       4.235  -5.175  -2.055  0.00  0.00     0.003 A 
ENDROOT
BRANCH   1   7
ATOM      7  C1' I4B d   1       5.122  -6.000  -4.252  0.00  0.00     0.060 C 
BRANCH   7   8
ATOM      8  C2' I4B d   1       4.747  -5.594  -5.663  0.00  0.00    -0.013 C 
ATOM      9  C4' I4B d   1       3.331  -5.992  -5.987  0.00  0.00     0.013 C 
ATOM     10  C3' I4B d   1       4.933  -4.111  -5.783  0.00  0.00     0.013 C 
ENDBRANCH   7   8
ENDBRANCH   1   7
TORSDOF 2
ENDMDL
