MODEL 1
REMARK minimizedAffinity 9.81603527
REMARK minimizedRMSD -1
REMARK  2 active torsions:
REMARK  status: ('A' for Active; 'I' for Inactive)
REMARK    1  A    between atoms: C2'_3  and  C1'_4 
REMARK    2  A    between atoms: C1'_4  and  C1_5 
ROOT
ATOM      1  C1  I4B d   1       2.907   2.817   1.727  0.00  0.00    -0.075 A 
ATOM      2  C2  I4B d   1       1.595   2.682   1.348  0.00  0.00     0.003 A 
ATOM      3  C3  I4B d   1       1.235   1.752   0.342  0.00  0.00     0.002 A 
ATOM      4  C4  I4B d   1       2.220   1.020  -0.290  0.00  0.00    -0.004 A 
ATOM      5  C5  I4B d   1       3.547   1.142   0.111  0.00  0.00     0.002 A 
ATOM      6  C6  I4B d   1       3.892   2.037   1.134  0.00  0.00     0.003 A 
ENDROOT
BRANCH   1   7
ATOM      7  C1' I4B d   1       3.256   3.831   2.769  0.00  0.00     0.060 C 
BRANCH   7   8
ATOM      8  C2' I4B d   1       4.219   4.824   2.151  0.00  0.00    -0.013 C 
ATOM      9  C4' I4B d   1       3.529   5.691   1.131  0.00  0.00     0.013 C 
ATOM     10  C3' I4B d   1       4.805   5.650   3.257  0.00  0.00     0.013 C 
ENDBRANCH   7   8
ENDBRANCH   1   7
TORSDOF 2
ENDMDL
