MODEL 1
REMARK minimizedAffinity 3.81620789
REMARK minimizedRMSD -1
REMARK  2 active torsions:
REMARK  status: ('A' for Active; 'I' for Inactive)
REMARK    1  A    between atoms: C2'_3  and  C1'_4 
REMARK    2  A    between atoms: C1'_4  and  C1_5 
ROOT
ATOM      1  C1  I4B d   1       1.310   2.761   1.501  0.00  0.00    -0.075 A 
ATOM      2  C2  I4B d   1       0.973   2.487   2.803  0.00  0.00     0.003 A 
ATOM      3  C3  I4B d   1      -0.388   2.439   3.192  0.00  0.00     0.002 A 
ATOM      4  C4  I4B d   1      -1.370   2.719   2.265  0.00  0.00    -0.004 A 
ATOM      5  C5  I4B d   1      -1.028   2.975   0.940  0.00  0.00     0.002 A 
ATOM      6  C6  I4B d   1       0.320   2.984   0.552  0.00  0.00     0.003 A 
ENDROOT
BRANCH   1   7
ATOM      7  C1' I4B d   1       2.757   2.837   1.131  0.00  0.00     0.060 C 
BRANCH   7   8
ATOM      8  C2' I4B d   1       3.170   1.486   0.583  0.00  0.00    -0.013 C 
ATOM      9  C4' I4B d   1       3.105   1.465  -0.922  0.00  0.00     0.013 C 
ATOM     10  C3' I4B d   1       4.558   1.193   1.069  0.00  0.00     0.013 C 
ENDBRANCH   7   8
ENDBRANCH   1   7
TORSDOF 2
ENDMDL
