MODEL 1
REMARK minimizedAffinity 9.4599638
REMARK minimizedRMSD -1
REMARK  2 active torsions:
REMARK  status: ('A' for Active; 'I' for Inactive)
REMARK    1  A    between atoms: C2'_3  and  C1'_4 
REMARK    2  A    between atoms: C1'_4  and  C1_5 
ROOT
ATOM      1  C1  I4B d   1      -1.998  -5.155  -0.980  0.00  0.00    -0.075 A 
ATOM      2  C2  I4B d   1      -3.071  -5.546  -1.743  0.00  0.00     0.003 A 
ATOM      3  C3  I4B d   1      -2.874  -6.000  -3.070  0.00  0.00     0.002 A 
ATOM      4  C4  I4B d   1      -1.603  -5.999  -3.607  0.00  0.00    -0.004 A 
ATOM      5  C5  I4B d   1      -0.514  -5.625  -2.825  0.00  0.00     0.002 A 
ATOM      6  C6  I4B d   1      -0.711  -5.212  -1.499  0.00  0.00     0.003 A 
ENDROOT
BRANCH   1   7
ATOM      7  C1' I4B d   1      -2.246  -4.650   0.406  0.00  0.00     0.060 C 
BRANCH   7   8
ATOM      8  C2' I4B d   1      -2.324  -3.138   0.344  0.00  0.00    -0.013 C 
ATOM      9  C4' I4B d   1      -3.753  -2.665   0.375  0.00  0.00     0.013 C 
ATOM     10  C3' I4B d   1      -1.546  -2.587   1.502  0.00  0.00     0.013 C 
ENDBRANCH   7   8
ENDBRANCH   1   7
TORSDOF 2
ENDMDL
