MODEL 1
REMARK minimizedAffinity 2.49915552
REMARK minimizedRMSD -1
REMARK  2 active torsions:
REMARK  status: ('A' for Active; 'I' for Inactive)
REMARK    1  A    between atoms: C2'_3  and  C1'_4 
REMARK    2  A    between atoms: C1'_4  and  C1_5 
ROOT
ATOM      1  C1  I4B d   1       5.374   4.933   3.180  0.00  0.00    -0.075 A 
ATOM      2  C2  I4B d   1       6.000   3.744   2.896  0.00  0.00     0.003 A 
ATOM      3  C3  I4B d   1       5.420   2.835   1.978  0.00  0.00     0.002 A 
ATOM      4  C4  I4B d   1       4.197   3.129   1.410  0.00  0.00    -0.004 A 
ATOM      5  C5  I4B d   1       3.575   4.345   1.682  0.00  0.00     0.002 A 
ATOM      6  C6  I4B d   1       4.173   5.258   2.563  0.00  0.00     0.003 A 
ENDROOT
BRANCH   1   7
ATOM      7  C1' I4B d   1       5.999   5.855   4.178  0.00  0.00     0.060 C 
BRANCH   7   8
ATOM      8  C2' I4B d   1       5.283   5.665   5.500  0.00  0.00    -0.013 C 
ATOM      9  C4' I4B d   1       3.800   5.881   5.353  0.00  0.00     0.013 C 
ATOM     10  C3' I4B d   1       5.582   4.281   5.994  0.00  0.00     0.013 C 
ENDBRANCH   7   8
ENDBRANCH   1   7
TORSDOF 2
ENDMDL
