MODEL 1
REMARK minimizedAffinity 13.9763527
REMARK minimizedRMSD -1
REMARK  2 active torsions:
REMARK  status: ('A' for Active; 'I' for Inactive)
REMARK    1  A    between atoms: C2'_3  and  C1'_4 
REMARK    2  A    between atoms: C1'_4  and  C1_5 
ROOT
ATOM      1  C1  I4B d   1       3.150   2.361   1.543  0.00  0.00    -0.075 A 
ATOM      2  C2  I4B d   1       2.419   2.236   2.698  0.00  0.00     0.003 A 
ATOM      3  C3  I4B d   1       1.051   1.873   2.640  0.00  0.00     0.002 A 
ATOM      4  C4  I4B d   1       0.447   1.694   1.412  0.00  0.00    -0.004 A 
ATOM      5  C5  I4B d   1       1.196   1.799   0.243  0.00  0.00     0.002 A 
ATOM      6  C6  I4B d   1       2.559   2.123   0.309  0.00  0.00     0.003 A 
ENDROOT
BRANCH   1   7
ATOM      7  C1' I4B d   1       4.583   2.779   1.639  0.00  0.00     0.060 C 
BRANCH   7   8
ATOM      8  C2' I4B d   1       4.652   4.272   1.390  0.00  0.00    -0.013 C 
ATOM      9  C4' I4B d   1       3.388   4.776   0.744  0.00  0.00     0.013 C 
ATOM     10  C3' I4B d   1       4.896   4.950   2.704  0.00  0.00     0.013 C 
ENDBRANCH   7   8
ENDBRANCH   1   7
TORSDOF 2
ENDMDL
