MODEL 1
REMARK minimizedAffinity 6.61691093
REMARK minimizedRMSD -1
REMARK  2 active torsions:
REMARK  status: ('A' for Active; 'I' for Inactive)
REMARK    1  A    between atoms: C2'_3  and  C1'_4 
REMARK    2  A    between atoms: C1'_4  and  C1_5 
ROOT
ATOM      1  C1  I4B d   1      -1.415   3.118  -4.541  0.00  0.00    -0.075 A 
ATOM      2  C2  I4B d   1      -1.858   4.103  -5.388  0.00  0.00     0.003 A 
ATOM      3  C3  I4B d   1      -3.131   4.000  -5.998  0.00  0.00     0.002 A 
ATOM      4  C4  I4B d   1      -3.902   2.878  -5.775  0.00  0.00    -0.004 A 
ATOM      5  C5  I4B d   1      -3.462   1.890  -4.899  0.00  0.00     0.002 A 
ATOM      6  C6  I4B d   1      -2.216   2.016  -4.268  0.00  0.00     0.003 A 
ENDROOT
BRANCH   1   7
ATOM      7  C1' I4B d   1      -0.051   3.243  -3.940  0.00  0.00     0.060 C 
BRANCH   7   8
ATOM      8  C2' I4B d   1       0.561   1.858  -3.878  0.00  0.00    -0.013 C 
ATOM      9  C4' I4B d   1       2.013   1.886  -4.277  0.00  0.00     0.013 C 
ATOM     10  C3' I4B d   1       0.393   1.339  -2.481  0.00  0.00     0.013 C 
ENDBRANCH   7   8
ENDBRANCH   1   7
TORSDOF 2
ENDMDL
