MODEL 1
REMARK minimizedAffinity 4.5537076
REMARK minimizedRMSD -1
REMARK  2 active torsions:
REMARK  status: ('A' for Active; 'I' for Inactive)
REMARK    1  A    between atoms: C2'_3  and  C1'_4 
REMARK    2  A    between atoms: C1'_4  and  C1_5 
ROOT
ATOM      1  C1  I4B d   1       3.724   3.731   1.107  0.00  0.00    -0.075 A 
ATOM      2  C2  I4B d   1       4.690   2.803   0.807  0.00  0.00     0.003 A 
ATOM      3  C3  I4B d   1       4.326   1.471   0.493  0.00  0.00     0.002 A 
ATOM      4  C4  I4B d   1       2.997   1.101   0.541  0.00  0.00    -0.004 A 
ATOM      5  C5  I4B d   1       2.017   2.048   0.823  0.00  0.00     0.002 A 
ATOM      6  C6  I4B d   1       2.381   3.375   1.096  0.00  0.00     0.003 A 
ENDROOT
BRANCH   1   7
ATOM      7  C1' I4B d   1       4.146   5.121   1.465  0.00  0.00     0.060 C 
BRANCH   7   8
ATOM      8  C2' I4B d   1       4.057   5.973   0.215  0.00  0.00    -0.013 C 
ATOM      9  C4' I4B d   1       4.954   5.441  -0.872  0.00  0.00     0.013 C 
ATOM     10  C3' I4B d   1       2.625   5.997  -0.228  0.00  0.00     0.013 C 
ENDBRANCH   7   8
ENDBRANCH   1   7
TORSDOF 2
ENDMDL
