MODEL 1
REMARK minimizedAffinity 8.58821487
REMARK minimizedRMSD -1
REMARK  2 active torsions:
REMARK  status: ('A' for Active; 'I' for Inactive)
REMARK    1  A    between atoms: C2'_3  and  C1'_4 
REMARK    2  A    between atoms: C1'_4  and  C1_5 
ROOT
ATOM      1  C1  I4B d   1       4.155   2.493  -0.509  0.00  0.00    -0.075 A 
ATOM      2  C2  I4B d   1       3.438   1.436  -0.007  0.00  0.00     0.003 A 
ATOM      3  C3  I4B d   1       2.997   1.448   1.338  0.00  0.00     0.002 A 
ATOM      4  C4  I4B d   1       3.337   2.507   2.155  0.00  0.00    -0.004 A 
ATOM      5  C5  I4B d   1       4.045   3.589   1.638  0.00  0.00     0.002 A 
ATOM      6  C6  I4B d   1       4.446   3.588   0.294  0.00  0.00     0.003 A 
ENDROOT
BRANCH   1   7
ATOM      7  C1' I4B d   1       4.633   2.432  -1.925  0.00  0.00     0.060 C 
BRANCH   7   8
ATOM      8  C2' I4B d   1       3.951   1.258  -2.598  0.00  0.00    -0.013 C 
ATOM      9  C4' I4B d   1       3.144   1.705  -3.789  0.00  0.00     0.013 C 
ATOM     10  C3' I4B d   1       5.011   0.276  -3.000  0.00  0.00     0.013 C 
ENDBRANCH   7   8
ENDBRANCH   1   7
TORSDOF 2
ENDMDL
