MODEL 1
REMARK minimizedAffinity 9.30150223
REMARK minimizedRMSD -1
REMARK  2 active torsions:
REMARK  status: ('A' for Active; 'I' for Inactive)
REMARK    1  A    between atoms: C2'_3  and  C1'_4 
REMARK    2  A    between atoms: C1'_4  and  C1_5 
ROOT
ATOM      1  C1  I4B d   1       4.287  -5.712  -3.438  0.00  0.00    -0.075 A 
ATOM      2  C2  I4B d   1       4.619  -5.669  -2.107  0.00  0.00     0.003 A 
ATOM      3  C3  I4B d   1       3.632  -5.375  -1.135  0.00  0.00     0.002 A 
ATOM      4  C4  I4B d   1       2.346  -5.084  -1.539  0.00  0.00    -0.004 A 
ATOM      5  C5  I4B d   1       2.005  -5.151  -2.887  0.00  0.00     0.002 A 
ATOM      6  C6  I4B d   1       2.979  -5.479  -3.842  0.00  0.00     0.003 A 
ENDROOT
BRANCH   1   7
ATOM      7  C1' I4B d   1       5.361  -5.993  -4.440  0.00  0.00     0.060 C 
BRANCH   7   8
ATOM      8  C2' I4B d   1       4.839  -5.600  -5.807  0.00  0.00    -0.013 C 
ATOM      9  C4' I4B d   1       3.391  -5.985  -5.968  0.00  0.00     0.013 C 
ATOM     10  C3' I4B d   1       5.027  -4.121  -5.968  0.00  0.00     0.013 C 
ENDBRANCH   7   8
ENDBRANCH   1   7
TORSDOF 2
ENDMDL
