MODEL 1
REMARK minimizedAffinity 7.98634291
REMARK minimizedRMSD -1
REMARK  2 active torsions:
REMARK  status: ('A' for Active; 'I' for Inactive)
REMARK    1  A    between atoms: C2'_3  and  C1'_4 
REMARK    2  A    between atoms: C1'_4  and  C1_5 
ROOT
ATOM      1  C1  I4B d   1       1.253   2.867   0.294  0.00  0.00    -0.075 A 
ATOM      2  C2  I4B d   1       0.664   2.096   1.265  0.00  0.00     0.003 A 
ATOM      3  C3  I4B d   1      -0.729   2.189   1.501  0.00  0.00     0.002 A 
ATOM      4  C4  I4B d   1      -1.481   3.096   0.782  0.00  0.00    -0.004 A 
ATOM      5  C5  I4B d   1      -0.886   3.860  -0.218  0.00  0.00     0.002 A 
ATOM      6  C6  I4B d   1       0.487   3.736  -0.472  0.00  0.00     0.003 A 
ENDROOT
BRANCH   1   7
ATOM      7  C1' I4B d   1       2.732   2.767   0.093  0.00  0.00     0.060 C 
BRANCH   7   8
ATOM      8  C2' I4B d   1       3.335   2.179   1.353  0.00  0.00    -0.013 C 
ATOM      9  C4' I4B d   1       4.372   1.137   1.025  0.00  0.00     0.013 C 
ATOM     10  C3' I4B d   1       3.928   3.301   2.151  0.00  0.00     0.013 C 
ENDBRANCH   7   8
ENDBRANCH   1   7
TORSDOF 2
ENDMDL
