MODEL 1
REMARK minimizedAffinity 16.3301506
REMARK minimizedRMSD -1
REMARK  1 active torsions:
REMARK  status: ('A' for Active; 'I' for Inactive)
REMARK    1  A    between atoms: C1_2  and  C2_3 
ROOT
ATOM      1  C2  UNL d   1      -0.713  -2.545   2.711  0.00  0.00    -0.073 A 
ATOM      2  C3  UNL d   1      -0.844  -1.448   1.851  0.00  0.00    -0.002 A 
ATOM      3  C4  UNL d   1      -1.200  -1.639   0.515  0.00  0.00     0.004 A 
ATOM      4  C5  UNL d   1      -1.434  -2.924   0.027  0.00  0.00    -0.004 A 
ATOM      5  C6  UNL d   1      -1.320  -4.032   0.874  0.00  0.00    -0.075 A 
ATOM      6  C7  UNL d   1      -1.567  -5.421   0.365  0.00  0.00     0.076 C 
ATOM      7  C8  UNL d   1      -0.960  -3.832   2.214  0.00  0.00     0.001 A 
ENDROOT
BRANCH   1   8
ATOM      8  C1  UNL d   1      -0.336  -2.343   4.156  0.00  0.00     0.053 C 
ATOM      9  C   UNL d   1      -1.057  -1.156   4.773  0.00  0.00     0.018 C 
ENDBRANCH   1   8
TORSDOF 1
ENDMDL
