MODEL 1
REMARK minimizedAffinity 8.57952881
REMARK minimizedRMSD -1
REMARK  1 active torsions:
REMARK  status: ('A' for Active; 'I' for Inactive)
REMARK    1  A    between atoms: C1_2  and  C2_3 
ROOT
ATOM      1  C2  UNL d   1       5.308   1.110   3.565  0.00  0.00    -0.073 A 
ATOM      2  C3  UNL d   1       4.575   0.099   4.197  0.00  0.00    -0.002 A 
ATOM      3  C4  UNL d   1       3.931   0.347   5.410  0.00  0.00     0.004 A 
ATOM      4  C5  UNL d   1       4.008   1.609   5.999  0.00  0.00    -0.004 A 
ATOM      5  C6  UNL d   1       4.726   2.636   5.378  0.00  0.00    -0.075 A 
ATOM      6  C7  UNL d   1       4.820   3.998   6.000  0.00  0.00     0.076 C 
ATOM      7  C8  UNL d   1       5.372   2.377   4.161  0.00  0.00     0.001 A 
ENDROOT
BRANCH   1   8
ATOM      8  C1  UNL d   1       5.999   0.848   2.252  0.00  0.00     0.053 C 
ATOM      9  C   UNL d   1       5.410   1.677   1.122  0.00  0.00     0.018 C 
ENDBRANCH   1   8
TORSDOF 1
ENDMDL
