MODEL 1
REMARK minimizedAffinity 10.2196674
REMARK minimizedRMSD -1
REMARK  1 active torsions:
REMARK  status: ('A' for Active; 'I' for Inactive)
REMARK    1  A    between atoms: C1_2  and  C2_3 
ROOT
ATOM      1  C2  UNL d   1      -0.612  -0.567  -2.006  0.00  0.00    -0.073 A 
ATOM      2  C3  UNL d   1      -1.940  -0.371  -2.401  0.00  0.00    -0.002 A 
ATOM      3  C4  UNL d   1      -2.978  -1.023  -1.734  0.00  0.00     0.004 A 
ATOM      4  C5  UNL d   1      -2.700  -1.873  -0.663  0.00  0.00    -0.004 A 
ATOM      5  C6  UNL d   1      -1.380  -2.073  -0.246  0.00  0.00    -0.075 A 
ATOM      6  C7  UNL d   1      -1.064  -2.984   0.903  0.00  0.00     0.076 C 
ATOM      7  C8  UNL d   1      -0.343  -1.416  -0.923  0.00  0.00     0.001 A 
ENDROOT
BRANCH   1   8
ATOM      8  C1  UNL d   1       0.511   0.141  -2.719  0.00  0.00     0.053 C 
ATOM      9  C   UNL d   1       1.691   0.408  -1.798  0.00  0.00     0.018 C 
ENDBRANCH   1   8
TORSDOF 1
ENDMDL
