MODEL 1
REMARK minimizedAffinity 17.2904968
REMARK minimizedRMSD -1
REMARK  1 active torsions:
REMARK  status: ('A' for Active; 'I' for Inactive)
REMARK    1  A    between atoms: C1_2  and  C2_3 
ROOT
ATOM      1  C2  UNL d   1       2.815   1.696  -1.405  0.00  0.00    -0.073 A 
ATOM      2  C3  UNL d   1       2.280   1.665  -0.112  0.00  0.00    -0.002 A 
ATOM      3  C4  UNL d   1       2.823   2.464   0.895  0.00  0.00     0.004 A 
ATOM      4  C5  UNL d   1       3.899   3.307   0.618  0.00  0.00    -0.004 A 
ATOM      5  C6  UNL d   1       4.439   3.362  -0.671  0.00  0.00    -0.075 A 
ATOM      6  C7  UNL d   1       5.598   4.262  -0.984  0.00  0.00     0.076 C 
ATOM      7  C8  UNL d   1       3.891   2.554  -1.676  0.00  0.00     0.001 A 
ENDROOT
BRANCH   1   8
ATOM      8  C1  UNL d   1       2.228   0.840  -2.497  0.00  0.00     0.053 C 
ATOM      9  C   UNL d   1       3.194  -0.242  -2.954  0.00  0.00     0.018 C 
ENDBRANCH   1   8
TORSDOF 1
ENDMDL
