MODEL 1
REMARK minimizedAffinity 14.6476498
REMARK minimizedRMSD -1
REMARK  1 active torsions:
REMARK  status: ('A' for Active; 'I' for Inactive)
REMARK    1  A    between atoms: C1_2  and  C2_3 
ROOT
ATOM      1  C2  UNL d   1      -3.005  -1.781  -0.840  0.00  0.00    -0.073 A 
ATOM      2  C3  UNL d   1      -2.168  -2.789  -1.332  0.00  0.00    -0.002 A 
ATOM      3  C4  UNL d   1      -1.671  -2.720  -2.634  0.00  0.00     0.004 A 
ATOM      4  C5  UNL d   1      -1.999  -1.640  -3.454  0.00  0.00    -0.004 A 
ATOM      5  C6  UNL d   1      -2.824  -0.617  -2.977  0.00  0.00    -0.075 A 
ATOM      6  C7  UNL d   1      -3.188   0.550  -3.847  0.00  0.00     0.076 C 
ATOM      7  C8  UNL d   1      -3.322  -0.695  -1.669  0.00  0.00     0.001 A 
ENDROOT
BRANCH   1   8
ATOM      8  C1  UNL d   1      -3.540  -1.849   0.567  0.00  0.00     0.053 C 
ATOM      9  C   UNL d   1      -5.059  -1.803   0.603  0.00  0.00     0.018 C 
ENDBRANCH   1   8
TORSDOF 1
ENDMDL
