MODEL 1
REMARK minimizedAffinity 5.41003275
REMARK minimizedRMSD -1
REMARK  1 active torsions:
REMARK  status: ('A' for Active; 'I' for Inactive)
REMARK    1  A    between atoms: C1_2  and  C2_3 
ROOT
ATOM      1  C2  UNL d   1      -4.284   5.215  -1.213  0.00  0.00    -0.073 A 
ATOM      2  C3  UNL d   1      -4.142   3.826  -1.120  0.00  0.00    -0.002 A 
ATOM      3  C4  UNL d   1      -4.592   3.146   0.012  0.00  0.00     0.004 A 
ATOM      4  C5  UNL d   1      -5.194   3.845   1.058  0.00  0.00    -0.004 A 
ATOM      5  C6  UNL d   1      -5.355   5.232   0.979  0.00  0.00    -0.075 A 
ATOM      6  C7  UNL d   1      -5.998   5.999   2.096  0.00  0.00     0.076 C 
ATOM      7  C8  UNL d   1      -4.898   5.908  -0.161  0.00  0.00     0.001 A 
ENDROOT
BRANCH   1   8
ATOM      8  C1  UNL d   1      -3.805   5.953  -2.437  0.00  0.00     0.053 C 
ATOM      9  C   UNL d   1      -4.863   5.995  -3.528  0.00  0.00     0.018 C 
ENDBRANCH   1   8
TORSDOF 1
ENDMDL
