MODEL 1
REMARK minimizedAffinity 8.18099213
REMARK minimizedRMSD -1
REMARK  1 active torsions:
REMARK  status: ('A' for Active; 'I' for Inactive)
REMARK    1  A    between atoms: C1_2  and  C2_3 
ROOT
ATOM      1  C2  UNL d   1      -4.552   5.523  -0.565  0.00  0.00    -0.073 A 
ATOM      2  C3  UNL d   1      -5.700   5.984   0.091  0.00  0.00    -0.002 A 
ATOM      3  C4  UNL d   1      -5.999   5.545   1.381  0.00  0.00     0.004 A 
ATOM      4  C5  UNL d   1      -5.152   4.648   2.031  0.00  0.00    -0.004 A 
ATOM      5  C6  UNL d   1      -3.994   4.185   1.398  0.00  0.00    -0.075 A 
ATOM      6  C7  UNL d   1      -3.074   3.218   2.083  0.00  0.00     0.076 C 
ATOM      7  C8  UNL d   1      -3.702   4.629   0.101  0.00  0.00     0.001 A 
ENDROOT
BRANCH   1   8
ATOM      8  C1  UNL d   1      -4.221   6.000  -1.955  0.00  0.00     0.053 C 
ATOM      9  C   UNL d   1      -3.288   5.042  -2.679  0.00  0.00     0.018 C 
ENDBRANCH   1   8
TORSDOF 1
ENDMDL
