MODEL 1
REMARK minimizedAffinity 19.923172
REMARK minimizedRMSD -1
REMARK  1 active torsions:
REMARK  status: ('A' for Active; 'I' for Inactive)
REMARK    1  A    between atoms: C1_2  and  C2_3 
ROOT
ATOM      1  C2  UNL d   1       3.580  -0.047  -2.283  0.00  0.00    -0.073 A 
ATOM      2  C3  UNL d   1       4.214  -1.293  -2.216  0.00  0.00    -0.002 A 
ATOM      3  C4  UNL d   1       5.416  -1.509  -2.891  0.00  0.00     0.004 A 
ATOM      4  C5  UNL d   1       5.999  -0.482  -3.634  0.00  0.00    -0.004 A 
ATOM      5  C6  UNL d   1       5.387   0.773  -3.703  0.00  0.00    -0.075 A 
ATOM      6  C7  UNL d   1       6.000   1.888  -4.499  0.00  0.00     0.076 C 
ATOM      7  C8  UNL d   1       4.179   0.982  -3.024  0.00  0.00     0.001 A 
ENDROOT
BRANCH   1   8
ATOM      8  C1  UNL d   1       2.286   0.194  -1.550  0.00  0.00     0.053 C 
ATOM      9  C   UNL d   1       2.229   1.582  -0.933  0.00  0.00     0.018 C 
ENDBRANCH   1   8
TORSDOF 1
ENDMDL
