MODEL 1
REMARK minimizedAffinity 18.4617729
REMARK minimizedRMSD -1
REMARK  1 active torsions:
REMARK  status: ('A' for Active; 'I' for Inactive)
REMARK    1  A    between atoms: C1_2  and  C2_3 
ROOT
ATOM      1  C2  UNL d   1      -1.330  -2.317  -0.866  0.00  0.00    -0.073 A 
ATOM      2  C3  UNL d   1      -1.032  -2.148  -2.223  0.00  0.00    -0.002 A 
ATOM      3  C4  UNL d   1      -1.795  -1.284  -3.010  0.00  0.00     0.004 A 
ATOM      4  C5  UNL d   1      -2.858  -0.577  -2.448  0.00  0.00    -0.004 A 
ATOM      5  C6  UNL d   1      -3.164  -0.723  -1.091  0.00  0.00    -0.075 A 
ATOM      6  C7  UNL d   1      -4.305   0.029  -0.472  0.00  0.00     0.076 C 
ATOM      7  C8  UNL d   1      -2.394  -1.594  -0.308  0.00  0.00     0.001 A 
ENDROOT
BRANCH   1   8
ATOM      8  C1  UNL d   1      -0.505  -3.243  -0.011  0.00  0.00     0.053 C 
ATOM      9  C   UNL d   1      -0.745  -4.704  -0.356  0.00  0.00     0.018 C 
ENDBRANCH   1   8
TORSDOF 1
ENDMDL
