MODEL 1
REMARK minimizedAffinity 16.941885
REMARK minimizedRMSD -1
REMARK  1 active torsions:
REMARK  status: ('A' for Active; 'I' for Inactive)
REMARK    1  A    between atoms: C1_2  and  C2_3 
ROOT
ATOM      1  C2  UNL d   1       5.307   0.946  -3.664  0.00  0.00    -0.073 A 
ATOM      2  C3  UNL d   1       5.897  -0.235  -4.129  0.00  0.00    -0.002 A 
ATOM      3  C4  UNL d   1       5.250  -1.460  -3.962  0.00  0.00     0.004 A 
ATOM      4  C5  UNL d   1       4.005  -1.516  -3.337  0.00  0.00    -0.004 A 
ATOM      5  C6  UNL d   1       3.393  -0.346  -2.876  0.00  0.00    -0.075 A 
ATOM      6  C7  UNL d   1       2.055  -0.389  -2.199  0.00  0.00     0.076 C 
ATOM      7  C8  UNL d   1       4.051   0.880  -3.044  0.00  0.00     0.001 A 
ENDROOT
BRANCH   1   8
ATOM      8  C1  UNL d   1       6.000   2.271  -3.848  0.00  0.00     0.053 C 
ATOM      9  C   UNL d   1       5.999   2.719  -5.301  0.00  0.00     0.018 C 
ENDBRANCH   1   8
TORSDOF 1
ENDMDL
