MODEL 1
REMARK minimizedAffinity 10.1580515
REMARK minimizedRMSD -1
REMARK  1 active torsions:
REMARK  status: ('A' for Active; 'I' for Inactive)
REMARK    1  A    between atoms: C1_2  and  C2_3 
ROOT
ATOM      1  C2  UNL d   1      -1.576  -2.428   3.453  0.00  0.00    -0.073 A 
ATOM      2  C3  UNL d   1      -0.450  -3.142   3.029  0.00  0.00    -0.002 A 
ATOM      3  C4  UNL d   1      -0.203  -3.327   1.668  0.00  0.00     0.004 A 
ATOM      4  C5  UNL d   1      -1.074  -2.795   0.718  0.00  0.00    -0.004 A 
ATOM      5  C6  UNL d   1      -2.199  -2.068   1.121  0.00  0.00    -0.075 A 
ATOM      6  C7  UNL d   1      -3.147  -1.490   0.112  0.00  0.00     0.076 C 
ATOM      7  C8  UNL d   1      -2.441  -1.889   2.490  0.00  0.00     0.001 A 
ENDROOT
BRANCH   1   8
ATOM      8  C1  UNL d   1      -1.843  -2.221   4.921  0.00  0.00     0.053 C 
ATOM      9  C   UNL d   1      -2.380  -0.828   5.211  0.00  0.00     0.018 C 
ENDBRANCH   1   8
TORSDOF 1
ENDMDL
