MODEL 1
REMARK minimizedAffinity 6.89765596
REMARK minimizedRMSD -1
REMARK  1 active torsions:
REMARK  status: ('A' for Active; 'I' for Inactive)
REMARK    1  A    between atoms: C1_2  and  C2_3 
ROOT
ATOM      1  C2  UNL d   1      -1.722  -2.429   3.302  0.00  0.00    -0.073 A 
ATOM      2  C3  UNL d   1      -1.855  -3.533   4.152  0.00  0.00    -0.002 A 
ATOM      3  C4  UNL d   1      -2.189  -3.354   5.494  0.00  0.00     0.004 A 
ATOM      4  C5  UNL d   1      -2.401  -2.071   5.999  0.00  0.00    -0.004 A 
ATOM      5  C6  UNL d   1      -2.284  -0.955   5.164  0.00  0.00    -0.075 A 
ATOM      6  C7  UNL d   1      -2.506   0.431   5.692  0.00  0.00     0.076 C 
ATOM      7  C8  UNL d   1      -1.945  -1.144   3.817  0.00  0.00     0.001 A 
ENDROOT
BRANCH   1   8
ATOM      8  C1  UNL d   1      -1.367  -2.619   1.850  0.00  0.00     0.053 C 
ATOM      9  C   UNL d   1      -0.417  -3.788   1.643  0.00  0.00     0.018 C 
ENDBRANCH   1   8
TORSDOF 1
ENDMDL
