MODEL 1
REMARK minimizedAffinity 14.7104702
REMARK minimizedRMSD -1
REMARK  1 active torsions:
REMARK  status: ('A' for Active; 'I' for Inactive)
REMARK    1  A    between atoms: C1_2  and  C2_3 
ROOT
ATOM      1  C2  UNL d   1       1.202  -1.709   0.823  0.00  0.00    -0.076 A 
ATOM      2  C3  UNL d   1       2.224  -2.355   0.105  0.00  0.00     0.004 A 
ATOM      3  C4  UNL d   1       2.929  -3.420   0.662  0.00  0.00    -0.003 A 
ATOM      4  C5  UNL d   1       2.623  -3.858   1.946  0.00  0.00     0.000 A 
ATOM      5  C6  UNL d   1       1.601  -3.241   2.666  0.00  0.00     0.000 A 
ATOM      6  C7  UNL d   1       0.869  -2.176   2.113  0.00  0.00    -0.073 A 
ATOM      7  C8  UNL d   1      -0.218  -1.543   2.937  0.00  0.00     0.078 C 
ENDROOT
BRANCH   1   8
ATOM      8  C1  UNL d   1       0.490  -0.541   0.179  0.00  0.00     0.053 C 
ATOM      9  C   UNL d   1      -0.340  -0.957  -1.025  0.00  0.00     0.018 C 
ENDBRANCH   1   8
TORSDOF 1
ENDMDL
