MODEL 1
REMARK minimizedAffinity 7.12950659
REMARK minimizedRMSD -1
REMARK  1 active torsions:
REMARK  status: ('A' for Active; 'I' for Inactive)
REMARK    1  A    between atoms: C1_2  and  C2_3 
ROOT
ATOM      1  C2  UNL d   1      -0.225  -1.296   1.037  0.00  0.00    -0.076 A 
ATOM      2  C3  UNL d   1      -1.180  -1.206   0.010  0.00  0.00     0.004 A 
ATOM      3  C4  UNL d   1      -2.504  -0.869   0.289  0.00  0.00    -0.003 A 
ATOM      4  C5  UNL d   1      -2.893  -0.617   1.600  0.00  0.00     0.000 A 
ATOM      5  C6  UNL d   1      -1.955  -0.685   2.629  0.00  0.00     0.000 A 
ATOM      6  C7  UNL d   1      -0.613  -1.007   2.363  0.00  0.00    -0.073 A 
ATOM      7  C8  UNL d   1       0.356  -1.072   3.512  0.00  0.00     0.078 C 
ENDROOT
BRANCH   1   8
ATOM      8  C1  UNL d   1       1.190  -1.692   0.677  0.00  0.00     0.053 C 
ATOM      9  C   UNL d   1       1.532  -1.379  -0.771  0.00  0.00     0.018 C 
ENDBRANCH   1   8
TORSDOF 1
ENDMDL
