MODEL 1
REMARK minimizedAffinity 11.6856871
REMARK minimizedRMSD -1
REMARK  1 active torsions:
REMARK  status: ('A' for Active; 'I' for Inactive)
REMARK    1  A    between atoms: C1_2  and  C2_3 
ROOT
ATOM      1  C2  UNL d   1       2.676  -3.453   2.854  0.00  0.00    -0.076 A 
ATOM      2  C3  UNL d   1       2.121  -2.256   3.338  0.00  0.00     0.004 A 
ATOM      3  C4  UNL d   1       1.205  -1.531   2.578  0.00  0.00    -0.003 A 
ATOM      4  C5  UNL d   1       0.829  -1.992   1.321  0.00  0.00     0.000 A 
ATOM      5  C6  UNL d   1       1.356  -3.187   0.833  0.00  0.00     0.000 A 
ATOM      6  C7  UNL d   1       2.268  -3.938   1.593  0.00  0.00    -0.073 A 
ATOM      7  C8  UNL d   1       2.810  -5.217   1.015  0.00  0.00     0.078 C 
ENDROOT
BRANCH   1   8
ATOM      8  C1  UNL d   1       3.686  -4.182   3.712  0.00  0.00     0.053 C 
ATOM      9  C   UNL d   1       4.146  -3.354   4.902  0.00  0.00     0.018 C 
ENDBRANCH   1   8
TORSDOF 1
ENDMDL
