MODEL 1
REMARK minimizedAffinity -3.07273126
REMARK minimizedRMSD -1
REMARK  0 active torsions:
REMARK  status: ('A' for Active; 'I' for Inactive)
ROOT
ATOM      1  C   UNL d   1       1.863  -0.332   1.979  0.00  0.00    -0.002 A 
ATOM      2  C1  UNL d   1       2.631  -1.059   1.081  0.00  0.00     0.010 A 
ATOM      3  C2  UNL d   1       2.255  -1.156  -0.261  0.00  0.00     0.041 A 
ATOM      4  C3  UNL d   1       1.083  -0.502  -0.689  0.00  0.00    -0.075 A 
ATOM      5  S   UNL d   1       0.428  -0.481  -2.283  0.00  0.00     0.015 SA
ATOM      6  C4  UNL d   1      -0.887   0.494  -1.810  0.00  0.00     0.022 A 
ATOM      7  C5  UNL d   1      -0.844   0.805  -0.472  0.00  0.00     0.026 A 
ATOM      8  C6  UNL d   1       0.293   0.237   0.197  0.00  0.00    -0.082 A 
ATOM      9  C7  UNL d   1       0.701   0.315   1.550  0.00  0.00     0.045 A 
ENDROOT
TORSDOF 0
ENDMDL
