MODEL 1
REMARK minimizedAffinity -0.5528844
REMARK minimizedRMSD -1
REMARK  0 active torsions:
REMARK  status: ('A' for Active; 'I' for Inactive)
ROOT
ATOM      1  C   UNL d   1      -0.373  -0.471   1.907  0.00  0.00    -0.002 A 
ATOM      2  C1  UNL d   1       0.925  -0.048   1.657  0.00  0.00     0.010 A 
ATOM      3  C2  UNL d   1       1.236   0.634   0.479  0.00  0.00     0.041 A 
ATOM      4  C3  UNL d   1       0.210   0.889  -0.452  0.00  0.00    -0.075 A 
ATOM      5  S   UNL d   1       0.356   1.708  -1.961  0.00  0.00     0.015 SA
ATOM      6  C4  UNL d   1      -1.302   1.517  -2.310  0.00  0.00     0.022 A 
ATOM      7  C5  UNL d   1      -1.965   0.846  -1.310  0.00  0.00     0.026 A 
ATOM      8  C6  UNL d   1      -1.105   0.474  -0.222  0.00  0.00    -0.082 A 
ATOM      9  C7  UNL d   1      -1.388  -0.217   0.981  0.00  0.00     0.045 A 
ENDROOT
TORSDOF 0
ENDMDL
