MODEL 1
REMARK minimizedAffinity -1.81353033
REMARK minimizedRMSD -1
REMARK  0 active torsions:
REMARK  status: ('A' for Active; 'I' for Inactive)
ROOT
ATOM      1  C   UNL d   1       0.652  -0.876   2.921  0.00  0.00    -0.002 A 
ATOM      2  C1  UNL d   1       1.878  -0.645   2.314  0.00  0.00     0.010 A 
ATOM      3  C2  UNL d   1       1.945  -0.244   0.978  0.00  0.00     0.041 A 
ATOM      4  C3  UNL d   1       0.747  -0.077   0.256  0.00  0.00    -0.075 A 
ATOM      5  S   UNL d   1       0.586   0.408  -1.391  0.00  0.00     0.015 SA
ATOM      6  C4  UNL d   1      -1.115   0.320  -1.327  0.00  0.00     0.022 A 
ATOM      7  C5  UNL d   1      -1.566  -0.068  -0.088  0.00  0.00     0.026 A 
ATOM      8  C6  UNL d   1      -0.500  -0.303   0.845  0.00  0.00    -0.082 A 
ATOM      9  C7  UNL d   1      -0.534  -0.709   2.201  0.00  0.00     0.045 A 
ENDROOT
TORSDOF 0
ENDMDL
