MODEL 1
REMARK minimizedAffinity -2.27971864
REMARK minimizedRMSD -1
REMARK  0 active torsions:
REMARK  status: ('A' for Active; 'I' for Inactive)
ROOT
ATOM      1  C   UNL d   1       1.222  -0.215   2.784  0.00  0.00    -0.002 A 
ATOM      2  C1  UNL d   1       0.742  -1.470   2.438  0.00  0.00     0.010 A 
ATOM      3  C2  UNL d   1       0.152  -1.686   1.191  0.00  0.00     0.041 A 
ATOM      4  C3  UNL d   1       0.052  -0.608   0.289  0.00  0.00    -0.075 A 
ATOM      5  S   UNL d   1      -0.631  -0.638  -1.294  0.00  0.00     0.015 SA
ATOM      6  C4  UNL d   1      -0.302   1.015  -1.548  0.00  0.00     0.022 A 
ATOM      7  C5  UNL d   1       0.314   1.591  -0.462  0.00  0.00     0.026 A 
ATOM      8  C6  UNL d   1       0.529   0.665   0.614  0.00  0.00    -0.082 A 
ATOM      9  C7  UNL d   1       1.121   0.851   1.886  0.00  0.00     0.045 A 
ENDROOT
TORSDOF 0
ENDMDL
