MODEL 1
REMARK minimizedAffinity -1.28582048
REMARK minimizedRMSD -1
REMARK  0 active torsions:
REMARK  status: ('A' for Active; 'I' for Inactive)
ROOT
ATOM      1  C   UNL d   1       2.312   0.084   2.165  0.00  0.00    -0.002 A 
ATOM      2  C1  UNL d   1       1.505  -0.688   2.988  0.00  0.00     0.010 A 
ATOM      3  C2  UNL d   1       0.257  -1.131   2.546  0.00  0.00     0.041 A 
ATOM      4  C3  UNL d   1      -0.170  -0.782   1.250  0.00  0.00    -0.075 A 
ATOM      5  S   UNL d   1      -1.660  -1.212   0.495  0.00  0.00     0.015 SA
ATOM      6  C4  UNL d   1      -1.259  -0.381  -0.938  0.00  0.00     0.022 A 
ATOM      7  C5  UNL d   1      -0.024   0.216  -0.860  0.00  0.00     0.026 A 
ATOM      8  C6  UNL d   1       0.625  -0.006   0.402  0.00  0.00    -0.082 A 
ATOM      9  C7  UNL d   1       1.885   0.428   0.879  0.00  0.00     0.045 A 
ENDROOT
TORSDOF 0
ENDMDL
