MODEL 1
REMARK minimizedAffinity -2.42468333
REMARK minimizedRMSD -1
REMARK  0 active torsions:
REMARK  status: ('A' for Active; 'I' for Inactive)
ROOT
ATOM      1  C   UNL d   1       0.254  -0.243   2.594  0.00  0.00    -0.002 A 
ATOM      2  C1  UNL d   1       1.501  -0.711   2.204  0.00  0.00     0.010 A 
ATOM      3  C2  UNL d   1       1.799  -0.895   0.852  0.00  0.00     0.041 A 
ATOM      4  C3  UNL d   1       0.814  -0.596  -0.110  0.00  0.00    -0.075 A 
ATOM      5  S   UNL d   1       0.954  -0.742  -1.822  0.00  0.00     0.015 SA
ATOM      6  C4  UNL d   1      -0.637  -0.186  -2.075  0.00  0.00     0.022 A 
ATOM      7  C5  UNL d   1      -1.274   0.108  -0.893  0.00  0.00     0.026 A 
ATOM      8  C6  UNL d   1      -0.449  -0.122   0.259  0.00  0.00    -0.082 A 
ATOM      9  C7  UNL d   1      -0.720   0.053   1.637  0.00  0.00     0.045 A 
ENDROOT
TORSDOF 0
ENDMDL
