MODEL 1
REMARK minimizedAffinity -3.08587933
REMARK minimizedRMSD -1
REMARK  0 active torsions:
REMARK  status: ('A' for Active; 'I' for Inactive)
ROOT
ATOM      1  C   UNL d   1       0.550  -1.050   3.060  0.00  0.00    -0.002 A 
ATOM      2  C1  UNL d   1       1.750  -1.179   2.375  0.00  0.00     0.010 A 
ATOM      3  C2  UNL d   1       1.838  -0.833   1.026  0.00  0.00     0.041 A 
ATOM      4  C3  UNL d   1       0.690  -0.347   0.370  0.00  0.00    -0.075 A 
ATOM      5  S   UNL d   1       0.562   0.141  -1.279  0.00  0.00     0.015 SA
ATOM      6  C4  UNL d   1      -1.088   0.534  -1.113  0.00  0.00     0.022 A 
ATOM      7  C5  UNL d   1      -1.546   0.304   0.163  0.00  0.00     0.026 A 
ATOM      8  C6  UNL d   1      -0.529  -0.206   1.039  0.00  0.00    -0.082 A 
ATOM      9  C7  UNL d   1      -0.587  -0.567   2.406  0.00  0.00     0.045 A 
ENDROOT
TORSDOF 0
ENDMDL
