MODEL 1
REMARK minimizedAffinity -1.48774552
REMARK minimizedRMSD -1
REMARK  0 active torsions:
REMARK  status: ('A' for Active; 'I' for Inactive)
ROOT
ATOM      1  C   UNL d   1       0.053  -1.167   2.831  0.00  0.00    -0.002 A 
ATOM      2  C1  UNL d   1      -1.167  -0.868   2.241  0.00  0.00     0.010 A 
ATOM      3  C2  UNL d   1      -1.268  -0.713   0.858  0.00  0.00     0.041 A 
ATOM      4  C3  UNL d   1      -0.112  -0.867   0.068  0.00  0.00    -0.075 A 
ATOM      5  S   UNL d   1       0.003  -0.724  -1.646  0.00  0.00     0.015 SA
ATOM      6  C4  UNL d   1       1.675  -1.056  -1.636  0.00  0.00     0.022 A 
ATOM      7  C5  UNL d   1       2.150  -1.274  -0.365  0.00  0.00     0.026 A 
ATOM      8  C6  UNL d   1       1.128  -1.168   0.639  0.00  0.00    -0.082 A 
ATOM      9  C7  UNL d   1       1.198  -1.318   2.045  0.00  0.00     0.045 A 
ENDROOT
TORSDOF 0
ENDMDL
