MODEL 1
REMARK minimizedAffinity -4.48559761
REMARK minimizedRMSD -1
REMARK  0 active torsions:
REMARK  status: ('A' for Active; 'I' for Inactive)
ROOT
ATOM      1  C   UNL d   1       3.034  -1.200  -0.446  0.00  0.00    -0.002 A 
ATOM      2  C1  UNL d   1       2.169  -1.763  -1.373  0.00  0.00     0.010 A 
ATOM      3  C2  UNL d   1       0.787  -1.705  -1.182  0.00  0.00     0.041 A 
ATOM      4  C3  UNL d   1       0.284  -1.064  -0.033  0.00  0.00    -0.075 A 
ATOM      5  S   UNL d   1      -1.371  -0.870   0.410  0.00  0.00     0.015 SA
ATOM      6  C4  UNL d   1      -0.968  -0.035   1.840  0.00  0.00     0.022 A 
ATOM      7  C5  UNL d   1       0.392   0.102   1.992  0.00  0.00     0.026 A 
ATOM      8  C6  UNL d   1       1.136  -0.488   0.915  0.00  0.00    -0.082 A 
ATOM      9  C7  UNL d   1       2.532  -0.565   0.693  0.00  0.00     0.045 A 
ENDROOT
TORSDOF 0
ENDMDL
