MODEL 1
REMARK minimizedAffinity -5.04025936
REMARK minimizedRMSD -1
REMARK  0 active torsions:
REMARK  status: ('A' for Active; 'I' for Inactive)
ROOT
ATOM      1  C4' PXY d   1      -1.022   0.278  -0.927  0.00  0.00     0.077 C 
ATOM      2  C1' PXY d   1       2.381  -1.458   3.412  0.00  0.00     0.077 C 
ATOM      3  C1  PXY d   1       1.479  -1.002   2.282  0.00  0.00    -0.082 A 
ATOM      4  C2  PXY d   1       1.790  -1.306   1.033  0.00  0.00     0.003 A 
ATOM      5  C3  PXY d   1       1.003  -0.874  -0.003  0.00  0.00     0.003 A 
ATOM      6  C4  PXY d   1      -0.145  -0.170   0.246  0.00  0.00    -0.082 A 
ATOM      7  C5  PXY d   1      -0.475   0.135   1.519  0.00  0.00     0.003 A 
ATOM      8  C6  PXY d   1       0.359  -0.277   2.553  0.00  0.00     0.003 A 
ENDROOT
TORSDOF 0
ENDMDL
