MODEL 1
REMARK minimizedAffinity -5.28028488
REMARK minimizedRMSD -1
REMARK  0 active torsions:
REMARK  status: ('A' for Active; 'I' for Inactive)
ROOT
ATOM      1  C4' PXY d   1      -0.898   0.801  -2.162  0.00  0.00     0.077 C 
ATOM      2  C1' PXY d   1       1.082  -0.902   2.996  0.00  0.00     0.077 C 
ATOM      3  C1  PXY d   1       0.575  -0.452   1.640  0.00  0.00    -0.082 A 
ATOM      4  C2  PXY d   1      -0.693  -0.100   1.499  0.00  0.00     0.003 A 
ATOM      5  C3  PXY d   1      -1.176   0.278   0.273  0.00  0.00     0.003 A 
ATOM      6  C4  PXY d   1      -0.340   0.349  -0.809  0.00  0.00    -0.082 A 
ATOM      7  C5  PXY d   1       0.957   0.002  -0.672  0.00  0.00     0.003 A 
ATOM      8  C6  PXY d   1       1.418  -0.419   0.572  0.00  0.00     0.003 A 
ENDROOT
TORSDOF 0
ENDMDL
