MODEL 1
REMARK minimizedAffinity -5.75486279
REMARK minimizedRMSD -1
REMARK  0 active torsions:
REMARK  status: ('A' for Active; 'I' for Inactive)
ROOT
ATOM      1  C4' PXY d   1      -0.983   0.379  -1.832  0.00  0.00     0.077 C 
ATOM      2  C1' PXY d   1       1.432  -0.880   3.266  0.00  0.00     0.077 C 
ATOM      3  C1  PXY d   1       0.811  -0.548   1.924  0.00  0.00    -0.082 A 
ATOM      4  C2  PXY d   1      -0.440  -0.120   1.871  0.00  0.00     0.003 A 
ATOM      5  C3  PXY d   1      -1.028   0.155   0.663  0.00  0.00     0.003 A 
ATOM      6  C4  PXY d   1      -0.311   0.040  -0.499  0.00  0.00    -0.082 A 
ATOM      7  C5  PXY d   1       0.969  -0.386  -0.451  0.00  0.00     0.003 A 
ATOM      8  C6  PXY d   1       1.534  -0.698   0.781  0.00  0.00     0.003 A 
ENDROOT
TORSDOF 0
ENDMDL
