MODEL 1
REMARK minimizedAffinity -2.24392104
REMARK minimizedRMSD -1
REMARK  0 active torsions:
REMARK  status: ('A' for Active; 'I' for Inactive)
ROOT
ATOM      1  C4' PXY d   1      -2.460  -0.018   1.589  0.00  0.00     0.077 C 
ATOM      2  C1' PXY d   1       2.975  -0.623  -0.286  0.00  0.00     0.077 C 
ATOM      3  C1  PXY d   1       1.553  -0.469   0.218  0.00  0.00    -0.082 A 
ATOM      4  C2  PXY d   1       0.551  -0.456  -0.646  0.00  0.00     0.003 A 
ATOM      5  C3  PXY d   1      -0.738  -0.286  -0.211  0.00  0.00     0.003 A 
ATOM      6  C4  PXY d   1      -1.009  -0.181   1.127  0.00  0.00    -0.082 A 
ATOM      7  C5  PXY d   1       0.007  -0.204   2.015  0.00  0.00     0.003 A 
ATOM      8  C6  PXY d   1       1.312  -0.336   1.550  0.00  0.00     0.003 A 
ENDROOT
TORSDOF 0
ENDMDL
