MODEL 1
REMARK minimizedAffinity -3.7478354
REMARK minimizedRMSD -1
REMARK  0 active torsions:
REMARK  status: ('A' for Active; 'I' for Inactive)
ROOT
ATOM      1  C4' PXY d   1      -1.042   0.586  -1.677  0.00  0.00     0.077 C 
ATOM      2  C1' PXY d   1       1.653  -0.505   3.319  0.00  0.00     0.077 C 
ATOM      3  C1  PXY d   1       0.936  -0.227   2.013  0.00  0.00    -0.082 A 
ATOM      4  C2  PXY d   1       1.634   0.129   0.947  0.00  0.00     0.003 A 
ATOM      5  C3  PXY d   1       0.999   0.416  -0.234  0.00  0.00     0.003 A 
ATOM      6  C4  PXY d   1      -0.360   0.286  -0.339  0.00  0.00    -0.082 A 
ATOM      7  C5  PXY d   1      -1.078  -0.087   0.741  0.00  0.00     0.003 A 
ATOM      8  C6  PXY d   1      -0.418  -0.334   1.942  0.00  0.00     0.003 A 
ENDROOT
TORSDOF 0
ENDMDL
