MODEL 1
REMARK minimizedAffinity -4.47243309
REMARK minimizedRMSD -1
REMARK  0 active torsions:
REMARK  status: ('A' for Active; 'I' for Inactive)
ROOT
ATOM      1  C4' PXY d   1      -1.180   0.960  -1.801  0.00  0.00     0.077 C 
ATOM      2  C1' PXY d   1       2.690  -1.827   1.466  0.00  0.00     0.077 C 
ATOM      3  C1  PXY d   1       1.680  -1.101   0.598  0.00  0.00    -0.082 A 
ATOM      4  C2  PXY d   1       1.078  -0.018   1.062  0.00  0.00     0.003 A 
ATOM      5  C3  PXY d   1       0.139   0.632   0.304  0.00  0.00     0.003 A 
ATOM      6  C4  PXY d   1      -0.147   0.201  -0.964  0.00  0.00    -0.082 A 
ATOM      7  C5  PXY d   1       0.471  -0.897  -1.449  0.00  0.00     0.003 A 
ATOM      8  C6  PXY d   1       1.391  -1.567  -0.647  0.00  0.00     0.003 A 
ENDROOT
TORSDOF 0
ENDMDL
