MODEL 1
REMARK minimizedAffinity -3.17310309
REMARK minimizedRMSD -1
REMARK  0 active torsions:
REMARK  status: ('A' for Active; 'I' for Inactive)
ROOT
ATOM      1  C4' PXY d   1      -0.655   0.790  -2.066  0.00  0.00     0.077 C 
ATOM      2  C1' PXY d   1       1.247  -0.747   3.173  0.00  0.00     0.077 C 
ATOM      3  C1  PXY d   1       0.736  -0.348   1.802  0.00  0.00    -0.082 A 
ATOM      4  C2  PXY d   1       1.579  -0.277   0.785  0.00  0.00     0.003 A 
ATOM      5  C3  PXY d   1       1.140   0.113  -0.454  0.00  0.00     0.003 A 
ATOM      6  C4  PXY d   1      -0.185   0.382  -0.666  0.00  0.00    -0.082 A 
ATOM      7  C5  PXY d   1      -1.054   0.302   0.364  0.00  0.00     0.003 A 
ATOM      8  C6  PXY d   1      -0.581  -0.055   1.623  0.00  0.00     0.003 A 
ENDROOT
TORSDOF 0
ENDMDL
