MODEL 1
REMARK minimizedAffinity -3.5400517
REMARK minimizedRMSD -1
REMARK  0 active torsions:
REMARK  status: ('A' for Active; 'I' for Inactive)
ROOT
ATOM      1  C4' PXY d   1       0.412  -1.674   2.802  0.00  0.00     0.077 C 
ATOM      2  C1' PXY d   1      -0.597   1.527  -1.905  0.00  0.00     0.077 C 
ATOM      3  C1  PXY d   1      -0.322   0.682  -0.676  0.00  0.00    -0.082 A 
ATOM      4  C2  PXY d   1      -1.317   0.367   0.137  0.00  0.00     0.003 A 
ATOM      5  C3  PXY d   1      -1.080  -0.369   1.269  0.00  0.00     0.003 A 
ATOM      6  C4  PXY d   1       0.179  -0.832   1.545  0.00  0.00    -0.082 A 
ATOM      7  C5  PXY d   1       1.197  -0.523   0.714  0.00  0.00     0.003 A 
ATOM      8  C6  PXY d   1       0.944   0.260  -0.408  0.00  0.00     0.003 A 
ENDROOT
TORSDOF 0
ENDMDL
