MODEL 1
REMARK minimizedAffinity -2.82904649
REMARK minimizedRMSD -1
REMARK  0 active torsions:
REMARK  status: ('A' for Active; 'I' for Inactive)
ROOT
ATOM      1  C4' PXY d   1       2.564  -1.453   3.349  0.00  0.00     0.077 C 
ATOM      2  C1' PXY d   1      -1.278  -0.172  -0.776  0.00  0.00     0.077 C 
ATOM      3  C1  PXY d   1      -0.262  -0.511   0.297  0.00  0.00    -0.082 A 
ATOM      4  C2  PXY d   1      -0.676  -0.856   1.505  0.00  0.00     0.003 A 
ATOM      5  C3  PXY d   1       0.230  -1.134   2.496  0.00  0.00     0.003 A 
ATOM      6  C4  PXY d   1       1.573  -1.111   2.233  0.00  0.00    -0.082 A 
ATOM      7  C5  PXY d   1       2.004  -0.771   1.000  0.00  0.00     0.003 A 
ATOM      8  C6  PXY d   1       1.069  -0.452   0.019  0.00  0.00     0.003 A 
ENDROOT
TORSDOF 0
ENDMDL
