MODEL 1
REMARK minimizedAffinity 8.8048296
REMARK minimizedRMSD -1
REMARK  0 active torsions:
REMARK  status: ('A' for Active; 'I' for Inactive)
ROOT
ATOM      1  C   UNL d   1      -5.939  -2.979   1.611  0.00  0.00     0.077 C 
ATOM      2  C1  UNL d   1      -5.967  -2.253   2.924  0.00  0.00    -0.074 A 
ATOM      3  C2  UNL d   1      -5.970  -2.955   4.133  0.00  0.00    -0.005 A 
ATOM      4  C3  UNL d   1      -5.987  -2.267   5.346  0.00  0.00     0.006 A 
ATOM      5  C4  UNL d   1      -6.000  -0.871   5.362  0.00  0.00    -0.005 A 
ATOM      6  C5  UNL d   1      -5.996  -0.152   4.162  0.00  0.00    -0.074 A 
ATOM      7  C6  UNL d   1      -6.000   1.347   4.161  0.00  0.00     0.077 C 
ATOM      8  C7  UNL d   1      -5.972  -0.852   2.947  0.00  0.00    -0.001 A 
ENDROOT
TORSDOF 0
ENDMDL
