MODEL 1
REMARK minimizedAffinity 8.53697586
REMARK minimizedRMSD -1
REMARK  0 active torsions:
REMARK  status: ('A' for Active; 'I' for Inactive)
ROOT
ATOM      1  C   UNL d   1       0.625   1.225  -0.343  0.00  0.00     0.077 C 
ATOM      2  C1  UNL d   1       0.239  -0.086   0.277  0.00  0.00    -0.074 A 
ATOM      3  C2  UNL d   1       0.814  -0.510   1.479  0.00  0.00    -0.005 A 
ATOM      4  C3  UNL d   1       0.438  -1.727   2.047  0.00  0.00     0.006 A 
ATOM      5  C4  UNL d   1      -0.515  -2.531   1.421  0.00  0.00    -0.005 A 
ATOM      6  C5  UNL d   1      -1.102  -2.122   0.219  0.00  0.00    -0.074 A 
ATOM      7  C6  UNL d   1      -2.135  -2.969  -0.463  0.00  0.00     0.077 C 
ATOM      8  C7  UNL d   1      -0.724  -0.895  -0.343  0.00  0.00    -0.001 A 
ENDROOT
TORSDOF 0
ENDMDL
