MODEL 1
REMARK minimizedAffinity 5.40071774
REMARK minimizedRMSD -1
REMARK  0 active torsions:
REMARK  status: ('A' for Active; 'I' for Inactive)
ROOT
ATOM      1  C   UNL d   1      -4.908  -1.011   1.766  0.00  0.00     0.077 C 
ATOM      2  C1  UNL d   1      -5.295   0.113   2.679  0.00  0.00    -0.074 A 
ATOM      3  C2  UNL d   1      -5.473  -0.102   4.050  0.00  0.00    -0.005 A 
ATOM      4  C3  UNL d   1      -5.824   0.955   4.888  0.00  0.00     0.006 A 
ATOM      5  C4  UNL d   1      -6.000   2.237   4.367  0.00  0.00    -0.005 A 
ATOM      6  C5  UNL d   1      -5.825   2.473   2.999  0.00  0.00    -0.074 A 
ATOM      7  C6  UNL d   1      -6.000   3.846   2.423  0.00  0.00     0.077 C 
ATOM      8  C7  UNL d   1      -5.465   1.406   2.164  0.00  0.00    -0.001 A 
ENDROOT
TORSDOF 0
ENDMDL
