MODEL 1
REMARK minimizedAffinity 0.671452343
REMARK minimizedRMSD -1
REMARK  0 active torsions:
REMARK  status: ('A' for Active; 'I' for Inactive)
ROOT
ATOM      1  C   UNL d   1       3.896  -0.413  -4.568  0.00  0.00     0.077 C 
ATOM      2  C1  UNL d   1       2.836   0.430  -3.922  0.00  0.00    -0.074 A 
ATOM      3  C2  UNL d   1       3.177   1.470  -3.052  0.00  0.00    -0.005 A 
ATOM      4  C3  UNL d   1       2.181   2.251  -2.465  0.00  0.00     0.006 A 
ATOM      5  C4  UNL d   1       0.837   2.000  -2.743  0.00  0.00    -0.005 A 
ATOM      6  C5  UNL d   1       0.477   0.965  -3.611  0.00  0.00    -0.074 A 
ATOM      7  C6  UNL d   1      -0.962   0.688  -3.928  0.00  0.00     0.077 C 
ATOM      8  C7  UNL d   1       1.484   0.189  -4.202  0.00  0.00    -0.001 A 
ENDROOT
TORSDOF 0
ENDMDL
