MODEL 1
REMARK minimizedAffinity 6.71316862
REMARK minimizedRMSD -1
REMARK  0 active torsions:
REMARK  status: ('A' for Active; 'I' for Inactive)
ROOT
ATOM      1  C   UNL d   1       0.342   0.752   1.818  0.00  0.00     0.077 C 
ATOM      2  C1  UNL d   1      -0.102   0.243   0.479  0.00  0.00    -0.074 A 
ATOM      3  C2  UNL d   1       0.143   0.976  -0.686  0.00  0.00    -0.005 A 
ATOM      4  C3  UNL d   1      -0.267   0.485  -1.925  0.00  0.00     0.006 A 
ATOM      5  C4  UNL d   1      -0.926  -0.742  -2.012  0.00  0.00    -0.005 A 
ATOM      6  C5  UNL d   1      -1.179  -1.490  -0.857  0.00  0.00    -0.074 A 
ATOM      7  C6  UNL d   1      -1.877  -2.815  -0.934  0.00  0.00     0.077 C 
ATOM      8  C7  UNL d   1      -0.757  -0.993   0.383  0.00  0.00    -0.001 A 
ENDROOT
TORSDOF 0
ENDMDL
