MODEL 1
REMARK minimizedAffinity 0.174276188
REMARK minimizedRMSD -1
REMARK  0 active torsions:
REMARK  status: ('A' for Active; 'I' for Inactive)
ROOT
ATOM      1  C   UNL d   1       1.566   0.744  -0.892  0.00  0.00     0.077 C 
ATOM      2  C1  UNL d   1       0.847   0.370   0.370  0.00  0.00    -0.074 A 
ATOM      3  C2  UNL d   1       1.384  -0.577   1.249  0.00  0.00    -0.005 A 
ATOM      4  C3  UNL d   1       0.709  -0.908   2.424  0.00  0.00     0.006 A 
ATOM      5  C4  UNL d   1      -0.508  -0.297   2.731  0.00  0.00    -0.005 A 
ATOM      6  C5  UNL d   1      -1.059   0.652   1.865  0.00  0.00    -0.074 A 
ATOM      7  C6  UNL d   1      -2.361   1.325   2.185  0.00  0.00     0.077 C 
ATOM      8  C7  UNL d   1      -0.372   0.985   0.690  0.00  0.00    -0.001 A 
ENDROOT
TORSDOF 0
ENDMDL
