MODEL 1
REMARK minimizedAffinity 2.11511731
REMARK minimizedRMSD -1
REMARK  0 active torsions:
REMARK  status: ('A' for Active; 'I' for Inactive)
ROOT
ATOM      1  C   UNL d   1       5.424   0.068   3.894  0.00  0.00     0.077 C 
ATOM      2  C1  UNL d   1       5.036   0.738   2.609  0.00  0.00    -0.074 A 
ATOM      3  C2  UNL d   1       5.998   1.347   1.797  0.00  0.00    -0.005 A 
ATOM      4  C3  UNL d   1       5.624   1.957   0.600  0.00  0.00     0.006 A 
ATOM      5  C4  UNL d   1       4.286   1.964   0.203  0.00  0.00    -0.005 A 
ATOM      6  C5  UNL d   1       3.310   1.359   1.001  0.00  0.00    -0.074 A 
ATOM      7  C6  UNL d   1       1.870   1.349   0.585  0.00  0.00     0.077 C 
ATOM      8  C7  UNL d   1       3.695   0.742   2.199  0.00  0.00    -0.001 A 
ENDROOT
TORSDOF 0
ENDMDL
