MODEL 1
REMARK minimizedAffinity -0.712701738
REMARK minimizedRMSD -1
REMARK  0 active torsions:
REMARK  status: ('A' for Active; 'I' for Inactive)
ROOT
ATOM      1  C   UNL d   1       6.000  -0.344   4.926  0.00  0.00     0.077 C 
ATOM      2  C1  UNL d   1       5.867  -1.766   4.468  0.00  0.00    -0.074 A 
ATOM      3  C2  UNL d   1       5.652  -2.070   3.119  0.00  0.00    -0.005 A 
ATOM      4  C3  UNL d   1       5.540  -3.397   2.707  0.00  0.00     0.006 A 
ATOM      5  C4  UNL d   1       5.642  -4.433   3.636  0.00  0.00    -0.005 A 
ATOM      6  C5  UNL d   1       5.858  -4.149   4.988  0.00  0.00    -0.074 A 
ATOM      7  C6  UNL d   1       5.979  -5.250   5.999  0.00  0.00     0.077 C 
ATOM      8  C7  UNL d   1       5.976  -2.812   5.394  0.00  0.00    -0.001 A 
ENDROOT
TORSDOF 0
ENDMDL
