MODEL 1
REMARK minimizedAffinity -1.43971574
REMARK minimizedRMSD -1
REMARK  0 active torsions:
REMARK  status: ('A' for Active; 'I' for Inactive)
ROOT
ATOM      1  C   UNL d   1       5.894  -0.306   4.856  0.00  0.00     0.077 C 
ATOM      2  C1  UNL d   1       5.915  -1.737   4.408  0.00  0.00    -0.074 A 
ATOM      3  C2  UNL d   1       5.949  -2.064   3.049  0.00  0.00    -0.005 A 
ATOM      4  C3  UNL d   1       5.978  -3.400   2.647  0.00  0.00     0.006 A 
ATOM      5  C4  UNL d   1       5.973  -4.420   3.599  0.00  0.00    -0.005 A 
ATOM      6  C5  UNL d   1       5.939  -4.112   4.963  0.00  0.00    -0.074 A 
ATOM      7  C6  UNL d   1       5.943  -5.196   6.000  0.00  0.00     0.077 C 
ATOM      8  C7  UNL d   1       5.917  -2.768   5.359  0.00  0.00    -0.001 A 
ENDROOT
TORSDOF 0
ENDMDL
