MODEL 1
REMARK minimizedAffinity 6.68062973
REMARK minimizedRMSD -1
REMARK  0 active torsions:
REMARK  status: ('A' for Active; 'I' for Inactive)
ROOT
ATOM      1  C   UNL d   1       2.419   1.212   0.653  0.00  0.00     0.077 C 
ATOM      2  C1  UNL d   1       2.463   1.186  -0.846  0.00  0.00    -0.074 A 
ATOM      3  C2  UNL d   1       1.920   2.232  -1.599  0.00  0.00    -0.005 A 
ATOM      4  C3  UNL d   1       1.977   2.199  -2.993  0.00  0.00     0.006 A 
ATOM      5  C4  UNL d   1       2.576   1.120  -3.645  0.00  0.00    -0.005 A 
ATOM      6  C5  UNL d   1       3.124   0.066  -2.909  0.00  0.00    -0.074 A 
ATOM      7  C6  UNL d   1       3.780  -1.096  -3.595  0.00  0.00     0.077 C 
ATOM      8  C7  UNL d   1       3.069   0.110  -1.509  0.00  0.00    -0.001 A 
ENDROOT
TORSDOF 0
ENDMDL
