MODEL 1
REMARK minimizedAffinity 0.590481281
REMARK minimizedRMSD -1
REMARK  0 active torsions:
REMARK  status: ('A' for Active; 'I' for Inactive)
ROOT
ATOM      1  C   UNL d   1      -2.241  -2.842   0.361  0.00  0.00     0.077 C 
ATOM      2  C1  UNL d   1      -2.063  -1.521  -0.325  0.00  0.00    -0.074 A 
ATOM      3  C2  UNL d   1      -1.394  -0.467   0.306  0.00  0.00    -0.005 A 
ATOM      4  C3  UNL d   1      -1.228   0.753  -0.348  0.00  0.00     0.006 A 
ATOM      5  C4  UNL d   1      -1.728   0.933  -1.639  0.00  0.00    -0.005 A 
ATOM      6  C5  UNL d   1      -2.399  -0.109  -2.286  0.00  0.00    -0.074 A 
ATOM      7  C6  UNL d   1      -2.935   0.064  -3.676  0.00  0.00     0.077 C 
ATOM      8  C7  UNL d   1      -2.556  -1.335  -1.625  0.00  0.00    -0.001 A 
ENDROOT
TORSDOF 0
ENDMDL
