MODEL 1
REMARK minimizedAffinity 2.21816778
REMARK minimizedRMSD -1
REMARK  0 active torsions:
REMARK  status: ('A' for Active; 'I' for Inactive)
ROOT
ATOM      1  C   UNL d   1      -2.099   1.041  -4.548  0.00  0.00     0.077 C 
ATOM      2  C1  UNL d   1      -1.897   0.036  -3.454  0.00  0.00    -0.074 A 
ATOM      3  C2  UNL d   1      -2.737  -1.077  -3.336  0.00  0.00    -0.005 A 
ATOM      4  C3  UNL d   1      -2.531  -2.008  -2.319  0.00  0.00     0.006 A 
ATOM      5  C4  UNL d   1      -1.485  -1.838  -1.410  0.00  0.00    -0.005 A 
ATOM      6  C5  UNL d   1      -0.635  -0.732  -1.513  0.00  0.00    -0.074 A 
ATOM      7  C6  UNL d   1       0.499  -0.538  -0.551  0.00  0.00     0.077 C 
ATOM      8  C7  UNL d   1      -0.844   0.196  -2.542  0.00  0.00    -0.001 A 
ENDROOT
TORSDOF 0
ENDMDL
