MODEL 1
REMARK minimizedAffinity -0.394955516
REMARK minimizedRMSD -1
REMARK  0 active torsions:
REMARK  status: ('A' for Active; 'I' for Inactive)
ROOT
ATOM      1  C   UNL d   1       6.000   0.542   3.746  0.00  0.00     0.077 C 
ATOM      2  C1  UNL d   1       5.706  -0.883   4.112  0.00  0.00    -0.074 A 
ATOM      3  C2  UNL d   1       5.716  -1.299   5.447  0.00  0.00    -0.005 A 
ATOM      4  C3  UNL d   1       5.432  -2.626   5.772  0.00  0.00     0.006 A 
ATOM      5  C4  UNL d   1       5.135  -3.547   4.768  0.00  0.00    -0.005 A 
ATOM      6  C5  UNL d   1       5.119  -3.149   3.427  0.00  0.00    -0.074 A 
ATOM      7  C6  UNL d   1       4.791  -4.125   2.336  0.00  0.00     0.077 C 
ATOM      8  C7  UNL d   1       5.399  -1.813   3.109  0.00  0.00    -0.001 A 
ENDROOT
TORSDOF 0
ENDMDL
