MODEL 1
REMARK minimizedAffinity 9.83250141
REMARK minimizedRMSD -1
REMARK  0 active torsions:
REMARK  status: ('A' for Active; 'I' for Inactive)
ROOT
ATOM      1  C   UNL d   1      -0.956   5.528   5.996  0.00  0.00     0.077 C 
ATOM      2  C1  UNL d   1      -2.314   4.891   5.973  0.00  0.00    -0.074 A 
ATOM      3  C2  UNL d   1      -2.454   3.500   5.947  0.00  0.00    -0.005 A 
ATOM      4  C3  UNL d   1      -3.723   2.921   5.934  0.00  0.00     0.006 A 
ATOM      5  C4  UNL d   1      -4.863   3.727   5.948  0.00  0.00    -0.005 A 
ATOM      6  C5  UNL d   1      -4.742   5.120   5.975  0.00  0.00    -0.074 A 
ATOM      7  C6  UNL d   1      -5.956   6.000   6.000  0.00  0.00     0.077 C 
ATOM      8  C7  UNL d   1      -3.463   5.693   5.994  0.00  0.00    -0.001 A 
ENDROOT
TORSDOF 0
ENDMDL
