MODEL 1
REMARK minimizedAffinity -0.502380848
REMARK minimizedRMSD -1
REMARK  0 active torsions:
REMARK  status: ('A' for Active; 'I' for Inactive)
ROOT
ATOM      1  C   UNL d   1       5.199  -4.517   4.812  0.00  0.00     0.077 C 
ATOM      2  C1  UNL d   1       5.461  -3.040   4.811  0.00  0.00    -0.074 A 
ATOM      3  C2  UNL d   1       5.748  -2.361   6.000  0.00  0.00    -0.005 A 
ATOM      4  C3  UNL d   1       6.000  -0.989   5.983  0.00  0.00     0.006 A 
ATOM      5  C4  UNL d   1       5.966  -0.284   4.779  0.00  0.00    -0.005 A 
ATOM      6  C5  UNL d   1       5.682  -0.946   3.581  0.00  0.00    -0.074 A 
ATOM      7  C6  UNL d   1       5.651  -0.205   2.278  0.00  0.00     0.077 C 
ATOM      8  C7  UNL d   1       5.437  -2.326   3.605  0.00  0.00    -0.001 A 
ENDROOT
TORSDOF 0
ENDMDL
