MODEL 1
REMARK minimizedAffinity 7.24852514
REMARK minimizedRMSD -1
REMARK  0 active torsions:
REMARK  status: ('A' for Active; 'I' for Inactive)
ROOT
ATOM      1  C   UNL d   1      -5.559   0.991   2.570  0.00  0.00     0.077 C 
ATOM      2  C1  UNL d   1      -4.302   0.532   1.892  0.00  0.00    -0.074 A 
ATOM      3  C2  UNL d   1      -3.202   1.386   1.764  0.00  0.00    -0.005 A 
ATOM      4  C3  UNL d   1      -2.037   0.943   1.139  0.00  0.00     0.006 A 
ATOM      5  C4  UNL d   1      -1.959  -0.357   0.638  0.00  0.00    -0.005 A 
ATOM      6  C5  UNL d   1      -3.048  -1.226   0.758  0.00  0.00    -0.074 A 
ATOM      7  C6  UNL d   1      -2.978  -2.629   0.234  0.00  0.00     0.077 C 
ATOM      8  C7  UNL d   1      -4.214  -0.775   1.393  0.00  0.00    -0.001 A 
ENDROOT
TORSDOF 0
ENDMDL
