MODEL 1
REMARK minimizedAffinity 7.67202997
REMARK minimizedRMSD -1
REMARK  0 active torsions:
REMARK  status: ('A' for Active; 'I' for Inactive)
ROOT
ATOM      1  C   UNL d   1       1.379  -2.307  -5.920  0.00  0.00     0.077 C 
ATOM      2  C1  UNL d   1       2.476  -1.702  -5.095  0.00  0.00    -0.074 A 
ATOM      3  C2  UNL d   1       3.693  -1.334  -5.676  0.00  0.00    -0.005 A 
ATOM      4  C3  UNL d   1       4.700  -0.764  -4.898  0.00  0.00     0.006 A 
ATOM      5  C4  UNL d   1       4.501  -0.557  -3.532  0.00  0.00    -0.005 A 
ATOM      6  C5  UNL d   1       3.290  -0.918  -2.934  0.00  0.00    -0.074 A 
ATOM      7  C6  UNL d   1       3.055  -0.693  -1.469  0.00  0.00     0.077 C 
ATOM      8  C7  UNL d   1       2.280  -1.484  -3.724  0.00  0.00    -0.001 A 
ENDROOT
TORSDOF 0
ENDMDL
