MODEL 1
REMARK minimizedAffinity 3.51584578
REMARK minimizedRMSD -1
REMARK  0 active torsions:
REMARK  status: ('A' for Active; 'I' for Inactive)
ROOT
ATOM      1  C   UNL d   1      -0.489  -5.999  -6.000  0.00  0.00     0.020 A 
ATOM      2  C1  UNL d   1       0.812  -5.670  -5.622  0.00  0.00     0.020 A 
ATOM      3  C2  UNL d   1       1.091  -5.340  -4.294  0.00  0.00     0.034 A 
ATOM      4  C3  UNL d   1       0.068  -5.339  -3.339  0.00  0.00     0.017 A 
ATOM      5  C4  UNL d   1      -1.238  -5.669  -3.719  0.00  0.00     0.017 A 
ATOM      6  C5  UNL d   1      -1.511  -5.999  -5.051  0.00  0.00     0.034 A 
ATOM      7 Cl   UNL d   1      -2.553  -5.690  -2.598  0.00  0.00    -0.070 Cl
ATOM      8 Cl1  UNL d   1       0.485  -4.921  -1.715  0.00  0.00    -0.070 Cl
ENDROOT
TORSDOF 0
ENDMDL
