MODEL 1
REMARK minimizedAffinity 2.72853088
REMARK minimizedRMSD -1
REMARK  0 active torsions:
REMARK  status: ('A' for Active; 'I' for Inactive)
ROOT
ATOM      1  C   UNL d   1      -0.727  -6.000  -5.820  0.00  0.00     0.020 A 
ATOM      2  C1  UNL d   1      -1.493  -6.000  -4.655  0.00  0.00     0.020 A 
ATOM      3  C2  UNL d   1      -0.913  -5.636  -3.438  0.00  0.00     0.034 A 
ATOM      4  C3  UNL d   1       0.437  -5.270  -3.384  0.00  0.00     0.017 A 
ATOM      5  C4  UNL d   1       1.205  -5.270  -4.554  0.00  0.00     0.017 A 
ATOM      6  C5  UNL d   1       0.619  -5.636  -5.770  0.00  0.00     0.034 A 
ATOM      7 Cl   UNL d   1       2.877  -4.831  -4.565  0.00  0.00    -0.070 Cl
ATOM      8 Cl1  UNL d   1       1.089  -4.831  -1.845  0.00  0.00    -0.070 Cl
ENDROOT
TORSDOF 0
ENDMDL
