MODEL 1
REMARK minimizedAffinity 4.85821295
REMARK minimizedRMSD -1
REMARK  0 active torsions:
REMARK  status: ('A' for Active; 'I' for Inactive)
ROOT
ATOM      1  C   UNL d   1       1.816  -5.939  -3.378  0.00  0.00     0.020 A 
ATOM      2  C1  UNL d   1       1.923  -5.977  -4.768  0.00  0.00     0.020 A 
ATOM      3  C2  UNL d   1       0.770  -5.995  -5.556  0.00  0.00     0.034 A 
ATOM      4  C3  UNL d   1      -0.494  -5.975  -4.955  0.00  0.00     0.017 A 
ATOM      5  C4  UNL d   1      -0.600  -5.937  -3.560  0.00  0.00     0.017 A 
ATOM      6  C5  UNL d   1       0.558  -5.919  -2.776  0.00  0.00     0.034 A 
ATOM      7 Cl   UNL d   1      -2.124  -5.911  -2.747  0.00  0.00    -0.070 Cl
ATOM      8 Cl1  UNL d   1      -1.876  -5.999  -5.992  0.00  0.00    -0.070 Cl
ENDROOT
TORSDOF 0
ENDMDL
