MODEL 1
REMARK minimizedAffinity 4.24101782
REMARK minimizedRMSD -1
REMARK  0 active torsions:
REMARK  status: ('A' for Active; 'I' for Inactive)
ROOT
ATOM      1  C   UNL d   1      -1.268  -5.478  -1.512  0.00  0.00     0.020 A 
ATOM      2  C1  UNL d   1      -2.465  -5.845  -2.126  0.00  0.00     0.020 A 
ATOM      3  C2  UNL d   1      -2.519  -6.000  -3.513  0.00  0.00     0.034 A 
ATOM      4  C3  UNL d   1      -1.375  -5.787  -4.290  0.00  0.00     0.017 A 
ATOM      5  C4  UNL d   1      -0.174  -5.419  -3.673  0.00  0.00     0.017 A 
ATOM      6  C5  UNL d   1      -0.125  -5.266  -2.284  0.00  0.00     0.034 A 
ATOM      7 Cl   UNL d   1       1.280  -5.140  -4.565  0.00  0.00    -0.070 Cl
ATOM      8 Cl1  UNL d   1      -1.514  -5.997  -6.000  0.00  0.00    -0.070 Cl
ENDROOT
TORSDOF 0
ENDMDL
