MODEL 1
REMARK minimizedAffinity 3.12048817
REMARK minimizedRMSD -1
REMARK  0 active torsions:
REMARK  status: ('A' for Active; 'I' for Inactive)
ROOT
ATOM      1  C   UNL d   1       0.941  -5.985  -5.425  0.00  0.00     0.020 A 
ATOM      2  C1  UNL d   1      -0.340  -5.997  -5.976  0.00  0.00     0.020 A 
ATOM      3  C2  UNL d   1      -1.459  -6.000  -5.141  0.00  0.00     0.034 A 
ATOM      4  C3  UNL d   1      -1.299  -5.990  -3.750  0.00  0.00     0.017 A 
ATOM      5  C4  UNL d   1      -0.013  -5.978  -3.198  0.00  0.00     0.017 A 
ATOM      6  C5  UNL d   1       1.104  -5.975  -4.039  0.00  0.00     0.034 A 
ATOM      7 Cl   UNL d   1       0.263  -5.966  -1.492  0.00  0.00    -0.070 Cl
ATOM      8 Cl1  UNL d   1      -2.727  -5.994  -2.778  0.00  0.00    -0.070 Cl
ENDROOT
TORSDOF 0
ENDMDL
