MODEL 1
REMARK minimizedAffinity 0.795281887
REMARK minimizedRMSD -1
REMARK  0 active torsions:
REMARK  status: ('A' for Active; 'I' for Inactive)
ROOT
ATOM      1  C   UNL d   1      -0.631  -5.999  -6.000  0.00  0.00     0.020 A 
ATOM      2  C1  UNL d   1       0.494  -5.997  -5.176  0.00  0.00     0.020 A 
ATOM      3  C2  UNL d   1       0.342  -5.995  -3.787  0.00  0.00     0.034 A 
ATOM      4  C3  UNL d   1      -0.937  -5.996  -3.219  0.00  0.00     0.017 A 
ATOM      5  C4  UNL d   1      -2.065  -5.998  -4.047  0.00  0.00     0.017 A 
ATOM      6  C5  UNL d   1      -1.907  -5.999  -5.437  0.00  0.00     0.034 A 
ATOM      7 Cl   UNL d   1      -3.675  -5.999  -3.419  0.00  0.00    -0.070 Cl
ATOM      8 Cl1  UNL d   1      -1.050  -5.994  -1.495  0.00  0.00    -0.070 Cl
ENDROOT
TORSDOF 0
ENDMDL
