MODEL 1
REMARK minimizedAffinity 1.86026001
REMARK minimizedRMSD -1
REMARK  0 active torsions:
REMARK  status: ('A' for Active; 'I' for Inactive)
ROOT
ATOM      1  C   UNL d   1      -3.067  -5.987  -3.390  0.00  0.00     0.020 A 
ATOM      2  C1  UNL d   1      -2.695  -5.986  -2.046  0.00  0.00     0.020 A 
ATOM      3  C2  UNL d   1      -1.343  -5.990  -1.696  0.00  0.00     0.034 A 
ATOM      4  C3  UNL d   1      -0.359  -5.995  -2.691  0.00  0.00     0.017 A 
ATOM      5  C4  UNL d   1      -0.733  -5.995  -4.039  0.00  0.00     0.017 A 
ATOM      6  C5  UNL d   1      -2.088  -5.991  -4.384  0.00  0.00     0.034 A 
ATOM      7 Cl   UNL d   1       0.424  -6.000  -5.323  0.00  0.00    -0.070 Cl
ATOM      8 Cl1  UNL d   1       1.294  -5.999  -2.185  0.00  0.00    -0.070 Cl
ENDROOT
TORSDOF 0
ENDMDL
