MODEL 1
REMARK minimizedAffinity -1.74775052
REMARK minimizedRMSD -1
REMARK  0 active torsions:
REMARK  status: ('A' for Active; 'I' for Inactive)
ROOT
ATOM      1  C   UNL d   1       1.140  -5.998  -5.002  0.00  0.00     0.020 A 
ATOM      2  C1  UNL d   1       0.071  -5.999  -5.897  0.00  0.00     0.020 A 
ATOM      3  C2  UNL d   1      -1.240  -5.933  -5.419  0.00  0.00     0.034 A 
ATOM      4  C3  UNL d   1      -1.485  -5.865  -4.043  0.00  0.00     0.017 A 
ATOM      5  C4  UNL d   1      -0.411  -5.865  -3.145  0.00  0.00     0.017 A 
ATOM      6  C5  UNL d   1       0.900  -5.931  -3.629  0.00  0.00     0.034 A 
ATOM      7 Cl   UNL d   1      -0.634  -5.783  -1.433  0.00  0.00    -0.070 Cl
ATOM      8 Cl1  UNL d   1      -3.130  -5.785  -3.523  0.00  0.00    -0.070 Cl
ENDROOT
TORSDOF 0
ENDMDL
