MODEL 1
REMARK minimizedAffinity -1.31384611
REMARK minimizedRMSD -1
REMARK  0 active torsions:
REMARK  status: ('A' for Active; 'I' for Inactive)
ROOT
ATOM      1  C   UNL d   1      -1.822  -5.963  -2.625  0.00  0.00     0.020 A 
ATOM      2  C1  UNL d   1      -2.166  -5.963  -3.976  0.00  0.00     0.020 A 
ATOM      3  C2  UNL d   1      -1.166  -5.974  -4.951  0.00  0.00     0.034 A 
ATOM      4  C3  UNL d   1       0.182  -5.986  -4.577  0.00  0.00     0.017 A 
ATOM      5  C4  UNL d   1       0.527  -5.986  -3.220  0.00  0.00     0.017 A 
ATOM      6  C5  UNL d   1      -0.478  -5.975  -2.248  0.00  0.00     0.034 A 
ATOM      7 Cl   UNL d   1       2.169  -6.000  -2.681  0.00  0.00    -0.070 Cl
ATOM      8 Cl1  UNL d   1       1.366  -6.000  -5.836  0.00  0.00    -0.070 Cl
ENDROOT
TORSDOF 0
ENDMDL
