MODEL 1
REMARK minimizedAffinity 3.83727837
REMARK minimizedRMSD -1
REMARK  0 active torsions:
REMARK  status: ('A' for Active; 'I' for Inactive)
ROOT
ATOM      1  C   UNL d   1       1.133  -5.777  -4.974  0.00  0.00     0.020 A 
ATOM      2  C1  UNL d   1      -0.093  -5.935  -5.619  0.00  0.00     0.020 A 
ATOM      3  C2  UNL d   1      -1.271  -5.997  -4.873  0.00  0.00     0.034 A 
ATOM      4  C3  UNL d   1      -1.226  -5.901  -3.477  0.00  0.00     0.017 A 
ATOM      5  C4  UNL d   1       0.005  -5.743  -2.831  0.00  0.00     0.017 A 
ATOM      6  C5  UNL d   1       1.182  -5.681  -3.583  0.00  0.00     0.034 A 
ATOM      7 Cl   UNL d   1       0.140  -5.617  -1.112  0.00  0.00    -0.070 Cl
ATOM      8 Cl1  UNL d   1      -2.723  -5.985  -2.617  0.00  0.00    -0.070 Cl
ENDROOT
TORSDOF 0
ENDMDL
