MODEL 1
REMARK minimizedAffinity 8.59205627
REMARK minimizedRMSD -1
REMARK  0 active torsions:
REMARK  status: ('A' for Active; 'I' for Inactive)
ROOT
ATOM      1  C   UNL d   1      -0.741  -6.000  -5.946  0.00  0.00     0.020 A 
ATOM      2  C1  UNL d   1       0.601  -5.942  -5.572  0.00  0.00     0.020 A 
ATOM      3  C2  UNL d   1       0.949  -5.551  -4.278  0.00  0.00     0.034 A 
ATOM      4  C3  UNL d   1      -0.046  -5.215  -3.352  0.00  0.00     0.017 A 
ATOM      5  C4  UNL d   1      -1.393  -5.274  -3.728  0.00  0.00     0.017 A 
ATOM      6  C5  UNL d   1      -1.736  -5.666  -5.026  0.00  0.00     0.034 A 
ATOM      7 Cl   UNL d   1      -2.677  -4.875  -2.642  0.00  0.00    -0.070 Cl
ATOM      8 Cl1  UNL d   1       0.456  -4.740  -1.769  0.00  0.00    -0.070 Cl
ENDROOT
TORSDOF 0
ENDMDL
