MODEL 1
REMARK minimizedAffinity 8.34529877
REMARK minimizedRMSD -1
REMARK  0 active torsions:
REMARK  status: ('A' for Active; 'I' for Inactive)
ROOT
ATOM      1  C   UNL d   1       0.029  -5.999  -6.000  0.00  0.00     0.020 A 
ATOM      2  C1  UNL d   1       1.338  -5.964  -5.522  0.00  0.00     0.020 A 
ATOM      3  C2  UNL d   1       1.578  -5.888  -4.148  0.00  0.00     0.034 A 
ATOM      4  C3  UNL d   1       0.507  -5.845  -3.248  0.00  0.00     0.017 A 
ATOM      5  C4  UNL d   1      -0.807  -5.881  -3.729  0.00  0.00     0.017 A 
ATOM      6  C5  UNL d   1      -1.041  -5.957  -5.105  0.00  0.00     0.034 A 
ATOM      7 Cl   UNL d   1      -2.180  -5.832  -2.680  0.00  0.00    -0.070 Cl
ATOM      8 Cl1  UNL d   1       0.877  -5.751  -1.563  0.00  0.00    -0.070 Cl
ENDROOT
TORSDOF 0
ENDMDL
