MODEL 1
REMARK minimizedAffinity -2.85023189
REMARK minimizedRMSD -1
REMARK  0 active torsions:
REMARK  status: ('A' for Active; 'I' for Inactive)
ROOT
ATOM      1  C   UNL d   1       0.070  -5.232  -6.000  0.00  0.00     0.020 A 
ATOM      2  C1  UNL d   1      -1.225  -5.746  -5.994  0.00  0.00     0.020 A 
ATOM      3  C2  UNL d   1      -1.880  -5.976  -4.782  0.00  0.00     0.034 A 
ATOM      4  C3  UNL d   1      -1.238  -5.691  -3.571  0.00  0.00     0.017 A 
ATOM      5  C4  UNL d   1       0.062  -5.175  -3.578  0.00  0.00     0.017 A 
ATOM      6  C5  UNL d   1       0.713  -4.947  -4.794  0.00  0.00     0.034 A 
ATOM      7 Cl   UNL d   1       0.918  -4.799  -2.124  0.00  0.00    -0.070 Cl
ATOM      8 Cl1  UNL d   1      -2.107  -5.999  -2.109  0.00  0.00    -0.070 Cl
ENDROOT
TORSDOF 0
ENDMDL
