MODEL 1
REMARK minimizedAffinity 8.16050816
REMARK minimizedRMSD -1
REMARK  0 active torsions:
REMARK  status: ('A' for Active; 'I' for Inactive)
ROOT
ATOM      1  C   UNL d   1       1.876  -5.628  -3.864  0.00  0.00     0.020 A 
ATOM      2  C1  UNL d   1       0.852  -6.000  -4.734  0.00  0.00     0.020 A 
ATOM      3  C2  UNL d   1      -0.473  -6.000  -4.293  0.00  0.00     0.034 A 
ATOM      4  C3  UNL d   1      -0.778  -5.627  -2.979  0.00  0.00     0.017 A 
ATOM      5  C4  UNL d   1       0.251  -5.253  -2.106  0.00  0.00     0.017 A 
ATOM      6  C5  UNL d   1       1.576  -5.255  -2.553  0.00  0.00     0.034 A 
ATOM      7 Cl   UNL d   1      -0.046  -4.780  -0.471  0.00  0.00    -0.070 Cl
ATOM      8 Cl1  UNL d   1      -2.438  -5.649  -2.501  0.00  0.00    -0.070 Cl
ENDROOT
TORSDOF 0
ENDMDL
