MODEL 1
REMARK minimizedAffinity 1.43993092
REMARK minimizedRMSD -1
REMARK  0 active torsions:
REMARK  status: ('A' for Active; 'I' for Inactive)
ROOT
ATOM      1  C   UNL d   1      -2.150  -5.927  -4.610  0.00  0.00     0.020 A 
ATOM      2  C1  UNL d   1      -2.043  -5.977  -3.220  0.00  0.00     0.020 A 
ATOM      3  C2  UNL d   1      -0.783  -5.999  -2.617  0.00  0.00     0.034 A 
ATOM      4  C3  UNL d   1       0.374  -5.971  -3.404  0.00  0.00     0.017 A 
ATOM      5  C4  UNL d   1       0.266  -5.920  -4.798  0.00  0.00     0.017 A 
ATOM      6  C5  UNL d   1      -0.998  -5.898  -5.397  0.00  0.00     0.034 A 
ATOM      7 Cl   UNL d   1       1.648  -5.882  -5.834  0.00  0.00    -0.070 Cl
ATOM      8 Cl1  UNL d   1       1.899  -6.000  -2.591  0.00  0.00    -0.070 Cl
ENDROOT
TORSDOF 0
ENDMDL
