MODEL 1
REMARK minimizedAffinity 6.68609476
REMARK minimizedRMSD -1
REMARK  0 active torsions:
REMARK  status: ('A' for Active; 'I' for Inactive)
ROOT
ATOM      1  C   UNL d   1       3.178   0.110  -1.259  0.00  0.00     0.020 A 
ATOM      2  C1  UNL d   1       4.428  -0.021  -0.654  0.00  0.00     0.020 A 
ATOM      3  C2  UNL d   1       4.532  -0.035   0.738  0.00  0.00     0.034 A 
ATOM      4  C3  UNL d   1       3.385   0.082   1.531  0.00  0.00     0.017 A 
ATOM      5  C4  UNL d   1       2.131   0.214   0.924  0.00  0.00     0.017 A 
ATOM      6  C5  UNL d   1       2.032   0.228  -0.471  0.00  0.00     0.034 A 
ATOM      7 Cl   UNL d   1       0.670   0.364   1.836  0.00  0.00    -0.070 Cl
ATOM      8 Cl1  UNL d   1       3.588   0.056   3.247  0.00  0.00    -0.070 Cl
ENDROOT
TORSDOF 0
ENDMDL
