MODEL 1
REMARK minimizedAffinity 1.27349102
REMARK minimizedRMSD -1
REMARK  0 active torsions:
REMARK  status: ('A' for Active; 'I' for Inactive)
ROOT
ATOM      1  C   UNL d   1       0.287  -2.751   0.674  0.00  0.00     0.020 A 
ATOM      2  C1  UNL d   1       0.420  -1.957   1.812  0.00  0.00     0.020 A 
ATOM      3  C2  UNL d   1       0.490  -0.568   1.690  0.00  0.00     0.034 A 
ATOM      4  C3  UNL d   1       0.427   0.032   0.427  0.00  0.00     0.017 A 
ATOM      5  C4  UNL d   1       0.293  -0.766  -0.715  0.00  0.00     0.017 A 
ATOM      6  C5  UNL d   1       0.223  -2.157  -0.587  0.00  0.00     0.034 A 
ATOM      7 Cl   UNL d   1       0.208  -0.099  -2.307  0.00  0.00    -0.070 Cl
ATOM      8 Cl1  UNL d   1       0.519   1.755   0.350  0.00  0.00    -0.070 Cl
ENDROOT
TORSDOF 0
ENDMDL
