MODEL 1
REMARK minimizedAffinity -2.17140651
REMARK minimizedRMSD -1
REMARK  2 active torsions:
REMARK  status: ('A' for Active; 'I' for Inactive)
REMARK    1  A    between atoms: C1_2  and  C2_3 
REMARK    2  A    between atoms: C2_3  and  C3_4 
ROOT
ATOM      1  C3  UNL d   1       1.742   5.053   5.862  0.00  0.00    -0.075 A 
ATOM      2  C4  UNL d   1       1.804   3.653   5.804  0.00  0.00     0.002 A 
ATOM      3  C5  UNL d   1       3.035   3.002   5.707  0.00  0.00     0.002 A 
ATOM      4  C6  UNL d   1       4.215   3.740   5.658  0.00  0.00    -0.004 A 
ATOM      5  C7  UNL d   1       4.164   5.132   5.698  0.00  0.00     0.002 A 
ATOM      6  C8  UNL d   1       2.935   5.786   5.799  0.00  0.00     0.002 A 
ENDROOT
BRANCH   1   7
ATOM      7  C2  UNL d   1       0.416   5.762   5.996  0.00  0.00     0.056 C 
BRANCH   7   8
ATOM      8  C1  UNL d   1      -0.302   6.000   4.663  0.00  0.00     0.007 C 
ATOM      9  C   UNL d   1       0.640   5.999   3.466  0.00  0.00     0.009 C 
ENDBRANCH   7   8
ENDBRANCH   1   7
TORSDOF 2
ENDMDL
