MODEL 1
REMARK minimizedAffinity -1.7923795
REMARK minimizedRMSD -1
REMARK  2 active torsions:
REMARK  status: ('A' for Active; 'I' for Inactive)
REMARK    1  A    between atoms: C1_2  and  C2_3 
REMARK    2  A    between atoms: C2_3  and  C3_4 
ROOT
ATOM      1  C3  UNL d   1       3.062   5.885   4.427  0.00  0.00    -0.075 A 
ATOM      2  C4  UNL d   1       2.140   5.961   3.373  0.00  0.00     0.002 A 
ATOM      3  C5  UNL d   1       0.770   5.997   3.631  0.00  0.00     0.002 A 
ATOM      4  C6  UNL d   1       0.303   5.945   4.943  0.00  0.00    -0.004 A 
ATOM      5  C7  UNL d   1       1.209   5.852   5.997  0.00  0.00     0.002 A 
ATOM      6  C8  UNL d   1       2.581   5.821   5.742  0.00  0.00     0.002 A 
ENDROOT
BRANCH   1   7
ATOM      7  C2  UNL d   1       4.547   5.876   4.156  0.00  0.00     0.056 C 
BRANCH   7   8
ATOM      8  C1  UNL d   1       5.400   5.486   5.368  0.00  0.00     0.007 C 
ATOM      9  C   UNL d   1       5.192   4.043   5.809  0.00  0.00     0.009 C 
ENDBRANCH   7   8
ENDBRANCH   1   7
TORSDOF 2
ENDMDL
