MODEL 1
REMARK minimizedAffinity -0.690315425
REMARK minimizedRMSD -1
REMARK  2 active torsions:
REMARK  status: ('A' for Active; 'I' for Inactive)
REMARK    1  A    between atoms: C1_2  and  C2_3 
REMARK    2  A    between atoms: C2_3  and  C3_4 
ROOT
ATOM      1  C3  UNL d   1       1.940   5.221   5.092  0.00  0.00    -0.075 A 
ATOM      2  C4  UNL d   1       0.870   5.246   5.998  0.00  0.00     0.002 A 
ATOM      3  C5  UNL d   1      -0.404   5.628   5.578  0.00  0.00     0.002 A 
ATOM      4  C6  UNL d   1      -0.623   6.000   4.253  0.00  0.00    -0.004 A 
ATOM      5  C7  UNL d   1       0.437   5.994   3.349  0.00  0.00     0.002 A 
ATOM      6  C8  UNL d   1       1.712   5.608   3.765  0.00  0.00     0.002 A 
ENDROOT
BRANCH   1   7
ATOM      7  C2  UNL d   1       3.316   4.781   5.533  0.00  0.00     0.056 C 
BRANCH   7   8
ATOM      8  C1  UNL d   1       3.816   3.511   4.837  0.00  0.00     0.007 C 
ATOM      9  C   UNL d   1       3.868   2.301   5.761  0.00  0.00     0.009 C 
ENDBRANCH   7   8
ENDBRANCH   1   7
TORSDOF 2
ENDMDL
