MODEL 1
REMARK minimizedAffinity 2.2550931
REMARK minimizedRMSD -1
REMARK  2 active torsions:
REMARK  status: ('A' for Active; 'I' for Inactive)
REMARK    1  A    between atoms: C1_2  and  C2_3 
REMARK    2  A    between atoms: C2_3  and  C3_4 
ROOT
ATOM      1  C3  UNL d   1       2.843   3.338   4.805  0.00  0.00    -0.075 A 
ATOM      2  C4  UNL d   1       2.995   4.013   3.584  0.00  0.00     0.002 A 
ATOM      3  C5  UNL d   1       3.442   5.334   3.556  0.00  0.00     0.002 A 
ATOM      4  C6  UNL d   1       3.733   6.000   4.744  0.00  0.00    -0.004 A 
ATOM      5  C7  UNL d   1       3.570   5.345   5.963  0.00  0.00     0.002 A 
ATOM      6  C8  UNL d   1       3.127   4.022   5.995  0.00  0.00     0.002 A 
ENDROOT
BRANCH   1   7
ATOM      7  C2  UNL d   1       2.388   1.899   4.841  0.00  0.00     0.056 C 
BRANCH   7   8
ATOM      8  C1  UNL d   1       1.870   1.375   3.498  0.00  0.00     0.007 C 
ATOM      9  C   UNL d   1       0.658   0.463   3.636  0.00  0.00     0.009 C 
ENDBRANCH   7   8
ENDBRANCH   1   7
TORSDOF 2
ENDMDL
