MODEL 1
REMARK minimizedAffinity 7.36743927
REMARK minimizedRMSD -1
REMARK  2 active torsions:
REMARK  status: ('A' for Active; 'I' for Inactive)
REMARK    1  A    between atoms: C1_2  and  C2_3 
REMARK    2  A    between atoms: C2_3  and  C3_4 
ROOT
ATOM      1  C3  UNL d   1       3.540  -0.467  -1.137  0.00  0.00    -0.075 A 
ATOM      2  C4  UNL d   1       2.957  -1.075  -2.258  0.00  0.00     0.002 A 
ATOM      3  C5  UNL d   1       2.459  -2.376  -2.179  0.00  0.00     0.002 A 
ATOM      4  C6  UNL d   1       2.547  -3.088  -0.985  0.00  0.00    -0.004 A 
ATOM      5  C7  UNL d   1       3.139  -2.500   0.130  0.00  0.00     0.002 A 
ATOM      6  C8  UNL d   1       3.634  -1.196   0.056  0.00  0.00     0.002 A 
ENDROOT
BRANCH   1   7
ATOM      7  C2  UNL d   1       4.054   0.951  -1.207  0.00  0.00     0.056 C 
BRANCH   7   8
ATOM      8  C1  UNL d   1       5.056   1.196  -2.340  0.00  0.00     0.007 C 
ATOM      9  C   UNL d   1       5.642   2.602  -2.329  0.00  0.00     0.009 C 
ENDBRANCH   7   8
ENDBRANCH   1   7
TORSDOF 2
ENDMDL
