MODEL 1
REMARK minimizedAffinity 3.84105539
REMARK minimizedRMSD -1
REMARK  2 active torsions:
REMARK  status: ('A' for Active; 'I' for Inactive)
REMARK    1  A    between atoms: C1_2  and  C2_3 
REMARK    2  A    between atoms: C2_3  and  C3_4 
ROOT
ATOM      1  C3  UNL d   1      -1.622   1.301  -0.868  0.00  0.00    -0.075 A 
ATOM      2  C4  UNL d   1      -2.423   1.827   0.155  0.00  0.00     0.002 A 
ATOM      3  C5  UNL d   1      -3.685   1.289   0.413  0.00  0.00     0.002 A 
ATOM      4  C6  UNL d   1      -4.164   0.229  -0.353  0.00  0.00    -0.004 A 
ATOM      5  C7  UNL d   1      -3.383  -0.290  -1.383  0.00  0.00     0.002 A 
ATOM      6  C8  UNL d   1      -2.118   0.243  -1.641  0.00  0.00     0.002 A 
ENDROOT
BRANCH   1   7
ATOM      7  C2  UNL d   1      -0.243   1.859  -1.134  0.00  0.00     0.056 C 
BRANCH   7   8
ATOM      8  C1  UNL d   1       0.785   1.521  -0.049  0.00  0.00     0.007 C 
ATOM      9  C   UNL d   1       2.106   1.012  -0.612  0.00  0.00     0.009 C 
ENDBRANCH   7   8
ENDBRANCH   1   7
TORSDOF 2
ENDMDL
