MODEL 1
REMARK minimizedAffinity 8.10342407
REMARK minimizedRMSD -1
REMARK  2 active torsions:
REMARK  status: ('A' for Active; 'I' for Inactive)
REMARK    1  A    between atoms: C1_2  and  C2_3 
REMARK    2  A    between atoms: C2_3  and  C3_4 
ROOT
ATOM      1  C3  UNL d   1       2.745  -2.379  -0.907  0.00  0.00    -0.075 A 
ATOM      2  C4  UNL d   1       3.647  -1.924  -1.881  0.00  0.00     0.002 A 
ATOM      3  C5  UNL d   1       3.420  -2.183  -3.233  0.00  0.00     0.002 A 
ATOM      4  C6  UNL d   1       2.297  -2.906  -3.628  0.00  0.00    -0.004 A 
ATOM      5  C7  UNL d   1       1.403  -3.376  -2.668  0.00  0.00     0.002 A 
ATOM      6  C8  UNL d   1       1.625  -3.115  -1.315  0.00  0.00     0.002 A 
ENDROOT
BRANCH   1   7
ATOM      7  C2  UNL d   1       2.970  -2.077   0.555  0.00  0.00     0.056 C 
BRANCH   7   8
ATOM      8  C1  UNL d   1       4.232  -2.721   1.138  0.00  0.00     0.007 C 
ATOM      9  C   UNL d   1       5.179  -1.715   1.778  0.00  0.00     0.009 C 
ENDBRANCH   7   8
ENDBRANCH   1   7
TORSDOF 2
ENDMDL
