MODEL 1
REMARK minimizedAffinity 1.4624542
REMARK minimizedRMSD -1
REMARK  2 active torsions:
REMARK  status: ('A' for Active; 'I' for Inactive)
REMARK    1  A    between atoms: C1_2  and  C2_3 
REMARK    2  A    between atoms: C2_3  and  C3_4 
ROOT
ATOM      1  C3  UNL d   1      -0.226   3.810   4.208  0.00  0.00    -0.075 A 
ATOM      2  C4  UNL d   1      -1.283   3.762   5.129  0.00  0.00     0.002 A 
ATOM      3  C5  UNL d   1      -1.513   4.828   6.000  0.00  0.00     0.002 A 
ATOM      4  C6  UNL d   1      -0.685   5.948   5.968  0.00  0.00    -0.004 A 
ATOM      5  C7  UNL d   1       0.377   6.000   5.069  0.00  0.00     0.002 A 
ATOM      6  C8  UNL d   1       0.607   4.937   4.193  0.00  0.00     0.002 A 
ENDROOT
BRANCH   1   7
ATOM      7  C2  UNL d   1       0.010   2.673   3.243  0.00  0.00     0.056 C 
BRANCH   7   8
ATOM      8  C1  UNL d   1      -0.385   2.990   1.797  0.00  0.00     0.007 C 
ATOM      9  C   UNL d   1      -0.019   1.882   0.818  0.00  0.00     0.009 C 
ENDBRANCH   7   8
ENDBRANCH   1   7
TORSDOF 2
ENDMDL
