MODEL 1
REMARK minimizedAffinity 4.22568512
REMARK minimizedRMSD -1
REMARK  1 active torsions:
REMARK  status: ('A' for Active; 'I' for Inactive)
REMARK    1  A    between atoms: C3_4  and  O_7 
ROOT
ATOM      1  C   UNL d   1      -0.606   2.083   2.912  0.00  0.00    -0.033 A 
ATOM      2  C1  UNL d   1      -1.785   2.409   2.240  0.00  0.00     0.039 A 
ATOM      3  C2  UNL d   1      -1.731   3.073   1.013  0.00  0.00    -0.080 A 
ATOM      4  C3  UNL d   1      -0.492   3.403   0.469  0.00  0.00     0.150 A 
ATOM      5  C4  UNL d   1       0.687   3.078   1.132  0.00  0.00    -0.007 A 
ATOM      6  C5  UNL d   1       0.630   2.416   2.358  0.00  0.00     0.039 A 
ENDROOT
BRANCH   4   7
ATOM      7  O   UNL d   1      -0.389   4.055  -0.724  0.00  0.00    -0.526 OA
ATOM      8  H5  UNL d   1      -1.284   4.240  -1.052  0.00  0.00     0.418 HD
ENDBRANCH   4   7
TORSDOF 1
ENDMDL
