MODEL 1
REMARK minimizedAffinity 3.67904949
REMARK minimizedRMSD -1
REMARK  1 active torsions:
REMARK  status: ('A' for Active; 'I' for Inactive)
REMARK    1  A    between atoms: C3_4  and  O_7 
ROOT
ATOM      1  C   UNL d   1      -3.959   1.169  -0.389  0.00  0.00    -0.033 A 
ATOM      2  C1  UNL d   1      -3.433  -0.092  -0.102  0.00  0.00     0.039 A 
ATOM      3  C2  UNL d   1      -3.193  -1.002  -1.134  0.00  0.00    -0.080 A 
ATOM      4  C3  UNL d   1      -3.482  -0.638  -2.446  0.00  0.00     0.150 A 
ATOM      5  C4  UNL d   1      -4.003   0.619  -2.739  0.00  0.00    -0.007 A 
ATOM      6  C5  UNL d   1      -4.243   1.525  -1.707  0.00  0.00     0.039 A 
ENDROOT
BRANCH   4   7
ATOM      7  O   UNL d   1      -3.269  -1.493  -3.486  0.00  0.00    -0.526 OA
ATOM      8  H5  UNL d   1      -2.934  -2.333  -3.131  0.00  0.00     0.418 HD
ENDBRANCH   4   7
TORSDOF 1
ENDMDL
