MODEL 1
REMARK minimizedAffinity 5.02494192
REMARK minimizedRMSD -1
REMARK  1 active torsions:
REMARK  status: ('A' for Active; 'I' for Inactive)
REMARK    1  A    between atoms: C3_4  and  O_7 
ROOT
ATOM      1  C   UNL d   1       0.595  -0.251  -1.372  0.00  0.00    -0.033 A 
ATOM      2  C1  UNL d   1      -0.362   0.645  -0.892  0.00  0.00     0.039 A 
ATOM      3  C2  UNL d   1      -1.715   0.301  -0.912  0.00  0.00    -0.080 A 
ATOM      4  C3  UNL d   1      -2.097  -0.940  -1.413  0.00  0.00     0.150 A 
ATOM      5  C4  UNL d   1      -1.148  -1.839  -1.889  0.00  0.00    -0.007 A 
ATOM      6  C5  UNL d   1       0.202  -1.493  -1.870  0.00  0.00     0.039 A 
ENDROOT
BRANCH   4   7
ATOM      7  O   UNL d   1      -3.406  -1.319  -1.457  0.00  0.00    -0.526 OA
ATOM      8  H5  UNL d   1      -3.949  -0.586  -1.122  0.00  0.00     0.418 HD
ENDBRANCH   4   7
TORSDOF 1
ENDMDL
