MODEL 1
REMARK minimizedAffinity 0.639811814
REMARK minimizedRMSD -1
REMARK  1 active torsions:
REMARK  status: ('A' for Active; 'I' for Inactive)
REMARK    1  A    between atoms: C3_4  and  O_7 
ROOT
ATOM      1  C   UNL d   1      -5.311   0.824   1.273  0.00  0.00    -0.033 A 
ATOM      2  C1  UNL d   1      -5.634   1.097  -0.058  0.00  0.00     0.039 A 
ATOM      3  C2  UNL d   1      -4.882   0.534  -1.091  0.00  0.00    -0.080 A 
ATOM      4  C3  UNL d   1      -3.811  -0.300  -0.780  0.00  0.00     0.150 A 
ATOM      5  C4  UNL d   1      -3.486  -0.579   0.544  0.00  0.00    -0.007 A 
ATOM      6  C5  UNL d   1      -4.238  -0.014   1.573  0.00  0.00     0.039 A 
ENDROOT
BRANCH   4   7
ATOM      7  O   UNL d   1      -3.045  -0.869  -1.753  0.00  0.00    -0.526 OA
ATOM      8  H5  UNL d   1      -3.369  -0.564  -2.617  0.00  0.00     0.418 HD
ENDBRANCH   4   7
TORSDOF 1
ENDMDL
