MODEL 1
REMARK minimizedAffinity 8.65857029
REMARK minimizedRMSD -1
REMARK  1 active torsions:
REMARK  status: ('A' for Active; 'I' for Inactive)
REMARK    1  A    between atoms: C3_4  and  O_7 
ROOT
ATOM      1  C   UNL d   1      -0.588   2.551  -0.160  0.00  0.00    -0.033 A 
ATOM      2  C1  UNL d   1      -1.720   1.809   0.181  0.00  0.00     0.039 A 
ATOM      3  C2  UNL d   1      -1.802   1.193   1.431  0.00  0.00    -0.080 A 
ATOM      4  C3  UNL d   1      -0.747   1.326   2.330  0.00  0.00     0.150 A 
ATOM      5  C4  UNL d   1       0.382   2.067   1.998  0.00  0.00    -0.007 A 
ATOM      6  C5  UNL d   1       0.463   2.682   0.749  0.00  0.00     0.039 A 
ENDROOT
BRANCH   4   7
ATOM      7  O   UNL d   1      -0.780   0.739   3.559  0.00  0.00    -0.526 OA
ATOM      8  H5  UNL d   1      -1.608   0.236   3.638  0.00  0.00     0.418 HD
ENDBRANCH   4   7
TORSDOF 1
ENDMDL
