MODEL 1
REMARK minimizedAffinity 1.93044543
REMARK minimizedRMSD -1
REMARK  0 active torsions:
REMARK  status: ('A' for Active; 'I' for Inactive)
ROOT
ATOM      1  N1  IND d   1       1.779  -1.659  -0.788  0.00  0.00    -0.196 N 
ATOM      2  C2  IND d   1       0.531  -1.758  -0.238  0.00  0.00     0.054 A 
ATOM      3  C3  IND d   1       0.203  -0.607   0.392  0.00  0.00    -0.031 A 
ATOM      4  C4  IND d   1       1.519   1.599   0.560  0.00  0.00     0.051 A 
ATOM      5  C5  IND d   1       2.725   2.160   0.247  0.00  0.00    -0.031 A 
ATOM      6  C6  IND d   1       3.697   1.463  -0.443  0.00  0.00     0.015 A 
ATOM      7  C7  IND d   1       3.492   0.177  -0.857  0.00  0.00    -0.016 A 
ATOM      8  C8  IND d   1       2.271  -0.398  -0.535  0.00  0.00    -0.047 A 
ATOM      9  C9  IND d   1       1.298   0.290   0.201  0.00  0.00    -0.096 A 
ATOM     10  HN1 IND d   1       2.188  -2.281  -1.218  0.00  0.00     0.298 HD
ENDROOT
TORSDOF 0
ENDMDL
