MODEL 1
REMARK minimizedAffinity 0.0533424765
REMARK minimizedRMSD -1
REMARK  0 active torsions:
REMARK  status: ('A' for Active; 'I' for Inactive)
ROOT
ATOM      1  N1  IND d   1       4.342  -0.134  -2.418  0.00  0.00    -0.196 N 
ATOM      2  C2  IND d   1       4.213  -1.409  -2.892  0.00  0.00     0.054 A 
ATOM      3  C3  IND d   1       3.679  -2.212  -1.945  0.00  0.00    -0.031 A 
ATOM      4  C4  IND d   1       2.845  -1.623   0.418  0.00  0.00     0.051 A 
ATOM      5  C5  IND d   1       2.786  -0.592   1.314  0.00  0.00    -0.031 A 
ATOM      6  C6  IND d   1       3.250   0.670   1.004  0.00  0.00     0.015 A 
ATOM      7  C7  IND d   1       3.781   0.953  -0.222  0.00  0.00    -0.016 A 
ATOM      8  C8  IND d   1       3.849  -0.093  -1.132  0.00  0.00    -0.047 A 
ATOM      9  C9  IND d   1       3.420  -1.387  -0.808  0.00  0.00    -0.096 A 
ATOM     10  HN1 IND d   1       4.674   0.531  -2.850  0.00  0.00     0.298 HD
ENDROOT
TORSDOF 0
ENDMDL
