MODEL 1
REMARK minimizedAffinity 10.0727959
REMARK minimizedRMSD -1
REMARK  0 active torsions:
REMARK  status: ('A' for Active; 'I' for Inactive)
ROOT
ATOM      1  N1  IND d   1      -0.036   0.746  -0.317  0.00  0.00    -0.196 N 
ATOM      2  C2  IND d   1       0.305   1.203   0.926  0.00  0.00     0.054 A 
ATOM      3  C3  IND d   1       1.409   0.565   1.375  0.00  0.00    -0.031 A 
ATOM      4  C4  IND d   1       2.877  -1.190   0.195  0.00  0.00     0.051 A 
ATOM      5  C5  IND d   1       2.947  -1.950  -0.939  0.00  0.00    -0.031 A 
ATOM      6  C6  IND d   1       2.008  -1.846  -1.945  0.00  0.00     0.015 A 
ATOM      7  C7  IND d   1       0.966  -0.966  -1.859  0.00  0.00    -0.016 A 
ATOM      8  C8  IND d   1       0.889  -0.198  -0.706  0.00  0.00    -0.047 A 
ATOM      9  C9  IND d   1       1.815  -0.329   0.337  0.00  0.00    -0.096 A 
ATOM     10  HN1 IND d   1      -0.714   1.005  -0.778  0.00  0.00     0.298 HD
ENDROOT
TORSDOF 0
ENDMDL
