MODEL 1
REMARK minimizedAffinity 5.02615023
REMARK minimizedRMSD -1
REMARK  0 active torsions:
REMARK  status: ('A' for Active; 'I' for Inactive)
ROOT
ATOM      1  N1  IND d   1       1.506  -0.997   0.326  0.00  0.00    -0.196 N 
ATOM      2  C2  IND d   1       2.106  -2.116  -0.181  0.00  0.00     0.054 A 
ATOM      3  C3  IND d   1       3.348  -1.822  -0.627  0.00  0.00    -0.031 A 
ATOM      4  C4  IND d   1       4.637   0.404  -0.531  0.00  0.00     0.051 A 
ATOM      5  C5  IND d   1       4.491   1.720  -0.191  0.00  0.00    -0.031 A 
ATOM      6  C6  IND d   1       3.320   2.206   0.353  0.00  0.00     0.015 A 
ATOM      7  C7  IND d   1       2.250   1.389   0.588  0.00  0.00    -0.016 A 
ATOM      8  C8  IND d   1       2.392   0.054   0.237  0.00  0.00    -0.047 A 
ATOM      9  C9  IND d   1       3.563  -0.437  -0.354  0.00  0.00    -0.096 A 
ATOM     10  HN1 IND d   1       0.710  -0.956   0.647  0.00  0.00     0.298 HD
ENDROOT
TORSDOF 0
ENDMDL
