MODEL 1
REMARK minimizedAffinity 0.943867862
REMARK minimizedRMSD -1
REMARK  0 active torsions:
REMARK  status: ('A' for Active; 'I' for Inactive)
ROOT
ATOM      1  N1  IND d   1       3.385  -1.852  -1.328  0.00  0.00    -0.196 N 
ATOM      2  C2  IND d   1       2.527  -2.551  -0.525  0.00  0.00     0.054 A 
ATOM      3  C3  IND d   1       1.965  -1.730   0.390  0.00  0.00    -0.031 A 
ATOM      4  C4  IND d   1       2.231   0.814   0.687  0.00  0.00     0.051 A 
ATOM      5  C5  IND d   1       2.935   1.885   0.215  0.00  0.00    -0.031 A 
ATOM      6  C6  IND d   1       3.842   1.764  -0.818  0.00  0.00     0.015 A 
ATOM      7  C7  IND d   1       4.071   0.563  -1.428  0.00  0.00    -0.016 A 
ATOM      8  C8  IND d   1       3.362  -0.529  -0.947  0.00  0.00    -0.047 A 
ATOM      9  C9  IND d   1       2.472  -0.420   0.130  0.00  0.00    -0.096 A 
ATOM     10  HN1 IND d   1       3.860  -2.184  -1.964  0.00  0.00     0.298 HD
ENDROOT
TORSDOF 0
ENDMDL
