MODEL 1
REMARK minimizedAffinity 5.25870228
REMARK minimizedRMSD -1
REMARK  0 active torsions:
REMARK  status: ('A' for Active; 'I' for Inactive)
ROOT
ATOM      1  N1  IND d   1       2.308   1.187  -0.745  0.00  0.00    -0.196 N 
ATOM      2  C2  IND d   1       3.614   1.040  -1.121  0.00  0.00     0.054 A 
ATOM      3  C3  IND d   1       3.899  -0.265  -1.333  0.00  0.00    -0.031 A 
ATOM      4  C4  IND d   1       2.348  -2.316  -1.221  0.00  0.00     0.051 A 
ATOM      5  C5  IND d   1       1.077  -2.689  -0.885  0.00  0.00    -0.031 A 
ATOM      6  C6  IND d   1       0.131  -1.769  -0.479  0.00  0.00     0.015 A 
ATOM      7  C7  IND d   1       0.419  -0.436  -0.405  0.00  0.00    -0.016 A 
ATOM      8  C8  IND d   1       1.711  -0.055  -0.739  0.00  0.00    -0.047 A 
ATOM      9  C9  IND d   1       2.687  -0.989  -1.111  0.00  0.00    -0.096 A 
ATOM     10  HN1 IND d   1       1.924   1.930  -0.545  0.00  0.00     0.298 HD
ENDROOT
TORSDOF 0
ENDMDL
