MODEL 1
REMARK minimizedAffinity -0.311388016
REMARK minimizedRMSD -1
REMARK  0 active torsions:
REMARK  status: ('A' for Active; 'I' for Inactive)
ROOT
ATOM      1  O1  BZF d   1      -0.196  -0.618  -0.981  0.00  0.00    -0.204 OA
ATOM      2  C2  BZF d   1      -1.036   0.074  -0.130  0.00  0.00     0.174 A 
ATOM      3  C3  BZF d   1      -0.431   0.310   1.052  0.00  0.00    -0.012 A 
ATOM      4  C3A BZF d   1       0.901  -0.190   0.900  0.00  0.00    -0.107 A 
ATOM      5  C4  BZF d   1       1.988  -0.231   1.724  0.00  0.00     0.055 A 
ATOM      6  C5  BZF d   1       3.118  -0.854   1.297  0.00  0.00    -0.016 A 
ATOM      7  C6  BZF d   1       3.193  -1.451   0.056  0.00  0.00     0.022 A 
ATOM      8  C7  BZF d   1       2.142  -1.431  -0.799  0.00  0.00     0.029 A 
ATOM      9  C7A BZF d   1       1.010  -0.774  -0.384  0.00  0.00     0.058 A 
ENDROOT
TORSDOF 0
ENDMDL
