MODEL 1
REMARK minimizedAffinity -3.04341316
REMARK minimizedRMSD -1
REMARK  0 active torsions:
REMARK  status: ('A' for Active; 'I' for Inactive)
ROOT
ATOM      1  O1  BZF d   1      -0.430  -0.874  -1.122  0.00  0.00    -0.204 OA
ATOM      2  C2  BZF d   1      -1.123   0.203  -0.605  0.00  0.00     0.174 A 
ATOM      3  C3  BZF d   1      -0.457   0.747   0.434  0.00  0.00    -0.012 A 
ATOM      4  C3A BZF d   1       0.771   0.017   0.517  0.00  0.00    -0.107 A 
ATOM      5  C4  BZF d   1       1.859   0.100   1.338  0.00  0.00     0.055 A 
ATOM      6  C5  BZF d   1       2.860  -0.809   1.202  0.00  0.00    -0.016 A 
ATOM      7  C6  BZF d   1       2.804  -1.815   0.260  0.00  0.00     0.022 A 
ATOM      8  C7  BZF d   1       1.748  -1.935  -0.581  0.00  0.00     0.029 A 
ATOM      9  C7A BZF d   1       0.750  -0.998  -0.467  0.00  0.00     0.058 A 
ENDROOT
TORSDOF 0
ENDMDL
