MODEL 1
REMARK minimizedAffinity -4.38138676
REMARK minimizedRMSD -1
REMARK  0 active torsions:
REMARK  status: ('A' for Active; 'I' for Inactive)
ROOT
ATOM      1  O1  BZF d   1       1.549  -2.415  -0.379  0.00  0.00    -0.204 OA
ATOM      2  C2  BZF d   1       0.421  -2.554  -1.164  0.00  0.00     0.174 A 
ATOM      3  C3  BZF d   1      -0.398  -1.493  -1.018  0.00  0.00    -0.012 A 
ATOM      4  C3A BZF d   1       0.303  -0.593  -0.153  0.00  0.00    -0.107 A 
ATOM      5  C4  BZF d   1       0.013   0.642   0.350  0.00  0.00     0.055 A 
ATOM      6  C5  BZF d   1       0.878   1.219   1.225  0.00  0.00    -0.016 A 
ATOM      7  C6  BZF d   1       2.039   0.587   1.622  0.00  0.00     0.022 A 
ATOM      8  C7  BZF d   1       2.372  -0.638   1.145  0.00  0.00     0.029 A 
ATOM      9  C7A BZF d   1       1.516  -1.209   0.236  0.00  0.00     0.058 A 
ENDROOT
TORSDOF 0
ENDMDL
