MODEL 1
REMARK minimizedAffinity -2.84690118
REMARK minimizedRMSD -1
REMARK  0 active torsions:
REMARK  status: ('A' for Active; 'I' for Inactive)
ROOT
ATOM      1  O1  BZF d   1      -0.419  -0.641  -0.894  0.00  0.00    -0.204 OA
ATOM      2  C2  BZF d   1      -1.122   0.544  -1.000  0.00  0.00     0.174 A 
ATOM      3  C3  BZF d   1      -0.627   1.471  -0.156  0.00  0.00    -0.012 A 
ATOM      4  C3A BZF d   1       0.512   0.855   0.454  0.00  0.00    -0.107 A 
ATOM      5  C4  BZF d   1       1.430   1.279   1.371  0.00  0.00     0.055 A 
ATOM      6  C5  BZF d   1       2.375   0.408   1.811  0.00  0.00    -0.016 A 
ATOM      7  C6  BZF d   1       2.428  -0.895   1.360  0.00  0.00     0.022 A 
ATOM      8  C7  BZF d   1       1.542  -1.360   0.446  0.00  0.00     0.029 A 
ATOM      9  C7A BZF d   1       0.606  -0.472  -0.025  0.00  0.00     0.058 A 
ENDROOT
TORSDOF 0
ENDMDL
