MODEL 1
REMARK minimizedAffinity -2.88177586
REMARK minimizedRMSD -1
REMARK  0 active torsions:
REMARK  status: ('A' for Active; 'I' for Inactive)
ROOT
ATOM      1  O1  BZF d   1       2.485  -2.400  -0.213  0.00  0.00    -0.204 OA
ATOM      2  C2  BZF d   1       3.312  -1.960   0.802  0.00  0.00     0.174 A 
ATOM      3  C3  BZF d   1       2.826  -0.833   1.361  0.00  0.00    -0.012 A 
ATOM      4  C3A BZF d   1       1.572  -0.603   0.712  0.00  0.00    -0.107 A 
ATOM      5  C4  BZF d   1       0.608   0.356   0.845  0.00  0.00     0.055 A 
ATOM      6  C5  BZF d   1      -0.462   0.337   0.008  0.00  0.00    -0.016 A 
ATOM      7  C6  BZF d   1      -0.599  -0.621  -0.975  0.00  0.00     0.022 A 
ATOM      8  C7  BZF d   1       0.329  -1.596  -1.142  0.00  0.00     0.029 A 
ATOM      9  C7A BZF d   1       1.395  -1.598  -0.276  0.00  0.00     0.058 A 
ENDROOT
TORSDOF 0
ENDMDL
