MODEL 1
REMARK minimizedAffinity -3.67351532
REMARK minimizedRMSD -1
REMARK  0 active torsions:
REMARK  status: ('A' for Active; 'I' for Inactive)
ROOT
ATOM      1  O1  BZF d   1      -0.054   1.227  -0.326  0.00  0.00    -0.204 OA
ATOM      2  C2  BZF d   1      -1.343   0.835  -0.631  0.00  0.00     0.174 A 
ATOM      3  C3  BZF d   1      -1.428  -0.508  -0.711  0.00  0.00    -0.012 A 
ATOM      4  C3A BZF d   1      -0.131  -0.990  -0.348  0.00  0.00    -0.107 A 
ATOM      5  C4  BZF d   1       0.406  -2.240  -0.224  0.00  0.00     0.055 A 
ATOM      6  C5  BZF d   1       1.725  -2.365   0.076  0.00  0.00    -0.016 A 
ATOM      7  C6  BZF d   1       2.537  -1.264   0.255  0.00  0.00     0.022 A 
ATOM      8  C7  BZF d   1       2.049  -0.004   0.148  0.00  0.00     0.029 A 
ATOM      9  C7A BZF d   1       0.708   0.126  -0.123  0.00  0.00     0.058 A 
ENDROOT
TORSDOF 0
ENDMDL
