MODEL 1
REMARK minimizedAffinity -4.63163757
REMARK minimizedRMSD -1
REMARK  0 active torsions:
REMARK  status: ('A' for Active; 'I' for Inactive)
ROOT
ATOM      1  O1  BZF d   1       0.889  -1.691   0.340  0.00  0.00    -0.204 OA
ATOM      2  C2  BZF d   1       2.022  -1.874   1.109  0.00  0.00     0.174 A 
ATOM      3  C3  BZF d   1       2.705  -0.718   1.237  0.00  0.00    -0.012 A 
ATOM      4  C3A BZF d   1       1.903   0.268   0.580  0.00  0.00    -0.107 A 
ATOM      5  C4  BZF d   1       2.041   1.612   0.383  0.00  0.00     0.055 A 
ATOM      6  C5  BZF d   1       1.116   2.269  -0.365  0.00  0.00    -0.016 A 
ATOM      7  C6  BZF d   1       0.044   1.613  -0.934  0.00  0.00     0.022 A 
ATOM      8  C7  BZF d   1      -0.138   0.281  -0.762  0.00  0.00     0.029 A 
ATOM      9  C7A BZF d   1       0.777  -0.380   0.020  0.00  0.00     0.058 A 
ENDROOT
TORSDOF 0
ENDMDL
