MODEL 1
REMARK minimizedAffinity -5.13561201
REMARK minimizedRMSD -1
REMARK  0 active torsions:
REMARK  status: ('A' for Active; 'I' for Inactive)
ROOT
ATOM      1  O1  BZF d   1      -0.177   1.051  -0.363  0.00  0.00    -0.204 OA
ATOM      2  C2  BZF d   1      -0.965  -0.074  -0.509  0.00  0.00     0.174 A 
ATOM      3  C3  BZF d   1      -0.203  -1.173  -0.686  0.00  0.00    -0.012 A 
ATOM      4  C3A BZF d   1       1.148  -0.718  -0.557  0.00  0.00    -0.107 A 
ATOM      5  C4  BZF d   1       2.359  -1.346  -0.616  0.00  0.00     0.055 A 
ATOM      6  C5  BZF d   1       3.493  -0.603  -0.522  0.00  0.00    -0.016 A 
ATOM      7  C6  BZF d   1       3.453   0.768  -0.372  0.00  0.00     0.022 A 
ATOM      8  C7  BZF d   1       2.275   1.434  -0.302  0.00  0.00     0.029 A 
ATOM      9  C7A BZF d   1       1.127   0.682  -0.365  0.00  0.00     0.058 A 
ENDROOT
TORSDOF 0
ENDMDL
