MODEL 1
REMARK minimizedAffinity -4.23848963
REMARK minimizedRMSD -1
REMARK  0 active torsions:
REMARK  status: ('A' for Active; 'I' for Inactive)
ROOT
ATOM      1  O1  BZF d   1      -0.712  -0.078   1.159  0.00  0.00    -0.204 OA
ATOM      2  C2  BZF d   1      -0.216   0.030  -0.126  0.00  0.00     0.174 A 
ATOM      3  C3  BZF d   1      -1.170   0.468  -0.972  0.00  0.00    -0.012 A 
ATOM      4  C3A BZF d   1      -2.310   0.733  -0.149  0.00  0.00    -0.107 A 
ATOM      5  C4  BZF d   1      -3.565   1.205  -0.407  0.00  0.00     0.055 A 
ATOM      6  C5  BZF d   1      -4.465   1.279   0.609  0.00  0.00    -0.016 A 
ATOM      7  C6  BZF d   1      -4.146   0.885   1.892  0.00  0.00     0.022 A 
ATOM      8  C7  BZF d   1      -2.912   0.415   2.197  0.00  0.00     0.029 A 
ATOM      9  C7A BZF d   1      -1.990   0.370   1.180  0.00  0.00     0.058 A 
ENDROOT
TORSDOF 0
ENDMDL
