MODEL 1
REMARK minimizedAffinity -3.75641894
REMARK minimizedRMSD -1
REMARK  0 active torsions:
REMARK  status: ('A' for Active; 'I' for Inactive)
ROOT
ATOM      1  O1  BZF d   1       0.016   2.608  -0.285  0.00  0.00    -0.204 OA
ATOM      2  C2  BZF d   1      -1.250   2.138  -0.577  0.00  0.00     0.174 A 
ATOM      3  C3  BZF d   1      -1.351   0.825  -0.289  0.00  0.00    -0.012 A 
ATOM      4  C3A BZF d   1      -0.096   0.471   0.300  0.00  0.00    -0.107 A 
ATOM      5  C4  BZF d   1       0.408  -0.693   0.808  0.00  0.00     0.055 A 
ATOM      6  C5  BZF d   1       1.695  -0.721   1.241  0.00  0.00    -0.016 A 
ATOM      7  C6  BZF d   1       2.508   0.392   1.177  0.00  0.00     0.022 A 
ATOM      8  C7  BZF d   1       2.051   1.570   0.686  0.00  0.00     0.029 A 
ATOM      9  C7A BZF d   1       0.740   1.610   0.278  0.00  0.00     0.058 A 
ENDROOT
TORSDOF 0
ENDMDL
