MODEL 1
REMARK minimizedAffinity 0.0773166493
REMARK minimizedRMSD -1
REMARK  0 active torsions:
REMARK  status: ('A' for Active; 'I' for Inactive)
ROOT
ATOM      1  C   UNL d   1       3.237  -4.179  -0.239  0.00  0.00     0.172 C 
ATOM      2  N   UNL d   1       2.089  -3.390   0.142  0.00  0.00    -0.070 N 
ATOM      3  C1  UNL d   1       2.067  -2.028   0.282  0.00  0.00    -0.004 A 
ATOM      4  C2  UNL d   1       0.792  -1.662   0.654  0.00  0.00    -0.047 A 
ATOM      5  C3  UNL d   1       0.020  -2.846   0.742  0.00  0.00    -0.047 A 
ATOM      6  C4  UNL d   1       0.848  -3.900   0.420  0.00  0.00    -0.004 A 
ENDROOT
TORSDOF 0
ENDMDL
