MODEL 1
REMARK minimizedAffinity 0.421058774
REMARK minimizedRMSD -1
REMARK  0 active torsions:
REMARK  status: ('A' for Active; 'I' for Inactive)
ROOT
ATOM      1  C   UNL d   1       1.300  -4.021   0.210  0.00  0.00     0.172 C 
ATOM      2  N   UNL d   1       0.620  -2.754   0.344  0.00  0.00    -0.070 N 
ATOM      3  C1  UNL d   1      -0.692  -2.515   0.037  0.00  0.00    -0.004 A 
ATOM      4  C2  UNL d   1      -0.954  -1.189   0.304  0.00  0.00    -0.047 A 
ATOM      5  C3  UNL d   1       0.243  -0.610   0.788  0.00  0.00    -0.047 A 
ATOM      6  C4  UNL d   1       1.202  -1.602   0.802  0.00  0.00    -0.004 A 
ENDROOT
TORSDOF 0
ENDMDL
