MODEL 1
REMARK minimizedAffinity -3.32342362
REMARK minimizedRMSD -1
REMARK  0 active torsions:
REMARK  status: ('A' for Active; 'I' for Inactive)
ROOT
ATOM      1  C   UNL d   1       2.815  -2.413   0.161  0.00  0.00     0.172 C 
ATOM      2  N   UNL d   1       1.433  -2.028   0.322  0.00  0.00    -0.070 N 
ATOM      3  C1  UNL d   1       0.431  -2.831   0.798  0.00  0.00    -0.004 A 
ATOM      4  C2  UNL d   1      -0.735  -2.096   0.798  0.00  0.00    -0.047 A 
ATOM      5  C3  UNL d   1      -0.423  -0.807   0.304  0.00  0.00    -0.047 A 
ATOM      6  C4  UNL d   1       0.926  -0.793   0.017  0.00  0.00    -0.004 A 
ENDROOT
TORSDOF 0
ENDMDL
