MODEL 1
REMARK minimizedAffinity -1.10678601
REMARK minimizedRMSD -1
REMARK  0 active torsions:
REMARK  status: ('A' for Active; 'I' for Inactive)
ROOT
ATOM      1  C   UNL d   1       2.789  -3.962  -0.036  0.00  0.00     0.172 C 
ATOM      2  N   UNL d   1       1.676  -3.089   0.253  0.00  0.00    -0.070 N 
ATOM      3  C1  UNL d   1       0.383  -3.488   0.464  0.00  0.00    -0.004 A 
ATOM      4  C2  UNL d   1      -0.372  -2.361   0.709  0.00  0.00    -0.047 A 
ATOM      5  C3  UNL d   1       0.497  -1.247   0.642  0.00  0.00    -0.047 A 
ATOM      6  C4  UNL d   1       1.759  -1.726   0.358  0.00  0.00    -0.004 A 
ENDROOT
TORSDOF 0
ENDMDL
