MODEL 1
REMARK minimizedAffinity 0.113141604
REMARK minimizedRMSD -1
REMARK  0 active torsions:
REMARK  status: ('A' for Active; 'I' for Inactive)
ROOT
ATOM      1  C   UNL d   1       0.004  -2.702   0.472  0.00  0.00     0.172 C 
ATOM      2  N   UNL d   1       1.428  -2.681   0.233  0.00  0.00    -0.070 N 
ATOM      3  C1  UNL d   1       2.190  -3.753  -0.148  0.00  0.00    -0.004 A 
ATOM      4  C2  UNL d   1       3.494  -3.323  -0.270  0.00  0.00    -0.047 A 
ATOM      5  C3  UNL d   1       3.516  -1.944   0.049  0.00  0.00    -0.047 A 
ATOM      6  C4  UNL d   1       2.225  -1.573   0.357  0.00  0.00    -0.004 A 
ENDROOT
TORSDOF 0
ENDMDL
