MODEL 1
REMARK minimizedAffinity -2.73830867
REMARK minimizedRMSD -1
REMARK  0 active torsions:
REMARK  status: ('A' for Active; 'I' for Inactive)
ROOT
ATOM      1  C   UNL d   1       1.868  -3.535   0.189  0.00  0.00     0.172 C 
ATOM      2  N   UNL d   1       1.014  -2.403   0.462  0.00  0.00    -0.070 N 
ATOM      3  C1  UNL d   1       1.382  -1.272   1.140  0.00  0.00    -0.004 A 
ATOM      4  C2  UNL d   1       0.288  -0.434   1.188  0.00  0.00    -0.047 A 
ATOM      5  C3  UNL d   1      -0.774  -1.086   0.517  0.00  0.00    -0.047 A 
ATOM      6  C4  UNL d   1      -0.296  -2.303   0.077  0.00  0.00    -0.004 A 
ENDROOT
TORSDOF 0
ENDMDL
