MODEL 1
REMARK minimizedAffinity -1.31400323
REMARK minimizedRMSD -1
REMARK  0 active torsions:
REMARK  status: ('A' for Active; 'I' for Inactive)
ROOT
ATOM      1  C   UNL d   1       1.668  -3.819   0.491  0.00  0.00     0.172 C 
ATOM      2  N   UNL d   1       1.083  -2.500   0.551  0.00  0.00    -0.070 N 
ATOM      3  C1  UNL d   1      -0.245  -2.208   0.391  0.00  0.00    -0.004 A 
ATOM      4  C2  UNL d   1      -0.395  -0.844   0.519  0.00  0.00    -0.047 A 
ATOM      5  C3  UNL d   1       0.887  -0.298   0.764  0.00  0.00    -0.047 A 
ATOM      6  C4  UNL d   1       1.784  -1.345   0.778  0.00  0.00    -0.004 A 
ENDROOT
TORSDOF 0
ENDMDL
