MODEL 1
REMARK minimizedAffinity -2.41418791
REMARK minimizedRMSD -1
REMARK  0 active torsions:
REMARK  status: ('A' for Active; 'I' for Inactive)
ROOT
ATOM      1  C   UNL d   1      -0.677  -0.494   1.057  0.00  0.00     0.172 C 
ATOM      2  N   UNL d   1       0.260  -1.444   0.505  0.00  0.00    -0.070 N 
ATOM      3  C1  UNL d   1       1.506  -1.148   0.021  0.00  0.00    -0.004 A 
ATOM      4  C2  UNL d   1       2.082  -2.323  -0.411  0.00  0.00    -0.047 A 
ATOM      5  C3  UNL d   1       1.150  -3.362  -0.179  0.00  0.00    -0.047 A 
ATOM      6  C4  UNL d   1       0.031  -2.790   0.389  0.00  0.00    -0.004 A 
ENDROOT
TORSDOF 0
ENDMDL
