MODEL 1
REMARK minimizedAffinity -1.8271836
REMARK minimizedRMSD -1
REMARK  0 active torsions:
REMARK  status: ('A' for Active; 'I' for Inactive)
ROOT
ATOM      1  C   UNL d   1      -0.221  -1.896   1.008  0.00  0.00     0.172 C 
ATOM      2  N   UNL d   1       1.051  -2.415   0.562  0.00  0.00    -0.070 N 
ATOM      3  C1  UNL d   1       2.197  -1.684   0.395  0.00  0.00    -0.004 A 
ATOM      4  C2  UNL d   1       3.184  -2.541  -0.040  0.00  0.00    -0.047 A 
ATOM      5  C3  UNL d   1       2.612  -3.831  -0.139  0.00  0.00    -0.047 A 
ATOM      6  C4  UNL d   1       1.290  -3.724   0.239  0.00  0.00    -0.004 A 
ENDROOT
TORSDOF 0
ENDMDL
