MODEL 1
REMARK minimizedAffinity -2.57765079
REMARK minimizedRMSD -1
REMARK  0 active torsions:
REMARK  status: ('A' for Active; 'I' for Inactive)
ROOT
ATOM      1  C   UNL d   1      -1.317  -2.269   0.389  0.00  0.00     0.172 C 
ATOM      2  N   UNL d   1       0.016  -1.714   0.392  0.00  0.00    -0.070 N 
ATOM      3  C1  UNL d   1       1.136  -2.326  -0.104  0.00  0.00    -0.004 A 
ATOM      4  C2  UNL d   1       2.202  -1.473   0.086  0.00  0.00    -0.047 A 
ATOM      5  C3  UNL d   1       1.705  -0.309   0.719  0.00  0.00    -0.047 A 
ATOM      6  C4  UNL d   1       0.349  -0.485   0.897  0.00  0.00    -0.004 A 
ENDROOT
TORSDOF 0
ENDMDL
