MODEL 1
REMARK minimizedAffinity 1.53472745
REMARK minimizedRMSD -1
REMARK  0 active torsions:
REMARK  status: ('A' for Active; 'I' for Inactive)
ROOT
ATOM      1  C   UNL d   1      -4.019   1.103   0.188  0.00  0.00     0.172 C 
ATOM      2  N   UNL d   1      -2.917   0.720   1.039  0.00  0.00    -0.070 N 
ATOM      3  C1  UNL d   1      -2.333  -0.518   1.081  0.00  0.00    -0.004 A 
ATOM      4  C2  UNL d   1      -1.322  -0.476   2.017  0.00  0.00    -0.047 A 
ATOM      5  C3  UNL d   1      -1.299   0.832   2.557  0.00  0.00    -0.047 A 
ATOM      6  C4  UNL d   1      -2.297   1.551   1.934  0.00  0.00    -0.004 A 
ENDROOT
TORSDOF 0
ENDMDL
