MODEL 1
REMARK minimizedAffinity -0.0900392085
REMARK minimizedRMSD -1
REMARK  0 active torsions:
REMARK  status: ('A' for Active; 'I' for Inactive)
ROOT
ATOM      1  C   UNL d   1       0.730  -3.694   0.173  0.00  0.00     0.172 C 
ATOM      2  N   UNL d   1       0.629  -2.284   0.468  0.00  0.00    -0.070 N 
ATOM      3  C1  UNL d   1      -0.479  -1.648   0.959  0.00  0.00    -0.004 A 
ATOM      4  C2  UNL d   1      -0.171  -0.312   1.103  0.00  0.00    -0.047 A 
ATOM      5  C3  UNL d   1       1.169  -0.140   0.683  0.00  0.00    -0.047 A 
ATOM      6  C4  UNL d   1       1.641  -1.376   0.295  0.00  0.00    -0.004 A 
ENDROOT
TORSDOF 0
ENDMDL
