MODEL 1
REMARK minimizedAffinity -2.89706373
REMARK minimizedRMSD -1
REMARK  0 active torsions:
REMARK  status: ('A' for Active; 'I' for Inactive)
ROOT
ATOM      1  C   UNL d   1       2.631  -3.362  -0.143  0.00  0.00     0.172 C 
ATOM      2  N   UNL d   1       1.625  -2.418   0.284  0.00  0.00    -0.070 N 
ATOM      3  C1  UNL d   1       0.277  -2.655   0.335  0.00  0.00    -0.004 A 
ATOM      4  C2  UNL d   1      -0.336  -1.509   0.793  0.00  0.00    -0.047 A 
ATOM      5  C3  UNL d   1       0.678  -0.550   1.025  0.00  0.00    -0.047 A 
ATOM      6  C4  UNL d   1       1.882  -1.139   0.701  0.00  0.00    -0.004 A 
ENDROOT
TORSDOF 0
ENDMDL
