MODEL 1
REMARK minimizedAffinity -2.72402263
REMARK minimizedRMSD -1
REMARK  0 active torsions:
REMARK  status: ('A' for Active; 'I' for Inactive)
ROOT
ATOM      1  C   UNL d   1       2.867  -3.722  -0.023  0.00  0.00     0.172 C 
ATOM      2  N   UNL d   1       1.886  -2.703   0.269  0.00  0.00    -0.070 N 
ATOM      3  C1  UNL d   1       0.568  -2.925   0.565  0.00  0.00    -0.004 A 
ATOM      4  C2  UNL d   1      -0.028  -1.701   0.779  0.00  0.00    -0.047 A 
ATOM      5  C3  UNL d   1       0.966  -0.709   0.605  0.00  0.00    -0.047 A 
ATOM      6  C4  UNL d   1       2.142  -1.357   0.290  0.00  0.00    -0.004 A 
ENDROOT
TORSDOF 0
ENDMDL
