MODEL 1
REMARK minimizedAffinity -3.26464152
REMARK minimizedRMSD -1
REMARK  0 active torsions:
REMARK  status: ('A' for Active; 'I' for Inactive)
ROOT
ATOM      1  C1  BNZ d   1      -1.463   0.370   1.234  0.00  0.00     0.000 A 
ATOM      2  C2  BNZ d   1      -0.867   0.436   0.003  0.00  0.00     0.000 A 
ATOM      3  C3  BNZ d   1       0.494   0.425  -0.117  0.00  0.00     0.000 A 
ATOM      4  C4  BNZ d   1       1.258   0.387   0.994  0.00  0.00     0.000 A 
ATOM      5  C5  BNZ d   1       0.672   0.329   2.243  0.00  0.00     0.000 A 
ATOM      6  C6  BNZ d   1      -0.699   0.302   2.358  0.00  0.00     0.000 A 
ENDROOT
TORSDOF 0
ENDMDL
