MODEL 1
REMARK minimizedAffinity -3.20283413
REMARK minimizedRMSD -1
REMARK  0 active torsions:
REMARK  status: ('A' for Active; 'I' for Inactive)
ROOT
ATOM      1  C1  BNZ d   1      -0.103   0.544   2.128  0.00  0.00     0.000 A 
ATOM      2  C2  BNZ d   1      -1.231   0.700   1.367  0.00  0.00     0.000 A 
ATOM      3  C3  BNZ d   1      -1.148   0.812   0.007  0.00  0.00     0.000 A 
ATOM      4  C4  BNZ d   1       0.064   0.807  -0.585  0.00  0.00     0.000 A 
ATOM      5  C5  BNZ d   1       1.210   0.659   0.169  0.00  0.00     0.000 A 
ATOM      6  C6  BNZ d   1       1.120   0.509   1.534  0.00  0.00     0.000 A 
ENDROOT
TORSDOF 0
ENDMDL
