MODEL 1
REMARK minimizedAffinity -2.57384944
REMARK minimizedRMSD -1
REMARK  0 active torsions:
REMARK  status: ('A' for Active; 'I' for Inactive)
ROOT
ATOM      1  C1  BNZ d   1       1.729  -0.437  -3.030  0.00  0.00     0.000 A 
ATOM      2  C2  BNZ d   1       1.141   0.296  -2.034  0.00  0.00     0.000 A 
ATOM      3  C3  BNZ d   1      -0.035  -0.111  -1.467  0.00  0.00     0.000 A 
ATOM      4  C4  BNZ d   1      -0.639  -1.227  -1.923  0.00  0.00     0.000 A 
ATOM      5  C5  BNZ d   1      -0.063  -1.972  -2.932  0.00  0.00     0.000 A 
ATOM      6  C6  BNZ d   1       1.140  -1.580  -3.474  0.00  0.00     0.000 A 
ENDROOT
TORSDOF 0
ENDMDL
