MODEL 1
REMARK minimizedAffinity -0.739392757
REMARK minimizedRMSD -1
REMARK  0 active torsions:
REMARK  status: ('A' for Active; 'I' for Inactive)
ROOT
ATOM      1  C1  BNZ d   1      -1.350   0.494   0.099  0.00  0.00     0.000 A 
ATOM      2  C2  BNZ d   1      -0.607   0.436   1.248  0.00  0.00     0.000 A 
ATOM      3  C3  BNZ d   1       0.758   0.377   1.197  0.00  0.00     0.000 A 
ATOM      4  C4  BNZ d   1       1.375   0.335  -0.001  0.00  0.00     0.000 A 
ATOM      5  C5  BNZ d   1       0.640   0.382  -1.169  0.00  0.00     0.000 A 
ATOM      6  C6  BNZ d   1      -0.731   0.481  -1.114  0.00  0.00     0.000 A 
ENDROOT
TORSDOF 0
ENDMDL
