MODEL 1
REMARK minimizedAffinity -3.10729051
REMARK minimizedRMSD -1
REMARK  0 active torsions:
REMARK  status: ('A' for Active; 'I' for Inactive)
ROOT
ATOM      1  C1  BNZ d   1       0.945  -1.668  -3.218  0.00  0.00     0.000 A 
ATOM      2  C2  BNZ d   1       1.522  -0.648  -2.508  0.00  0.00     0.000 A 
ATOM      3  C3  BNZ d   1       0.862  -0.061  -1.465  0.00  0.00     0.000 A 
ATOM      4  C4  BNZ d   1      -0.387  -0.466  -1.158  0.00  0.00     0.000 A 
ATOM      5  C5  BNZ d   1      -0.986  -1.486  -1.870  0.00  0.00     0.000 A 
ATOM      6  C6  BNZ d   1      -0.304  -2.101  -2.894  0.00  0.00     0.000 A 
ENDROOT
TORSDOF 0
ENDMDL
