MODEL 1
REMARK minimizedAffinity -2.64224958
REMARK minimizedRMSD -1
REMARK  0 active torsions:
REMARK  status: ('A' for Active; 'I' for Inactive)
ROOT
ATOM      1  C1  BNZ d   1       1.436   0.197  -2.842  0.00  0.00     0.000 A 
ATOM      2  C2  BNZ d   1       0.800   0.466  -1.659  0.00  0.00     0.000 A 
ATOM      3  C3  BNZ d   1      -0.047  -0.448  -1.097  0.00  0.00     0.000 A 
ATOM      4  C4  BNZ d   1      -0.287  -1.611  -1.736  0.00  0.00     0.000 A 
ATOM      5  C5  BNZ d   1       0.339  -1.893  -2.934  0.00  0.00     0.000 A 
ATOM      6  C6  BNZ d   1       1.221  -0.987  -3.477  0.00  0.00     0.000 A 
ENDROOT
TORSDOF 0
ENDMDL
