MODEL 1
REMARK minimizedAffinity -3.61465764
REMARK minimizedRMSD -1
REMARK  0 active torsions:
REMARK  status: ('A' for Active; 'I' for Inactive)
ROOT
ATOM      1  C1  BNZ d   1       1.559  -0.171   2.032  0.00  0.00     0.000 A 
ATOM      2  C2  BNZ d   1       2.037  -0.327   0.759  0.00  0.00     0.000 A 
ATOM      3  C3  BNZ d   1       1.242  -0.070  -0.323  0.00  0.00     0.000 A 
ATOM      4  C4  BNZ d   1      -0.039   0.303  -0.131  0.00  0.00     0.000 A 
ATOM      5  C5  BNZ d   1      -0.539   0.456   1.147  0.00  0.00     0.000 A 
ATOM      6  C6  BNZ d   1       0.275   0.234   2.234  0.00  0.00     0.000 A 
ENDROOT
TORSDOF 0
ENDMDL
