MODEL 1
REMARK minimizedAffinity -2.87038422
REMARK minimizedRMSD -1
REMARK  0 active torsions:
REMARK  status: ('A' for Active; 'I' for Inactive)
ROOT
ATOM      1  C1  BNZ d   1      -0.929   0.049   2.111  0.00  0.00     0.000 A 
ATOM      2  C2  BNZ d   1      -1.581   0.065   0.907  0.00  0.00     0.000 A 
ATOM      3  C3  BNZ d   1      -0.888   0.216  -0.262  0.00  0.00     0.000 A 
ATOM      4  C4  BNZ d   1       0.448   0.392  -0.223  0.00  0.00     0.000 A 
ATOM      5  C5  BNZ d   1       1.119   0.387   0.984  0.00  0.00     0.000 A 
ATOM      6  C6  BNZ d   1       0.424   0.196   2.156  0.00  0.00     0.000 A 
ENDROOT
TORSDOF 0
ENDMDL
