MODEL 1
REMARK minimizedAffinity -1.38679028
REMARK minimizedRMSD -1
REMARK  0 active torsions:
REMARK  status: ('A' for Active; 'I' for Inactive)
ROOT
ATOM      1  C1  BNZ d   1       0.021   0.455  -0.468  0.00  0.00     0.000 A 
ATOM      2  C2  BNZ d   1       1.272   0.526   0.083  0.00  0.00     0.000 A 
ATOM      3  C3  BNZ d   1       1.439   0.561   1.439  0.00  0.00     0.000 A 
ATOM      4  C4  BNZ d   1       0.354   0.566   2.241  0.00  0.00     0.000 A 
ATOM      5  C5  BNZ d   1      -0.915   0.505   1.700  0.00  0.00     0.000 A 
ATOM      6  C6  BNZ d   1      -1.077   0.430   0.336  0.00  0.00     0.000 A 
ENDROOT
TORSDOF 0
ENDMDL
