MODEL 1
REMARK minimizedAffinity -2.86242962
REMARK minimizedRMSD -1
REMARK  0 active torsions:
REMARK  status: ('A' for Active; 'I' for Inactive)
ROOT
ATOM      1  C1  BNZ d   1       1.952  -0.751  -4.015  0.00  0.00     0.000 A 
ATOM      2  C2  BNZ d   1       1.915   0.287  -3.122  0.00  0.00     0.000 A 
ATOM      3  C3  BNZ d   1       1.040   0.276  -2.072  0.00  0.00     0.000 A 
ATOM      4  C4  BNZ d   1       0.178  -0.753  -1.939  0.00  0.00     0.000 A 
ATOM      5  C5  BNZ d   1       0.197  -1.802  -2.836  0.00  0.00     0.000 A 
ATOM      6  C6  BNZ d   1       1.105  -1.806  -3.869  0.00  0.00     0.000 A 
ENDROOT
TORSDOF 0
ENDMDL
