MODEL 1
REMARK minimizedAffinity -4.31802559
REMARK minimizedRMSD -1
REMARK  0 active torsions:
REMARK  status: ('A' for Active; 'I' for Inactive)
ROOT
ATOM      1  C1  BNZ d   1       0.114  -0.190   2.490  0.00  0.00     0.000 A 
ATOM      2  C2  BNZ d   1       0.875  -0.264   1.354  0.00  0.00     0.000 A 
ATOM      3  C3  BNZ d   1       0.350   0.070   0.137  0.00  0.00     0.000 A 
ATOM      4  C4  BNZ d   1      -0.944   0.438   0.051  0.00  0.00     0.000 A 
ATOM      5  C5  BNZ d   1      -1.727   0.509   1.186  0.00  0.00     0.000 A 
ATOM      6  C6  BNZ d   1      -1.185   0.209   2.415  0.00  0.00     0.000 A 
ENDROOT
TORSDOF 0
ENDMDL
