MODEL 1
REMARK minimizedAffinity -4.92619991
REMARK minimizedRMSD -1
REMARK  0 active torsions:
REMARK  status: ('A' for Active; 'I' for Inactive)
ROOT
ATOM      1  C1  BNZ d   1       0.972  -0.081   2.255  0.00  0.00     0.000 A 
ATOM      2  C2  BNZ d   1      -0.187  -0.301   2.949  0.00  0.00     0.000 A 
ATOM      3  C3  BNZ d   1      -1.374  -0.475   2.293  0.00  0.00     0.000 A 
ATOM      4  C4  BNZ d   1      -1.406  -0.389   0.948  0.00  0.00     0.000 A 
ATOM      5  C5  BNZ d   1      -0.247  -0.158   0.234  0.00  0.00     0.000 A 
ATOM      6  C6  BNZ d   1       0.952  -0.022   0.896  0.00  0.00     0.000 A 
ENDROOT
TORSDOF 0
ENDMDL
