MODEL 1
REMARK minimizedAffinity -2.20015621
REMARK minimizedRMSD -1
REMARK  0 active torsions:
REMARK  status: ('A' for Active; 'I' for Inactive)
ROOT
ATOM      1  C1  BNZ d   1       0.474   0.435  -0.661  0.00  0.00     0.000 A 
ATOM      2  C2  BNZ d   1       1.152   0.497   0.528  0.00  0.00     0.000 A 
ATOM      3  C3  BNZ d   1       0.482   0.447   1.719  0.00  0.00     0.000 A 
ATOM      4  C4  BNZ d   1      -0.864   0.375   1.720  0.00  0.00     0.000 A 
ATOM      5  C5  BNZ d   1      -1.562   0.321   0.530  0.00  0.00     0.000 A 
ATOM      6  C6  BNZ d   1      -0.883   0.333  -0.667  0.00  0.00     0.000 A 
ENDROOT
TORSDOF 0
ENDMDL
