MODEL 1
REMARK minimizedAffinity -1.78784227
REMARK minimizedRMSD -1
REMARK  0 active torsions:
REMARK  status: ('A' for Active; 'I' for Inactive)
ROOT
ATOM      1  C1  BNZ d   1      -1.020  -0.246   1.195  0.00  0.00     0.000 A 
ATOM      2  C2  BNZ d   1      -0.722  -0.165  -0.139  0.00  0.00     0.000 A 
ATOM      3  C3  BNZ d   1       0.539   0.161  -0.556  0.00  0.00     0.000 A 
ATOM      4  C4  BNZ d   1       1.487   0.446   0.360  0.00  0.00     0.000 A 
ATOM      5  C5  BNZ d   1       1.199   0.378   1.708  0.00  0.00     0.000 A 
ATOM      6  C6  BNZ d   1      -0.060   0.011   2.125  0.00  0.00     0.000 A 
ENDROOT
TORSDOF 0
ENDMDL
