MODEL 1
REMARK minimizedAffinity -2.39888406
REMARK minimizedRMSD -1
REMARK  0 active torsions:
REMARK  status: ('A' for Active; 'I' for Inactive)
ROOT
ATOM      1  C1  BNZ d   1       0.576   0.762   2.729  0.00  0.00     0.000 A 
ATOM      2  C2  BNZ d   1       1.332   0.657   1.592  0.00  0.00     0.000 A 
ATOM      3  C3  BNZ d   1       0.775   0.234   0.418  0.00  0.00     0.000 A 
ATOM      4  C4  BNZ d   1      -0.525  -0.122   0.391  0.00  0.00     0.000 A 
ATOM      5  C5  BNZ d   1      -1.298  -0.032   1.531  0.00  0.00     0.000 A 
ATOM      6  C6  BNZ d   1      -0.744   0.432   2.702  0.00  0.00     0.000 A 
ENDROOT
TORSDOF 0
ENDMDL
