MODEL 1
REMARK minimizedAffinity -3.70674992
REMARK minimizedRMSD -1
REMARK  0 active torsions:
REMARK  status: ('A' for Active; 'I' for Inactive)
ROOT
ATOM      1  C1  BNZ d   1       1.265  -0.046  -1.304  0.00  0.00     0.000 A 
ATOM      2  C2  BNZ d   1       1.742   0.040  -0.023  0.00  0.00     0.000 A 
ATOM      3  C3  BNZ d   1       0.930   0.443   1.000  0.00  0.00     0.000 A 
ATOM      4  C4  BNZ d   1      -0.344   0.798   0.735  0.00  0.00     0.000 A 
ATOM      5  C5  BNZ d   1      -0.837   0.725  -0.553  0.00  0.00     0.000 A 
ATOM      6  C6  BNZ d   1      -0.028   0.281  -1.574  0.00  0.00     0.000 A 
ENDROOT
TORSDOF 0
ENDMDL
