MODEL 1
REMARK minimizedAffinity -2.33234644
REMARK minimizedRMSD -1
REMARK  0 active torsions:
REMARK  status: ('A' for Active; 'I' for Inactive)
ROOT
ATOM      1  C1  BNZ d   1       1.370  -0.569   0.706  0.00  0.00     0.000 A 
ATOM      2  C2  BNZ d   1       1.002  -0.629  -0.612  0.00  0.00     0.000 A 
ATOM      3  C3  BNZ d   1      -0.101   0.042  -1.062  0.00  0.00     0.000 A 
ATOM      4  C4  BNZ d   1      -0.855   0.739  -0.188  0.00  0.00     0.000 A 
ATOM      5  C5  BNZ d   1      -0.502   0.801   1.146  0.00  0.00     0.000 A 
ATOM      6  C6  BNZ d   1       0.630   0.156   1.588  0.00  0.00     0.000 A 
ENDROOT
TORSDOF 0
ENDMDL
