MODEL 1
REMARK minimizedAffinity -4.12476683
REMARK minimizedRMSD -1
REMARK  0 active torsions:
REMARK  status: ('A' for Active; 'I' for Inactive)
ROOT
ATOM      1  C1  BNZ d   1      -1.722   0.111   1.712  0.00  0.00     0.000 A 
ATOM      2  C2  BNZ d   1      -1.149  -0.127   0.491  0.00  0.00     0.000 A 
ATOM      3  C3  BNZ d   1       0.204  -0.278   0.370  0.00  0.00     0.000 A 
ATOM      4  C4  BNZ d   1       0.985  -0.151   1.462  0.00  0.00     0.000 A 
ATOM      5  C5  BNZ d   1       0.423   0.098   2.699  0.00  0.00     0.000 A 
ATOM      6  C6  BNZ d   1      -0.942   0.211   2.823  0.00  0.00     0.000 A 
ENDROOT
TORSDOF 0
ENDMDL
