MODEL 1
REMARK minimizedAffinity 11.3061905
REMARK minimizedRMSD -1
REMARK  3 active torsions:
REMARK  status: ('A' for Active; 'I' for Inactive)
REMARK    1  A    between atoms: C3'_2  and  C2'_3 
REMARK    2  A    between atoms: C2'_3  and  C1'_4 
REMARK    3  A    between atoms: C1'_4  and  C1_5 
ROOT
ATOM      1  C1  N4B d   1       2.379   1.464   2.017  0.00  0.00    -0.075 A 
ATOM      2  C2  N4B d   1       1.697   0.719   3.004  0.00  0.00     0.002 A 
ATOM      3  C3  N4B d   1       2.327  -0.329   3.630  0.00  0.00     0.002 A 
ATOM      4  C4  N4B d   1       3.625  -0.661   3.273  0.00  0.00    -0.004 A 
ATOM      5  C5  N4B d   1       4.285   0.079   2.337  0.00  0.00     0.002 A 
ATOM      6  C6  N4B d   1       3.667   1.138   1.702  0.00  0.00     0.002 A 
ENDROOT
BRANCH   1   7
ATOM      7  C1' N4B d   1       1.704   2.564   1.244  0.00  0.00     0.057 C 
BRANCH   7   8
ATOM      8  C2' N4B d   1       2.595   2.975   0.076  0.00  0.00     0.009 C 
BRANCH   8   9
ATOM      9  C3' N4B d   1       1.899   2.789  -1.262  0.00  0.00     0.004 C 
ATOM     10  C4' N4B d   1       2.364   3.767  -2.299  0.00  0.00     0.003 C 
ENDBRANCH   8   9
ENDBRANCH   7   8
ENDBRANCH   1   7
TORSDOF 3
ENDMDL
