MODEL 1
REMARK minimizedAffinity 6.83371162
REMARK minimizedRMSD -1
REMARK  3 active torsions:
REMARK  status: ('A' for Active; 'I' for Inactive)
REMARK    1  A    between atoms: C3'_2  and  C2'_3 
REMARK    2  A    between atoms: C2'_3  and  C1'_4 
REMARK    3  A    between atoms: C1'_4  and  C1_5 
ROOT
ATOM      1  C1  N4B d   1      -5.515  -3.987  -1.257  0.00  0.00    -0.075 A 
ATOM      2  C2  N4B d   1      -5.667  -3.367  -2.516  0.00  0.00     0.002 A 
ATOM      3  C3  N4B d   1      -5.644  -1.997  -2.614  0.00  0.00     0.002 A 
ATOM      4  C4  N4B d   1      -5.490  -1.230  -1.468  0.00  0.00    -0.004 A 
ATOM      5  C5  N4B d   1      -5.319  -1.838  -0.259  0.00  0.00     0.002 A 
ATOM      6  C6  N4B d   1      -5.336  -3.214  -0.147  0.00  0.00     0.002 A 
ENDROOT
BRANCH   1   7
ATOM      7  C1' N4B d   1      -5.620  -5.479  -1.088  0.00  0.00     0.057 C 
BRANCH   7   8
ATOM      8  C2' N4B d   1      -4.377  -5.989  -0.365  0.00  0.00     0.009 C 
BRANCH   8   9
ATOM      9  C3' N4B d   1      -4.517  -5.891   1.144  0.00  0.00     0.004 C 
ATOM     10  C4' N4B d   1      -5.940  -6.000   1.603  0.00  0.00     0.003 C 
ENDBRANCH   8   9
ENDBRANCH   7   8
ENDBRANCH   1   7
TORSDOF 3
ENDMDL
