MODEL 1
REMARK minimizedAffinity 7.16647339
REMARK minimizedRMSD -1
REMARK  3 active torsions:
REMARK  status: ('A' for Active; 'I' for Inactive)
REMARK    1  A    between atoms: C3'_2  and  C2'_3 
REMARK    2  A    between atoms: C2'_3  and  C1'_4 
REMARK    3  A    between atoms: C1'_4  and  C1_5 
ROOT
ATOM      1  C1  N4B d   1      -0.825   0.834   3.318  0.00  0.00    -0.075 A 
ATOM      2  C2  N4B d   1      -1.705   0.792   2.214  0.00  0.00     0.002 A 
ATOM      3  C3  N4B d   1      -2.279  -0.398   1.839  0.00  0.00     0.002 A 
ATOM      4  C4  N4B d   1      -1.975  -1.557   2.537  0.00  0.00    -0.004 A 
ATOM      5  C5  N4B d   1      -1.144  -1.503   3.618  0.00  0.00     0.002 A 
ATOM      6  C6  N4B d   1      -0.563  -0.314   4.009  0.00  0.00     0.002 A 
ENDROOT
BRANCH   1   7
ATOM      7  C1' N4B d   1      -0.107   2.095   3.714  0.00  0.00     0.057 C 
BRANCH   7   8
ATOM      8  C2' N4B d   1      -0.710   3.273   2.955  0.00  0.00     0.009 C 
BRANCH   8   9
ATOM      9  C3' N4B d   1      -1.800   3.966   3.756  0.00  0.00     0.004 C 
ATOM     10  C4' N4B d   1      -3.103   4.043   3.018  0.00  0.00     0.003 C 
ENDBRANCH   8   9
ENDBRANCH   7   8
ENDBRANCH   1   7
TORSDOF 3
ENDMDL
