MODEL 1
REMARK minimizedAffinity -3.87978363
REMARK minimizedRMSD -1
REMARK  3 active torsions:
REMARK  status: ('A' for Active; 'I' for Inactive)
REMARK    1  A    between atoms: C3'_2  and  C2'_3 
REMARK    2  A    between atoms: C2'_3  and  C1'_4 
REMARK    3  A    between atoms: C1'_4  and  C1_5 
ROOT
ATOM      1  C1  N4B d   1      -5.741  -4.587  -0.325  0.00  0.00    -0.075 A 
ATOM      2  C2  N4B d   1      -5.699  -4.353  -1.717  0.00  0.00     0.002 A 
ATOM      3  C3  N4B d   1      -5.624  -3.067  -2.195  0.00  0.00     0.002 A 
ATOM      4  C4  N4B d   1      -5.608  -2.004  -1.305  0.00  0.00    -0.004 A 
ATOM      5  C5  N4B d   1      -5.622  -2.240   0.039  0.00  0.00     0.002 A 
ATOM      6  C6  N4B d   1      -5.694  -3.527   0.533  0.00  0.00     0.002 A 
ENDROOT
BRANCH   1   7
ATOM      7  C1' N4B d   1      -5.910  -5.969   0.243  0.00  0.00     0.057 C 
BRANCH   7   8
ATOM      8  C2' N4B d   1      -5.826  -5.899   1.765  0.00  0.00     0.009 C 
BRANCH   8   9
ATOM      9  C3' N4B d   1      -4.394  -5.999   2.260  0.00  0.00     0.004 C 
ATOM     10  C4' N4B d   1      -3.392  -5.999   1.145  0.00  0.00     0.003 C 
ENDBRANCH   8   9
ENDBRANCH   7   8
ENDBRANCH   1   7
TORSDOF 3
ENDMDL
