MODEL 1
REMARK minimizedAffinity 6.25134087
REMARK minimizedRMSD -1
REMARK  3 active torsions:
REMARK  status: ('A' for Active; 'I' for Inactive)
REMARK    1  A    between atoms: C3'_2  and  C2'_3 
REMARK    2  A    between atoms: C2'_3  and  C1'_4 
REMARK    3  A    between atoms: C1'_4  and  C1_5 
ROOT
ATOM      1  C1  N4B d   1       1.499   0.781   3.233  0.00  0.00    -0.075 A 
ATOM      2  C2  N4B d   1       1.442   2.177   3.438  0.00  0.00     0.002 A 
ATOM      3  C3  N4B d   1       0.226   2.812   3.508  0.00  0.00     0.002 A 
ATOM      4  C4  N4B d   1      -0.941   2.077   3.357  0.00  0.00    -0.004 A 
ATOM      5  C5  N4B d   1      -0.877   0.725   3.184  0.00  0.00     0.002 A 
ATOM      6  C6  N4B d   1       0.338   0.074   3.116  0.00  0.00     0.002 A 
ENDROOT
BRANCH   1   7
ATOM      7  C1' N4B d   1       2.807   0.057   3.064  0.00  0.00     0.057 C 
BRANCH   7   8
ATOM      8  C2' N4B d   1       3.527   0.604   1.835  0.00  0.00     0.009 C 
BRANCH   8   9
ATOM      9  C3' N4B d   1       4.994   0.207   1.813  0.00  0.00     0.004 C 
ATOM     10  C4' N4B d   1       5.311  -0.898   2.775  0.00  0.00     0.003 C 
ENDBRANCH   8   9
ENDBRANCH   7   8
ENDBRANCH   1   7
TORSDOF 3
ENDMDL
