MODEL 1
REMARK minimizedAffinity 13.8573704
REMARK minimizedRMSD -1
REMARK  3 active torsions:
REMARK  status: ('A' for Active; 'I' for Inactive)
REMARK    1  A    between atoms: C3'_2  and  C2'_3 
REMARK    2  A    between atoms: C2'_3  and  C1'_4 
REMARK    3  A    between atoms: C1'_4  and  C1_5 
ROOT
ATOM      1  C1  N4B d   1      -0.277   1.721   2.426  0.00  0.00    -0.075 A 
ATOM      2  C2  N4B d   1       0.502   1.114   3.436  0.00  0.00     0.002 A 
ATOM      3  C3  N4B d   1       1.519   1.817   4.034  0.00  0.00     0.002 A 
ATOM      4  C4  N4B d   1       1.787   3.115   3.628  0.00  0.00    -0.004 A 
ATOM      5  C5  N4B d   1       1.014   3.703   2.669  0.00  0.00     0.002 A 
ATOM      6  C6  N4B d   1      -0.014   3.010   2.062  0.00  0.00     0.002 A 
ENDROOT
BRANCH   1   7
ATOM      7  C1' N4B d   1      -1.344   0.964   1.683  0.00  0.00     0.057 C 
BRANCH   7   8
ATOM      8  C2' N4B d   1      -1.388   1.450   0.238  0.00  0.00     0.009 C 
BRANCH   8   9
ATOM      9  C3' N4B d   1      -2.808   1.722  -0.228  0.00  0.00     0.004 C 
ATOM     10  C4' N4B d   1      -2.956   1.644  -1.718  0.00  0.00     0.003 C 
ENDBRANCH   8   9
ENDBRANCH   7   8
ENDBRANCH   1   7
TORSDOF 3
ENDMDL
