MODEL 1
REMARK minimizedAffinity 2.73270035
REMARK minimizedRMSD -1
REMARK  3 active torsions:
REMARK  status: ('A' for Active; 'I' for Inactive)
REMARK    1  A    between atoms: C3'_2  and  C2'_3 
REMARK    2  A    between atoms: C2'_3  and  C1'_4 
REMARK    3  A    between atoms: C1'_4  and  C1_5 
ROOT
ATOM      1  C1  N4B d   1      -2.973   1.386   1.778  0.00  0.00    -0.075 A 
ATOM      2  C2  N4B d   1      -1.857   0.715   2.326  0.00  0.00     0.002 A 
ATOM      3  C3  N4B d   1      -0.849   0.275   1.504  0.00  0.00     0.002 A 
ATOM      4  C4  N4B d   1      -0.943   0.475   0.135  0.00  0.00    -0.004 A 
ATOM      5  C5  N4B d   1      -2.012   1.146  -0.384  0.00  0.00     0.002 A 
ATOM      6  C6  N4B d   1      -3.030   1.599   0.431  0.00  0.00     0.002 A 
ENDROOT
BRANCH   1   7
ATOM      7  C1' N4B d   1      -4.140   1.810   2.627  0.00  0.00     0.057 C 
BRANCH   7   8
ATOM      8  C2' N4B d   1      -4.073   3.318   2.853  0.00  0.00     0.009 C 
BRANCH   8   9
ATOM      9  C3' N4B d   1      -5.415   3.889   3.276  0.00  0.00     0.004 C 
ATOM     10  C4' N4B d   1      -5.310   4.802   4.462  0.00  0.00     0.003 C 
ENDBRANCH   8   9
ENDBRANCH   7   8
ENDBRANCH   1   7
TORSDOF 3
ENDMDL
