MODEL 1
REMARK minimizedAffinity 5.48569918
REMARK minimizedRMSD -1
REMARK  3 active torsions:
REMARK  status: ('A' for Active; 'I' for Inactive)
REMARK    1  A    between atoms: C3'_2  and  C2'_3 
REMARK    2  A    between atoms: C2'_3  and  C1'_4 
REMARK    3  A    between atoms: C1'_4  and  C1_5 
ROOT
ATOM      1  C1  N4B d   1      -5.728  -2.579  -1.227  0.00  0.00    -0.075 A 
ATOM      2  C2  N4B d   1      -5.713  -3.962  -0.941  0.00  0.00     0.002 A 
ATOM      3  C3  N4B d   1      -5.833  -4.874  -1.961  0.00  0.00     0.002 A 
ATOM      4  C4  N4B d   1      -5.987  -4.429  -3.265  0.00  0.00    -0.004 A 
ATOM      5  C5  N4B d   1      -5.975  -3.092  -3.535  0.00  0.00     0.002 A 
ATOM      6  C6  N4B d   1      -5.851  -2.164  -2.521  0.00  0.00     0.002 A 
ENDROOT
BRANCH   1   7
ATOM      7  C1' N4B d   1      -5.686  -1.543  -0.136  0.00  0.00     0.057 C 
BRANCH   7   8
ATOM      8  C2' N4B d   1      -4.593  -1.911   0.863  0.00  0.00     0.009 C 
BRANCH   8   9
ATOM      9  C3' N4B d   1      -4.333  -0.793   1.857  0.00  0.00     0.004 C 
ATOM     10  C4' N4B d   1      -2.959  -0.207   1.725  0.00  0.00     0.003 C 
ENDBRANCH   8   9
ENDBRANCH   7   8
ENDBRANCH   1   7
TORSDOF 3
ENDMDL
