MODEL 1
REMARK minimizedAffinity 2.73346853
REMARK minimizedRMSD -1
REMARK  3 active torsions:
REMARK  status: ('A' for Active; 'I' for Inactive)
REMARK    1  A    between atoms: C3'_2  and  C2'_3 
REMARK    2  A    between atoms: C2'_3  and  C1'_4 
REMARK    3  A    between atoms: C1'_4  and  C1_5 
ROOT
ATOM      1  C1  N4B d   1       1.470   0.873  -2.135  0.00  0.00    -0.075 A 
ATOM      2  C2  N4B d   1       2.207   0.379  -3.234  0.00  0.00     0.002 A 
ATOM      3  C3  N4B d   1       2.008  -0.907  -3.671  0.00  0.00     0.002 A 
ATOM      4  C4  N4B d   1       1.095  -1.721  -3.017  0.00  0.00    -0.004 A 
ATOM      5  C5  N4B d   1       0.369  -1.228  -1.973  0.00  0.00     0.002 A 
ATOM      6  C6  N4B d   1       0.556   0.065  -1.524  0.00  0.00     0.002 A 
ENDROOT
BRANCH   1   7
ATOM      7  C1' N4B d   1       1.715   2.244  -1.566  0.00  0.00     0.057 C 
BRANCH   7   8
ATOM      8  C2' N4B d   1       3.144   2.673  -1.889  0.00  0.00     0.009 C 
BRANCH   8   9
ATOM      9  C3' N4B d   1       3.192   3.681  -3.024  0.00  0.00     0.004 C 
ATOM     10  C4' N4B d   1       4.369   3.480  -3.931  0.00  0.00     0.003 C 
ENDBRANCH   8   9
ENDBRANCH   7   8
ENDBRANCH   1   7
TORSDOF 3
ENDMDL
