MODEL 1
REMARK minimizedAffinity -4.35953856
REMARK minimizedRMSD -1
REMARK  2 active torsions:
REMARK  status: ('A' for Active; 'I' for Inactive)
REMARK    1  A    between atoms: C1_2  and  C2_3 
REMARK    2  A    between atoms: C2_3  and  C3_4 
ROOT
ATOM      1  C3  UNL d   1       1.490   0.699   1.010  0.00  0.00    -0.075 A 
ATOM      2  C4  UNL d   1       2.416   0.513   2.048  0.00  0.00     0.002 A 
ATOM      3  C5  UNL d   1       3.474  -0.384   1.901  0.00  0.00     0.002 A 
ATOM      4  C6  UNL d   1       3.615  -1.112   0.721  0.00  0.00    -0.004 A 
ATOM      5  C7  UNL d   1       2.693  -0.947  -0.309  0.00  0.00     0.002 A 
ATOM      6  C8  UNL d   1       1.635  -0.048  -0.167  0.00  0.00     0.002 A 
ENDROOT
BRANCH   1   7
ATOM      7  C2  UNL d   1       0.360   1.690   1.152  0.00  0.00     0.056 C 
BRANCH   7   8
ATOM      8  C1  UNL d   1      -0.995   1.048   1.471  0.00  0.00     0.007 C 
ATOM      9  C   UNL d   1      -1.962   2.000   2.163  0.00  0.00     0.009 C 
ENDBRANCH   7   8
ENDBRANCH   1   7
TORSDOF 2
ENDMDL
