MODEL 1
REMARK minimizedAffinity 3.56474352
REMARK minimizedRMSD -1
REMARK  2 active torsions:
REMARK  status: ('A' for Active; 'I' for Inactive)
REMARK    1  A    between atoms: C1_2  and  C2_3 
REMARK    2  A    between atoms: C2_3  and  C3_4 
ROOT
ATOM      1  C3  UNL d   1      -2.054   1.905   3.018  0.00  0.00    -0.075 A 
ATOM      2  C4  UNL d   1      -1.926   0.509   2.990  0.00  0.00     0.002 A 
ATOM      3  C5  UNL d   1      -1.259  -0.120   1.938  0.00  0.00     0.002 A 
ATOM      4  C6  UNL d   1      -0.724   0.635   0.898  0.00  0.00    -0.004 A 
ATOM      5  C7  UNL d   1      -0.860   2.022   0.907  0.00  0.00     0.002 A 
ATOM      6  C8  UNL d   1      -1.522   2.654   1.960  0.00  0.00     0.002 A 
ENDROOT
BRANCH   1   7
ATOM      7  C2  UNL d   1      -2.748   2.594   4.168  0.00  0.00     0.056 C 
BRANCH   7   8
ATOM      8  C1  UNL d   1      -4.134   2.026   4.491  0.00  0.00     0.007 C 
ATOM      9  C   UNL d   1      -4.997   2.977   5.311  0.00  0.00     0.009 C 
ENDBRANCH   7   8
ENDBRANCH   1   7
TORSDOF 2
ENDMDL
