MODEL 1
REMARK minimizedAffinity -0.809740722
REMARK minimizedRMSD -1
REMARK  2 active torsions:
REMARK  status: ('A' for Active; 'I' for Inactive)
REMARK    1  A    between atoms: C1_2  and  C2_3 
REMARK    2  A    between atoms: C2_3  and  C3_4 
ROOT
ATOM      1  C3  UNL d   1      -0.405   1.353   1.834  0.00  0.00    -0.075 A 
ATOM      2  C4  UNL d   1      -1.172   2.481   2.163  0.00  0.00     0.002 A 
ATOM      3  C5  UNL d   1      -2.453   2.335   2.696  0.00  0.00     0.002 A 
ATOM      4  C6  UNL d   1      -2.987   1.064   2.896  0.00  0.00    -0.004 A 
ATOM      5  C7  UNL d   1      -2.241  -0.063   2.557  0.00  0.00     0.002 A 
ATOM      6  C8  UNL d   1      -0.957   0.080   2.028  0.00  0.00     0.002 A 
ENDROOT
BRANCH   1   7
ATOM      7  C2  UNL d   1       0.993   1.504   1.285  0.00  0.00     0.056 C 
BRANCH   7   8
ATOM      8  C1  UNL d   1       1.140   2.624   0.249  0.00  0.00     0.007 C 
ATOM      9  C   UNL d   1       2.328   3.539   0.518  0.00  0.00     0.009 C 
ENDBRANCH   7   8
ENDBRANCH   1   7
TORSDOF 2
ENDMDL
