MODEL 1
REMARK minimizedAffinity 0.462955534
REMARK minimizedRMSD -1
REMARK  2 active torsions:
REMARK  status: ('A' for Active; 'I' for Inactive)
REMARK    1  A    between atoms: C1_2  and  C2_3 
REMARK    2  A    between atoms: C2_3  and  C3_4 
ROOT
ATOM      1  C3  UNL d   1      -1.617   1.948   2.363  0.00  0.00    -0.075 A 
ATOM      2  C4  UNL d   1      -1.715   0.557   2.217  0.00  0.00     0.002 A 
ATOM      3  C5  UNL d   1      -0.810  -0.136   1.413  0.00  0.00     0.002 A 
ATOM      4  C6  UNL d   1       0.195   0.552   0.737  0.00  0.00    -0.004 A 
ATOM      5  C7  UNL d   1       0.291   1.936   0.861  0.00  0.00     0.002 A 
ATOM      6  C8  UNL d   1      -0.610   2.632   1.669  0.00  0.00     0.002 A 
ENDROOT
BRANCH   1   7
ATOM      7  C2  UNL d   1      -2.575   2.701   3.255  0.00  0.00     0.056 C 
BRANCH   7   8
ATOM      8  C1  UNL d   1      -3.731   1.848   3.789  0.00  0.00     0.007 C 
ATOM      9  C   UNL d   1      -4.498   2.518   4.921  0.00  0.00     0.009 C 
ENDBRANCH   7   8
ENDBRANCH   1   7
TORSDOF 2
ENDMDL
