MODEL 1
REMARK minimizedAffinity -1.51498401
REMARK minimizedRMSD -1
REMARK  2 active torsions:
REMARK  status: ('A' for Active; 'I' for Inactive)
REMARK    1  A    between atoms: C1_2  and  C2_3 
REMARK    2  A    between atoms: C2_3  and  C3_4 
ROOT
ATOM      1  C3  UNL d   1      -1.423   1.565   2.159  0.00  0.00    -0.075 A 
ATOM      2  C4  UNL d   1      -1.614   0.237   1.750  0.00  0.00     0.002 A 
ATOM      3  C5  UNL d   1      -0.628  -0.429   1.021  0.00  0.00     0.002 A 
ATOM      4  C6  UNL d   1       0.554   0.225   0.684  0.00  0.00    -0.004 A 
ATOM      5  C7  UNL d   1       0.748   1.550   1.070  0.00  0.00     0.002 A 
ATOM      6  C8  UNL d   1      -0.235   2.217   1.803  0.00  0.00     0.002 A 
ENDROOT
BRANCH   1   7
ATOM      7  C2  UNL d   1      -2.473   2.282   2.973  0.00  0.00     0.056 C 
BRANCH   7   8
ATOM      8  C1  UNL d   1      -3.643   1.391   3.404  0.00  0.00     0.007 C 
ATOM      9  C   UNL d   1      -4.572   2.064   4.406  0.00  0.00     0.009 C 
ENDBRANCH   7   8
ENDBRANCH   1   7
TORSDOF 2
ENDMDL
