MODEL 1
REMARK minimizedAffinity 1.8732208
REMARK minimizedRMSD -1
REMARK  2 active torsions:
REMARK  status: ('A' for Active; 'I' for Inactive)
REMARK    1  A    between atoms: C1_2  and  C2_3 
REMARK    2  A    between atoms: C2_3  and  C3_4 
ROOT
ATOM      1  C3  UNL d   1      -1.496   1.674   1.801  0.00  0.00    -0.075 A 
ATOM      2  C4  UNL d   1      -1.607   0.302   1.535  0.00  0.00     0.002 A 
ATOM      3  C5  UNL d   1      -0.505  -0.422   1.077  0.00  0.00     0.002 A 
ATOM      4  C6  UNL d   1       0.715   0.218   0.870  0.00  0.00    -0.004 A 
ATOM      5  C7  UNL d   1       0.832   1.584   1.115  0.00  0.00     0.002 A 
ATOM      6  C8  UNL d   1      -0.267   2.310   1.578  0.00  0.00     0.002 A 
ENDROOT
BRANCH   1   7
ATOM      7  C2  UNL d   1      -2.676   2.457   2.325  0.00  0.00     0.056 C 
BRANCH   7   8
ATOM      8  C1  UNL d   1      -3.636   1.634   3.191  0.00  0.00     0.007 C 
ATOM      9  C   UNL d   1      -4.592   2.492   4.009  0.00  0.00     0.009 C 
ENDBRANCH   7   8
ENDBRANCH   1   7
TORSDOF 2
ENDMDL
