MODEL 1
REMARK minimizedAffinity 6.20946646
REMARK minimizedRMSD -1
REMARK  2 active torsions:
REMARK  status: ('A' for Active; 'I' for Inactive)
REMARK    1  A    between atoms: C1_2  and  C2_3 
REMARK    2  A    between atoms: C2_3  and  C3_4 
ROOT
ATOM      1  C3  UNL d   1      -3.367  -1.904  -3.365  0.00  0.00    -0.075 A 
ATOM      2  C4  UNL d   1      -3.644  -2.841  -2.359  0.00  0.00     0.002 A 
ATOM      3  C5  UNL d   1      -4.324  -2.459  -1.202  0.00  0.00     0.002 A 
ATOM      4  C6  UNL d   1      -4.726  -1.136  -1.032  0.00  0.00    -0.004 A 
ATOM      5  C7  UNL d   1      -4.442  -0.193  -2.018  0.00  0.00     0.002 A 
ATOM      6  C8  UNL d   1      -3.766  -0.574  -3.178  0.00  0.00     0.002 A 
ENDROOT
BRANCH   1   7
ATOM      7  C2  UNL d   1      -2.658  -2.317  -4.632  0.00  0.00     0.056 C 
BRANCH   7   8
ATOM      8  C1  UNL d   1      -3.599  -2.752  -5.761  0.00  0.00     0.007 C 
ATOM      9  C   UNL d   1      -4.921  -3.314  -5.256  0.00  0.00     0.009 C 
ENDBRANCH   7   8
ENDBRANCH   1   7
TORSDOF 2
ENDMDL
