MODEL 1
REMARK minimizedAffinity 6.52867603
REMARK minimizedRMSD -1
REMARK  2 active torsions:
REMARK  status: ('A' for Active; 'I' for Inactive)
REMARK    1  A    between atoms: C1_2  and  C2_3 
REMARK    2  A    between atoms: C2_3  and  C3_4 
ROOT
ATOM      1  C3  UNL d   1      -3.943   2.171   3.171  0.00  0.00    -0.075 A 
ATOM      2  C4  UNL d   1      -2.742   1.450   3.104  0.00  0.00     0.002 A 
ATOM      3  C5  UNL d   1      -1.725   1.847   2.235  0.00  0.00     0.002 A 
ATOM      4  C6  UNL d   1      -1.899   2.961   1.417  0.00  0.00    -0.004 A 
ATOM      5  C7  UNL d   1      -3.095   3.675   1.464  0.00  0.00     0.002 A 
ATOM      6  C8  UNL d   1      -4.112   3.282   2.335  0.00  0.00     0.002 A 
ENDROOT
BRANCH   1   7
ATOM      7  C2  UNL d   1      -5.036   1.763   4.130  0.00  0.00     0.056 C 
BRANCH   7   8
ATOM      8  C1  UNL d   1      -4.853   2.306   5.551  0.00  0.00     0.007 C 
ATOM      9  C   UNL d   1      -5.992   3.211   5.999  0.00  0.00     0.009 C 
ENDBRANCH   7   8
ENDBRANCH   1   7
TORSDOF 2
ENDMDL
