MODEL 1
REMARK minimizedAffinity 3.24419594
REMARK minimizedRMSD -1
REMARK  2 active torsions:
REMARK  status: ('A' for Active; 'I' for Inactive)
REMARK    1  A    between atoms: C1_2  and  C2_3 
REMARK    2  A    between atoms: C2_3  and  C3_4 
ROOT
ATOM      1  C3  UNL d   1      -3.066   1.035   3.188  0.00  0.00    -0.075 A 
ATOM      2  C4  UNL d   1      -2.253  -0.087   2.973  0.00  0.00     0.002 A 
ATOM      3  C5  UNL d   1      -1.065   0.026   2.251  0.00  0.00     0.002 A 
ATOM      4  C6  UNL d   1      -0.680   1.258   1.727  0.00  0.00    -0.004 A 
ATOM      5  C7  UNL d   1      -1.488   2.377   1.920  0.00  0.00     0.002 A 
ATOM      6  C8  UNL d   1      -2.675   2.267   2.646  0.00  0.00     0.002 A 
ENDROOT
BRANCH   1   7
ATOM      7  C2  UNL d   1      -4.338   0.925   3.994  0.00  0.00     0.056 C 
BRANCH   7   8
ATOM      8  C1  UNL d   1      -4.851   2.263   4.537  0.00  0.00     0.007 C 
ATOM      9  C   UNL d   1      -5.277   2.195   5.998  0.00  0.00     0.009 C 
ENDBRANCH   7   8
ENDBRANCH   1   7
TORSDOF 2
ENDMDL
