MODEL 1
REMARK minimizedAffinity -3.02032471
REMARK minimizedRMSD -1
REMARK  2 active torsions:
REMARK  status: ('A' for Active; 'I' for Inactive)
REMARK    1  A    between atoms: C1_2  and  C2_3 
REMARK    2  A    between atoms: C2_3  and  C3_4 
ROOT
ATOM      1  C3  UNL d   1      -1.723   1.009   2.341  0.00  0.00    -0.075 A 
ATOM      2  C4  UNL d   1      -1.179  -0.227   1.962  0.00  0.00     0.002 A 
ATOM      3  C5  UNL d   1       0.078  -0.293   1.360  0.00  0.00     0.002 A 
ATOM      4  C6  UNL d   1       0.801   0.874   1.121  0.00  0.00    -0.004 A 
ATOM      5  C7  UNL d   1       0.264   2.108   1.479  0.00  0.00     0.002 A 
ATOM      6  C8  UNL d   1      -0.992   2.177   2.085  0.00  0.00     0.002 A 
ENDROOT
BRANCH   1   7
ATOM      7  C2  UNL d   1      -3.070   1.085   3.020  0.00  0.00     0.056 C 
BRANCH   7   8
ATOM      8  C1  UNL d   1      -3.318   2.399   3.768  0.00  0.00     0.007 C 
ATOM      9  C   UNL d   1      -4.652   2.429   4.502  0.00  0.00     0.009 C 
ENDBRANCH   7   8
ENDBRANCH   1   7
TORSDOF 2
ENDMDL
