MODEL 1
REMARK minimizedAffinity 5.91730452
REMARK minimizedRMSD -1
REMARK  2 active torsions:
REMARK  status: ('A' for Active; 'I' for Inactive)
REMARK    1  A    between atoms: C1_2  and  C2_3 
REMARK    2  A    between atoms: C2_3  and  C3_4 
ROOT
ATOM      1  C3  UNL d   1      -0.606  -0.185   2.453  0.00  0.00    -0.075 A 
ATOM      2  C4  UNL d   1      -1.217   1.019   2.074  0.00  0.00     0.002 A 
ATOM      3  C5  UNL d   1      -0.472   2.034   1.474  0.00  0.00     0.002 A 
ATOM      4  C6  UNL d   1       0.894   1.864   1.256  0.00  0.00    -0.004 A 
ATOM      5  C7  UNL d   1       1.515   0.678   1.643  0.00  0.00     0.002 A 
ATOM      6  C8  UNL d   1       0.770  -0.341   2.240  0.00  0.00     0.002 A 
ENDROOT
BRANCH   1   7
ATOM      7  C2  UNL d   1      -1.413  -1.299   3.075  0.00  0.00     0.056 C 
BRANCH   7   8
ATOM      8  C1  UNL d   1      -2.911  -1.235   2.761  0.00  0.00     0.007 C 
ATOM      9  C   UNL d   1      -3.779  -1.868   3.841  0.00  0.00     0.009 C 
ENDBRANCH   7   8
ENDBRANCH   1   7
TORSDOF 2
ENDMDL
