MODEL 1
REMARK minimizedAffinity 0.16173628
REMARK minimizedRMSD -1
REMARK  2 active torsions:
REMARK  status: ('A' for Active; 'I' for Inactive)
REMARK    1  A    between atoms: C1_2  and  C2_3 
REMARK    2  A    between atoms: C2_3  and  C3_4 
ROOT
ATOM      1  C3  UNL d   1       1.112   0.349   1.223  0.00  0.00    -0.075 A 
ATOM      2  C4  UNL d   1       0.828   1.716   1.351  0.00  0.00     0.002 A 
ATOM      3  C5  UNL d   1      -0.493   2.165   1.387  0.00  0.00     0.002 A 
ATOM      4  C6  UNL d   1      -1.543   1.256   1.284  0.00  0.00    -0.004 A 
ATOM      5  C7  UNL d   1      -1.273  -0.103   1.140  0.00  0.00     0.002 A 
ATOM      6  C8  UNL d   1       0.048  -0.555   1.109  0.00  0.00     0.002 A 
ENDROOT
BRANCH   1   7
ATOM      7  C2  UNL d   1       2.539  -0.146   1.214  0.00  0.00     0.056 C 
BRANCH   7   8
ATOM      8  C1  UNL d   1       3.087  -0.495   2.602  0.00  0.00     0.007 C 
ATOM      9  C   UNL d   1       2.228   0.042   3.739  0.00  0.00     0.009 C 
ENDBRANCH   7   8
ENDBRANCH   1   7
TORSDOF 2
ENDMDL
