MODEL 1
REMARK minimizedAffinity 4.60693407
REMARK minimizedRMSD -1
REMARK  2 active torsions:
REMARK  status: ('A' for Active; 'I' for Inactive)
REMARK    1  A    between atoms: C1_2  and  C2_3 
REMARK    2  A    between atoms: C2_3  and  C3_4 
ROOT
ATOM      1  C3  UNL d   1      -1.464   1.617   2.001  0.00  0.00    -0.075 A 
ATOM      2  C4  UNL d   1      -1.439   0.230   2.208  0.00  0.00     0.002 A 
ATOM      3  C5  UNL d   1      -0.284  -0.505   1.941  0.00  0.00     0.002 A 
ATOM      4  C6  UNL d   1       0.855   0.133   1.454  0.00  0.00    -0.004 A 
ATOM      5  C7  UNL d   1       0.836   1.508   1.229  0.00  0.00     0.002 A 
ATOM      6  C8  UNL d   1      -0.317   2.247   1.500  0.00  0.00     0.002 A 
ENDROOT
BRANCH   1   7
ATOM      7  C2  UNL d   1      -2.702   2.422   2.316  0.00  0.00     0.056 C 
BRANCH   7   8
ATOM      8  C1  UNL d   1      -3.728   1.679   3.179  0.00  0.00     0.007 C 
ATOM      9  C   UNL d   1      -4.589   2.608   4.023  0.00  0.00     0.009 C 
ENDBRANCH   7   8
ENDBRANCH   1   7
TORSDOF 2
ENDMDL
