MODEL 1
REMARK minimizedAffinity -0.923353612
REMARK minimizedRMSD -1
REMARK  2 active torsions:
REMARK  status: ('A' for Active; 'I' for Inactive)
REMARK    1  A    between atoms: C1_2  and  C2_3 
REMARK    2  A    between atoms: C2_3  and  C3_4 
ROOT
ATOM      1  C3  UNL d   1      -2.527   1.929   3.250  0.00  0.00    -0.075 A 
ATOM      2  C4  UNL d   1      -2.693   2.805   2.167  0.00  0.00     0.002 A 
ATOM      3  C5  UNL d   1      -1.594   3.214   1.412  0.00  0.00     0.002 A 
ATOM      4  C6  UNL d   1      -0.316   2.763   1.735  0.00  0.00    -0.004 A 
ATOM      5  C7  UNL d   1      -0.137   1.906   2.819  0.00  0.00     0.002 A 
ATOM      6  C8  UNL d   1      -1.236   1.491   3.573  0.00  0.00     0.002 A 
ENDROOT
BRANCH   1   7
ATOM      7  C2  UNL d   1      -3.716   1.459   4.053  0.00  0.00     0.056 C 
BRANCH   7   8
ATOM      8  C1  UNL d   1      -4.089   2.385   5.215  0.00  0.00     0.007 C 
ATOM      9  C   UNL d   1      -5.318   1.918   5.984  0.00  0.00     0.009 C 
ENDBRANCH   7   8
ENDBRANCH   1   7
TORSDOF 2
ENDMDL
