MODEL 1
REMARK minimizedAffinity -6.13818169
REMARK minimizedRMSD -1
REMARK  0 active torsions:
REMARK  status: ('A' for Active; 'I' for Inactive)
ROOT
ATOM      1  C2' OXE d   1      -1.540   3.344   1.142  0.00  0.00     0.078 C 
ATOM      2  C1' OXE d   1      -1.453   0.550   1.397  0.00  0.00     0.078 C 
ATOM      3  C1  OXE d   1      -0.630   1.182   0.303  0.00  0.00    -0.078 A 
ATOM      4  C2  OXE d   1      -0.715   2.546   0.156  0.00  0.00    -0.078 A 
ATOM      5  C3  OXE d   1       0.066   3.186  -0.802  0.00  0.00     0.003 A 
ATOM      6  C4  OXE d   1       0.818   2.440  -1.717  0.00  0.00    -0.002 A 
ATOM      7  C5  OXE d   1       0.888   1.047  -1.610  0.00  0.00    -0.002 A 
ATOM      8  C6  OXE d   1       0.205   0.407  -0.582  0.00  0.00     0.003 A 
ENDROOT
TORSDOF 0
ENDMDL
