MODEL 1
REMARK minimizedAffinity -6.60432291
REMARK minimizedRMSD -1
REMARK  0 active torsions:
REMARK  status: ('A' for Active; 'I' for Inactive)
ROOT
ATOM      1  C2' OXE d   1       0.841   0.082  -0.686  0.00  0.00     0.078 C 
ATOM      2  C1' OXE d   1      -0.419  -0.173   1.810  0.00  0.00     0.078 C 
ATOM      3  C1  OXE d   1      -0.802   1.002   0.945  0.00  0.00    -0.078 A 
ATOM      4  C2  OXE d   1      -0.147   1.145  -0.254  0.00  0.00    -0.078 A 
ATOM      5  C3  OXE d   1      -0.502   2.180  -1.114  0.00  0.00     0.003 A 
ATOM      6  C4  OXE d   1      -1.409   3.164  -0.703  0.00  0.00    -0.002 A 
ATOM      7  C5  OXE d   1      -2.058   3.059   0.531  0.00  0.00    -0.002 A 
ATOM      8  C6  OXE d   1      -1.798   1.964   1.347  0.00  0.00     0.003 A 
ENDROOT
TORSDOF 0
ENDMDL
