MODEL 1
REMARK minimizedAffinity -6.40176916
REMARK minimizedRMSD -1
REMARK  0 active torsions:
REMARK  status: ('A' for Active; 'I' for Inactive)
ROOT
ATOM      1  C2' OXE d   1      -1.176   3.024  -1.067  0.00  0.00     0.078 C 
ATOM      2  C1' OXE d   1      -2.331   2.243   1.370  0.00  0.00     0.078 C 
ATOM      3  C1  OXE d   1      -1.293   1.334   0.760  0.00  0.00    -0.078 A 
ATOM      4  C2  OXE d   1      -0.768   1.701  -0.456  0.00  0.00    -0.078 A 
ATOM      5  C3  OXE d   1       0.233   0.927  -1.036  0.00  0.00     0.003 A 
ATOM      6  C4  OXE d   1       0.597  -0.301  -0.470  0.00  0.00    -0.002 A 
ATOM      7  C5  OXE d   1       0.045  -0.713   0.748  0.00  0.00    -0.002 A 
ATOM      8  C6  OXE d   1      -0.868   0.112   1.395  0.00  0.00     0.003 A 
ENDROOT
TORSDOF 0
ENDMDL
