MODEL 1
REMARK minimizedAffinity -5.80332851
REMARK minimizedRMSD -1
REMARK  0 active torsions:
REMARK  status: ('A' for Active; 'I' for Inactive)
ROOT
ATOM      1  C2' OXE d   1       1.844   0.490  -2.134  0.00  0.00     0.078 C 
ATOM      2  C1' OXE d   1      -0.463   1.253  -0.728  0.00  0.00     0.078 C 
ATOM      3  C1  OXE d   1      -0.466  -0.093  -1.409  0.00  0.00    -0.078 A 
ATOM      4  C2  OXE d   1       0.649  -0.438  -2.134  0.00  0.00    -0.078 A 
ATOM      5  C3  OXE d   1       0.719  -1.691  -2.736  0.00  0.00     0.003 A 
ATOM      6  C4  OXE d   1      -0.394  -2.539  -2.740  0.00  0.00    -0.002 A 
ATOM      7  C5  OXE d   1      -1.555  -2.190  -2.041  0.00  0.00    -0.002 A 
ATOM      8  C6  OXE d   1      -1.592  -0.992  -1.336  0.00  0.00     0.003 A 
ENDROOT
TORSDOF 0
ENDMDL
