MODEL 1
REMARK minimizedAffinity -4.71406937
REMARK minimizedRMSD -1
REMARK  0 active torsions:
REMARK  status: ('A' for Active; 'I' for Inactive)
ROOT
ATOM      1  C2' OXE d   1      -0.256   0.026  -0.994  0.00  0.00     0.078 C 
ATOM      2  C1' OXE d   1       0.224   2.759  -1.420  0.00  0.00     0.078 C 
ATOM      3  C1  OXE d   1      -0.716   2.376  -0.304  0.00  0.00    -0.078 A 
ATOM      4  C2  OXE d   1      -0.981   1.038  -0.133  0.00  0.00    -0.078 A 
ATOM      5  C3  OXE d   1      -1.798   0.626   0.917  0.00  0.00     0.003 A 
ATOM      6  C4  OXE d   1      -2.472   1.569   1.702  0.00  0.00    -0.002 A 
ATOM      7  C5  OXE d   1      -2.247   2.937   1.519  0.00  0.00    -0.002 A 
ATOM      8  C6  OXE d   1      -1.341   3.355   0.550  0.00  0.00     0.003 A 
ENDROOT
TORSDOF 0
ENDMDL
