MODEL 1
REMARK minimizedAffinity -2.79218268
REMARK minimizedRMSD -1
REMARK  0 active torsions:
REMARK  status: ('A' for Active; 'I' for Inactive)
ROOT
ATOM      1  C2' OXE d   1       0.372   2.471  -2.159  0.00  0.00     0.078 C 
ATOM      2  C1' OXE d   1      -1.130   2.478   0.213  0.00  0.00     0.078 C 
ATOM      3  C1  OXE d   1      -0.321   1.245  -0.104  0.00  0.00    -0.078 A 
ATOM      4  C2  OXE d   1       0.374   1.232  -1.289  0.00  0.00    -0.078 A 
ATOM      5  C3  OXE d   1       1.180   0.142  -1.604  0.00  0.00     0.003 A 
ATOM      6  C4  OXE d   1       1.168  -1.004  -0.800  0.00  0.00    -0.002 A 
ATOM      7  C5  OXE d   1       0.437  -1.027   0.393  0.00  0.00    -0.002 A 
ATOM      8  C6  OXE d   1      -0.278   0.103   0.776  0.00  0.00     0.003 A 
ENDROOT
TORSDOF 0
ENDMDL
