MODEL 1
REMARK minimizedAffinity -5.17857838
REMARK minimizedRMSD -1
REMARK  0 active torsions:
REMARK  status: ('A' for Active; 'I' for Inactive)
ROOT
ATOM      1  C2' OXE d   1      -0.841   3.368  -1.221  0.00  0.00     0.078 C 
ATOM      2  C1' OXE d   1      -2.228   2.267   0.958  0.00  0.00     0.078 C 
ATOM      3  C1  OXE d   1      -1.035   1.511   0.428  0.00  0.00    -0.078 A 
ATOM      4  C2  OXE d   1      -0.391   2.033  -0.668  0.00  0.00    -0.078 A 
ATOM      5  C3  OXE d   1       0.747   1.403  -1.162  0.00  0.00     0.003 A 
ATOM      6  C4  OXE d   1       1.151   0.164  -0.651  0.00  0.00    -0.002 A 
ATOM      7  C5  OXE d   1       0.485  -0.405   0.439  0.00  0.00    -0.002 A 
ATOM      8  C6  OXE d   1      -0.582   0.275   1.017  0.00  0.00     0.003 A 
ENDROOT
TORSDOF 0
ENDMDL
