MODEL 1
REMARK minimizedAffinity -6.2035923
REMARK minimizedRMSD -1
REMARK  0 active torsions:
REMARK  status: ('A' for Active; 'I' for Inactive)
ROOT
ATOM      1  C2' OXE d   1      -0.045   0.005   1.357  0.00  0.00     0.078 C 
ATOM      2  C1' OXE d   1       1.015   1.338  -0.875  0.00  0.00     0.078 C 
ATOM      3  C1  OXE d   1      -0.164   1.966  -0.175  0.00  0.00    -0.078 A 
ATOM      4  C2  OXE d   1      -0.705   1.283   0.888  0.00  0.00    -0.078 A 
ATOM      5  C3  OXE d   1      -1.759   1.845   1.603  0.00  0.00     0.003 A 
ATOM      6  C4  OXE d   1      -2.371   3.023   1.157  0.00  0.00    -0.002 A 
ATOM      7  C5  OXE d   1      -1.860   3.713   0.053  0.00  0.00    -0.002 A 
ATOM      8  C6  OXE d   1      -0.734   3.222  -0.597  0.00  0.00     0.003 A 
ENDROOT
TORSDOF 0
ENDMDL
