MODEL 1
REMARK minimizedAffinity -1.82401001
REMARK minimizedRMSD -1
REMARK  0 active torsions:
REMARK  status: ('A' for Active; 'I' for Inactive)
ROOT
ATOM      1  C2' OXE d   1      -0.696   3.350   1.136  0.00  0.00     0.078 C 
ATOM      2  C1' OXE d   1       0.443   2.234  -1.175  0.00  0.00     0.078 C 
ATOM      3  C1  OXE d   1      -0.009   1.291  -0.087  0.00  0.00    -0.078 A 
ATOM      4  C2  OXE d   1      -0.522   1.848   1.059  0.00  0.00    -0.078 A 
ATOM      5  C3  OXE d   1      -1.004   1.022   2.071  0.00  0.00     0.003 A 
ATOM      6  C4  OXE d   1      -0.831  -0.365   1.996  0.00  0.00    -0.002 A 
ATOM      7  C5  OXE d   1      -0.274  -0.950   0.854  0.00  0.00    -0.002 A 
ATOM      8  C6  OXE d   1       0.102  -0.141  -0.212  0.00  0.00     0.003 A 
ENDROOT
TORSDOF 0
ENDMDL
