MODEL 1
REMARK minimizedAffinity -2.50103045
REMARK minimizedRMSD -1
REMARK  0 active torsions:
REMARK  status: ('A' for Active; 'I' for Inactive)
ROOT
ATOM      1  C2' OXE d   1       1.017  -0.708  -0.839  0.00  0.00     0.078 C 
ATOM      2  C1' OXE d   1      -0.502  -1.036   1.498  0.00  0.00     0.078 C 
ATOM      3  C1  OXE d   1      -0.474   0.332   0.864  0.00  0.00    -0.078 A 
ATOM      4  C2  OXE d   1       0.309   0.495  -0.253  0.00  0.00    -0.078 A 
ATOM      5  C3  OXE d   1       0.328   1.722  -0.910  0.00  0.00     0.003 A 
ATOM      6  C4  OXE d   1      -0.322   2.832  -0.356  0.00  0.00    -0.002 A 
ATOM      7  C5  OXE d   1      -1.093   2.698   0.804  0.00  0.00    -0.002 A 
ATOM      8  C6  OXE d   1      -1.214   1.447   1.400  0.00  0.00     0.003 A 
ENDROOT
TORSDOF 0
ENDMDL
