MODEL 1
REMARK minimizedAffinity -5.44732237
REMARK minimizedRMSD -1
REMARK  0 active torsions:
REMARK  status: ('A' for Active; 'I' for Inactive)
ROOT
ATOM      1  C2' OXE d   1       0.342   1.725  -1.433  0.00  0.00     0.078 C 
ATOM      2  C1' OXE d   1       0.559  -0.087   0.700  0.00  0.00     0.078 C 
ATOM      3  C1  OXE d   1       0.601  -0.643  -0.701  0.00  0.00    -0.078 A 
ATOM      4  C2  OXE d   1       0.447   0.246  -1.738  0.00  0.00    -0.078 A 
ATOM      5  C3  OXE d   1       0.533  -0.206  -3.052  0.00  0.00     0.003 A 
ATOM      6  C4  OXE d   1       0.620  -1.576  -3.326  0.00  0.00    -0.002 A 
ATOM      7  C5  OXE d   1       0.737  -2.503  -2.284  0.00  0.00    -0.002 A 
ATOM      8  C6  OXE d   1       0.772  -2.049  -0.970  0.00  0.00     0.003 A 
ENDROOT
TORSDOF 0
ENDMDL
