MODEL 1
REMARK minimizedAffinity -4.46738577
REMARK minimizedRMSD -1
REMARK  0 active torsions:
REMARK  status: ('A' for Active; 'I' for Inactive)
ROOT
ATOM      1  C2' OXE d   1       0.323  -0.787  -0.989  0.00  0.00     0.078 C 
ATOM      2  C1' OXE d   1       0.021  -0.920   1.799  0.00  0.00     0.078 C 
ATOM      3  C1  OXE d   1      -0.648   0.220   1.072  0.00  0.00    -0.078 A 
ATOM      4  C2  OXE d   1      -0.456   0.303  -0.286  0.00  0.00    -0.078 A 
ATOM      5  C3  OXE d   1      -1.096   1.304  -1.012  0.00  0.00     0.003 A 
ATOM      6  C4  OXE d   1      -1.807   2.314  -0.353  0.00  0.00    -0.002 A 
ATOM      7  C5  OXE d   1      -1.981   2.270   1.035  0.00  0.00    -0.002 A 
ATOM      8  C6  OXE d   1      -1.445   1.209   1.755  0.00  0.00     0.003 A 
ENDROOT
TORSDOF 0
ENDMDL
