MODEL 1
REMARK minimizedAffinity -5.51197958
REMARK minimizedRMSD -1
REMARK  0 active torsions:
REMARK  status: ('A' for Active; 'I' for Inactive)
ROOT
ATOM      1  C2' OXE d   1      -2.279   4.411   0.972  0.00  0.00     0.078 C 
ATOM      2  C1' OXE d   1      -0.235   3.801  -0.853  0.00  0.00     0.078 C 
ATOM      3  C1  OXE d   1      -0.762   2.684   0.012  0.00  0.00    -0.078 A 
ATOM      4  C2  OXE d   1      -1.730   3.001   0.935  0.00  0.00    -0.078 A 
ATOM      5  C3  OXE d   1      -2.289   1.998   1.721  0.00  0.00     0.003 A 
ATOM      6  C4  OXE d   1      -1.769   0.698   1.687  0.00  0.00    -0.002 A 
ATOM      7  C5  OXE d   1      -0.756   0.362   0.783  0.00  0.00    -0.002 A 
ATOM      8  C6  OXE d   1      -0.272   1.331  -0.090  0.00  0.00     0.003 A 
ENDROOT
TORSDOF 0
ENDMDL
