MODEL 1
REMARK minimizedAffinity -4.04344893
REMARK minimizedRMSD -1
REMARK  0 active torsions:
REMARK  status: ('A' for Active; 'I' for Inactive)
ROOT
ATOM      1  C2' OXE d   1       0.074  -0.188   0.047  0.00  0.00     0.078 C 
ATOM      2  C1' OXE d   1       0.912   2.041  -1.440  0.00  0.00     0.078 C 
ATOM      3  C1  OXE d   1      -0.192   2.242  -0.432  0.00  0.00    -0.078 A 
ATOM      4  C2  OXE d   1      -0.627   1.136   0.259  0.00  0.00    -0.078 A 
ATOM      5  C3  OXE d   1      -1.605   1.277   1.239  0.00  0.00     0.003 A 
ATOM      6  C4  OXE d   1      -2.255   2.503   1.421  0.00  0.00    -0.002 A 
ATOM      7  C5  OXE d   1      -1.854   3.633   0.701  0.00  0.00    -0.002 A 
ATOM      8  C6  OXE d   1      -0.798   3.529  -0.197  0.00  0.00     0.003 A 
ENDROOT
TORSDOF 0
ENDMDL
