MODEL 1
REMARK minimizedAffinity -4.71443367
REMARK minimizedRMSD -1
REMARK  0 active torsions:
REMARK  status: ('A' for Active; 'I' for Inactive)
ROOT
ATOM      1  C2' OXE d   1      -1.102   0.607   2.099  0.00  0.00     0.078 C 
ATOM      2  C1' OXE d   1       0.318  -0.353  -0.124  0.00  0.00     0.078 C 
ATOM      3  C1  OXE d   1       0.133   1.139   0.002  0.00  0.00    -0.078 A 
ATOM      4  C2  OXE d   1      -0.604   1.596   1.068  0.00  0.00    -0.078 A 
ATOM      5  C3  OXE d   1      -0.758   2.966   1.262  0.00  0.00     0.003 A 
ATOM      6  C4  OXE d   1      -0.302   3.874   0.299  0.00  0.00    -0.002 A 
ATOM      7  C5  OXE d   1       0.416   3.426  -0.816  0.00  0.00    -0.002 A 
ATOM      8  C6  OXE d   1       0.678   2.068  -0.956  0.00  0.00     0.003 A 
ENDROOT
TORSDOF 0
ENDMDL
