MODEL 1
REMARK minimizedAffinity -3.81659484
REMARK minimizedRMSD -1
REMARK  0 active torsions:
REMARK  status: ('A' for Active; 'I' for Inactive)
ROOT
ATOM      1  C2' OXE d   1       0.425   2.816  -0.990  0.00  0.00     0.078 C 
ATOM      2  C1' OXE d   1      -1.131   3.139   1.324  0.00  0.00     0.078 C 
ATOM      3  C1  OXE d   1      -0.525   1.782   1.067  0.00  0.00    -0.078 A 
ATOM      4  C2  OXE d   1       0.196   1.620  -0.091  0.00  0.00    -0.078 A 
ATOM      5  C3  OXE d   1       0.822   0.404  -0.350  0.00  0.00     0.003 A 
ATOM      6  C4  OXE d   1       0.597  -0.699   0.482  0.00  0.00    -0.002 A 
ATOM      7  C5  OXE d   1      -0.167  -0.567   1.646  0.00  0.00    -0.002 A 
ATOM      8  C6  OXE d   1      -0.699   0.675   1.975  0.00  0.00     0.003 A 
ENDROOT
TORSDOF 0
ENDMDL
