MODEL 1
REMARK minimizedAffinity 6.23717642
REMARK minimizedRMSD -1
REMARK  0 active torsions:
REMARK  status: ('A' for Active; 'I' for Inactive)
ROOT
ATOM      1  N1  IND d   1       1.091   4.425  -5.735  0.00  0.00    -0.196 N 
ATOM      2  C2  IND d   1       1.434   5.721  -6.000  0.00  0.00     0.054 A 
ATOM      3  C3  IND d   1       2.652   6.000  -5.485  0.00  0.00    -0.031 A 
ATOM      4  C4  IND d   1       4.303   4.451  -4.260  0.00  0.00     0.051 A 
ATOM      5  C5  IND d   1       4.420   3.188  -3.751  0.00  0.00    -0.031 A 
ATOM      6  C6  IND d   1       3.414   2.253  -3.883  0.00  0.00     0.015 A 
ATOM      7  C7  IND d   1       2.253   2.544  -4.541  0.00  0.00    -0.016 A 
ATOM      8  C8  IND d   1       2.128   3.828  -5.053  0.00  0.00    -0.047 A 
ATOM      9  C9  IND d   1       3.128   4.794  -4.885  0.00  0.00    -0.096 A 
ATOM     10  HN1 IND d   1       0.352   4.046  -5.958  0.00  0.00     0.298 HD
ENDROOT
TORSDOF 0
ENDMDL
