MODEL 1
REMARK minimizedAffinity 10.6050653
REMARK minimizedRMSD -1
REMARK  0 active torsions:
REMARK  status: ('A' for Active; 'I' for Inactive)
ROOT
ATOM      1  N1  IND d   1      -5.841   0.528   5.999  0.00  0.00    -0.196 N 
ATOM      2  C2  IND d   1      -5.935  -0.413   5.011  0.00  0.00     0.054 A 
ATOM      3  C3  IND d   1      -5.681   0.143   3.806  0.00  0.00    -0.031 A 
ATOM      4  C4  IND d   1      -4.988   2.555   3.231  0.00  0.00     0.051 A 
ATOM      5  C5  IND d   1      -4.806   3.787   3.794  0.00  0.00    -0.031 A 
ATOM      6  C6  IND d   1      -4.960   3.999   5.149  0.00  0.00     0.015 A 
ATOM      7  C7  IND d   1      -5.292   2.980   5.996  0.00  0.00    -0.016 A 
ATOM      8  C8  IND d   1      -5.485   1.729   5.427  0.00  0.00    -0.047 A 
ATOM      9  C9  IND d   1      -5.372   1.517   4.047  0.00  0.00    -0.096 A 
ATOM     10  HN1 IND d   1      -5.980   0.392   6.836  0.00  0.00     0.298 HD
ENDROOT
TORSDOF 0
ENDMDL
