MODEL 1
REMARK minimizedAffinity 15.8843975
REMARK minimizedRMSD -1
REMARK  0 active torsions:
REMARK  status: ('A' for Active; 'I' for Inactive)
ROOT
ATOM      1  N1  IND d   1      -0.136  -2.759   1.001  0.00  0.00    -0.196 N 
ATOM      2  C2  IND d   1      -0.956  -1.822   0.438  0.00  0.00     0.054 A 
ATOM      3  C3  IND d   1      -2.222  -2.290   0.361  0.00  0.00    -0.031 A 
ATOM      4  C4  IND d   1      -3.192  -4.525   1.191  0.00  0.00     0.051 A 
ATOM      5  C5  IND d   1      -2.825  -5.722   1.740  0.00  0.00    -0.031 A 
ATOM      6  C6  IND d   1      -1.516  -5.996   2.080  0.00  0.00     0.015 A 
ATOM      7  C7  IND d   1      -0.523  -5.076   1.893  0.00  0.00    -0.016 A 
ATOM      8  C8  IND d   1      -0.892  -3.863   1.329  0.00  0.00    -0.047 A 
ATOM      9  C9  IND d   1      -2.211  -3.595   0.943  0.00  0.00    -0.096 A 
ATOM     10  HN1 IND d   1       0.710  -2.674   1.128  0.00  0.00     0.298 HD
ENDROOT
TORSDOF 0
ENDMDL
