MODEL 1
REMARK minimizedAffinity 15.9646683
REMARK minimizedRMSD -1
REMARK  0 active torsions:
REMARK  status: ('A' for Active; 'I' for Inactive)
ROOT
ATOM      1  N1  IND d   1       1.638   0.645   2.057  0.00  0.00    -0.196 N 
ATOM      2  C2  IND d   1       0.829   1.719   1.810  0.00  0.00     0.054 A 
ATOM      3  C3  IND d   1       1.341   2.474   0.813  0.00  0.00    -0.031 A 
ATOM      4  C4  IND d   1       3.440   2.081  -0.624  0.00  0.00     0.051 A 
ATOM      5  C5  IND d   1       4.520   1.253  -0.750  0.00  0.00    -0.031 A 
ATOM      6  C6  IND d   1       4.697   0.156   0.069  0.00  0.00     0.015 A 
ATOM      7  C7  IND d   1       3.790  -0.162   1.040  0.00  0.00    -0.016 A 
ATOM      8  C8  IND d   1       2.695   0.681   1.175  0.00  0.00    -0.047 A 
ATOM      9  C9  IND d   1       2.533   1.820   0.375  0.00  0.00    -0.096 A 
ATOM     10  HN1 IND d   1       1.508   0.047   2.661  0.00  0.00     0.298 HD
ENDROOT
TORSDOF 0
ENDMDL
