MODEL 1
REMARK minimizedAffinity 3.18710136
REMARK minimizedRMSD -1
REMARK  0 active torsions:
REMARK  status: ('A' for Active; 'I' for Inactive)
ROOT
ATOM      1  N1  IND d   1      -4.853   3.788   4.258  0.00  0.00    -0.196 N 
ATOM      2  C2  IND d   1      -5.436   4.094   5.456  0.00  0.00     0.054 A 
ATOM      3  C3  IND d   1      -6.000   2.992   5.999  0.00  0.00    -0.031 A 
ATOM      4  C4  IND d   1      -5.999   0.564   5.145  0.00  0.00     0.051 A 
ATOM      5  C5  IND d   1      -5.625  -0.202   4.077  0.00  0.00    -0.031 A 
ATOM      6  C6  IND d   1      -4.958   0.333   2.994  0.00  0.00     0.015 A 
ATOM      7  C7  IND d   1      -4.630   1.658   2.944  0.00  0.00    -0.016 A 
ATOM      8  C8  IND d   1      -5.014   2.441   4.023  0.00  0.00    -0.047 A 
ATOM      9  C9  IND d   1      -5.729   1.911   5.106  0.00  0.00    -0.096 A 
ATOM     10  HN1 IND d   1      -4.453   4.344   3.738  0.00  0.00     0.298 HD
ENDROOT
TORSDOF 0
ENDMDL
