MODEL 1
REMARK minimizedAffinity 23.913126
REMARK minimizedRMSD -1
REMARK  0 active torsions:
REMARK  status: ('A' for Active; 'I' for Inactive)
ROOT
ATOM      1  N1  IND d   1      -5.303   1.365   6.000  0.00  0.00    -0.196 N 
ATOM      2  C2  IND d   1      -5.858   0.116   5.969  0.00  0.00     0.054 A 
ATOM      3  C3  IND d   1      -5.507  -0.526   4.832  0.00  0.00    -0.031 A 
ATOM      4  C4  IND d   1      -3.949   0.244   2.932  0.00  0.00     0.051 A 
ATOM      5  C5  IND d   1      -3.234   1.324   2.497  0.00  0.00    -0.031 A 
ATOM      6  C6  IND d   1      -3.168   2.496   3.223  0.00  0.00     0.015 A 
ATOM      7  C7  IND d   1      -3.809   2.627   4.422  0.00  0.00    -0.016 A 
ATOM      8  C8  IND d   1      -4.542   1.535   4.864  0.00  0.00    -0.047 A 
ATOM      9  C9  IND d   1      -4.647   0.359   4.111  0.00  0.00    -0.096 A 
ATOM     10  HN1 IND d   1      -5.411   1.947   6.624  0.00  0.00     0.298 HD
ENDROOT
TORSDOF 0
ENDMDL
