MODEL 1
REMARK minimizedAffinity 22.560379
REMARK minimizedRMSD -1
REMARK  0 active torsions:
REMARK  status: ('A' for Active; 'I' for Inactive)
ROOT
ATOM      1  N1  IND d   1       0.970  -0.102   3.643  0.00  0.00    -0.196 N 
ATOM      2  C2  IND d   1      -0.171  -0.137   4.394  0.00  0.00     0.054 A 
ATOM      3  C3  IND d   1      -0.909   0.976   4.182  0.00  0.00    -0.031 A 
ATOM      4  C4  IND d   1      -0.483   2.937   2.569  0.00  0.00     0.051 A 
ATOM      5  C5  IND d   1       0.447   3.434   1.700  0.00  0.00    -0.031 A 
ATOM      6  C6  IND d   1       1.621   2.763   1.426  0.00  0.00     0.015 A 
ATOM      7  C7  IND d   1       1.906   1.559   2.006  0.00  0.00    -0.016 A 
ATOM      8  C8  IND d   1       0.967   1.055   2.895  0.00  0.00    -0.047 A 
ATOM      9  C9  IND d   1      -0.207   1.751   3.209  0.00  0.00    -0.096 A 
ATOM     10  HN1 IND d   1       1.587  -0.701   3.639  0.00  0.00     0.298 HD
ENDROOT
TORSDOF 0
ENDMDL
