MODEL 1
REMARK minimizedAffinity 22.0817566
REMARK minimizedRMSD -1
REMARK  0 active torsions:
REMARK  status: ('A' for Active; 'I' for Inactive)
ROOT
ATOM      1  N1  IND d   1      -4.410   2.508   2.647  0.00  0.00    -0.196 N 
ATOM      2  C2  IND d   1      -3.637   2.022   3.665  0.00  0.00     0.054 A 
ATOM      3  C3  IND d   1      -2.391   2.541   3.598  0.00  0.00    -0.031 A 
ATOM      4  C4  IND d   1      -1.429   4.281   1.962  0.00  0.00     0.051 A 
ATOM      5  C5  IND d   1      -1.743   4.991   0.837  0.00  0.00    -0.031 A 
ATOM      6  C6  IND d   1      -2.988   4.910   0.248  0.00  0.00     0.015 A 
ATOM      7  C7  IND d   1      -3.973   4.121   0.770  0.00  0.00    -0.016 A 
ATOM      8  C8  IND d   1      -3.656   3.393   1.908  0.00  0.00    -0.047 A 
ATOM      9  C9  IND d   1      -2.381   3.439   2.486  0.00  0.00    -0.096 A 
ATOM     10  HN1 IND d   1      -5.229   2.296   2.494  0.00  0.00     0.298 HD
ENDROOT
TORSDOF 0
ENDMDL
