MODEL 1
REMARK minimizedAffinity 8.74635601
REMARK minimizedRMSD -1
REMARK  0 active torsions:
REMARK  status: ('A' for Active; 'I' for Inactive)
ROOT
ATOM      1  N1  IND d   1      -1.021   2.641  -1.719  0.00  0.00    -0.196 N 
ATOM      2  C2  IND d   1      -2.079   3.503  -1.636  0.00  0.00     0.054 A 
ATOM      3  C3  IND d   1      -2.001   4.236  -0.503  0.00  0.00    -0.031 A 
ATOM      4  C4  IND d   1      -0.170   4.259   1.307  0.00  0.00     0.051 A 
ATOM      5  C5  IND d   1       0.978   3.622   1.687  0.00  0.00    -0.031 A 
ATOM      6  C6  IND d   1       1.530   2.606   0.934  0.00  0.00     0.015 A 
ATOM      7  C7  IND d   1       0.959   2.196  -0.237  0.00  0.00    -0.016 A 
ATOM      8  C8  IND d   1      -0.210   2.836  -0.622  0.00  0.00    -0.047 A 
ATOM      9  C9  IND d   1      -0.799   3.839   0.159  0.00  0.00    -0.096 A 
ATOM     10  HN1 IND d   1      -0.885   2.073  -2.349  0.00  0.00     0.298 HD
ENDROOT
TORSDOF 0
ENDMDL
