MODEL 1
REMARK minimizedAffinity 18.2804165
REMARK minimizedRMSD -1
REMARK  0 active torsions:
REMARK  status: ('A' for Active; 'I' for Inactive)
ROOT
ATOM      1  N1  IND d   1      -4.249  -4.779   1.080  0.00  0.00    -0.196 N 
ATOM      2  C2  IND d   1      -3.901  -5.999   1.590  0.00  0.00     0.054 A 
ATOM      3  C3  IND d   1      -2.602  -5.999   1.964  0.00  0.00    -0.031 A 
ATOM      4  C4  IND d   1      -0.888  -4.079   1.924  0.00  0.00     0.051 A 
ATOM      5  C5  IND d   1      -0.729  -2.786   1.511  0.00  0.00    -0.031 A 
ATOM      6  C6  IND d   1      -1.756  -2.076   0.924  0.00  0.00     0.015 A 
ATOM      7  C7  IND d   1      -2.990  -2.632   0.737  0.00  0.00    -0.016 A 
ATOM      8  C8  IND d   1      -3.153  -3.947   1.149  0.00  0.00    -0.047 A 
ATOM      9  C9  IND d   1      -2.102  -4.686   1.707  0.00  0.00    -0.096 A 
ATOM     10  HN1 IND d   1      -5.022  -4.568   0.768  0.00  0.00     0.298 HD
ENDROOT
TORSDOF 0
ENDMDL
