MODEL 1
REMARK minimizedAffinity 21.3405685
REMARK minimizedRMSD -1
REMARK  0 active torsions:
REMARK  status: ('A' for Active; 'I' for Inactive)
ROOT
ATOM      1  N1  IND d   1      -0.858  -2.509   1.588  0.00  0.00    -0.196 N 
ATOM      2  C2  IND d   1      -1.833  -1.728   1.033  0.00  0.00     0.054 A 
ATOM      3  C3  IND d   1      -2.979  -2.433   0.895  0.00  0.00    -0.031 A 
ATOM      4  C4  IND d   1      -3.507  -4.850   1.606  0.00  0.00     0.051 A 
ATOM      5  C5  IND d   1      -2.923  -5.973   2.121  0.00  0.00    -0.031 A 
ATOM      6  C6  IND d   1      -1.595  -5.999   2.495  0.00  0.00     0.015 A 
ATOM      7  C7  IND d   1      -0.801  -4.893   2.377  0.00  0.00    -0.016 A 
ATOM      8  C8  IND d   1      -1.388  -3.753   1.848  0.00  0.00    -0.047 A 
ATOM      9  C9  IND d   1      -2.724  -3.734   1.427  0.00  0.00    -0.096 A 
ATOM     10  HN1 IND d   1      -0.049  -2.264   1.747  0.00  0.00     0.298 HD
ENDROOT
TORSDOF 0
ENDMDL
