MODEL 1
REMARK minimizedAffinity 18.0261421
REMARK minimizedRMSD -1
REMARK  0 active torsions:
REMARK  status: ('A' for Active; 'I' for Inactive)
ROOT
ATOM      1  N1  IND d   1       0.498   4.604  -2.506  0.00  0.00    -0.196 N 
ATOM      2  C2  IND d   1       0.976   3.398  -2.074  0.00  0.00     0.054 A 
ATOM      3  C3  IND d   1       0.181   2.900  -1.100  0.00  0.00    -0.031 A 
ATOM      4  C4  IND d   1      -2.008   3.846  -0.132  0.00  0.00     0.051 A 
ATOM      5  C5  IND d   1      -2.825   4.940  -0.184  0.00  0.00    -0.031 A 
ATOM      6  C6  IND d   1      -2.572   5.999  -1.032  0.00  0.00     0.015 A 
ATOM      7  C7  IND d   1      -1.494   5.997  -1.872  0.00  0.00    -0.016 A 
ATOM      8  C8  IND d   1      -0.659   4.891  -1.816  0.00  0.00    -0.047 A 
ATOM      9  C9  IND d   1      -0.887   3.832  -0.927  0.00  0.00    -0.096 A 
ATOM     10  HN1 IND d   1       0.860   5.100  -3.108  0.00  0.00     0.298 HD
ENDROOT
TORSDOF 0
ENDMDL
