MODEL 1
REMARK minimizedAffinity 17.2095509
REMARK minimizedRMSD -1
REMARK  0 active torsions:
REMARK  status: ('A' for Active; 'I' for Inactive)
ROOT
ATOM      1  N1  IND d   1      -5.374  -3.793  -2.617  0.00  0.00    -0.196 N 
ATOM      2  C2  IND d   1      -6.000  -4.962  -2.287  0.00  0.00     0.054 A 
ATOM      3  C3  IND d   1      -5.138  -6.000  -2.380  0.00  0.00    -0.031 A 
ATOM      4  C4  IND d   1      -2.629  -5.995  -2.958  0.00  0.00     0.051 A 
ATOM      5  C5  IND d   1      -1.620  -5.170  -3.369  0.00  0.00    -0.031 A 
ATOM      6  C6  IND d   1      -1.814  -3.816  -3.551  0.00  0.00     0.015 A 
ATOM      7  C7  IND d   1      -3.027  -3.232  -3.317  0.00  0.00    -0.016 A 
ATOM      8  C8  IND d   1      -4.056  -4.068  -2.907  0.00  0.00    -0.047 A 
ATOM      9  C9  IND d   1      -3.876  -5.449  -2.761  0.00  0.00    -0.096 A 
ATOM     10  HN1 IND d   1      -5.742  -3.016  -2.640  0.00  0.00     0.298 HD
ENDROOT
TORSDOF 0
ENDMDL
