MODEL 1
REMARK minimizedAffinity 27.680851
REMARK minimizedRMSD -1
REMARK  0 active torsions:
REMARK  status: ('A' for Active; 'I' for Inactive)
ROOT
ATOM      1  N1  IND d   1      -5.002  -2.971  -4.115  0.00  0.00    -0.196 N 
ATOM      2  C2  IND d   1      -3.793  -2.342  -4.013  0.00  0.00     0.054 A 
ATOM      3  C3  IND d   1      -3.015  -2.964  -3.099  0.00  0.00    -0.031 A 
ATOM      4  C4  IND d   1      -3.486  -5.091  -1.726  0.00  0.00     0.051 A 
ATOM      5  C5  IND d   1      -4.469  -5.999  -1.451  0.00  0.00    -0.031 A 
ATOM      6  C6  IND d   1      -5.705  -5.945  -2.064  0.00  0.00     0.015 A 
ATOM      7  C7  IND d   1      -6.000  -4.983  -2.988  0.00  0.00    -0.016 A 
ATOM      8  C8  IND d   1      -5.006  -4.055  -3.265  0.00  0.00    -0.047 A 
ATOM      9  C9  IND d   1      -3.766  -4.079  -2.615  0.00  0.00    -0.096 A 
ATOM     10  HN1 IND d   1      -5.651  -2.730  -4.625  0.00  0.00     0.298 HD
ENDROOT
TORSDOF 0
ENDMDL
