MODEL 1
REMARK minimizedAffinity 19.4481354
REMARK minimizedRMSD -1
REMARK  0 active torsions:
REMARK  status: ('A' for Active; 'I' for Inactive)
ROOT
ATOM      1  N1  IND d   1      -1.585  -4.914   3.671  0.00  0.00    -0.196 N 
ATOM      2  C2  IND d   1      -2.032  -5.921   2.862  0.00  0.00     0.054 A 
ATOM      3  C3  IND d   1      -2.176  -5.476   1.593  0.00  0.00    -0.031 A 
ATOM      4  C4  IND d   1      -1.639  -3.161   0.601  0.00  0.00     0.051 A 
ATOM      5  C5  IND d   1      -1.242  -1.903   0.957  0.00  0.00    -0.031 A 
ATOM      6  C6  IND d   1      -0.930  -1.578   2.261  0.00  0.00     0.015 A 
ATOM      7  C7  IND d   1      -0.993  -2.507   3.261  0.00  0.00    -0.016 A 
ATOM      8  C8  IND d   1      -1.403  -3.784   2.905  0.00  0.00    -0.047 A 
ATOM      9  C9  IND d   1      -1.762  -4.108   1.591  0.00  0.00    -0.096 A 
ATOM     10  HN1 IND d   1      -1.442  -4.976   4.517  0.00  0.00     0.298 HD
ENDROOT
TORSDOF 0
ENDMDL
