MODEL 1
REMARK minimizedAffinity 18.3844299
REMARK minimizedRMSD -1
REMARK  0 active torsions:
REMARK  status: ('A' for Active; 'I' for Inactive)
ROOT
ATOM      1  N1  IND d   1      -4.738  -3.000  -5.232  0.00  0.00    -0.196 N 
ATOM      2  C2  IND d   1      -6.000  -3.211  -4.751  0.00  0.00     0.054 A 
ATOM      3  C3  IND d   1      -5.999  -3.174  -3.399  0.00  0.00    -0.031 A 
ATOM      4  C4  IND d   1      -4.062  -2.682  -1.777  0.00  0.00     0.051 A 
ATOM      5  C5  IND d   1      -2.713  -2.464  -1.745  0.00  0.00    -0.031 A 
ATOM      6  C6  IND d   1      -1.955  -2.410  -2.897  0.00  0.00     0.015 A 
ATOM      7  C7  IND d   1      -2.523  -2.561  -4.130  0.00  0.00    -0.016 A 
ATOM      8  C8  IND d   1      -3.891  -2.789  -4.166  0.00  0.00    -0.047 A 
ATOM      9  C9  IND d   1      -4.658  -2.888  -2.999  0.00  0.00    -0.096 A 
ATOM     10  HN1 IND d   1      -4.511  -2.998  -6.062  0.00  0.00     0.298 HD
ENDROOT
TORSDOF 0
ENDMDL
