MODEL 1
REMARK minimizedAffinity 11.4295015
REMARK minimizedRMSD -1
REMARK  0 active torsions:
REMARK  status: ('A' for Active; 'I' for Inactive)
ROOT
ATOM      1  N1  IND d   1      -3.426  -2.398  -3.100  0.00  0.00    -0.196 N 
ATOM      2  C2  IND d   1      -2.406  -2.608  -2.215  0.00  0.00     0.054 A 
ATOM      3  C3  IND d   1      -2.536  -3.818  -1.626  0.00  0.00    -0.031 A 
ATOM      4  C4  IND d   1      -4.287  -5.659  -2.039  0.00  0.00     0.051 A 
ATOM      5  C5  IND d   1      -5.439  -5.914  -2.729  0.00  0.00    -0.031 A 
ATOM      6  C6  IND d   1      -5.988  -4.993  -3.598  0.00  0.00     0.015 A 
ATOM      7  C7  IND d   1      -5.397  -3.781  -3.818  0.00  0.00    -0.016 A 
ATOM      8  C8  IND d   1      -4.232  -3.516  -3.114  0.00  0.00    -0.047 A 
ATOM      9  C9  IND d   1      -3.693  -4.429  -2.199  0.00  0.00    -0.096 A 
ATOM     10  HN1 IND d   1      -3.545  -1.687  -3.569  0.00  0.00     0.298 HD
ENDROOT
TORSDOF 0
ENDMDL
