MODEL 1
REMARK minimizedAffinity -0.489731759
REMARK minimizedRMSD -1
REMARK  0 active torsions:
REMARK  status: ('A' for Active; 'I' for Inactive)
ROOT
ATOM      1  C   UNL d   1       0.312   3.779   0.380  0.00  0.00     0.020 A 
ATOM      2  C1  UNL d   1       0.739   3.632   1.699  0.00  0.00     0.020 A 
ATOM      3  C2  UNL d   1       0.974   2.357   2.218  0.00  0.00     0.034 A 
ATOM      4  C3  UNL d   1       0.782   1.224   1.419  0.00  0.00     0.017 A 
ATOM      5  C4  UNL d   1       0.353   1.373   0.095  0.00  0.00     0.017 A 
ATOM      6  C5  UNL d   1       0.119   2.652  -0.420  0.00  0.00     0.034 A 
ATOM      7 Cl   UNL d   1       0.093   0.023  -0.952  0.00  0.00    -0.070 Cl
ATOM      8 Cl1  UNL d   1       1.092  -0.321   2.127  0.00  0.00    -0.070 Cl
ENDROOT
TORSDOF 0
ENDMDL
