MODEL 1
REMARK minimizedAffinity -5.20640326
REMARK minimizedRMSD -1
REMARK  0 active torsions:
REMARK  status: ('A' for Active; 'I' for Inactive)
ROOT
ATOM      1  C   UNL d   1      -1.857   3.775   2.438  0.00  0.00     0.020 A 
ATOM      2  C1  UNL d   1      -1.992   4.327   1.165  0.00  0.00     0.020 A 
ATOM      3  C2  UNL d   1      -1.407   3.697   0.065  0.00  0.00     0.034 A 
ATOM      4  C3  UNL d   1      -0.683   2.511   0.236  0.00  0.00     0.017 A 
ATOM      5  C4  UNL d   1      -0.547   1.958   1.514  0.00  0.00     0.017 A 
ATOM      6  C5  UNL d   1      -1.136   2.593   2.612  0.00  0.00     0.034 A 
ATOM      7 Cl   UNL d   1       0.331   0.498   1.804  0.00  0.00    -0.070 Cl
ATOM      8 Cl1  UNL d   1       0.015   1.786  -1.169  0.00  0.00    -0.070 Cl
ENDROOT
TORSDOF 0
ENDMDL
