MODEL 1
REMARK minimizedAffinity 5.00741816
REMARK minimizedRMSD -1
REMARK  0 active torsions:
REMARK  status: ('A' for Active; 'I' for Inactive)
ROOT
ATOM      1  C   UNL d   1      -1.405   4.449  -0.312  0.00  0.00     0.020 A 
ATOM      2  C1  UNL d   1      -0.893   4.065  -1.551  0.00  0.00     0.020 A 
ATOM      3  C2  UNL d   1      -0.235   2.841  -1.685  0.00  0.00     0.034 A 
ATOM      4  C3  UNL d   1      -0.087   1.996  -0.579  0.00  0.00     0.017 A 
ATOM      5  C4  UNL d   1      -0.601   2.383   0.664  0.00  0.00     0.017 A 
ATOM      6  C5  UNL d   1      -1.259   3.610   0.793  0.00  0.00     0.034 A 
ATOM      7 Cl   UNL d   1      -0.457   1.394   2.075  0.00  0.00    -0.070 Cl
ATOM      8 Cl1  UNL d   1       0.738   0.497  -0.817  0.00  0.00    -0.070 Cl
ENDROOT
TORSDOF 0
ENDMDL
