MODEL 1
REMARK minimizedAffinity 0.721434951
REMARK minimizedRMSD -1
REMARK  0 active torsions:
REMARK  status: ('A' for Active; 'I' for Inactive)
ROOT
ATOM      1  C   UNL d   1      -0.731   1.927   2.960  0.00  0.00     0.020 A 
ATOM      2  C1  UNL d   1      -0.225   1.187   1.893  0.00  0.00     0.020 A 
ATOM      3  C2  UNL d   1      -0.276   1.705   0.597  0.00  0.00     0.034 A 
ATOM      4  C3  UNL d   1      -0.834   2.968   0.366  0.00  0.00     0.017 A 
ATOM      5  C4  UNL d   1      -1.341   3.711   1.438  0.00  0.00     0.017 A 
ATOM      6  C5  UNL d   1      -1.288   3.186   2.733  0.00  0.00     0.034 A 
ATOM      7 Cl   UNL d   1      -2.044   5.276   1.231  0.00  0.00    -0.070 Cl
ATOM      8 Cl1  UNL d   1      -0.863   3.547  -1.262  0.00  0.00    -0.070 Cl
ENDROOT
TORSDOF 0
ENDMDL
