MODEL 1
REMARK minimizedAffinity -0.911299407
REMARK minimizedRMSD -1
REMARK  0 active torsions:
REMARK  status: ('A' for Active; 'I' for Inactive)
ROOT
ATOM      1  C   UNL d   1      -1.068   2.061  -2.394  0.00  0.00     0.020 A 
ATOM      2  C1  UNL d   1      -0.687   0.895  -1.731  0.00  0.00     0.020 A 
ATOM      3  C2  UNL d   1      -0.559   0.892  -0.341  0.00  0.00     0.034 A 
ATOM      4  C3  UNL d   1      -0.811   2.058   0.391  0.00  0.00     0.017 A 
ATOM      5  C4  UNL d   1      -1.193   3.228  -0.275  0.00  0.00     0.017 A 
ATOM      6  C5  UNL d   1      -1.320   3.225  -1.667  0.00  0.00     0.034 A 
ATOM      7 Cl   UNL d   1      -1.522   4.705   0.560  0.00  0.00    -0.070 Cl
ATOM      8 Cl1  UNL d   1      -0.633   1.983   2.108  0.00  0.00    -0.070 Cl
ENDROOT
TORSDOF 0
ENDMDL
