MODEL 1
REMARK minimizedAffinity 7.05516148
REMARK minimizedRMSD -1
REMARK  0 active torsions:
REMARK  status: ('A' for Active; 'I' for Inactive)
ROOT
ATOM      1  C   UNL d   1      -1.759   0.651   2.997  0.00  0.00     0.020 A 
ATOM      2  C1  UNL d   1      -0.506   0.297   3.497  0.00  0.00     0.020 A 
ATOM      3  C2  UNL d   1       0.612   1.078   3.195  0.00  0.00     0.034 A 
ATOM      4  C3  UNL d   1       0.479   2.216   2.392  0.00  0.00     0.017 A 
ATOM      5  C4  UNL d   1      -0.779   2.571   1.891  0.00  0.00     0.017 A 
ATOM      6  C5  UNL d   1      -1.895   1.785   2.196  0.00  0.00     0.034 A 
ATOM      7 Cl   UNL d   1      -1.021   3.961   0.894  0.00  0.00    -0.070 Cl
ATOM      8 Cl1  UNL d   1       1.904   3.136   2.060  0.00  0.00    -0.070 Cl
ENDROOT
TORSDOF 0
ENDMDL
