MODEL 1
REMARK minimizedAffinity -0.628175974
REMARK minimizedRMSD -1
REMARK  0 active torsions:
REMARK  status: ('A' for Active; 'I' for Inactive)
ROOT
ATOM      1  C   UNL d   1       1.624   4.258   1.282  0.00  0.00     0.020 A 
ATOM      2  C1  UNL d   1       1.566   3.673   2.546  0.00  0.00     0.020 A 
ATOM      3  C2  UNL d   1       0.399   3.030   2.965  0.00  0.00     0.034 A 
ATOM      4  C3  UNL d   1      -0.715   2.971   2.119  0.00  0.00     0.017 A 
ATOM      5  C4  UNL d   1      -0.655   3.559   0.850  0.00  0.00     0.017 A 
ATOM      6  C5  UNL d   1       0.516   4.202   0.436  0.00  0.00     0.034 A 
ATOM      7 Cl   UNL d   1      -1.988   3.527  -0.250  0.00  0.00    -0.070 Cl
ATOM      8 Cl1  UNL d   1      -2.125   2.160   2.701  0.00  0.00    -0.070 Cl
ENDROOT
TORSDOF 0
ENDMDL
