MODEL 1
REMARK minimizedAffinity 3.12507653
REMARK minimizedRMSD -1
REMARK  0 active torsions:
REMARK  status: ('A' for Active; 'I' for Inactive)
ROOT
ATOM      1  C   UNL d   1      -1.463   3.312   0.576  0.00  0.00     0.020 A 
ATOM      2  C1  UNL d   1      -1.498   2.709   1.832  0.00  0.00     0.020 A 
ATOM      3  C2  UNL d   1      -0.386   2.786   2.674  0.00  0.00     0.034 A 
ATOM      4  C3  UNL d   1       0.764   3.468   2.261  0.00  0.00     0.017 A 
ATOM      5  C4  UNL d   1       0.797   4.073   0.999  0.00  0.00     0.017 A 
ATOM      6  C5  UNL d   1      -0.318   3.993   0.160  0.00  0.00     0.034 A 
ATOM      7 Cl   UNL d   1       2.181   4.932   0.420  0.00  0.00    -0.070 Cl
ATOM      8 Cl1  UNL d   1       2.101   3.524   3.354  0.00  0.00    -0.070 Cl
ENDROOT
TORSDOF 0
ENDMDL
