MODEL 1
REMARK minimizedAffinity 0.809281588
REMARK minimizedRMSD -1
REMARK  3 active torsions:
REMARK  status: ('A' for Active; 'I' for Inactive)
REMARK    1  A    between atoms: C3'_2  and  C2'_3 
REMARK    2  A    between atoms: C2'_3  and  C1'_4 
REMARK    3  A    between atoms: C1'_4  and  C1_5 
ROOT
ATOM      1  C1  N4B d   1      -1.645   3.555   1.163  0.00  0.00    -0.075 A 
ATOM      2  C2  N4B d   1      -1.115   4.648   1.883  0.00  0.00     0.002 A 
ATOM      3  C3  N4B d   1      -1.909   5.340   2.763  0.00  0.00     0.002 A 
ATOM      4  C4  N4B d   1      -3.237   4.972   2.925  0.00  0.00    -0.004 A 
ATOM      5  C5  N4B d   1      -3.734   3.899   2.245  0.00  0.00     0.002 A 
ATOM      6  C6  N4B d   1      -2.946   3.191   1.360  0.00  0.00     0.002 A 
ENDROOT
BRANCH   1   7
ATOM      7  C1' N4B d   1      -0.839   2.821   0.126  0.00  0.00     0.057 C 
BRANCH   7   8
ATOM      8  C2' N4B d   1      -0.199   1.593   0.766  0.00  0.00     0.009 C 
BRANCH   8   9
ATOM      9  C3' N4B d   1       0.640   0.807  -0.227  0.00  0.00     0.004 C 
ATOM     10  C4' N4B d   1       2.112   1.040  -0.056  0.00  0.00     0.003 C 
ENDBRANCH   8   9
ENDBRANCH   7   8
ENDBRANCH   1   7
TORSDOF 3
ENDMDL
