MODEL 1
REMARK minimizedAffinity 6.07846355
REMARK minimizedRMSD -1
REMARK  3 active torsions:
REMARK  status: ('A' for Active; 'I' for Inactive)
REMARK    1  A    between atoms: C3'_2  and  C2'_3 
REMARK    2  A    between atoms: C2'_3  and  C1'_4 
REMARK    3  A    between atoms: C1'_4  and  C1_5 
ROOT
ATOM      1  C1  N4B d   1       3.927  -0.312  -1.164  0.00  0.00    -0.075 A 
ATOM      2  C2  N4B d   1       5.280  -0.265  -1.567  0.00  0.00     0.002 A 
ATOM      3  C3  N4B d   1       6.000   0.895  -1.420  0.00  0.00     0.002 A 
ATOM      4  C4  N4B d   1       5.386   2.022  -0.893  0.00  0.00    -0.004 A 
ATOM      5  C5  N4B d   1       4.086   1.961  -0.483  0.00  0.00     0.002 A 
ATOM      6  C6  N4B d   1       3.351   0.800  -0.621  0.00  0.00     0.002 A 
ENDROOT
BRANCH   1   7
ATOM      7  C1' N4B d   1       3.075  -1.532  -1.384  0.00  0.00     0.057 C 
BRANCH   7   8
ATOM      8  C2' N4B d   1       3.246  -2.482  -0.202  0.00  0.00     0.009 C 
BRANCH   8   9
ATOM      9  C3' N4B d   1       2.033  -3.376  -0.012  0.00  0.00     0.004 C 
ATOM     10  C4' N4B d   1       1.366  -3.733  -1.307  0.00  0.00     0.003 C 
ENDBRANCH   8   9
ENDBRANCH   7   8
ENDBRANCH   1   7
TORSDOF 3
ENDMDL
