MODEL 1
REMARK minimizedAffinity 15.7399664
REMARK minimizedRMSD -1
REMARK  3 active torsions:
REMARK  status: ('A' for Active; 'I' for Inactive)
REMARK    1  A    between atoms: C3'_2  and  C2'_3 
REMARK    2  A    between atoms: C2'_3  and  C1'_4 
REMARK    3  A    between atoms: C1'_4  and  C1_5 
ROOT
ATOM      1  C1  N4B d   1       1.198  -3.398  -1.661  0.00  0.00    -0.075 A 
ATOM      2  C2  N4B d   1       1.116  -4.241  -0.531  0.00  0.00     0.002 A 
ATOM      3  C3  N4B d   1       0.127  -5.191  -0.454  0.00  0.00     0.002 A 
ATOM      4  C4  N4B d   1      -0.797  -5.304  -1.481  0.00  0.00    -0.004 A 
ATOM      5  C5  N4B d   1      -0.695  -4.504  -2.581  0.00  0.00     0.002 A 
ATOM      6  C6  N4B d   1       0.295  -3.547  -2.674  0.00  0.00     0.002 A 
ENDROOT
BRANCH   1   7
ATOM      7  C1' N4B d   1       2.209  -2.288  -1.752  0.00  0.00     0.057 C 
BRANCH   7   8
ATOM      8  C2' N4B d   1       2.308  -1.589  -0.399  0.00  0.00     0.009 C 
BRANCH   8   9
ATOM      9  C3' N4B d   1       2.289  -0.077  -0.538  0.00  0.00     0.004 C 
ATOM     10  C4' N4B d   1       3.658   0.531  -0.460  0.00  0.00     0.003 C 
ENDBRANCH   8   9
ENDBRANCH   7   8
ENDBRANCH   1   7
TORSDOF 3
ENDMDL
