MODEL 1
REMARK minimizedAffinity 5.78869152
REMARK minimizedRMSD -1
REMARK  3 active torsions:
REMARK  status: ('A' for Active; 'I' for Inactive)
REMARK    1  A    between atoms: C3'_2  and  C2'_3 
REMARK    2  A    between atoms: C2'_3  and  C1'_4 
REMARK    3  A    between atoms: C1'_4  and  C1_5 
ROOT
ATOM      1  C1  N4B d   1       2.287  -2.604  -0.887  0.00  0.00    -0.075 A 
ATOM      2  C2  N4B d   1       2.222  -1.497  -1.762  0.00  0.00     0.002 A 
ATOM      3  C3  N4B d   1       2.957  -0.368  -1.496  0.00  0.00     0.002 A 
ATOM      4  C4  N4B d   1       3.746  -0.316  -0.356  0.00  0.00    -0.004 A 
ATOM      5  C5  N4B d   1       3.823  -1.398   0.470  0.00  0.00     0.002 A 
ATOM      6  C6  N4B d   1       3.093  -2.541   0.213  0.00  0.00     0.002 A 
ENDROOT
BRANCH   1   7
ATOM      7  C1' N4B d   1       1.436  -3.828  -1.090  0.00  0.00     0.057 C 
BRANCH   7   8
ATOM      8  C2' N4B d   1       0.120  -3.419  -1.745  0.00  0.00     0.009 C 
BRANCH   8   9
ATOM      9  C3' N4B d   1      -0.962  -4.467  -1.548  0.00  0.00     0.004 C 
ATOM     10  C4' N4B d   1      -0.492  -5.644  -0.746  0.00  0.00     0.003 C 
ENDBRANCH   8   9
ENDBRANCH   7   8
ENDBRANCH   1   7
TORSDOF 3
ENDMDL
