MODEL 1
REMARK minimizedAffinity 12.9538975
REMARK minimizedRMSD -1
REMARK  3 active torsions:
REMARK  status: ('A' for Active; 'I' for Inactive)
REMARK    1  A    between atoms: C3'_2  and  C2'_3 
REMARK    2  A    between atoms: C2'_3  and  C1'_4 
REMARK    3  A    between atoms: C1'_4  and  C1_5 
ROOT
ATOM      1  C1  N4B d   1      -2.477  -0.428  -4.168  0.00  0.00    -0.075 A 
ATOM      2  C2  N4B d   1      -1.768   0.340  -5.119  0.00  0.00     0.002 A 
ATOM      3  C3  N4B d   1      -2.451   1.142  -6.000  0.00  0.00     0.002 A 
ATOM      4  C4  N4B d   1      -3.837   1.178  -5.962  0.00  0.00    -0.004 A 
ATOM      5  C5  N4B d   1      -4.513   0.453  -5.024  0.00  0.00     0.002 A 
ATOM      6  C6  N4B d   1      -3.839  -0.355  -4.130  0.00  0.00     0.002 A 
ENDROOT
BRANCH   1   7
ATOM      7  C1' N4B d   1      -1.779  -1.385  -3.241  0.00  0.00     0.057 C 
BRANCH   7   8
ATOM      8  C2' N4B d   1      -2.806  -2.014  -2.305  0.00  0.00     0.009 C 
BRANCH   8   9
ATOM      9  C3' N4B d   1      -2.682  -3.528  -2.261  0.00  0.00     0.004 C 
ATOM     10  C4' N4B d   1      -1.307  -3.987  -1.879  0.00  0.00     0.003 C 
ENDBRANCH   8   9
ENDBRANCH   7   8
ENDBRANCH   1   7
TORSDOF 3
ENDMDL
