MODEL 1
REMARK minimizedAffinity -3.90393686
REMARK minimizedRMSD -1
REMARK  0 active torsions:
REMARK  status: ('A' for Active; 'I' for Inactive)
ROOT
ATOM      1  C   UNL d   1       2.273  -1.089   1.594  0.00  0.00     0.124 A 
ATOM      2  C1  UNL d   1       2.329  -0.075   0.649  0.00  0.00     0.062 A 
ATOM      3  C2  UNL d   1       1.168   0.351   0.010  0.00  0.00     0.162 A 
ATOM      4  C3  UNL d   1      -0.060  -0.237   0.315  0.00  0.00    -0.034 A 
ATOM      5  C4  UNL d   1      -0.108  -1.257   1.266  0.00  0.00     0.162 A 
ATOM      6  C5  UNL d   1       1.055  -1.679   1.902  0.00  0.00     0.062 A 
ATOM      7  F   UNL d   1       0.999  -2.660   2.815  0.00  0.00    -0.097 F 
ATOM      8  F1  UNL d   1      -1.271  -1.844   1.583  0.00  0.00    -0.096 F 
ATOM      9  I   UNL d   1      -1.797   0.398  -0.639  0.00  0.00    -0.060 I 
ATOM     10  F2  UNL d   1       1.252   1.334  -0.900  0.00  0.00    -0.096 F 
ATOM     11  F3  UNL d   1       3.504   0.496   0.349  0.00  0.00    -0.097 F 
ATOM     12  F4  UNL d   1       3.391  -1.498   2.207  0.00  0.00    -0.092 F 
ENDROOT
TORSDOF 0
ENDMDL
