MODEL 1
REMARK minimizedAffinity -1.15723932
REMARK minimizedRMSD -1
REMARK  0 active torsions:
REMARK  status: ('A' for Active; 'I' for Inactive)
ROOT
ATOM      1  C   UNL d   1       1.635  -0.390   1.131  0.00  0.00     0.124 A 
ATOM      2  C1  UNL d   1       0.512  -1.206   1.158  0.00  0.00     0.062 A 
ATOM      3  C2  UNL d   1      -0.589  -0.907   0.361  0.00  0.00     0.162 A 
ATOM      4  C3  UNL d   1      -0.574   0.213  -0.471  0.00  0.00    -0.034 A 
ATOM      5  C4  UNL d   1       0.559   1.029  -0.492  0.00  0.00     0.162 A 
ATOM      6  C5  UNL d   1       1.657   0.726   0.307  0.00  0.00     0.062 A 
ATOM      7  F   UNL d   1       2.741   1.516   0.279  0.00  0.00    -0.097 F 
ATOM      8  F1  UNL d   1       0.608   2.113  -1.280  0.00  0.00    -0.096 F 
ATOM      9  I   UNL d   1      -2.219   0.663  -1.664  0.00  0.00    -0.060 I 
ATOM     10  F2  UNL d   1      -1.661  -1.713   0.407  0.00  0.00    -0.096 F 
ATOM     11  F3  UNL d   1       0.488  -2.284   1.954  0.00  0.00    -0.097 F 
ATOM     12  F4  UNL d   1       2.693  -0.679   1.899  0.00  0.00    -0.092 F 
ENDROOT
TORSDOF 0
ENDMDL
