MODEL 1
REMARK minimizedAffinity 0.93811661
REMARK minimizedRMSD -1
REMARK  0 active torsions:
REMARK  status: ('A' for Active; 'I' for Inactive)
ROOT
ATOM      1  C   UNL d   1       1.881  -0.803   2.075  0.00  0.00     0.124 A 
ATOM      2  C1  UNL d   1       1.922   0.357   1.314  0.00  0.00     0.062 A 
ATOM      3  C2  UNL d   1       0.880   0.659   0.443  0.00  0.00     0.162 A 
ATOM      4  C3  UNL d   1      -0.214  -0.199   0.329  0.00  0.00    -0.034 A 
ATOM      5  C4  UNL d   1      -0.247  -1.364   1.097  0.00  0.00     0.162 A 
ATOM      6  C5  UNL d   1       0.797  -1.662   1.966  0.00  0.00     0.062 A 
ATOM      7  F   UNL d   1       0.756  -2.783   2.701  0.00  0.00    -0.097 F 
ATOM      8  F1  UNL d   1      -1.284  -2.212   1.012  0.00  0.00    -0.096 F 
ATOM      9  I   UNL d   1      -1.774   0.250  -0.973  0.00  0.00    -0.060 I 
ATOM     10  F2  UNL d   1       0.946   1.787  -0.281  0.00  0.00    -0.096 F 
ATOM     11  F3  UNL d   1       2.969   1.188   1.417  0.00  0.00    -0.097 F 
ATOM     12  F4  UNL d   1       2.886  -1.092   2.912  0.00  0.00    -0.092 F 
ENDROOT
TORSDOF 0
ENDMDL
