MODEL 1
REMARK minimizedAffinity 10.9787092
REMARK minimizedRMSD -1
REMARK  0 active torsions:
REMARK  status: ('A' for Active; 'I' for Inactive)
ROOT
ATOM      1  C   UNL d   1      -0.764   0.982   0.439  0.00  0.00     0.124 A 
ATOM      2  C1  UNL d   1      -0.460  -0.371   0.383  0.00  0.00     0.062 A 
ATOM      3  C2  UNL d   1       0.834  -0.809   0.651  0.00  0.00     0.162 A 
ATOM      4  C3  UNL d   1       1.833   0.107   0.980  0.00  0.00    -0.034 A 
ATOM      5  C4  UNL d   1       1.519   1.466   1.034  0.00  0.00     0.162 A 
ATOM      6  C5  UNL d   1       0.225   1.899   0.765  0.00  0.00     0.062 A 
ATOM      7  F   UNL d   1      -0.067   3.207   0.820  0.00  0.00    -0.097 F 
ATOM      8  F1  UNL d   1       2.456   2.374   1.347  0.00  0.00    -0.096 F 
ATOM      9  I   UNL d   1       3.768  -0.544   1.382  0.00  0.00    -0.060 I 
ATOM     10  F2  UNL d   1       1.099  -2.122   0.589  0.00  0.00    -0.096 F 
ATOM     11  F3  UNL d   1      -1.414  -1.259   0.068  0.00  0.00    -0.097 F 
ATOM     12  F4  UNL d   1      -2.010   1.401   0.180  0.00  0.00    -0.092 F 
ENDROOT
TORSDOF 0
ENDMDL
