MODEL 1
REMARK minimizedAffinity -0.740329027
REMARK minimizedRMSD -1
REMARK  0 active torsions:
REMARK  status: ('A' for Active; 'I' for Inactive)
ROOT
ATOM      1  C   UNL d   1       2.629  -0.691   2.135  0.00  0.00     0.124 A 
ATOM      2  C1  UNL d   1       1.962  -1.793   1.616  0.00  0.00     0.062 A 
ATOM      3  C2  UNL d   1       0.818  -1.618   0.844  0.00  0.00     0.162 A 
ATOM      4  C3  UNL d   1       0.332  -0.336   0.584  0.00  0.00    -0.034 A 
ATOM      5  C4  UNL d   1       1.007   0.766   1.110  0.00  0.00     0.162 A 
ATOM      6  C5  UNL d   1       2.151   0.587   1.882  0.00  0.00     0.062 A 
ATOM      7  F   UNL d   1       2.793   1.652   2.383  0.00  0.00    -0.097 F 
ATOM      8  F1  UNL d   1       0.568   2.013   0.880  0.00  0.00    -0.096 F 
ATOM      9  I   UNL d   1      -1.379  -0.072  -0.571  0.00  0.00    -0.060 I 
ATOM     10  F2  UNL d   1       0.194  -2.701   0.355  0.00  0.00    -0.096 F 
ATOM     11  F3  UNL d   1       2.422  -3.028   1.860  0.00  0.00    -0.097 F 
ATOM     12  F4  UNL d   1       3.729  -0.862   2.879  0.00  0.00    -0.092 F 
ENDROOT
TORSDOF 0
ENDMDL
