MODEL 1
REMARK minimizedAffinity -4.74331284
REMARK minimizedRMSD -1
REMARK  0 active torsions:
REMARK  status: ('A' for Active; 'I' for Inactive)
ROOT
ATOM      1  C   UNL d   1       1.319   1.087   0.003  0.00  0.00     0.124 A 
ATOM      2  C1  UNL d   1       2.440   0.405   0.457  0.00  0.00     0.062 A 
ATOM      3  C2  UNL d   1       2.295  -0.740   1.234  0.00  0.00     0.162 A 
ATOM      4  C3  UNL d   1       1.023  -1.211   1.562  0.00  0.00    -0.034 A 
ATOM      5  C4  UNL d   1      -0.099  -0.520   1.103  0.00  0.00     0.162 A 
ATOM      6  C5  UNL d   1       0.052   0.625   0.326  0.00  0.00     0.062 A 
ATOM      7  F   UNL d   1      -1.032   1.282  -0.111  0.00  0.00    -0.097 F 
ATOM      8  F1  UNL d   1      -1.335  -0.945   1.400  0.00  0.00    -0.096 F 
ATOM      9  I   UNL d   1       0.802  -2.924   2.725  0.00  0.00    -0.060 I 
ATOM     10  F2  UNL d   1       3.395  -1.379   1.659  0.00  0.00    -0.096 F 
ATOM     11  F3  UNL d   1       3.665   0.851   0.146  0.00  0.00    -0.097 F 
ATOM     12  F4  UNL d   1       1.462   2.190  -0.744  0.00  0.00    -0.092 F 
ENDROOT
TORSDOF 0
ENDMDL
