MODEL 1
REMARK minimizedAffinity 0.012341314
REMARK minimizedRMSD -1
REMARK  0 active torsions:
REMARK  status: ('A' for Active; 'I' for Inactive)
ROOT
ATOM      1  C   UNL d   1      -1.933  -0.369   0.477  0.00  0.00     0.124 A 
ATOM      2  C1  UNL d   1      -1.279  -1.399   1.139  0.00  0.00     0.062 A 
ATOM      3  C2  UNL d   1       0.111  -1.410   1.216  0.00  0.00     0.162 A 
ATOM      4  C3  UNL d   1       0.856  -0.387   0.630  0.00  0.00    -0.034 A 
ATOM      5  C4  UNL d   1       0.191   0.645  -0.034  0.00  0.00     0.162 A 
ATOM      6  C5  UNL d   1      -1.198   0.652  -0.109  0.00  0.00     0.062 A 
ATOM      7  F   UNL d   1      -1.828   1.648  -0.748  0.00  0.00    -0.097 F 
ATOM      8  F1  UNL d   1       0.877   1.645  -0.609  0.00  0.00    -0.096 F 
ATOM      9  I   UNL d   1       2.935  -0.400   0.743  0.00  0.00    -0.060 I 
ATOM     10  F2  UNL d   1       0.717  -2.418   1.861  0.00  0.00    -0.096 F 
ATOM     11  F3  UNL d   1      -1.987  -2.387   1.705  0.00  0.00    -0.097 F 
ATOM     12  F4  UNL d   1      -3.270  -0.361   0.404  0.00  0.00    -0.092 F 
ENDROOT
TORSDOF 0
ENDMDL
