MODEL 1
REMARK minimizedAffinity -2.38761187
REMARK minimizedRMSD -1
REMARK  1 active torsions:
REMARK  status: ('A' for Active; 'I' for Inactive)
REMARK    1  A    between atoms: C1_2  and  C2_3 
ROOT
ATOM      1  C2  UNL d   1      -0.001   0.075  -0.721  0.00  0.00    -0.076 A 
ATOM      2  C3  UNL d   1       1.073  -0.552  -1.377  0.00  0.00     0.004 A 
ATOM      3  C4  UNL d   1       1.818  -1.545  -0.744  0.00  0.00    -0.003 A 
ATOM      4  C5  UNL d   1       1.501  -1.929   0.554  0.00  0.00     0.000 A 
ATOM      5  C6  UNL d   1       0.428  -1.331   1.213  0.00  0.00     0.000 A 
ATOM      6  C7  UNL d   1      -0.344  -0.339   0.584  0.00  0.00    -0.073 A 
ATOM      7  C8  UNL d   1      -1.487   0.277   1.344  0.00  0.00     0.078 C 
ENDROOT
BRANCH   1   8
ATOM      8  C1  UNL d   1      -0.756   1.165  -1.447  0.00  0.00     0.053 C 
ATOM      9  C   UNL d   1       0.170   2.152  -2.142  0.00  0.00     0.018 C 
ENDBRANCH   1   8
TORSDOF 1
ENDMDL
