MODEL 1
REMARK minimizedAffinity 0.386127114
REMARK minimizedRMSD -1
REMARK  1 active torsions:
REMARK  status: ('A' for Active; 'I' for Inactive)
REMARK    1  A    between atoms: C1_2  and  C2_3 
ROOT
ATOM      1  C2  UNL d   1       0.755  -0.381   0.267  0.00  0.00    -0.076 A 
ATOM      2  C3  UNL d   1       1.732  -0.862  -0.622  0.00  0.00     0.004 A 
ATOM      3  C4  UNL d   1       2.565  -1.921  -0.268  0.00  0.00    -0.003 A 
ATOM      4  C5  UNL d   1       2.434  -2.518   0.981  0.00  0.00     0.000 A 
ATOM      5  C6  UNL d   1       1.459  -2.065   1.869  0.00  0.00     0.000 A 
ATOM      6  C7  UNL d   1       0.600  -1.009   1.521  0.00  0.00    -0.073 A 
ATOM      7  C8  UNL d   1      -0.431  -0.557   2.519  0.00  0.00     0.078 C 
ENDROOT
BRANCH   1   8
ATOM      8  C1  UNL d   1      -0.102   0.789  -0.162  0.00  0.00     0.053 C 
ATOM      9  C   UNL d   1       0.714   1.912  -0.784  0.00  0.00     0.018 C 
ENDBRANCH   1   8
TORSDOF 1
ENDMDL
