MODEL 1
REMARK minimizedAffinity -1.64881408
REMARK minimizedRMSD -1
REMARK  1 active torsions:
REMARK  status: ('A' for Active; 'I' for Inactive)
REMARK    1  A    between atoms: C1_2  and  C2_3 
ROOT
ATOM      1  C2  UNL d   1      -0.304   0.120  -0.506  0.00  0.00    -0.076 A 
ATOM      2  C3  UNL d   1      -1.146   0.599   0.511  0.00  0.00     0.004 A 
ATOM      3  C4  UNL d   1      -1.008   0.157   1.826  0.00  0.00    -0.003 A 
ATOM      4  C5  UNL d   1      -0.023  -0.773   2.144  0.00  0.00     0.000 A 
ATOM      5  C6  UNL d   1       0.833  -1.246   1.150  0.00  0.00     0.000 A 
ATOM      6  C7  UNL d   1       0.717  -0.798  -0.177  0.00  0.00    -0.073 A 
ATOM      7  C8  UNL d   1       1.663  -1.346  -1.209  0.00  0.00     0.078 C 
ENDROOT
BRANCH   1   8
ATOM      8  C1  UNL d   1      -0.519   0.615  -1.919  0.00  0.00     0.053 C 
ATOM      9  C   UNL d   1      -0.779   2.113  -1.977  0.00  0.00     0.018 C 
ENDBRANCH   1   8
TORSDOF 1
ENDMDL
