MODEL 1
REMARK minimizedAffinity 0.200243577
REMARK minimizedRMSD -1
REMARK  1 active torsions:
REMARK  status: ('A' for Active; 'I' for Inactive)
REMARK    1  A    between atoms: C1_2  and  C2_3 
ROOT
ATOM      1  C2  UNL d   1      -0.417   0.494  -0.749  0.00  0.00    -0.076 A 
ATOM      2  C3  UNL d   1      -1.346   0.771   0.270  0.00  0.00     0.004 A 
ATOM      3  C4  UNL d   1      -1.284   0.111   1.496  0.00  0.00    -0.003 A 
ATOM      4  C5  UNL d   1      -0.292  -0.836   1.724  0.00  0.00     0.000 A 
ATOM      5  C6  UNL d   1       0.648  -1.111   0.731  0.00  0.00     0.000 A 
ATOM      6  C7  UNL d   1       0.610  -0.443  -0.505  0.00  0.00    -0.073 A 
ATOM      7  C8  UNL d   1       1.645  -0.783  -1.541  0.00  0.00     0.078 C 
ENDROOT
BRANCH   1   8
ATOM      8  C1  UNL d   1      -0.551   1.221  -2.068  0.00  0.00     0.053 C 
ATOM      9  C   UNL d   1      -1.738   2.171  -2.092  0.00  0.00     0.018 C 
ENDBRANCH   1   8
TORSDOF 1
ENDMDL
