MODEL 1
REMARK minimizedAffinity 10.5188751
REMARK minimizedRMSD -1
REMARK  1 active torsions:
REMARK  status: ('A' for Active; 'I' for Inactive)
REMARK    1  A    between atoms: C1_2  and  C2_3 
ROOT
ATOM      1  C2  UNL d   1       0.168   0.365   0.342  0.00  0.00    -0.076 A 
ATOM      2  C3  UNL d   1      -0.613  -0.625  -0.279  0.00  0.00     0.004 A 
ATOM      3  C4  UNL d   1      -1.739  -1.151   0.352  0.00  0.00    -0.003 A 
ATOM      4  C5  UNL d   1      -2.102  -0.696   1.614  0.00  0.00     0.000 A 
ATOM      5  C6  UNL d   1      -1.349   0.298   2.238  0.00  0.00     0.000 A 
ATOM      6  C7  UNL d   1      -0.221   0.851   1.609  0.00  0.00    -0.073 A 
ATOM      7  C8  UNL d   1       0.558   1.916   2.330  0.00  0.00     0.078 C 
ENDROOT
BRANCH   1   8
ATOM      8  C1  UNL d   1       1.393   0.879  -0.379  0.00  0.00     0.053 C 
ATOM      9  C   UNL d   1       2.010  -0.165  -1.297  0.00  0.00     0.018 C 
ENDBRANCH   1   8
TORSDOF 1
ENDMDL
