MODEL 1
REMARK minimizedAffinity -2.54829884
REMARK minimizedRMSD -1
REMARK  1 active torsions:
REMARK  status: ('A' for Active; 'I' for Inactive)
REMARK    1  A    between atoms: C1_2  and  C2_3 
ROOT
ATOM      1  C2  UNL d   1       0.028  -0.699  -0.004  0.00  0.00    -0.076 A 
ATOM      2  C3  UNL d   1      -0.343  -0.598   1.348  0.00  0.00     0.004 A 
ATOM      3  C4  UNL d   1       0.425  -1.191   2.349  0.00  0.00    -0.003 A 
ATOM      4  C5  UNL d   1       1.577  -1.894   2.014  0.00  0.00     0.000 A 
ATOM      5  C6  UNL d   1       1.970  -1.989   0.679  0.00  0.00     0.000 A 
ATOM      6  C7  UNL d   1       1.216  -1.383  -0.341  0.00  0.00    -0.073 A 
ATOM      7  C8  UNL d   1       1.683  -1.522  -1.764  0.00  0.00     0.078 C 
ENDROOT
BRANCH   1   8
ATOM      8  C1  UNL d   1      -0.859  -0.059  -1.048  0.00  0.00     0.053 C 
ATOM      9  C   UNL d   1      -0.482   1.389  -1.324  0.00  0.00     0.018 C 
ENDBRANCH   1   8
TORSDOF 1
ENDMDL
