MODEL 1
REMARK minimizedAffinity -5.20934057
REMARK minimizedRMSD -1
REMARK  1 active torsions:
REMARK  status: ('A' for Active; 'I' for Inactive)
REMARK    1  A    between atoms: C1_2  and  C2_3 
ROOT
ATOM      1  C2  UNL d   1       1.995  -0.758   1.091  0.00  0.00    -0.076 A 
ATOM      2  C3  UNL d   1       1.284   0.091   0.226  0.00  0.00     0.004 A 
ATOM      3  C4  UNL d   1       0.008   0.545   0.554  0.00  0.00    -0.003 A 
ATOM      4  C5  UNL d   1      -0.578   0.157   1.753  0.00  0.00     0.000 A 
ATOM      5  C6  UNL d   1       0.119  -0.671   2.632  0.00  0.00     0.000 A 
ATOM      6  C7  UNL d   1       1.414  -1.124   2.324  0.00  0.00    -0.073 A 
ATOM      7  C8  UNL d   1       2.118  -2.020   3.306  0.00  0.00     0.078 C 
ENDROOT
BRANCH   1   8
ATOM      8  C1  UNL d   1       3.365  -1.240   0.670  0.00  0.00     0.053 C 
ATOM      9  C   UNL d   1       3.301  -2.283  -0.435  0.00  0.00     0.018 C 
ENDBRANCH   1   8
TORSDOF 1
ENDMDL
