MODEL 1
REMARK minimizedAffinity 0.942008138
REMARK minimizedRMSD -1
REMARK  1 active torsions:
REMARK  status: ('A' for Active; 'I' for Inactive)
REMARK    1  A    between atoms: C1_2  and  C2_3 
ROOT
ATOM      1  C2  UNL d   1       0.014  -0.836   0.354  0.00  0.00    -0.076 A 
ATOM      2  C3  UNL d   1      -1.077  -0.403   1.127  0.00  0.00     0.004 A 
ATOM      3  C4  UNL d   1      -1.163  -0.714   2.483  0.00  0.00    -0.003 A 
ATOM      4  C5  UNL d   1      -0.159  -1.463   3.088  0.00  0.00     0.000 A 
ATOM      5  C6  UNL d   1       0.939  -1.886   2.339  0.00  0.00     0.000 A 
ATOM      6  C7  UNL d   1       1.050  -1.566   0.975  0.00  0.00    -0.073 A 
ATOM      7  C8  UNL d   1       2.253  -2.053   0.215  0.00  0.00     0.078 C 
ENDROOT
BRANCH   1   8
ATOM      8  C1  UNL d   1       0.041  -0.491  -1.118  0.00  0.00     0.053 C 
ATOM      9  C   UNL d   1      -0.597   0.858  -1.412  0.00  0.00     0.018 C 
ENDBRANCH   1   8
TORSDOF 1
ENDMDL
