MODEL 1
REMARK minimizedAffinity 11.5106516
REMARK minimizedRMSD -1
REMARK  0 active torsions:
REMARK  status: ('A' for Active; 'I' for Inactive)
ROOT
ATOM      1  C   UNL d   1      -3.747   0.495   2.991  0.00  0.00    -0.002 A 
ATOM      2  C1  UNL d   1      -3.994  -0.536   2.095  0.00  0.00     0.010 A 
ATOM      3  C2  UNL d   1      -3.052  -1.548   1.899  0.00  0.00     0.041 A 
ATOM      4  C3  UNL d   1      -1.847  -1.507   2.627  0.00  0.00    -0.075 A 
ATOM      5  S   UNL d   1      -0.548  -2.638   2.551  0.00  0.00     0.015 SA
ATOM      6  C4  UNL d   1       0.365  -1.781   3.707  0.00  0.00     0.022 A 
ATOM      7  C5  UNL d   1      -0.289  -0.656   4.150  0.00  0.00     0.026 A 
ATOM      8  C6  UNL d   1      -1.575  -0.480   3.535  0.00  0.00    -0.082 A 
ATOM      9  C7  UNL d   1      -2.550   0.532   3.711  0.00  0.00     0.045 A 
ENDROOT
TORSDOF 0
ENDMDL
