MODEL 1
REMARK minimizedAffinity 13.0697517
REMARK minimizedRMSD -1
REMARK  0 active torsions:
REMARK  status: ('A' for Active; 'I' for Inactive)
ROOT
ATOM      1  C   UNL d   1       2.568  -1.635   1.659  0.00  0.00    -0.002 A 
ATOM      2  C1  UNL d   1       1.500  -2.521   1.688  0.00  0.00     0.010 A 
ATOM      3  C2  UNL d   1       0.389  -2.320   0.868  0.00  0.00     0.041 A 
ATOM      4  C3  UNL d   1       0.369  -1.205   0.007  0.00  0.00    -0.075 A 
ATOM      5  S   UNL d   1      -0.886  -0.758  -1.087  0.00  0.00     0.015 SA
ATOM      6  C4  UNL d   1      -0.034   0.618  -1.620  0.00  0.00     0.022 A 
ATOM      7  C5  UNL d   1       1.180   0.749  -0.989  0.00  0.00     0.026 A 
ATOM      8  C6  UNL d   1       1.433  -0.299  -0.041  0.00  0.00    -0.082 A 
ATOM      9  C7  UNL d   1       2.545  -0.529   0.804  0.00  0.00     0.045 A 
ENDROOT
TORSDOF 0
ENDMDL
