MODEL 1
REMARK minimizedAffinity 15.6848946
REMARK minimizedRMSD -1
REMARK  0 active torsions:
REMARK  status: ('A' for Active; 'I' for Inactive)
ROOT
ATOM      1  C   UNL d   1       5.645   0.063  -2.608  0.00  0.00    -0.002 A 
ATOM      2  C1  UNL d   1       4.890   0.270  -3.753  0.00  0.00     0.010 A 
ATOM      3  C2  UNL d   1       3.553   0.665  -3.661  0.00  0.00     0.041 A 
ATOM      4  C3  UNL d   1       2.984   0.850  -2.386  0.00  0.00    -0.075 A 
ATOM      5  S   UNL d   1       1.367   1.331  -2.030  0.00  0.00     0.015 SA
ATOM      6  C4  UNL d   1       1.641   1.273  -0.349  0.00  0.00     0.022 A 
ATOM      7  C5  UNL d   1       2.929   0.897  -0.049  0.00  0.00     0.026 A 
ATOM      8  C6  UNL d   1       3.724   0.648  -1.218  0.00  0.00    -0.082 A 
ATOM      9  C7  UNL d   1       5.076   0.247  -1.345  0.00  0.00     0.045 A 
ENDROOT
TORSDOF 0
ENDMDL
