MODEL 1
REMARK minimizedAffinity 20.8996925
REMARK minimizedRMSD -1
REMARK  0 active torsions:
REMARK  status: ('A' for Active; 'I' for Inactive)
ROOT
ATOM      1  C   UNL d   1      -1.273  -1.878   0.137  0.00  0.00    -0.002 A 
ATOM      2  C1  UNL d   1      -0.374  -1.952   1.192  0.00  0.00     0.010 A 
ATOM      3  C2  UNL d   1       0.830  -1.247   1.150  0.00  0.00     0.041 A 
ATOM      4  C3  UNL d   1       1.118  -0.456   0.021  0.00  0.00    -0.075 A 
ATOM      5  S   UNL d   1       2.530   0.496  -0.250  0.00  0.00     0.015 SA
ATOM      6  C4  UNL d   1       1.973   1.024  -1.771  0.00  0.00     0.022 A 
ATOM      7  C5  UNL d   1       0.742   0.496  -2.082  0.00  0.00     0.026 A 
ATOM      8  C6  UNL d   1       0.229  -0.365  -1.054  0.00  0.00    -0.082 A 
ATOM      9  C7  UNL d   1      -0.983  -1.093  -0.982  0.00  0.00     0.045 A 
ENDROOT
TORSDOF 0
ENDMDL
