MODEL 1
REMARK minimizedAffinity 14.4035053
REMARK minimizedRMSD -1
REMARK  0 active torsions:
REMARK  status: ('A' for Active; 'I' for Inactive)
ROOT
ATOM      1  C   UNL d   1       1.261   0.982  -0.835  0.00  0.00    -0.002 A 
ATOM      2  C1  UNL d   1       0.277   0.098  -1.256  0.00  0.00     0.010 A 
ATOM      3  C2  UNL d   1       0.036  -1.084  -0.553  0.00  0.00     0.041 A 
ATOM      4  C3  UNL d   1       0.807  -1.365   0.591  0.00  0.00    -0.075 A 
ATOM      5  S   UNL d   1       0.688  -2.752   1.610  0.00  0.00     0.015 SA
ATOM      6  C4  UNL d   1       1.941  -2.203   2.628  0.00  0.00     0.022 A 
ATOM      7  C5  UNL d   1       2.448  -0.994   2.216  0.00  0.00     0.026 A 
ATOM      8  C6  UNL d   1       1.803  -0.491   1.036  0.00  0.00    -0.082 A 
ATOM      9  C7  UNL d   1       2.024   0.699   0.301  0.00  0.00     0.045 A 
ENDROOT
TORSDOF 0
ENDMDL
