MODEL 1
REMARK minimizedAffinity 9.12507534
REMARK minimizedRMSD -1
REMARK  0 active torsions:
REMARK  status: ('A' for Active; 'I' for Inactive)
ROOT
ATOM      1  C   UNL d   1       3.317   2.728   3.329  0.00  0.00    -0.002 A 
ATOM      2  C1  UNL d   1       2.188   2.838   2.530  0.00  0.00     0.010 A 
ATOM      3  C2  UNL d   1       1.158   3.715   2.873  0.00  0.00     0.041 A 
ATOM      4  C3  UNL d   1       1.283   4.489   4.043  0.00  0.00    -0.075 A 
ATOM      5  S   UNL d   1       0.148   5.630   4.661  0.00  0.00     0.015 SA
ATOM      6  C4  UNL d   1       1.135   6.000   6.000  0.00  0.00     0.022 A 
ATOM      7  C5  UNL d   1       2.306   5.279   5.992  0.00  0.00     0.026 A 
ATOM      8  C6  UNL d   1       2.410   4.397   4.864  0.00  0.00    -0.082 A 
ATOM      9  C7  UNL d   1       3.438   3.498   4.489  0.00  0.00     0.045 A 
ENDROOT
TORSDOF 0
ENDMDL
