MODEL 1
REMARK minimizedAffinity -1.99015391
REMARK minimizedRMSD -1
REMARK  0 active torsions:
REMARK  status: ('A' for Active; 'I' for Inactive)
ROOT
ATOM      1  C   UNL d   1       2.271  -0.516   2.555  0.00  0.00     0.023 A 
ATOM      2  C1  UNL d   1       1.994   0.197   1.389  0.00  0.00     0.003 A 
ATOM      3  C2  UNL d   1       0.747   0.074   0.773  0.00  0.00     0.048 A 
ATOM      4  C3  UNL d   1      -0.220  -0.763   1.330  0.00  0.00     0.023 A 
ATOM      5  C4  UNL d   1       0.053  -1.478   2.498  0.00  0.00     0.048 A 
ATOM      6  C5  UNL d   1       1.302  -1.352   3.109  0.00  0.00     0.003 A 
ATOM      7  I   UNL d   1      -2.077  -0.948   0.416  0.00  0.00    -0.146 I 
ENDROOT
TORSDOF 0
ENDMDL
