MODEL 1
REMARK minimizedAffinity 5.98586512
REMARK minimizedRMSD -1
REMARK  0 active torsions:
REMARK  status: ('A' for Active; 'I' for Inactive)
ROOT
ATOM      1  C   UNL d   1      -2.494   0.425   2.267  0.00  0.00     0.023 A 
ATOM      2  C1  UNL d   1      -2.651  -0.564   1.296  0.00  0.00     0.003 A 
ATOM      3  C2  UNL d   1      -1.646  -1.513   1.096  0.00  0.00     0.048 A 
ATOM      4  C3  UNL d   1      -0.488  -1.468   1.871  0.00  0.00     0.023 A 
ATOM      5  C4  UNL d   1      -0.327  -0.480   2.844  0.00  0.00     0.048 A 
ATOM      6  C5  UNL d   1      -1.333   0.467   3.040  0.00  0.00     0.003 A 
ATOM      7  I   UNL d   1       1.008  -2.880   1.574  0.00  0.00    -0.146 I 
ENDROOT
TORSDOF 0
ENDMDL
