MODEL 1
REMARK minimizedAffinity 3.92297792
REMARK minimizedRMSD -1
REMARK  0 active torsions:
REMARK  status: ('A' for Active; 'I' for Inactive)
ROOT
ATOM      1  C   UNL d   1       1.257  -2.665   1.333  0.00  0.00     0.023 A 
ATOM      2  C1  UNL d   1       1.348  -1.676   0.353  0.00  0.00     0.003 A 
ATOM      3  C2  UNL d   1       0.532  -0.545   0.423  0.00  0.00     0.048 A 
ATOM      4  C3  UNL d   1      -0.371  -0.409   1.476  0.00  0.00     0.023 A 
ATOM      5  C4  UNL d   1      -0.465  -1.395   2.460  0.00  0.00     0.048 A 
ATOM      6  C5  UNL d   1       0.352  -2.525   2.385  0.00  0.00     0.003 A 
ATOM      7  I   UNL d   1      -1.586   1.274   1.583  0.00  0.00    -0.146 I 
ENDROOT
TORSDOF 0
ENDMDL
