MODEL 1
REMARK minimizedAffinity 1.52644598
REMARK minimizedRMSD -1
REMARK  0 active torsions:
REMARK  status: ('A' for Active; 'I' for Inactive)
ROOT
ATOM      1  C   UNL d   1       0.010  -2.846   2.330  0.00  0.00     0.023 A 
ATOM      2  C1  UNL d   1       1.147  -2.157   1.908  0.00  0.00     0.003 A 
ATOM      3  C2  UNL d   1       2.243  -2.859   1.403  0.00  0.00     0.048 A 
ATOM      4  C3  UNL d   1       2.196  -4.250   1.322  0.00  0.00     0.023 A 
ATOM      5  C4  UNL d   1       1.060  -4.944   1.742  0.00  0.00     0.048 A 
ATOM      6  C5  UNL d   1      -0.033  -4.238   2.247  0.00  0.00     0.003 A 
ATOM      7  I   UNL d   1       3.826  -5.297   0.570  0.00  0.00    -0.146 I 
ENDROOT
TORSDOF 0
ENDMDL
