MODEL 1
REMARK minimizedAffinity 0.498510987
REMARK minimizedRMSD -1
REMARK  0 active torsions:
REMARK  status: ('A' for Active; 'I' for Inactive)
ROOT
ATOM      1  C   UNL d   1      -1.576  -0.294   1.691  0.00  0.00     0.023 A 
ATOM      2  C1  UNL d   1      -0.919  -0.543   0.486  0.00  0.00     0.003 A 
ATOM      3  C2  UNL d   1       0.096  -1.500   0.427  0.00  0.00     0.048 A 
ATOM      4  C3  UNL d   1       0.449  -2.205   1.577  0.00  0.00     0.023 A 
ATOM      5  C4  UNL d   1      -0.205  -1.959   2.786  0.00  0.00     0.048 A 
ATOM      6  C5  UNL d   1      -1.219  -1.001   2.840  0.00  0.00     0.003 A 
ATOM      7  I   UNL d   1       1.960  -3.630   1.492  0.00  0.00    -0.146 I 
ENDROOT
TORSDOF 0
ENDMDL
