MODEL 1
REMARK minimizedAffinity 6.79229259
REMARK minimizedRMSD -1
REMARK  0 active torsions:
REMARK  status: ('A' for Active; 'I' for Inactive)
ROOT
ATOM      1  C   UNL d   1      -2.574   0.043   2.208  0.00  0.00     0.023 A 
ATOM      2  C1  UNL d   1      -1.462  -0.361   2.946  0.00  0.00     0.003 A 
ATOM      3  C2  UNL d   1      -0.307  -0.794   2.291  0.00  0.00     0.048 A 
ATOM      4  C3  UNL d   1      -0.271  -0.819   0.897  0.00  0.00     0.023 A 
ATOM      5  C4  UNL d   1      -1.382  -0.415   0.154  0.00  0.00     0.048 A 
ATOM      6  C5  UNL d   1      -2.535   0.016   0.814  0.00  0.00     0.003 A 
ATOM      7  I   UNL d   1       1.446  -1.462  -0.081  0.00  0.00    -0.146 I 
ENDROOT
TORSDOF 0
ENDMDL
