MODEL 1
REMARK minimizedAffinity 1.24927914
REMARK minimizedRMSD -1
REMARK  0 active torsions:
REMARK  status: ('A' for Active; 'I' for Inactive)
ROOT
ATOM      1  C1  DEN d   1       0.957  -3.411  -0.795  0.00  0.00     0.130 A 
ATOM      2  C2  DEN d   1      -0.112  -3.984  -1.608  0.00  0.00    -0.031 A 
ATOM      3  C3  DEN d   1      -1.152  -2.951  -1.789  0.00  0.00     0.027 A 
ATOM      4  C4  DEN d   1      -1.207  -0.532  -0.898  0.00  0.00     0.027 A 
ATOM      5  C5  DEN d   1      -0.530   0.404  -0.149  0.00  0.00    -0.003 A 
ATOM      6  C6  DEN d   1       0.665   0.126   0.461  0.00  0.00     0.001 A 
ATOM      7  C7  DEN d   1       1.241  -1.106   0.294  0.00  0.00     0.017 A 
ATOM      8  C8  DEN d   1       0.560  -2.057  -0.453  0.00  0.00    -0.094 A 
ATOM      9  C9  DEN d   1      -0.641  -1.753  -1.072  0.00  0.00    -0.072 A 
ENDROOT
TORSDOF 0
ENDMDL
