MODEL 1
REMARK minimizedAffinity -2.44071555
REMARK minimizedRMSD -1
REMARK  0 active torsions:
REMARK  status: ('A' for Active; 'I' for Inactive)
ROOT
ATOM      1  C1  DEN d   1      -1.250   2.387   0.124  0.00  0.00     0.130 A 
ATOM      2  C2  DEN d   1      -1.112   2.817   1.512  0.00  0.00    -0.031 A 
ATOM      3  C3  DEN d   1      -0.401   1.754   2.251  0.00  0.00     0.027 A 
ATOM      4  C4  DEN d   1       0.499  -0.501   1.383  0.00  0.00     0.027 A 
ATOM      5  C5  DEN d   1       0.610  -1.315   0.277  0.00  0.00    -0.003 A 
ATOM      6  C6  DEN d   1       0.082  -0.970  -0.939  0.00  0.00     0.001 A 
ATOM      7  C7  DEN d   1      -0.541   0.240  -1.090  0.00  0.00     0.017 A 
ATOM      8  C8  DEN d   1      -0.662   1.063   0.022  0.00  0.00    -0.094 A 
ATOM      9  C9  DEN d   1      -0.112   0.702   1.240  0.00  0.00    -0.072 A 
ENDROOT
TORSDOF 0
ENDMDL
