MODEL 1
REMARK minimizedAffinity -4.30258656
REMARK minimizedRMSD -1
REMARK  0 active torsions:
REMARK  status: ('A' for Active; 'I' for Inactive)
ROOT
ATOM      1  C1  DEN d   1      -1.303   2.180  -0.064  0.00  0.00     0.130 A 
ATOM      2  C2  DEN d   1      -1.094   2.924   1.176  0.00  0.00    -0.031 A 
ATOM      3  C3  DEN d   1      -0.138   2.166   2.007  0.00  0.00     0.027 A 
ATOM      4  C4  DEN d   1       1.037  -0.073   1.497  0.00  0.00     0.027 A 
ATOM      5  C5  DEN d   1       1.167  -1.087   0.575  0.00  0.00    -0.003 A 
ATOM      6  C6  DEN d   1       0.463  -1.101  -0.600  0.00  0.00     0.001 A 
ATOM      7  C7  DEN d   1      -0.370  -0.057  -0.904  0.00  0.00     0.017 A 
ATOM      8  C8  DEN d   1      -0.512   0.966   0.024  0.00  0.00    -0.094 A 
ATOM      9  C9  DEN d   1       0.218   0.968   1.200  0.00  0.00    -0.072 A 
ENDROOT
TORSDOF 0
ENDMDL
