MODEL 1
REMARK minimizedAffinity -3.0866034
REMARK minimizedRMSD -1
REMARK  0 active torsions:
REMARK  status: ('A' for Active; 'I' for Inactive)
ROOT
ATOM      1  C1  DEN d   1       0.104  -0.907   0.154  0.00  0.00     0.130 A 
ATOM      2  C2  DEN d   1       0.189   0.159  -0.839  0.00  0.00    -0.031 A 
ATOM      3  C3  DEN d   1       0.242  -0.465  -2.176  0.00  0.00     0.027 A 
ATOM      4  C4  DEN d   1       0.195  -2.967  -2.802  0.00  0.00     0.027 A 
ATOM      5  C5  DEN d   1       0.140  -4.249  -2.300  0.00  0.00    -0.003 A 
ATOM      6  C6  DEN d   1       0.104  -4.505  -0.955  0.00  0.00     0.001 A 
ATOM      7  C7  DEN d   1       0.077  -3.464  -0.066  0.00  0.00     0.017 A 
ATOM      8  C8  DEN d   1       0.139  -2.169  -0.564  0.00  0.00    -0.094 A 
ATOM      9  C9  DEN d   1       0.163  -1.930  -1.927  0.00  0.00    -0.072 A 
ENDROOT
TORSDOF 0
ENDMDL
