MODEL 1
REMARK minimizedAffinity -3.98609948
REMARK minimizedRMSD -1
REMARK  0 active torsions:
REMARK  status: ('A' for Active; 'I' for Inactive)
ROOT
ATOM      1  C1  DEN d   1       1.561   3.859   2.285  0.00  0.00     0.130 A 
ATOM      2  C2  DEN d   1       2.106   4.815   1.325  0.00  0.00    -0.031 A 
ATOM      3  C3  DEN d   1       1.286   4.749   0.099  0.00  0.00     0.027 A 
ATOM      4  C4  DEN d   1      -0.767   3.271  -0.403  0.00  0.00     0.027 A 
ATOM      5  C5  DEN d   1      -1.597   2.294   0.101  0.00  0.00    -0.003 A 
ATOM      6  C6  DEN d   1      -1.413   1.750   1.344  0.00  0.00     0.001 A 
ATOM      7  C7  DEN d   1      -0.401   2.212   2.145  0.00  0.00     0.017 A 
ATOM      8  C8  DEN d   1       0.443   3.192   1.641  0.00  0.00    -0.094 A 
ATOM      9  C9  DEN d   1       0.233   3.738   0.386  0.00  0.00    -0.072 A 
ENDROOT
TORSDOF 0
ENDMDL
