MODEL 1
REMARK minimizedAffinity -0.99856925
REMARK minimizedRMSD -1
REMARK  0 active torsions:
REMARK  status: ('A' for Active; 'I' for Inactive)
ROOT
ATOM      1  C   UNL d   1       2.258  -0.437  -0.050  0.00  0.00     0.124 A 
ATOM      2  C1  UNL d   1       1.335  -1.473  -0.078  0.00  0.00     0.062 A 
ATOM      3  C2  UNL d   1      -0.029  -1.196  -0.040  0.00  0.00     0.162 A 
ATOM      4  C3  UNL d   1      -0.478   0.123   0.027  0.00  0.00    -0.034 A 
ATOM      5  C4  UNL d   1       0.458   1.159   0.056  0.00  0.00     0.162 A 
ATOM      6  C5  UNL d   1       1.819   0.877   0.017  0.00  0.00     0.062 A 
ATOM      7  F   UNL d   1       2.710   1.879   0.045  0.00  0.00    -0.097 F 
ATOM      8  F1  UNL d   1       0.061   2.439   0.120  0.00  0.00    -0.096 F 
ATOM      9  I   UNL d   1      -2.515   0.541   0.084  0.00  0.00    -0.060 I 
ATOM     10  F2  UNL d   1      -0.899  -2.216  -0.069  0.00  0.00    -0.096 F 
ATOM     11  F3  UNL d   1       1.756  -2.744  -0.142  0.00  0.00    -0.097 F 
ATOM     12  F4  UNL d   1       3.570  -0.707  -0.086  0.00  0.00    -0.092 F 
ENDROOT
TORSDOF 0
ENDMDL
