MODEL 1
REMARK minimizedAffinity -0.726447225
REMARK minimizedRMSD -1
REMARK  0 active torsions:
REMARK  status: ('A' for Active; 'I' for Inactive)
ROOT
ATOM      1  C   UNL d   1       3.141  -0.881   0.597  0.00  0.00     0.124 A 
ATOM      2  C1  UNL d   1       2.119  -1.586  -0.024  0.00  0.00     0.062 A 
ATOM      3  C2  UNL d   1       0.932  -0.944  -0.362  0.00  0.00     0.162 A 
ATOM      4  C3  UNL d   1       0.760   0.412  -0.082  0.00  0.00    -0.034 A 
ATOM      5  C4  UNL d   1       1.792   1.114   0.543  0.00  0.00     0.162 A 
ATOM      6  C5  UNL d   1       2.977   0.468   0.880  0.00  0.00     0.062 A 
ATOM      7  F   UNL d   1       3.963   1.150   1.479  0.00  0.00    -0.097 F 
ATOM      8  F1  UNL d   1       1.660   2.418   0.827  0.00  0.00    -0.096 F 
ATOM      9  I   UNL d   1      -1.015   1.376  -0.587  0.00  0.00    -0.060 I 
ATOM     10  F2  UNL d   1      -0.039  -1.649  -0.961  0.00  0.00    -0.096 F 
ATOM     11  F3  UNL d   1       2.275  -2.889  -0.297  0.00  0.00    -0.097 F 
ATOM     12  F4  UNL d   1       4.283  -1.501   0.922  0.00  0.00    -0.092 F 
ENDROOT
TORSDOF 0
ENDMDL
