MODEL 1
REMARK minimizedAffinity -1.85763133
REMARK minimizedRMSD -1
REMARK  0 active torsions:
REMARK  status: ('A' for Active; 'I' for Inactive)
ROOT
ATOM      1  C   UNL d   1       1.415   1.233   0.156  0.00  0.00     0.124 A 
ATOM      2  C1  UNL d   1       0.977  -0.038   0.502  0.00  0.00     0.062 A 
ATOM      3  C2  UNL d   1      -0.383  -0.333   0.504  0.00  0.00     0.162 A 
ATOM      4  C3  UNL d   1      -1.316   0.645   0.159  0.00  0.00    -0.034 A 
ATOM      5  C4  UNL d   1      -0.868   1.921  -0.187  0.00  0.00     0.162 A 
ATOM      6  C5  UNL d   1       0.493   2.211  -0.188  0.00  0.00     0.062 A 
ATOM      7  F   UNL d   1       0.914   3.439  -0.522  0.00  0.00    -0.097 F 
ATOM      8  F1  UNL d   1      -1.737   2.885  -0.525  0.00  0.00    -0.096 F 
ATOM      9  I   UNL d   1      -3.351   0.208   0.161  0.00  0.00    -0.060 I 
ATOM     10  F2  UNL d   1      -0.778  -1.569   0.843  0.00  0.00    -0.096 F 
ATOM     11  F3  UNL d   1       1.866  -0.984   0.836  0.00  0.00    -0.097 F 
ATOM     12  F4  UNL d   1       2.724   1.514   0.156  0.00  0.00    -0.092 F 
ENDROOT
TORSDOF 0
ENDMDL
