MODEL 1
REMARK minimizedAffinity -4.27904749
REMARK minimizedRMSD -1
REMARK  0 active torsions:
REMARK  status: ('A' for Active; 'I' for Inactive)
ROOT
ATOM      1  C   UNL d   1      -0.312  -0.059  -1.133  0.00  0.00     0.124 A 
ATOM      2  C1  UNL d   1       0.365   1.105  -0.795  0.00  0.00     0.062 A 
ATOM      3  C2  UNL d   1       1.647   1.038  -0.257  0.00  0.00     0.162 A 
ATOM      4  C3  UNL d   1       2.262  -0.197  -0.054  0.00  0.00    -0.034 A 
ATOM      5  C4  UNL d   1       1.575  -1.363  -0.396  0.00  0.00     0.162 A 
ATOM      6  C5  UNL d   1       0.294  -1.291  -0.933  0.00  0.00     0.062 A 
ATOM      7  F   UNL d   1      -0.359  -2.417  -1.260  0.00  0.00    -0.097 F 
ATOM      8  F1  UNL d   1       2.136  -2.568  -0.215  0.00  0.00    -0.096 F 
ATOM      9  I   UNL d   1       4.178  -0.302   0.750  0.00  0.00    -0.060 I 
ATOM     10  F2  UNL d   1       2.277   2.179   0.061  0.00  0.00    -0.096 F 
ATOM     11  F3  UNL d   1      -0.218   2.297  -0.986  0.00  0.00    -0.097 F 
ATOM     12  F4  UNL d   1      -1.545   0.009  -1.650  0.00  0.00    -0.092 F 
ENDROOT
TORSDOF 0
ENDMDL
