MODEL 1
REMARK minimizedAffinity -2.82971931
REMARK minimizedRMSD -1
REMARK  0 active torsions:
REMARK  status: ('A' for Active; 'I' for Inactive)
ROOT
ATOM      1  C   UNL d   1       3.066  -0.478   0.878  0.00  0.00     0.124 A 
ATOM      2  C1  UNL d   1       2.700   0.826   0.575  0.00  0.00     0.062 A 
ATOM      3  C2  UNL d   1       1.439   1.095   0.051  0.00  0.00     0.162 A 
ATOM      4  C3  UNL d   1       0.534   0.058  -0.173  0.00  0.00    -0.034 A 
ATOM      5  C4  UNL d   1       0.909  -1.251   0.134  0.00  0.00     0.162 A 
ATOM      6  C5  UNL d   1       2.170  -1.515   0.657  0.00  0.00     0.062 A 
ATOM      7  F   UNL d   1       2.522  -2.776   0.950  0.00  0.00    -0.097 F 
ATOM      8  F1  UNL d   1       0.063  -2.272  -0.069  0.00  0.00    -0.096 F 
ATOM      9  I   UNL d   1      -1.353   0.457  -0.957  0.00  0.00    -0.060 I 
ATOM     10  F2  UNL d   1       1.113   2.365  -0.233  0.00  0.00    -0.096 F 
ATOM     11  F3  UNL d   1       3.564   1.829   0.787  0.00  0.00    -0.097 F 
ATOM     12  F4  UNL d   1       4.280  -0.735   1.382  0.00  0.00    -0.092 F 
ENDROOT
TORSDOF 0
ENDMDL
