MODEL 1
REMARK minimizedAffinity -0.651915729
REMARK minimizedRMSD -1
REMARK  0 active torsions:
REMARK  status: ('A' for Active; 'I' for Inactive)
ROOT
ATOM      1  C   UNL d   1       2.539  -0.239   0.220  0.00  0.00     0.124 A 
ATOM      2  C1  UNL d   1       1.670  -1.321   0.238  0.00  0.00     0.062 A 
ATOM      3  C2  UNL d   1       0.298  -1.119   0.116  0.00  0.00     0.162 A 
ATOM      4  C3  UNL d   1      -0.213   0.172  -0.024  0.00  0.00    -0.034 A 
ATOM      5  C4  UNL d   1       0.668   1.255  -0.040  0.00  0.00     0.162 A 
ATOM      6  C5  UNL d   1       2.038   1.047   0.082  0.00  0.00     0.062 A 
ATOM      7  F   UNL d   1       2.876   2.094   0.065  0.00  0.00    -0.097 F 
ATOM      8  F1  UNL d   1       0.210   2.508  -0.173  0.00  0.00    -0.096 F 
ATOM      9  I   UNL d   1      -2.264   0.479  -0.205  0.00  0.00    -0.060 I 
ATOM     10  F2  UNL d   1      -0.519  -2.182   0.136  0.00  0.00    -0.096 F 
ATOM     11  F3  UNL d   1       2.152  -2.565   0.372  0.00  0.00    -0.097 F 
ATOM     12  F4  UNL d   1       3.859  -0.437   0.338  0.00  0.00    -0.092 F 
ENDROOT
TORSDOF 0
ENDMDL
