MODEL 1
REMARK minimizedAffinity 10.9479189
REMARK minimizedRMSD -1
REMARK  0 active torsions:
REMARK  status: ('A' for Active; 'I' for Inactive)
ROOT
ATOM      1  C   UNL d   1       2.485  -2.257  -1.222  0.00  0.00     0.124 A 
ATOM      2  C1  UNL d   1       2.980  -0.962  -1.153  0.00  0.00     0.062 A 
ATOM      3  C2  UNL d   1       2.254   0.031  -0.504  0.00  0.00     0.162 A 
ATOM      4  C3  UNL d   1       1.024  -0.266   0.084  0.00  0.00    -0.034 A 
ATOM      5  C4  UNL d   1       0.532  -1.571   0.010  0.00  0.00     0.162 A 
ATOM      6  C5  UNL d   1       1.262  -2.560  -0.640  0.00  0.00     0.062 A 
ATOM      7  F   UNL d   1       0.783  -3.811  -0.706  0.00  0.00    -0.097 F 
ATOM      8  F1  UNL d   1      -0.646  -1.892   0.564  0.00  0.00    -0.096 F 
ATOM      9  I   UNL d   1      -0.065   1.216   1.057  0.00  0.00    -0.060 I 
ATOM     10  F2  UNL d   1       2.756   1.274  -0.453  0.00  0.00    -0.096 F 
ATOM     11  F3  UNL d   1       4.161  -0.667  -1.715  0.00  0.00    -0.097 F 
ATOM     12  F4  UNL d   1       3.186  -3.211  -1.849  0.00  0.00    -0.092 F 
ENDROOT
TORSDOF 0
ENDMDL
