MODEL 1
REMARK minimizedAffinity 6.71879196
REMARK minimizedRMSD -1
REMARK  0 active torsions:
REMARK  status: ('A' for Active; 'I' for Inactive)
ROOT
ATOM      1  C   UNL d   1       0.531  -1.794  -0.607  0.00  0.00     0.124 A 
ATOM      2  C1  UNL d   1       1.877  -2.128  -0.543  0.00  0.00     0.062 A 
ATOM      3  C2  UNL d   1       2.843  -1.128  -0.469  0.00  0.00     0.162 A 
ATOM      4  C3  UNL d   1       2.466   0.215  -0.457  0.00  0.00    -0.034 A 
ATOM      5  C4  UNL d   1       1.111   0.542  -0.523  0.00  0.00     0.162 A 
ATOM      6  C5  UNL d   1       0.149  -0.460  -0.597  0.00  0.00     0.062 A 
ATOM      7  F   UNL d   1      -1.150  -0.136  -0.659  0.00  0.00    -0.097 F 
ATOM      8  F1  UNL d   1       0.714   1.824  -0.514  0.00  0.00    -0.096 F 
ATOM      9  I   UNL d   1       3.907   1.712  -0.346  0.00  0.00    -0.060 I 
ATOM     10  F2  UNL d   1       4.136  -1.479  -0.408  0.00  0.00    -0.096 F 
ATOM     11  F3  UNL d   1       2.248  -3.416  -0.554  0.00  0.00    -0.097 F 
ATOM     12  F4  UNL d   1      -0.396  -2.758  -0.680  0.00  0.00    -0.092 F 
ENDROOT
TORSDOF 0
ENDMDL
