MODEL 1
REMARK minimizedAffinity -4.9973731
REMARK minimizedRMSD -1
REMARK  1 active torsions:
REMARK  status: ('A' for Active; 'I' for Inactive)
REMARK    1  A    between atoms: C1_2  and  C2_3 
ROOT
ATOM      1  C2  UNL d   1      -1.155   0.270  -0.380  0.00  0.00    -0.077 A 
ATOM      2  C3  UNL d   1      -1.907  -0.151   0.726  0.00  0.00     0.002 A 
ATOM      3  C4  UNL d   1      -1.276  -0.465   1.931  0.00  0.00     0.002 A 
ATOM      4  C5  UNL d   1       0.108  -0.358   2.043  0.00  0.00    -0.004 A 
ATOM      5  C6  UNL d   1       0.865   0.058   0.949  0.00  0.00     0.002 A 
ATOM      6  C7  UNL d   1       0.237   0.371  -0.257  0.00  0.00     0.002 A 
ENDROOT
BRANCH   1   7
ATOM      7  C1  UNL d   1      -1.838   0.657  -1.665  0.00  0.00     0.055 C 
ATOM      8  C   UNL d   1      -1.106   1.796  -2.360  0.00  0.00     0.019 C 
ENDBRANCH   1   7
TORSDOF 1
ENDMDL
