MODEL 1
REMARK minimizedAffinity -3.59637427
REMARK minimizedRMSD -1
REMARK  1 active torsions:
REMARK  status: ('A' for Active; 'I' for Inactive)
REMARK    1  A    between atoms: C1_2  and  C2_3 
ROOT
ATOM      1  C2  UNL d   1      -0.788   1.463  -1.918  0.00  0.00    -0.077 A 
ATOM      2  C3  UNL d   1       0.312   2.331  -1.977  0.00  0.00     0.002 A 
ATOM      3  C4  UNL d   1       0.133   3.676  -2.307  0.00  0.00     0.002 A 
ATOM      4  C5  UNL d   1      -1.144   4.165  -2.576  0.00  0.00    -0.004 A 
ATOM      5  C6  UNL d   1      -2.243   3.309  -2.522  0.00  0.00     0.002 A 
ATOM      6  C7  UNL d   1      -2.066   1.964  -2.193  0.00  0.00     0.002 A 
ENDROOT
BRANCH   1   7
ATOM      7  C1  UNL d   1      -0.603   0.023  -1.515  0.00  0.00     0.055 C 
ATOM      8  C   UNL d   1      -0.096  -0.090  -0.085  0.00  0.00     0.019 C 
ENDBRANCH   1   7
TORSDOF 1
ENDMDL
