MODEL 1
REMARK minimizedAffinity -2.38385558
REMARK minimizedRMSD -1
REMARK  1 active torsions:
REMARK  status: ('A' for Active; 'I' for Inactive)
REMARK    1  A    between atoms: C1_2  and  C2_3 
ROOT
ATOM      1  C2  UNL d   1      -0.016   0.061  -0.565  0.00  0.00    -0.077 A 
ATOM      2  C3  UNL d   1       1.014  -0.865  -0.778  0.00  0.00     0.002 A 
ATOM      3  C4  UNL d   1       2.267  -0.438  -1.221  0.00  0.00     0.002 A 
ATOM      4  C5  UNL d   1       2.503   0.916  -1.451  0.00  0.00    -0.004 A 
ATOM      5  C6  UNL d   1       1.484   1.845  -1.244  0.00  0.00     0.002 A 
ATOM      6  C7  UNL d   1       0.230   1.420  -0.802  0.00  0.00     0.002 A 
ENDROOT
BRANCH   1   7
ATOM      7  C1  UNL d   1      -1.354  -0.392  -0.040  0.00  0.00     0.055 C 
ATOM      8  C   UNL d   1      -1.377  -0.401   1.482  0.00  0.00     0.019 C 
ENDBRANCH   1   7
TORSDOF 1
ENDMDL
