MODEL 1
REMARK minimizedAffinity -0.354967326
REMARK minimizedRMSD -1
REMARK  1 active torsions:
REMARK  status: ('A' for Active; 'I' for Inactive)
REMARK    1  A    between atoms: C1_2  and  C2_3 
ROOT
ATOM      1  C2  UNL d   1      -0.976   1.304  -1.058  0.00  0.00    -0.077 A 
ATOM      2  C3  UNL d   1      -1.571   0.695   0.055  0.00  0.00     0.002 A 
ATOM      3  C4  UNL d   1      -0.798  -0.045   0.952  0.00  0.00     0.002 A 
ATOM      4  C5  UNL d   1       0.574  -0.179   0.747  0.00  0.00    -0.004 A 
ATOM      5  C6  UNL d   1       1.174   0.421  -0.359  0.00  0.00     0.002 A 
ATOM      6  C7  UNL d   1       0.403   1.160  -1.257  0.00  0.00     0.002 A 
ENDROOT
BRANCH   1   7
ATOM      7  C1  UNL d   1      -1.800   2.143  -2.000  0.00  0.00     0.055 C 
ATOM      8  C   UNL d   1      -1.167   3.510  -2.221  0.00  0.00     0.019 C 
ENDBRANCH   1   7
TORSDOF 1
ENDMDL
