MODEL 1
REMARK minimizedAffinity -4.78331184
REMARK minimizedRMSD -1
REMARK  1 active torsions:
REMARK  status: ('A' for Active; 'I' for Inactive)
REMARK    1  A    between atoms: C1_2  and  C2_3 
ROOT
ATOM      1  C2  UNL d   1      -1.269  -0.245   1.150  0.00  0.00    -0.077 A 
ATOM      2  C3  UNL d   1      -0.469  -0.725   2.196  0.00  0.00     0.002 A 
ATOM      3  C4  UNL d   1       0.817  -1.205   1.939  0.00  0.00     0.002 A 
ATOM      4  C5  UNL d   1       1.315  -1.205   0.638  0.00  0.00    -0.004 A 
ATOM      5  C6  UNL d   1       0.527  -0.730  -0.410  0.00  0.00     0.002 A 
ATOM      6  C7  UNL d   1      -0.759  -0.252  -0.155  0.00  0.00     0.002 A 
ENDROOT
BRANCH   1   7
ATOM      7  C1  UNL d   1      -2.637   0.319   1.431  0.00  0.00     0.055 C 
ATOM      8  C   UNL d   1      -3.714  -0.431   0.661  0.00  0.00     0.019 C 
ENDBRANCH   1   7
TORSDOF 1
ENDMDL
