MODEL 1
REMARK minimizedAffinity -1.82640052
REMARK minimizedRMSD -1
REMARK  1 active torsions:
REMARK  status: ('A' for Active; 'I' for Inactive)
REMARK    1  A    between atoms: C1_2  and  C2_3 
ROOT
ATOM      1  C2  UNL d   1      -0.194   0.225   0.275  0.00  0.00    -0.077 A 
ATOM      2  C3  UNL d   1       0.025   1.600   0.438  0.00  0.00     0.002 A 
ATOM      3  C4  UNL d   1      -0.297   2.493  -0.587  0.00  0.00     0.002 A 
ATOM      4  C5  UNL d   1      -0.841   2.021  -1.779  0.00  0.00    -0.004 A 
ATOM      5  C6  UNL d   1      -1.060   0.655  -1.952  0.00  0.00     0.002 A 
ATOM      6  C7  UNL d   1      -0.739  -0.239  -0.929  0.00  0.00     0.002 A 
ENDROOT
BRANCH   1   7
ATOM      7  C1  UNL d   1       0.106  -0.734   1.397  0.00  0.00     0.055 C 
ATOM      8  C   UNL d   1      -0.446  -0.227   2.721  0.00  0.00     0.019 C 
ENDBRANCH   1   7
TORSDOF 1
ENDMDL
