MODEL 1
REMARK minimizedAffinity -2.91148305
REMARK minimizedRMSD -1
REMARK  1 active torsions:
REMARK  status: ('A' for Active; 'I' for Inactive)
REMARK    1  A    between atoms: C1_2  and  C2_3 
ROOT
ATOM      1  C2  UNL d   1       0.538  -0.314   0.364  0.00  0.00    -0.077 A 
ATOM      2  C3  UNL d   1       0.864  -1.255   1.350  0.00  0.00     0.002 A 
ATOM      3  C4  UNL d   1       1.111  -0.846   2.662  0.00  0.00     0.002 A 
ATOM      4  C5  UNL d   1       1.032   0.503   3.000  0.00  0.00    -0.004 A 
ATOM      5  C6  UNL d   1       0.711   1.447   2.025  0.00  0.00     0.002 A 
ATOM      6  C7  UNL d   1       0.464   1.040   0.713  0.00  0.00     0.002 A 
ENDROOT
BRANCH   1   7
ATOM      7  C1  UNL d   1       0.222  -0.759  -1.041  0.00  0.00     0.055 C 
ATOM      8  C   UNL d   1      -1.279  -0.766  -1.295  0.00  0.00     0.019 C 
ENDBRANCH   1   7
TORSDOF 1
ENDMDL
