MODEL 1
REMARK minimizedAffinity -2.8496666
REMARK minimizedRMSD -1
REMARK  1 active torsions:
REMARK  status: ('A' for Active; 'I' for Inactive)
REMARK    1  A    between atoms: C1_2  and  C2_3 
ROOT
ATOM      1  C2  UNL d   1      -1.114   0.002   2.551  0.00  0.00    -0.077 A 
ATOM      2  C3  UNL d   1      -0.755  -0.968   1.604  0.00  0.00     0.002 A 
ATOM      3  C4  UNL d   1       0.518  -1.541   1.627  0.00  0.00     0.002 A 
ATOM      4  C5  UNL d   1       1.440  -1.154   2.597  0.00  0.00    -0.004 A 
ATOM      5  C6  UNL d   1       1.094  -0.189   3.542  0.00  0.00     0.002 A 
ATOM      6  C7  UNL d   1      -0.178   0.386   3.520  0.00  0.00     0.002 A 
ENDROOT
BRANCH   1   7
ATOM      7  C1  UNL d   1      -2.503   0.585   2.558  0.00  0.00     0.055 C 
ATOM      8  C   UNL d   1      -3.175   0.429   1.202  0.00  0.00     0.019 C 
ENDBRANCH   1   7
TORSDOF 1
ENDMDL
