MODEL 1
REMARK minimizedAffinity -2.2486465
REMARK minimizedRMSD -1
REMARK  0 active torsions:
REMARK  status: ('A' for Active; 'I' for Inactive)
ROOT
ATOM      1  C   UNL d   1       0.199   1.697   0.143  0.00  0.00     0.078 C 
ATOM      2  C1  UNL d   1      -0.186   0.268  -0.102  0.00  0.00    -0.077 A 
ATOM      3  C2  UNL d   1      -0.787  -0.499   0.904  0.00  0.00    -0.001 A 
ATOM      4  C3  UNL d   1      -1.131  -1.831   0.665  0.00  0.00     0.003 A 
ATOM      5  C4  UNL d   1      -0.876  -2.407  -0.578  0.00  0.00    -0.005 A 
ATOM      6  C5  UNL d   1      -0.277  -1.652  -1.584  0.00  0.00     0.003 A 
ATOM      7  C6  UNL d   1       0.068  -0.320  -1.347  0.00  0.00    -0.001 A 
ENDROOT
TORSDOF 0
ENDMDL
