MODEL 1
REMARK minimizedAffinity -4.5039506
REMARK minimizedRMSD -1
REMARK  0 active torsions:
REMARK  status: ('A' for Active; 'I' for Inactive)
ROOT
ATOM      1  C   UNL d   1       0.091   1.927   0.230  0.00  0.00     0.078 C 
ATOM      2  C1  UNL d   1      -0.226   0.469   0.383  0.00  0.00    -0.077 A 
ATOM      3  C2  UNL d   1       0.266  -0.475  -0.527  0.00  0.00    -0.001 A 
ATOM      4  C3  UNL d   1      -0.045  -1.827  -0.378  0.00  0.00     0.003 A 
ATOM      5  C4  UNL d   1      -0.849  -2.248   0.679  0.00  0.00    -0.005 A 
ATOM      6  C5  UNL d   1      -1.345  -1.316   1.589  0.00  0.00     0.003 A 
ATOM      7  C6  UNL d   1      -1.035   0.037   1.441  0.00  0.00    -0.001 A 
ENDROOT
TORSDOF 0
ENDMDL
