MODEL 1
REMARK minimizedAffinity -2.46015835
REMARK minimizedRMSD -1
REMARK  0 active torsions:
REMARK  status: ('A' for Active; 'I' for Inactive)
ROOT
ATOM      1  C   UNL d   1       1.030   2.305  -0.042  0.00  0.00     0.078 C 
ATOM      2  C1  UNL d   1       0.307   1.067   0.397  0.00  0.00    -0.077 A 
ATOM      3  C2  UNL d   1       0.491  -0.151  -0.269  0.00  0.00    -0.001 A 
ATOM      4  C3  UNL d   1      -0.196  -1.293   0.145  0.00  0.00     0.003 A 
ATOM      5  C4  UNL d   1      -1.074  -1.228   1.226  0.00  0.00    -0.005 A 
ATOM      6  C5  UNL d   1      -1.266  -0.020   1.893  0.00  0.00     0.003 A 
ATOM      7  C6  UNL d   1      -0.579   1.123   1.480  0.00  0.00    -0.001 A 
ENDROOT
TORSDOF 0
ENDMDL
