MODEL 1
REMARK minimizedAffinity -0.461935341
REMARK minimizedRMSD -1
REMARK  0 active torsions:
REMARK  status: ('A' for Active; 'I' for Inactive)
ROOT
ATOM      1  C   UNL d   1      -1.076  -3.005   0.300  0.00  0.00     0.078 C 
ATOM      2  C1  UNL d   1      -0.709  -1.659  -0.250  0.00  0.00    -0.077 A 
ATOM      3  C2  UNL d   1      -0.136  -1.531  -1.521  0.00  0.00    -0.001 A 
ATOM      4  C3  UNL d   1       0.210  -0.273  -2.016  0.00  0.00     0.003 A 
ATOM      5  C4  UNL d   1      -0.013   0.867  -1.247  0.00  0.00    -0.005 A 
ATOM      6  C5  UNL d   1      -0.582   0.750   0.020  0.00  0.00     0.003 A 
ATOM      7  C6  UNL d   1      -0.928  -0.508   0.517  0.00  0.00    -0.001 A 
ENDROOT
TORSDOF 0
ENDMDL
