MODEL 1
REMARK minimizedAffinity -2.86624718
REMARK minimizedRMSD -1
REMARK  0 active torsions:
REMARK  status: ('A' for Active; 'I' for Inactive)
ROOT
ATOM      1  C   UNL d   1       0.778  -0.386  -3.261  0.00  0.00     0.078 C 
ATOM      2  C1  UNL d   1       0.272  -0.369  -1.850  0.00  0.00    -0.077 A 
ATOM      3  C2  UNL d   1      -0.112  -1.553  -1.208  0.00  0.00    -0.001 A 
ATOM      4  C3  UNL d   1      -0.590  -1.522   0.103  0.00  0.00     0.003 A 
ATOM      5  C4  UNL d   1      -0.690  -0.309   0.783  0.00  0.00    -0.005 A 
ATOM      6  C5  UNL d   1      -0.313   0.874   0.151  0.00  0.00     0.003 A 
ATOM      7  C6  UNL d   1       0.166   0.845  -1.160  0.00  0.00    -0.001 A 
ENDROOT
TORSDOF 0
ENDMDL
