MODEL 1
REMARK minimizedAffinity -5.72337866
REMARK minimizedRMSD -1
REMARK  0 active torsions:
REMARK  status: ('A' for Active; 'I' for Inactive)
ROOT
ATOM      1  C   UNL d   1       0.015   1.319  -0.318  0.00  0.00     0.078 C 
ATOM      2  C1  UNL d   1      -0.016  -0.164  -0.093  0.00  0.00    -0.077 A 
ATOM      3  C2  UNL d   1      -1.009  -0.753   0.699  0.00  0.00    -0.001 A 
ATOM      4  C3  UNL d   1      -1.020  -2.133   0.908  0.00  0.00     0.003 A 
ATOM      5  C4  UNL d   1      -0.039  -2.935   0.328  0.00  0.00    -0.005 A 
ATOM      6  C5  UNL d   1       0.954  -2.358  -0.461  0.00  0.00     0.003 A 
ATOM      7  C6  UNL d   1       0.967  -0.978  -0.670  0.00  0.00    -0.001 A 
ENDROOT
TORSDOF 0
ENDMDL
