MODEL 1
REMARK minimizedAffinity -5.02792501
REMARK minimizedRMSD -1
REMARK  0 active torsions:
REMARK  status: ('A' for Active; 'I' for Inactive)
ROOT
ATOM      1  C   UNL d   1       0.198   1.344  -0.018  0.00  0.00     0.078 C 
ATOM      2  C1  UNL d   1      -0.232  -0.074   0.210  0.00  0.00    -0.077 A 
ATOM      3  C2  UNL d   1      -0.643  -0.509   1.476  0.00  0.00    -0.001 A 
ATOM      4  C3  UNL d   1      -1.031  -1.835   1.676  0.00  0.00     0.003 A 
ATOM      5  C4  UNL d   1      -1.011  -2.737   0.614  0.00  0.00    -0.005 A 
ATOM      6  C5  UNL d   1      -0.602  -2.315  -0.649  0.00  0.00     0.003 A 
ATOM      7  C6  UNL d   1      -0.213  -0.989  -0.851  0.00  0.00    -0.001 A 
ENDROOT
TORSDOF 0
ENDMDL
