MODEL 1
REMARK minimizedAffinity -3.30036116
REMARK minimizedRMSD -1
REMARK  0 active torsions:
REMARK  status: ('A' for Active; 'I' for Inactive)
ROOT
ATOM      1  C   UNL d   1      -0.151  -3.384   0.097  0.00  0.00     0.078 C 
ATOM      2  C1  UNL d   1      -0.135  -1.898  -0.102  0.00  0.00    -0.077 A 
ATOM      3  C2  UNL d   1       0.318  -1.336  -1.301  0.00  0.00    -0.001 A 
ATOM      4  C3  UNL d   1       0.336   0.050  -1.469  0.00  0.00     0.003 A 
ATOM      5  C4  UNL d   1      -0.095   0.885  -0.440  0.00  0.00    -0.005 A 
ATOM      6  C5  UNL d   1      -0.545   0.335   0.758  0.00  0.00     0.003 A 
ATOM      7  C6  UNL d   1      -0.565  -1.051   0.928  0.00  0.00    -0.001 A 
ENDROOT
TORSDOF 0
ENDMDL
