MODEL 1
REMARK minimizedAffinity -3.50956798
REMARK minimizedRMSD -1
REMARK  0 active torsions:
REMARK  status: ('A' for Active; 'I' for Inactive)
ROOT
ATOM      1  C   UNL d   1      -0.944  -2.909   0.382  0.00  0.00     0.078 C 
ATOM      2  C1  UNL d   1      -0.561  -1.584  -0.208  0.00  0.00    -0.077 A 
ATOM      3  C2  UNL d   1      -0.035  -1.496  -1.502  0.00  0.00    -0.001 A 
ATOM      4  C3  UNL d   1       0.326  -0.257  -2.034  0.00  0.00     0.003 A 
ATOM      5  C4  UNL d   1       0.167   0.903  -1.278  0.00  0.00    -0.005 A 
ATOM      6  C5  UNL d   1      -0.353   0.824   0.012  0.00  0.00     0.003 A 
ATOM      7  C6  UNL d   1      -0.715  -0.414   0.546  0.00  0.00    -0.001 A 
ENDROOT
TORSDOF 0
ENDMDL
