MODEL 1
REMARK minimizedAffinity -4.65830755
REMARK minimizedRMSD -1
REMARK  0 active torsions:
REMARK  status: ('A' for Active; 'I' for Inactive)
ROOT
ATOM      1  C   UNL d   1       1.804   3.323   0.824  0.00  0.00     0.078 C 
ATOM      2  C1  UNL d   1       1.232   2.256  -0.060  0.00  0.00    -0.077 A 
ATOM      3  C2  UNL d   1       1.916   1.822  -1.202  0.00  0.00    -0.001 A 
ATOM      4  C3  UNL d   1       1.367   0.834  -2.021  0.00  0.00     0.003 A 
ATOM      5  C4  UNL d   1       0.132   0.272  -1.707  0.00  0.00    -0.005 A 
ATOM      6  C5  UNL d   1      -0.558   0.698  -0.574  0.00  0.00     0.003 A 
ATOM      7  C6  UNL d   1      -0.011   1.686   0.246  0.00  0.00    -0.001 A 
ENDROOT
TORSDOF 0
ENDMDL
