MODEL 1
REMARK minimizedAffinity 0.159265786
REMARK minimizedRMSD -1
REMARK  0 active torsions:
REMARK  status: ('A' for Active; 'I' for Inactive)
ROOT
ATOM      1  C   UNL d   1      -0.301   2.418   0.244  0.00  0.00     0.078 C 
ATOM      2  C1  UNL d   1      -0.092   1.118  -0.473  0.00  0.00    -0.077 A 
ATOM      3  C2  UNL d   1      -0.066  -0.095   0.227  0.00  0.00    -0.001 A 
ATOM      4  C3  UNL d   1       0.139  -1.297  -0.452  0.00  0.00     0.003 A 
ATOM      5  C4  UNL d   1       0.321  -1.298  -1.834  0.00  0.00    -0.005 A 
ATOM      6  C5  UNL d   1       0.298  -0.096  -2.538  0.00  0.00     0.003 A 
ATOM      7  C6  UNL d   1       0.093   1.107  -1.861  0.00  0.00    -0.001 A 
ENDROOT
TORSDOF 0
ENDMDL
