MODEL 1
REMARK minimizedAffinity -0.0606907643
REMARK minimizedRMSD -1
REMARK  0 active torsions:
REMARK  status: ('A' for Active; 'I' for Inactive)
ROOT
ATOM      1  C   UNL d   1       1.018   3.422   1.362  0.00  0.00     0.078 C 
ATOM      2  C1  UNL d   1       0.569   2.033   1.018  0.00  0.00    -0.077 A 
ATOM      3  C2  UNL d   1       1.037   1.387  -0.132  0.00  0.00    -0.001 A 
ATOM      4  C3  UNL d   1       0.602   0.098  -0.444  0.00  0.00     0.003 A 
ATOM      5  C4  UNL d   1      -0.303  -0.556   0.389  0.00  0.00    -0.005 A 
ATOM      6  C5  UNL d   1      -0.777   0.080   1.535  0.00  0.00     0.003 A 
ATOM      7  C6  UNL d   1      -0.343   1.369   1.848  0.00  0.00    -0.001 A 
ENDROOT
TORSDOF 0
ENDMDL
