MODEL 1
REMARK minimizedAffinity -3.77995038
REMARK minimizedRMSD -1
REMARK  0 active torsions:
REMARK  status: ('A' for Active; 'I' for Inactive)
ROOT
ATOM      1  C   UNL d   1       0.018   1.853  -0.182  0.00  0.00     0.078 C 
ATOM      2  C1  UNL d   1      -0.254   0.380  -0.100  0.00  0.00    -0.077 A 
ATOM      3  C2  UNL d   1      -0.934  -0.168   0.994  0.00  0.00    -0.001 A 
ATOM      4  C3  UNL d   1      -1.171  -1.542   1.062  0.00  0.00     0.003 A 
ATOM      5  C4  UNL d   1      -0.730  -2.379   0.039  0.00  0.00    -0.005 A 
ATOM      6  C5  UNL d   1      -0.050  -1.843  -1.053  0.00  0.00     0.003 A 
ATOM      7  C6  UNL d   1       0.188  -0.469  -1.122  0.00  0.00    -0.001 A 
ENDROOT
TORSDOF 0
ENDMDL
