MODEL 1
REMARK minimizedAffinity 3.71426487
REMARK minimizedRMSD -1
REMARK  0 active torsions:
REMARK  status: ('A' for Active; 'I' for Inactive)
ROOT
ATOM      1  C   UNL d   1      -3.795   3.258  -3.026  0.00  0.00     0.077 C 
ATOM      2  C1  UNL d   1      -3.811   2.051  -3.917  0.00  0.00    -0.074 A 
ATOM      3  C2  UNL d   1      -4.507   2.063  -5.130  0.00  0.00    -0.005 A 
ATOM      4  C3  UNL d   1      -4.505   0.936  -5.953  0.00  0.00     0.006 A 
ATOM      5  C4  UNL d   1      -3.808  -0.211  -5.571  0.00  0.00    -0.005 A 
ATOM      6  C5  UNL d   1      -3.106  -0.241  -4.362  0.00  0.00    -0.074 A 
ATOM      7  C6  UNL d   1      -2.345  -1.462  -3.941  0.00  0.00     0.077 C 
ATOM      8  C7  UNL d   1      -3.108   0.898  -3.544  0.00  0.00    -0.001 A 
ENDROOT
TORSDOF 0
ENDMDL
