MODEL 1
REMARK minimizedAffinity 2.4385891
REMARK minimizedRMSD -1
REMARK  0 active torsions:
REMARK  status: ('A' for Active; 'I' for Inactive)
ROOT
ATOM      1  C   UNL d   1      -1.858  -1.001  -5.839  0.00  0.00     0.077 C 
ATOM      2  C1  UNL d   1      -2.990  -0.703  -4.901  0.00  0.00    -0.074 A 
ATOM      3  C2  UNL d   1      -4.026   0.160  -5.276  0.00  0.00    -0.005 A 
ATOM      4  C3  UNL d   1      -5.077   0.420  -4.397  0.00  0.00     0.006 A 
ATOM      5  C4  UNL d   1      -5.103  -0.179  -3.136  0.00  0.00    -0.005 A 
ATOM      6  C5  UNL d   1      -4.077  -1.045  -2.745  0.00  0.00    -0.074 A 
ATOM      7  C6  UNL d   1      -4.095  -1.704  -1.398  0.00  0.00     0.077 C 
ATOM      8  C7  UNL d   1      -3.028  -1.306  -3.637  0.00  0.00    -0.001 A 
ENDROOT
TORSDOF 0
ENDMDL
