MODEL 1
REMARK minimizedAffinity -0.761988223
REMARK minimizedRMSD -1
REMARK  0 active torsions:
REMARK  status: ('A' for Active; 'I' for Inactive)
ROOT
ATOM      1  C   UNL d   1      -5.999   1.385  -5.555  0.00  0.00     0.077 C 
ATOM      2  C1  UNL d   1      -4.900   0.441  -5.167  0.00  0.00    -0.074 A 
ATOM      3  C2  UNL d   1      -3.713   0.378  -5.904  0.00  0.00    -0.005 A 
ATOM      4  C3  UNL d   1      -2.696  -0.498  -5.525  0.00  0.00     0.006 A 
ATOM      5  C4  UNL d   1      -2.855  -1.319  -4.408  0.00  0.00    -0.005 A 
ATOM      6  C5  UNL d   1      -4.035  -1.270  -3.659  0.00  0.00    -0.074 A 
ATOM      7  C6  UNL d   1      -4.218  -2.138  -2.450  0.00  0.00     0.077 C 
ATOM      8  C7  UNL d   1      -5.049  -0.382  -4.042  0.00  0.00    -0.001 A 
ENDROOT
TORSDOF 0
ENDMDL
