MODEL 1
REMARK minimizedAffinity 1.11120474
REMARK minimizedRMSD -1
REMARK  0 active torsions:
REMARK  status: ('A' for Active; 'I' for Inactive)
ROOT
ATOM      1  C   UNL d   1       2.282  -2.810   1.031  0.00  0.00     0.077 C 
ATOM      2  C1  UNL d   1       3.309  -3.649   1.731  0.00  0.00    -0.074 A 
ATOM      3  C2  UNL d   1       4.096  -4.562   1.022  0.00  0.00    -0.005 A 
ATOM      4  C3  UNL d   1       5.055  -5.328   1.686  0.00  0.00     0.006 A 
ATOM      5  C4  UNL d   1       5.234  -5.190   3.063  0.00  0.00    -0.005 A 
ATOM      6  C5  UNL d   1       4.457  -4.281   3.788  0.00  0.00    -0.074 A 
ATOM      7  C6  UNL d   1       4.644  -4.113   5.267  0.00  0.00     0.077 C 
ATOM      8  C7  UNL d   1       3.501  -3.510   3.113  0.00  0.00    -0.001 A 
ENDROOT
TORSDOF 0
ENDMDL
