MODEL 1
REMARK minimizedAffinity -0.123078845
REMARK minimizedRMSD -1
REMARK  0 active torsions:
REMARK  status: ('A' for Active; 'I' for Inactive)
ROOT
ATOM      1  C   UNL d   1       2.654  -2.582   0.766  0.00  0.00     0.077 C 
ATOM      2  C1  UNL d   1       3.684  -3.248   1.629  0.00  0.00    -0.074 A 
ATOM      3  C2  UNL d   1       4.424  -4.336   1.155  0.00  0.00    -0.005 A 
ATOM      4  C3  UNL d   1       5.386  -4.939   1.965  0.00  0.00     0.006 A 
ATOM      5  C4  UNL d   1       5.617  -4.461   3.256  0.00  0.00    -0.005 A 
ATOM      6  C5  UNL d   1       4.887  -3.373   3.746  0.00  0.00    -0.074 A 
ATOM      7  C6  UNL d   1       5.130  -2.841   5.127  0.00  0.00     0.077 C 
ATOM      8  C7  UNL d   1       3.928  -2.768   2.923  0.00  0.00    -0.001 A 
ENDROOT
TORSDOF 0
ENDMDL
