MODEL 1
REMARK minimizedAffinity 1.41425967
REMARK minimizedRMSD -1
REMARK  0 active torsions:
REMARK  status: ('A' for Active; 'I' for Inactive)
ROOT
ATOM      1  C   UNL d   1      -6.000   1.247  -5.215  0.00  0.00     0.077 C 
ATOM      2  C1  UNL d   1      -4.593   0.735  -5.124  0.00  0.00    -0.074 A 
ATOM      3  C2  UNL d   1      -3.603   1.195  -6.000  0.00  0.00    -0.005 A 
ATOM      4  C3  UNL d   1      -2.297   0.717  -5.898  0.00  0.00     0.006 A 
ATOM      5  C4  UNL d   1      -1.967  -0.223  -4.920  0.00  0.00    -0.005 A 
ATOM      6  C5  UNL d   1      -2.943  -0.693  -4.036  0.00  0.00    -0.074 A 
ATOM      7  C6  UNL d   1      -2.603  -1.696  -2.974  0.00  0.00     0.077 C 
ATOM      8  C7  UNL d   1      -4.252  -0.203  -4.140  0.00  0.00    -0.001 A 
ENDROOT
TORSDOF 0
ENDMDL
