MODEL 1
REMARK minimizedAffinity -1.43491161
REMARK minimizedRMSD -1
REMARK  0 active torsions:
REMARK  status: ('A' for Active; 'I' for Inactive)
ROOT
ATOM      1  C   UNL d   1       4.850  -4.028   0.904  0.00  0.00     0.077 C 
ATOM      2  C1  UNL d   1       4.231  -2.698   0.589  0.00  0.00    -0.074 A 
ATOM      3  C2  UNL d   1       2.847  -2.567   0.439  0.00  0.00    -0.005 A 
ATOM      4  C3  UNL d   1       2.285  -1.322   0.156  0.00  0.00     0.006 A 
ATOM      5  C4  UNL d   1       3.100  -0.198   0.019  0.00  0.00    -0.005 A 
ATOM      6  C5  UNL d   1       4.486  -0.310   0.166  0.00  0.00    -0.074 A 
ATOM      7  C6  UNL d   1       5.376   0.890   0.033  0.00  0.00     0.077 C 
ATOM      8  C7  UNL d   1       5.043  -1.563   0.458  0.00  0.00    -0.001 A 
ENDROOT
TORSDOF 0
ENDMDL
