MODEL 1
REMARK minimizedAffinity -3.98723364
REMARK minimizedRMSD -1
REMARK  1 active torsions:
REMARK  status: ('A' for Active; 'I' for Inactive)
REMARK    1  A    between atoms: C1_2  and  C2_3 
ROOT
ATOM      1  C2  UNL d   1      -0.245   0.031   2.879  0.00  0.00    -0.076 A 
ATOM      2  C3  UNL d   1       0.199   1.101   3.676  0.00  0.00     0.004 A 
ATOM      3  C4  UNL d   1       0.575   2.314   3.103  0.00  0.00    -0.003 A 
ATOM      4  C5  UNL d   1       0.513   2.478   1.723  0.00  0.00     0.000 A 
ATOM      5  C6  UNL d   1       0.058   1.433   0.919  0.00  0.00     0.000 A 
ATOM      6  C7  UNL d   1      -0.340   0.209   1.483  0.00  0.00    -0.073 A 
ATOM      7  C8  UNL d   1      -0.817  -0.886   0.568  0.00  0.00     0.078 C 
ENDROOT
BRANCH   1   8
ATOM      8  C1  UNL d   1      -0.613  -1.270   3.555  0.00  0.00     0.053 C 
ATOM      9  C   UNL d   1       0.450  -1.740   4.535  0.00  0.00     0.018 C 
ENDBRANCH   1   8
TORSDOF 1
ENDMDL
