MODEL 1
REMARK minimizedAffinity -1.35388827
REMARK minimizedRMSD -1
REMARK  1 active torsions:
REMARK  status: ('A' for Active; 'I' for Inactive)
REMARK    1  A    between atoms: C1_2  and  C2_3 
ROOT
ATOM      1  C2  UNL d   1      -0.566  -0.908  -0.518  0.00  0.00    -0.076 A 
ATOM      2  C3  UNL d   1      -1.940  -0.648  -0.659  0.00  0.00     0.004 A 
ATOM      3  C4  UNL d   1      -2.642   0.053   0.320  0.00  0.00    -0.003 A 
ATOM      4  C5  UNL d   1      -1.981   0.506   1.457  0.00  0.00     0.000 A 
ATOM      5  C6  UNL d   1      -0.614   0.272   1.605  0.00  0.00     0.000 A 
ATOM      6  C7  UNL d   1       0.112  -0.418   0.620  0.00  0.00    -0.073 A 
ATOM      7  C8  UNL d   1       1.583  -0.647   0.834  0.00  0.00     0.078 C 
ENDROOT
BRANCH   1   8
ATOM      8  C1  UNL d   1       0.137  -1.696  -1.599  0.00  0.00     0.053 C 
ATOM      9  C   UNL d   1       0.332  -0.891  -2.874  0.00  0.00     0.018 C 
ENDBRANCH   1   8
TORSDOF 1
ENDMDL
