MODEL 1
REMARK minimizedAffinity -0.888633609
REMARK minimizedRMSD -1
REMARK  1 active torsions:
REMARK  status: ('A' for Active; 'I' for Inactive)
REMARK    1  A    between atoms: C1_2  and  C2_3 
ROOT
ATOM      1  C2  UNL d   1       3.679   1.721  -0.477  0.00  0.00    -0.076 A 
ATOM      2  C3  UNL d   1       3.731   0.323  -0.335  0.00  0.00     0.004 A 
ATOM      3  C4  UNL d   1       4.050  -0.496  -1.416  0.00  0.00    -0.003 A 
ATOM      4  C5  UNL d   1       4.324   0.069  -2.657  0.00  0.00     0.000 A 
ATOM      5  C6  UNL d   1       4.295   1.454  -2.812  0.00  0.00     0.000 A 
ATOM      6  C7  UNL d   1       3.991   2.296  -1.728  0.00  0.00    -0.073 A 
ATOM      7  C8  UNL d   1       3.967   3.783  -1.953  0.00  0.00     0.078 C 
ENDROOT
BRANCH   1   8
ATOM      8  C1  UNL d   1       3.301   2.558   0.724  0.00  0.00     0.053 C 
ATOM      9  C   UNL d   1       2.130   1.970   1.498  0.00  0.00     0.018 C 
ENDBRANCH   1   8
TORSDOF 1
ENDMDL
