MODEL 1
REMARK minimizedAffinity -1.93915319
REMARK minimizedRMSD -1
REMARK  1 active torsions:
REMARK  status: ('A' for Active; 'I' for Inactive)
REMARK    1  A    between atoms: C1_2  and  C2_3 
ROOT
ATOM      1  C2  UNL d   1      -0.442  -0.284   1.817  0.00  0.00    -0.076 A 
ATOM      2  C3  UNL d   1      -1.773  -0.676   1.592  0.00  0.00     0.004 A 
ATOM      3  C4  UNL d   1      -2.241  -0.919   0.302  0.00  0.00    -0.003 A 
ATOM      4  C5  UNL d   1      -1.385  -0.775  -0.785  0.00  0.00     0.000 A 
ATOM      5  C6  UNL d   1      -0.057  -0.403  -0.578  0.00  0.00     0.000 A 
ATOM      6  C7  UNL d   1       0.435  -0.171   0.718  0.00  0.00    -0.073 A 
ATOM      7  C8  UNL d   1       1.875   0.233   0.882  0.00  0.00     0.078 C 
ENDROOT
BRANCH   1   8
ATOM      8  C1  UNL d   1       0.001  -0.008   3.236  0.00  0.00     0.053 C 
ATOM      9  C   UNL d   1       0.594  -1.236   3.911  0.00  0.00     0.018 C 
ENDBRANCH   1   8
TORSDOF 1
ENDMDL
