MODEL 1
REMARK minimizedAffinity 0.0996414274
REMARK minimizedRMSD -1
REMARK  0 active torsions:
REMARK  status: ('A' for Active; 'I' for Inactive)
ROOT
ATOM      1  C2' OXE d   1       1.004   3.382  -3.221  0.00  0.00     0.078 C 
ATOM      2  C1' OXE d   1       0.698   3.116  -5.998  0.00  0.00     0.078 C 
ATOM      3  C1  OXE d   1      -0.144   4.150  -5.294  0.00  0.00    -0.078 A 
ATOM      4  C2  OXE d   1      -0.022   4.241  -3.929  0.00  0.00    -0.078 A 
ATOM      5  C3  OXE d   1      -0.735   5.216  -3.236  0.00  0.00     0.003 A 
ATOM      6  C4  OXE d   1      -1.689   5.999  -3.897  0.00  0.00    -0.002 A 
ATOM      7  C5  OXE d   1      -1.858   5.895  -5.282  0.00  0.00    -0.002 A 
ATOM      8  C6  OXE d   1      -1.064   5.007  -6.000  0.00  0.00     0.003 A 
ENDROOT
TORSDOF 0
ENDMDL
