MODEL 1
REMARK minimizedAffinity -0.429502547
REMARK minimizedRMSD -1
REMARK  0 active torsions:
REMARK  status: ('A' for Active; 'I' for Inactive)
ROOT
ATOM      1  C2' OXE d   1       1.392   5.426  -5.999  0.00  0.00     0.078 C 
ATOM      2  C1' OXE d   1       1.422   2.619  -5.991  0.00  0.00     0.078 C 
ATOM      3  C1  OXE d   1       0.080   3.308  -5.984  0.00  0.00    -0.078 A 
ATOM      4  C2  OXE d   1       0.075   4.682  -5.941  0.00  0.00    -0.078 A 
ATOM      5  C3  OXE d   1      -1.135   5.369  -5.988  0.00  0.00     0.003 A 
ATOM      6  C4  OXE d   1      -2.348   4.672  -5.924  0.00  0.00    -0.002 A 
ATOM      7  C5  OXE d   1      -2.365   3.274  -5.927  0.00  0.00    -0.002 A 
ATOM      8  C6  OXE d   1      -1.163   2.578  -6.000  0.00  0.00     0.003 A 
ENDROOT
TORSDOF 0
ENDMDL
