MODEL 1
REMARK minimizedAffinity -0.912669957
REMARK minimizedRMSD -1
REMARK  0 active torsions:
REMARK  status: ('A' for Active; 'I' for Inactive)
ROOT
ATOM      1  C2' OXE d   1       1.885   3.146  -5.979  0.00  0.00     0.078 C 
ATOM      2  C1' OXE d   1       1.903   5.953  -6.000  0.00  0.00     0.078 C 
ATOM      3  C1  OXE d   1       0.565   5.258  -5.957  0.00  0.00    -0.078 A 
ATOM      4  C2  OXE d   1       0.564   3.884  -5.994  0.00  0.00    -0.078 A 
ATOM      5  C3  OXE d   1      -0.641   3.193  -5.902  0.00  0.00     0.003 A 
ATOM      6  C4  OXE d   1      -1.858   3.884  -5.927  0.00  0.00    -0.002 A 
ATOM      7  C5  OXE d   1      -1.881   5.283  -5.929  0.00  0.00    -0.002 A 
ATOM      8  C6  OXE d   1      -0.680   5.984  -5.901  0.00  0.00     0.003 A 
ENDROOT
TORSDOF 0
ENDMDL
