MODEL 1
REMARK minimizedAffinity -2.49529624
REMARK minimizedRMSD -1
REMARK  0 active torsions:
REMARK  status: ('A' for Active; 'I' for Inactive)
ROOT
ATOM      1  C2' OXE d   1      -3.479   6.000  -5.726  0.00  0.00     0.078 C 
ATOM      2  C1' OXE d   1      -4.177   3.294  -5.999  0.00  0.00     0.078 C 
ATOM      3  C1  OXE d   1      -2.710   3.640  -5.939  0.00  0.00    -0.078 A 
ATOM      4  C2  OXE d   1      -2.377   4.970  -5.853  0.00  0.00    -0.078 A 
ATOM      5  C3  OXE d   1      -1.040   5.340  -5.740  0.00  0.00     0.003 A 
ATOM      6  C4  OXE d   1      -0.026   4.383  -5.868  0.00  0.00    -0.002 A 
ATOM      7  C5  OXE d   1      -0.343   3.026  -5.996  0.00  0.00    -0.002 A 
ATOM      8  C6  OXE d   1      -1.677   2.635  -5.991  0.00  0.00     0.003 A 
ENDROOT
TORSDOF 0
ENDMDL
