MODEL 1
REMARK minimizedAffinity 0.463097751
REMARK minimizedRMSD -1
REMARK  0 active torsions:
REMARK  status: ('A' for Active; 'I' for Inactive)
ROOT
ATOM      1  C2' OXE d   1      -2.789   5.999  -5.622  0.00  0.00     0.078 C 
ATOM      2  C1' OXE d   1      -3.649   3.353  -5.999  0.00  0.00     0.078 C 
ATOM      3  C1  OXE d   1      -2.165   3.604  -5.911  0.00  0.00    -0.078 A 
ATOM      4  C2  OXE d   1      -1.751   4.907  -5.774  0.00  0.00    -0.078 A 
ATOM      5  C3  OXE d   1      -0.395   5.189  -5.633  0.00  0.00     0.003 A 
ATOM      6  C4  OXE d   1       0.559   4.175  -5.785  0.00  0.00    -0.002 A 
ATOM      7  C5  OXE d   1       0.160   2.847  -5.965  0.00  0.00    -0.002 A 
ATOM      8  C6  OXE d   1      -1.196   2.539  -5.988  0.00  0.00     0.003 A 
ENDROOT
TORSDOF 0
ENDMDL
