MODEL 1
REMARK minimizedAffinity 1.36968291
REMARK minimizedRMSD -1
REMARK  0 active torsions:
REMARK  status: ('A' for Active; 'I' for Inactive)
ROOT
ATOM      1  C2' OXE d   1      -2.243   2.995  -5.974  0.00  0.00     0.078 C 
ATOM      2  C1' OXE d   1      -1.475   5.695  -5.954  0.00  0.00     0.078 C 
ATOM      3  C1  OXE d   1      -0.384   4.653  -5.969  0.00  0.00    -0.078 A 
ATOM      4  C2  OXE d   1      -0.769   3.334  -5.932  0.00  0.00    -0.078 A 
ATOM      5  C3  OXE d   1       0.195   2.333  -5.999  0.00  0.00     0.003 A 
ATOM      6  C4  OXE d   1       1.557   2.655  -5.949  0.00  0.00    -0.002 A 
ATOM      7  C5  OXE d   1       1.970   3.992  -5.947  0.00  0.00    -0.002 A 
ATOM      8  C6  OXE d   1       1.015   5.001  -6.000  0.00  0.00     0.003 A 
ENDROOT
TORSDOF 0
ENDMDL
