MODEL 1
REMARK minimizedAffinity -1.532287
REMARK minimizedRMSD -1
REMARK  0 active torsions:
REMARK  status: ('A' for Active; 'I' for Inactive)
ROOT
ATOM      1  C2' OXE d   1      -2.492   5.992  -5.890  0.00  0.00     0.078 C 
ATOM      2  C1' OXE d   1      -3.171   3.270  -5.995  0.00  0.00     0.078 C 
ATOM      3  C1  OXE d   1      -1.707   3.629  -5.965  0.00  0.00    -0.078 A 
ATOM      4  C2  OXE d   1      -1.383   4.965  -5.961  0.00  0.00    -0.078 A 
ATOM      5  C3  OXE d   1      -0.048   5.350  -5.878  0.00  0.00     0.003 A 
ATOM      6  C4  OXE d   1       0.972   4.394  -5.954  0.00  0.00    -0.002 A 
ATOM      7  C5  OXE d   1       0.664   3.030  -5.999  0.00  0.00    -0.002 A 
ATOM      8  C6  OXE d   1      -0.667   2.630  -5.962  0.00  0.00     0.003 A 
ENDROOT
TORSDOF 0
ENDMDL
