MODEL 1
REMARK minimizedAffinity 0.432557017
REMARK minimizedRMSD -1
REMARK  0 active torsions:
REMARK  status: ('A' for Active; 'I' for Inactive)
ROOT
ATOM      1  C2' OXE d   1       1.810   5.246  -5.995  0.00  0.00     0.078 C 
ATOM      2  C1' OXE d   1       1.977   2.444  -5.973  0.00  0.00     0.078 C 
ATOM      3  C1  OXE d   1       0.603   3.067  -5.978  0.00  0.00    -0.078 A 
ATOM      4  C2  OXE d   1       0.531   4.439  -5.941  0.00  0.00    -0.078 A 
ATOM      5  C3  OXE d   1      -0.710   5.066  -6.000  0.00  0.00     0.003 A 
ATOM      6  C4  OXE d   1      -1.889   4.312  -5.940  0.00  0.00    -0.002 A 
ATOM      7  C5  OXE d   1      -1.837   2.914  -5.936  0.00  0.00    -0.002 A 
ATOM      8  C6  OXE d   1      -0.603   2.277  -5.998  0.00  0.00     0.003 A 
ENDROOT
TORSDOF 0
ENDMDL
