MODEL 1
REMARK minimizedAffinity 4.16194487
REMARK minimizedRMSD -1
REMARK  0 active torsions:
REMARK  status: ('A' for Active; 'I' for Inactive)
ROOT
ATOM      1  C2' OXE d   1       1.598   2.953  -5.945  0.00  0.00     0.078 C 
ATOM      2  C1' OXE d   1       1.714   5.757  -5.998  0.00  0.00     0.078 C 
ATOM      3  C1  OXE d   1       0.352   5.110  -5.975  0.00  0.00    -0.078 A 
ATOM      4  C2  OXE d   1       0.305   3.737  -5.996  0.00  0.00    -0.078 A 
ATOM      5  C3  OXE d   1      -0.925   3.088  -5.921  0.00  0.00     0.003 A 
ATOM      6  C4  OXE d   1      -2.117   3.820  -5.979  0.00  0.00    -0.002 A 
ATOM      7  C5  OXE d   1      -2.091   5.219  -5.997  0.00  0.00    -0.002 A 
ATOM      8  C6  OXE d   1      -0.868   5.878  -5.953  0.00  0.00     0.003 A 
ENDROOT
TORSDOF 0
ENDMDL
