MODEL 1
REMARK minimizedAffinity 2.4041729
REMARK minimizedRMSD -1
REMARK  0 active torsions:
REMARK  status: ('A' for Active; 'I' for Inactive)
ROOT
ATOM      1  C2' OXE d   1       0.051   3.758  -5.942  0.00  0.00     0.078 C 
ATOM      2  C1' OXE d   1      -1.988   1.830  -5.930  0.00  0.00     0.078 C 
ATOM      3  C1  OXE d   1      -2.394   3.282  -5.955  0.00  0.00    -0.078 A 
ATOM      4  C2  OXE d   1      -1.390   4.220  -5.914  0.00  0.00    -0.078 A 
ATOM      5  C3  OXE d   1      -1.707   5.573  -5.991  0.00  0.00     0.003 A 
ATOM      6  C4  OXE d   1      -3.043   5.991  -5.954  0.00  0.00    -0.002 A 
ATOM      7  C5  OXE d   1      -4.081   5.053  -5.956  0.00  0.00    -0.002 A 
ATOM      8  C6  OXE d   1      -3.774   3.698  -6.000  0.00  0.00     0.003 A 
ENDROOT
TORSDOF 0
ENDMDL
