MODEL 1
REMARK minimizedAffinity 3.3962903
REMARK minimizedRMSD -1
REMARK  0 active torsions:
REMARK  status: ('A' for Active; 'I' for Inactive)
ROOT
ATOM      1  C2' OXE d   1      -1.870   1.932  -5.896  0.00  0.00     0.078 C 
ATOM      2  C1' OXE d   1       0.915   2.271  -5.997  0.00  0.00     0.078 C 
ATOM      3  C1  OXE d   1       0.056   3.511  -5.967  0.00  0.00    -0.078 A 
ATOM      4  C2  OXE d   1      -1.307   3.335  -5.965  0.00  0.00    -0.078 A 
ATOM      5  C3  OXE d   1      -2.145   4.444  -5.882  0.00  0.00     0.003 A 
ATOM      6  C4  OXE d   1      -1.617   5.738  -5.956  0.00  0.00    -0.002 A 
ATOM      7  C5  OXE d   1      -0.233   5.939  -5.999  0.00  0.00    -0.002 A 
ATOM      8  C6  OXE d   1       0.617   4.839  -5.962  0.00  0.00     0.003 A 
ENDROOT
TORSDOF 0
ENDMDL
