MODEL 1
REMARK minimizedAffinity -1.99045742
REMARK minimizedRMSD -1
REMARK  0 active torsions:
REMARK  status: ('A' for Active; 'I' for Inactive)
ROOT
ATOM      1  C2' OXE d   1       0.030   2.898  -5.944  0.00  0.00     0.078 C 
ATOM      2  C1' OXE d   1       0.323   5.689  -5.998  0.00  0.00     0.078 C 
ATOM      3  C1  OXE d   1      -1.077   5.130  -5.976  0.00  0.00    -0.078 A 
ATOM      4  C2  OXE d   1      -1.212   3.762  -5.996  0.00  0.00    -0.078 A 
ATOM      5  C3  OXE d   1      -2.480   3.193  -5.921  0.00  0.00     0.003 A 
ATOM      6  C4  OXE d   1      -3.623   3.999  -5.980  0.00  0.00    -0.002 A 
ATOM      7  C5  OXE d   1      -3.509   5.393  -6.000  0.00  0.00    -0.002 A 
ATOM      8  C6  OXE d   1      -2.246   5.974  -5.955  0.00  0.00     0.003 A 
ENDROOT
TORSDOF 0
ENDMDL
