MODEL 1
REMARK minimizedAffinity -3.33000946
REMARK minimizedRMSD -1
REMARK  0 active torsions:
REMARK  status: ('A' for Active; 'I' for Inactive)
ROOT
ATOM      1  C2' OXE d   1      -0.567   5.070  -5.997  0.00  0.00     0.078 C 
ATOM      2  C1' OXE d   1      -0.594   2.277  -5.725  0.00  0.00     0.078 C 
ATOM      3  C1  OXE d   1       0.747   2.963  -5.799  0.00  0.00    -0.078 A 
ATOM      4  C2  OXE d   1       0.751   4.325  -5.979  0.00  0.00    -0.078 A 
ATOM      5  C3  OXE d   1       1.960   5.015  -6.000  0.00  0.00     0.003 A 
ATOM      6  C4  OXE d   1       3.174   4.317  -5.993  0.00  0.00    -0.002 A 
ATOM      7  C5  OXE d   1       3.192   2.926  -5.850  0.00  0.00    -0.002 A 
ATOM      8  C6  OXE d   1       1.991   2.239  -5.709  0.00  0.00     0.003 A 
ENDROOT
TORSDOF 0
ENDMDL
