MODEL 1
REMARK minimizedAffinity -1.91557181
REMARK minimizedRMSD -1
REMARK  0 active torsions:
REMARK  status: ('A' for Active; 'I' for Inactive)
ROOT
ATOM      1  C2' OXE d   1      -0.080   2.881  -5.958  0.00  0.00     0.078 C 
ATOM      2  C1' OXE d   1       0.109   5.682  -5.999  0.00  0.00     0.078 C 
ATOM      3  C1  OXE d   1      -1.269   5.070  -5.970  0.00  0.00    -0.078 A 
ATOM      4  C2  OXE d   1      -1.353   3.699  -5.998  0.00  0.00    -0.078 A 
ATOM      5  C3  OXE d   1      -2.598   3.082  -5.917  0.00  0.00     0.003 A 
ATOM      6  C4  OXE d   1      -3.771   3.845  -5.964  0.00  0.00    -0.002 A 
ATOM      7  C5  OXE d   1      -3.709   5.243  -5.976  0.00  0.00    -0.002 A 
ATOM      8  C6  OXE d   1      -2.469   5.870  -5.937  0.00  0.00     0.003 A 
ENDROOT
TORSDOF 0
ENDMDL
