MODEL 1
REMARK minimizedAffinity 2.10153961
REMARK minimizedRMSD -1
REMARK  0 active torsions:
REMARK  status: ('A' for Active; 'I' for Inactive)
ROOT
ATOM      1  C2' OXE d   1       0.687   2.582  -0.323  0.00  0.00     0.078 C 
ATOM      2  C1' OXE d   1       1.367   0.060   0.706  0.00  0.00     0.078 C 
ATOM      3  C1  OXE d   1      -0.080   0.481   0.773  0.00  0.00    -0.078 A 
ATOM      4  C2  OXE d   1      -0.396   1.735   0.309  0.00  0.00    -0.078 A 
ATOM      5  C3  OXE d   1      -1.724   2.151   0.297  0.00  0.00     0.003 A 
ATOM      6  C4  OXE d   1      -2.719   1.366   0.893  0.00  0.00    -0.002 A 
ATOM      7  C5  OXE d   1      -2.412   0.102   1.407  0.00  0.00    -0.002 A 
ATOM      8  C6  OXE d   1      -1.108  -0.373   1.317  0.00  0.00     0.003 A 
ENDROOT
TORSDOF 0
ENDMDL
