MODEL 1
REMARK minimizedAffinity 3.97685027
REMARK minimizedRMSD -1
REMARK  0 active torsions:
REMARK  status: ('A' for Active; 'I' for Inactive)
ROOT
ATOM      1  C2' OXE d   1       1.052   2.862  -3.749  0.00  0.00     0.078 C 
ATOM      2  C1' OXE d   1       1.786   4.496  -5.910  0.00  0.00     0.078 C 
ATOM      3  C1  OXE d   1       0.362   4.577  -5.418  0.00  0.00    -0.078 A 
ATOM      4  C2  OXE d   1      -0.000   3.740  -4.390  0.00  0.00    -0.078 A 
ATOM      5  C3  OXE d   1      -1.286   3.814  -3.862  0.00  0.00     0.003 A 
ATOM      6  C4  OXE d   1      -2.256   4.622  -4.468  0.00  0.00    -0.002 A 
ATOM      7  C5  OXE d   1      -1.918   5.453  -5.541  0.00  0.00    -0.002 A 
ATOM      8  C6  OXE d   1      -0.606   5.474  -6.000  0.00  0.00     0.003 A 
ENDROOT
TORSDOF 0
ENDMDL
