MODEL 1
REMARK minimizedAffinity -2.39397097
REMARK minimizedRMSD -1
REMARK  0 active torsions:
REMARK  status: ('A' for Active; 'I' for Inactive)
ROOT
ATOM      1  C2' OXE d   1       1.231   2.944  -5.951  0.00  0.00     0.078 C 
ATOM      2  C1' OXE d   1       0.775   5.713  -5.999  0.00  0.00     0.078 C 
ATOM      3  C1  OXE d   1      -0.428   4.803  -5.976  0.00  0.00    -0.078 A 
ATOM      4  C2  OXE d   1      -0.195   3.449  -6.000  0.00  0.00    -0.078 A 
ATOM      5  C3  OXE d   1      -1.268   2.564  -5.925  0.00  0.00     0.003 A 
ATOM      6  C4  OXE d   1      -2.584   3.039  -5.980  0.00  0.00    -0.002 A 
ATOM      7  C5  OXE d   1      -2.842   4.414  -5.997  0.00  0.00    -0.002 A 
ATOM      8  C6  OXE d   1      -1.778   5.308  -5.952  0.00  0.00     0.003 A 
ENDROOT
TORSDOF 0
ENDMDL
