MODEL 1
REMARK minimizedAffinity -2.9899447
REMARK minimizedRMSD -1
REMARK  0 active torsions:
REMARK  status: ('A' for Active; 'I' for Inactive)
ROOT
ATOM      1  C2' OXE d   1      -3.581   3.394  -5.947  0.00  0.00     0.078 C 
ATOM      2  C1' OXE d   1      -2.523   5.994  -5.926  0.00  0.00     0.078 C 
ATOM      3  C1  OXE d   1      -1.552   4.840  -5.956  0.00  0.00    -0.078 A 
ATOM      4  C2  OXE d   1      -2.078   3.571  -5.919  0.00  0.00    -0.078 A 
ATOM      5  C3  OXE d   1      -1.229   2.471  -6.000  0.00  0.00     0.003 A 
ATOM      6  C4  OXE d   1       0.160   2.643  -5.963  0.00  0.00    -0.002 A 
ATOM      7  C5  OXE d   1       0.716   3.927  -5.960  0.00  0.00    -0.002 A 
ATOM      8  C6  OXE d   1      -0.124   5.034  -5.999  0.00  0.00     0.003 A 
ENDROOT
TORSDOF 0
ENDMDL
