MODEL 1
REMARK minimizedAffinity 0.649951875
REMARK minimizedRMSD -1
REMARK  0 active torsions:
REMARK  status: ('A' for Active; 'I' for Inactive)
ROOT
ATOM      1  C2' OXE d   1       0.879   4.915  -5.970  0.00  0.00     0.078 C 
ATOM      2  C1' OXE d   1      -1.735   5.937  -6.000  0.00  0.00     0.078 C 
ATOM      3  C1  OXE d   1      -1.566   4.440  -5.946  0.00  0.00    -0.078 A 
ATOM      4  C2  OXE d   1      -0.283   3.947  -5.979  0.00  0.00    -0.078 A 
ATOM      5  C3  OXE d   1      -0.069   2.575  -5.876  0.00  0.00     0.003 A 
ATOM      6  C4  OXE d   1      -1.150   1.686  -5.894  0.00  0.00    -0.002 A 
ATOM      7  C5  OXE d   1      -2.464   2.165  -5.901  0.00  0.00    -0.002 A 
ATOM      8  C6  OXE d   1      -2.689   3.537  -5.883  0.00  0.00     0.003 A 
ENDROOT
TORSDOF 0
ENDMDL
