MODEL 1
REMARK minimizedAffinity 2.36864948
REMARK minimizedRMSD -1
REMARK  0 active torsions:
REMARK  status: ('A' for Active; 'I' for Inactive)
ROOT
ATOM      1  C   UNL d   1       0.913   0.239  -1.430  0.00  0.00     0.124 A 
ATOM      2  C1  UNL d   1       0.385  -0.994  -1.072  0.00  0.00     0.062 A 
ATOM      3  C2  UNL d   1      -0.458  -1.100   0.031  0.00  0.00     0.162 A 
ATOM      4  C3  UNL d   1      -0.778   0.029   0.784  0.00  0.00    -0.034 A 
ATOM      5  C4  UNL d   1      -0.242   1.265   0.418  0.00  0.00     0.162 A 
ATOM      6  C5  UNL d   1       0.600   1.367  -0.685  0.00  0.00     0.062 A 
ATOM      7  F   UNL d   1       1.110   2.558  -1.029  0.00  0.00    -0.097 F 
ATOM      8  F1  UNL d   1      -0.529   2.372   1.120  0.00  0.00    -0.096 F 
ATOM      9  I   UNL d   1      -2.038  -0.126   2.433  0.00  0.00    -0.060 I 
ATOM     10  F2  UNL d   1      -0.954  -2.304   0.353  0.00  0.00    -0.096 F 
ATOM     11  F3  UNL d   1       0.687  -2.085  -1.790  0.00  0.00    -0.097 F 
ATOM     12  F4  UNL d   1       1.724   0.339  -2.491  0.00  0.00    -0.092 F 
ENDROOT
TORSDOF 0
ENDMDL
