MODEL 1
REMARK minimizedAffinity 0.0850510597
REMARK minimizedRMSD -1
REMARK  0 active torsions:
REMARK  status: ('A' for Active; 'I' for Inactive)
ROOT
ATOM      1  C   UNL d   1       1.903   0.048  -2.028  0.00  0.00     0.124 A 
ATOM      2  C1  UNL d   1       1.084   1.166  -1.943  0.00  0.00     0.062 A 
ATOM      3  C2  UNL d   1       0.123   1.255  -0.942  0.00  0.00     0.162 A 
ATOM      4  C3  UNL d   1      -0.026   0.224  -0.014  0.00  0.00    -0.034 A 
ATOM      5  C4  UNL d   1       0.800  -0.898  -0.106  0.00  0.00     0.162 A 
ATOM      6  C5  UNL d   1       1.760  -0.983  -1.109  0.00  0.00     0.062 A 
ATOM      7  F   UNL d   1       2.550  -2.063  -1.189  0.00  0.00    -0.097 F 
ATOM      8  F1  UNL d   1       0.685  -1.908   0.769  0.00  0.00    -0.096 F 
ATOM      9  I   UNL d   1      -1.463   0.354   1.486  0.00  0.00    -0.060 I 
ATOM     10  F2  UNL d   1      -0.654   2.347  -0.884  0.00  0.00    -0.096 F 
ATOM     11  F3  UNL d   1       1.220   2.162  -2.830  0.00  0.00    -0.097 F 
ATOM     12  F4  UNL d   1       2.827  -0.036  -2.993  0.00  0.00    -0.092 F 
ENDROOT
TORSDOF 0
ENDMDL
