MODEL 1
REMARK minimizedAffinity -3.87529802
REMARK minimizedRMSD -1
REMARK  0 active torsions:
REMARK  status: ('A' for Active; 'I' for Inactive)
ROOT
ATOM      1  C   UNL d   1       1.946   0.017  -2.094  0.00  0.00     0.124 A 
ATOM      2  C1  UNL d   1       1.119   1.131  -2.151  0.00  0.00     0.062 A 
ATOM      3  C2  UNL d   1       0.002   1.216  -1.325  0.00  0.00     0.162 A 
ATOM      4  C3  UNL d   1      -0.295   0.185  -0.434  0.00  0.00    -0.034 A 
ATOM      5  C4  UNL d   1       0.541  -0.932  -0.383  0.00  0.00     0.162 A 
ATOM      6  C5  UNL d   1       1.656  -1.013  -1.211  0.00  0.00     0.062 A 
ATOM      7  F   UNL d   1       2.453  -2.090  -1.155  0.00  0.00    -0.097 F 
ATOM      8  F1  UNL d   1       0.284  -1.942   0.462  0.00  0.00    -0.096 F 
ATOM      9  I   UNL d   1      -1.964   0.309   0.803  0.00  0.00    -0.060 I 
ATOM     10  F2  UNL d   1      -0.779   2.304  -1.401  0.00  0.00    -0.096 F 
ATOM     11  F3  UNL d   1       1.396   2.127  -3.005  0.00  0.00    -0.097 F 
ATOM     12  F4  UNL d   1       3.019  -0.063  -2.891  0.00  0.00    -0.092 F 
ENDROOT
TORSDOF 0
ENDMDL
