MODEL 1
REMARK minimizedAffinity -4.94052982
REMARK minimizedRMSD -1
REMARK  0 active torsions:
REMARK  status: ('A' for Active; 'I' for Inactive)
ROOT
ATOM      1  C   UNL d   1       0.143  -1.753   1.181  0.00  0.00     0.124 A 
ATOM      2  C1  UNL d   1      -0.514  -0.907   0.298  0.00  0.00     0.062 A 
ATOM      3  C2  UNL d   1      -1.196   0.209   0.774  0.00  0.00     0.162 A 
ATOM      4  C3  UNL d   1      -1.224   0.486   2.141  0.00  0.00    -0.034 A 
ATOM      5  C4  UNL d   1      -0.561  -0.370   3.023  0.00  0.00     0.162 A 
ATOM      6  C5  UNL d   1       0.119  -1.484   2.542  0.00  0.00     0.062 A 
ATOM      7  F   UNL d   1       0.753  -2.300   3.396  0.00  0.00    -0.097 F 
ATOM      8  F1  UNL d   1      -0.568  -0.133   4.343  0.00  0.00    -0.096 F 
ATOM      9  I   UNL d   1      -2.243   2.153   2.858  0.00  0.00    -0.060 I 
ATOM     10  F2  UNL d   1      -1.822   1.009  -0.101  0.00  0.00    -0.096 F 
ATOM     11  F3  UNL d   1      -0.493  -1.165  -1.018  0.00  0.00    -0.097 F 
ATOM     12  F4  UNL d   1       0.798  -2.826   0.719  0.00  0.00    -0.092 F 
ENDROOT
TORSDOF 0
ENDMDL
