MODEL 1
REMARK minimizedAffinity 3.38319921
REMARK minimizedRMSD -1
REMARK  0 active torsions:
REMARK  status: ('A' for Active; 'I' for Inactive)
ROOT
ATOM      1  C   UNL d   1       1.278  -0.426  -1.425  0.00  0.00     0.124 A 
ATOM      2  C1  UNL d   1       1.277  -1.386  -0.422  0.00  0.00     0.062 A 
ATOM      3  C2  UNL d   1       0.538  -1.185   0.739  0.00  0.00     0.162 A 
ATOM      4  C3  UNL d   1      -0.210  -0.019   0.905  0.00  0.00    -0.034 A 
ATOM      5  C4  UNL d   1      -0.204   0.943  -0.108  0.00  0.00     0.162 A 
ATOM      6  C5  UNL d   1       0.538   0.737  -1.267  0.00  0.00     0.062 A 
ATOM      7  F   UNL d   1       0.537   1.665  -2.234  0.00  0.00    -0.097 F 
ATOM      8  F1  UNL d   1      -0.911   2.075   0.018  0.00  0.00    -0.096 F 
ATOM      9  I   UNL d   1      -1.317   0.286   2.640  0.00  0.00    -0.060 I 
ATOM     10  F2  UNL d   1       0.556  -2.129   1.692  0.00  0.00    -0.096 F 
ATOM     11  F3  UNL d   1       1.993  -2.511  -0.572  0.00  0.00    -0.097 F 
ATOM     12  F4  UNL d   1       1.991  -0.622  -2.541  0.00  0.00    -0.092 F 
ENDROOT
TORSDOF 0
ENDMDL
