MODEL 1
REMARK minimizedAffinity 1.25799453
REMARK minimizedRMSD -1
REMARK  0 active torsions:
REMARK  status: ('A' for Active; 'I' for Inactive)
ROOT
ATOM      1  C   UNL d   1       1.401  -0.146  -1.672  0.00  0.00     0.124 A 
ATOM      2  C1  UNL d   1       1.135  -1.165  -0.768  0.00  0.00     0.062 A 
ATOM      3  C2  UNL d   1       0.141  -1.005   0.194  0.00  0.00     0.162 A 
ATOM      4  C3  UNL d   1      -0.595   0.178   0.255  0.00  0.00    -0.034 A 
ATOM      5  C4  UNL d   1      -0.321   1.198  -0.658  0.00  0.00     0.162 A 
ATOM      6  C5  UNL d   1       0.673   1.034  -1.617  0.00  0.00     0.062 A 
ATOM      7  F   UNL d   1       0.929   2.019  -2.490  0.00  0.00    -0.097 F 
ATOM      8  F1  UNL d   1      -1.010   2.349  -0.627  0.00  0.00    -0.096 F 
ATOM      9  I   UNL d   1      -2.082   0.421   1.691  0.00  0.00    -0.060 I 
ATOM     10  F2  UNL d   1      -0.095  -2.006   1.055  0.00  0.00    -0.096 F 
ATOM     11  F3  UNL d   1       1.837  -2.306  -0.819  0.00  0.00    -0.097 F 
ATOM     12  F4  UNL d   1       2.358  -0.302  -2.596  0.00  0.00    -0.092 F 
ENDROOT
TORSDOF 0
ENDMDL
