MODEL 1
REMARK minimizedAffinity -3.96900606
REMARK minimizedRMSD -1
REMARK  0 active torsions:
REMARK  status: ('A' for Active; 'I' for Inactive)
ROOT
ATOM      1  C   UNL d   1       1.701   0.165  -2.209  0.00  0.00     0.124 A 
ATOM      2  C1  UNL d   1       0.843   1.254  -2.134  0.00  0.00     0.062 A 
ATOM      3  C2  UNL d   1      -0.173   1.279  -1.184  0.00  0.00     0.162 A 
ATOM      4  C3  UNL d   1      -0.337   0.213  -0.300  0.00  0.00    -0.034 A 
ATOM      5  C4  UNL d   1       0.529  -0.879  -0.382  0.00  0.00     0.162 A 
ATOM      6  C5  UNL d   1       1.543  -0.900  -1.333  0.00  0.00     0.062 A 
ATOM      7  F   UNL d   1       2.371  -1.952  -1.404  0.00  0.00    -0.097 F 
ATOM      8  F1  UNL d   1       0.399  -1.921   0.453  0.00  0.00    -0.096 F 
ATOM      9  I   UNL d   1      -1.856   0.248   1.122  0.00  0.00    -0.060 I 
ATOM     10  F2  UNL d   1      -0.988   2.344  -1.134  0.00  0.00    -0.096 F 
ATOM     11  F3  UNL d   1       0.993   2.283  -2.980  0.00  0.00    -0.097 F 
ATOM     12  F4  UNL d   1       2.678   0.143  -3.125  0.00  0.00    -0.092 F 
ENDROOT
TORSDOF 0
ENDMDL
