MODEL 1
REMARK minimizedAffinity -0.160601392
REMARK minimizedRMSD -1
REMARK  0 active torsions:
REMARK  status: ('A' for Active; 'I' for Inactive)
ROOT
ATOM      1  C   UNL d   1       1.522  -0.123  -1.805  0.00  0.00     0.124 A 
ATOM      2  C1  UNL d   1       0.691   0.978  -1.653  0.00  0.00     0.062 A 
ATOM      3  C2  UNL d   1      -0.287   0.986  -0.662  0.00  0.00     0.162 A 
ATOM      4  C3  UNL d   1      -0.437  -0.111   0.186  0.00  0.00    -0.034 A 
ATOM      5  C4  UNL d   1       0.402  -1.215   0.027  0.00  0.00     0.162 A 
ATOM      6  C5  UNL d   1       1.377  -1.218  -0.965  0.00  0.00     0.062 A 
ATOM      7  F   UNL d   1       2.180  -2.282  -1.110  0.00  0.00    -0.097 F 
ATOM      8  F1  UNL d   1       0.285  -2.286   0.826  0.00  0.00    -0.096 F 
ATOM      9  I   UNL d   1      -1.897  -0.103   1.670  0.00  0.00    -0.060 I 
ATOM     10  F2  UNL d   1      -1.076   2.063  -0.538  0.00  0.00    -0.096 F 
ATOM     11  F3  UNL d   1       0.828   2.037  -2.464  0.00  0.00    -0.097 F 
ATOM     12  F4  UNL d   1       2.461  -0.128  -2.760  0.00  0.00    -0.092 F 
ENDROOT
TORSDOF 0
ENDMDL
