MODEL 1
REMARK minimizedAffinity 5.17135525
REMARK minimizedRMSD -1
REMARK  0 active torsions:
REMARK  status: ('A' for Active; 'I' for Inactive)
ROOT
ATOM      1  C   UNL d   1       1.375  -1.735  -1.153  0.00  0.00     0.124 A 
ATOM      2  C1  UNL d   1       0.650  -2.152  -0.045  0.00  0.00     0.062 A 
ATOM      3  C2  UNL d   1      -0.162  -1.253   0.639  0.00  0.00     0.162 A 
ATOM      4  C3  UNL d   1      -0.254   0.074   0.218  0.00  0.00    -0.034 A 
ATOM      5  C4  UNL d   1       0.479   0.486  -0.896  0.00  0.00     0.162 A 
ATOM      6  C5  UNL d   1       1.289  -0.417  -1.577  0.00  0.00     0.062 A 
ATOM      7  F   UNL d   1       1.989  -0.012  -2.647  0.00  0.00    -0.097 F 
ATOM      8  F1  UNL d   1       0.414   1.755  -1.328  0.00  0.00    -0.096 F 
ATOM      9  I   UNL d   1      -1.466   1.422   1.239  0.00  0.00    -0.060 I 
ATOM     10  F2  UNL d   1      -0.852  -1.683   1.706  0.00  0.00    -0.096 F 
ATOM     11  F3  UNL d   1       0.732  -3.425   0.367  0.00  0.00    -0.097 F 
ATOM     12  F4  UNL d   1       2.156  -2.603  -1.809  0.00  0.00    -0.092 F 
ENDROOT
TORSDOF 0
ENDMDL
