MODEL 1
REMARK minimizedAffinity -2.27718425
REMARK minimizedRMSD -1
REMARK  0 active torsions:
REMARK  status: ('A' for Active; 'I' for Inactive)
ROOT
ATOM      1  C   UNL d   1       1.575   0.016  -1.787  0.00  0.00     0.124 A 
ATOM      2  C1  UNL d   1       0.622   1.024  -1.823  0.00  0.00     0.062 A 
ATOM      3  C2  UNL d   1      -0.438   1.018  -0.921  0.00  0.00     0.162 A 
ATOM      4  C3  UNL d   1      -0.550   0.000   0.027  0.00  0.00    -0.034 A 
ATOM      5  C4  UNL d   1       0.412  -1.011   0.056  0.00  0.00     0.162 A 
ATOM      6  C5  UNL d   1       1.469  -1.000  -0.848  0.00  0.00     0.062 A 
ATOM      7  F   UNL d   1       2.389  -1.975  -0.811  0.00  0.00    -0.097 F 
ATOM      8  F1  UNL d   1       0.335  -2.004   0.954  0.00  0.00    -0.096 F 
ATOM      9  I   UNL d   1      -2.134  -0.013   1.377  0.00  0.00    -0.060 I 
ATOM     10  F2  UNL d   1      -1.345   2.005  -0.979  0.00  0.00    -0.096 F 
ATOM     11  F3  UNL d   1       0.721   2.006  -2.730  0.00  0.00    -0.097 F 
ATOM     12  F4  UNL d   1       2.593   0.023  -2.657  0.00  0.00    -0.092 F 
ENDROOT
TORSDOF 0
ENDMDL
