MODEL 1
REMARK minimizedAffinity 0.805707753
REMARK minimizedRMSD -1
REMARK  0 active torsions:
REMARK  status: ('A' for Active; 'I' for Inactive)
ROOT
ATOM      1  C   UNL d   1      -1.807   1.150   2.548  0.00  0.00     0.124 A 
ATOM      2  C1  UNL d   1      -2.097   1.319   1.201  0.00  0.00     0.062 A 
ATOM      3  C2  UNL d   1      -1.396   0.599   0.238  0.00  0.00     0.162 A 
ATOM      4  C3  UNL d   1      -0.398  -0.299   0.619  0.00  0.00    -0.034 A 
ATOM      5  C4  UNL d   1      -0.111  -0.462   1.975  0.00  0.00     0.162 A 
ATOM      6  C5  UNL d   1      -0.815   0.260   2.934  0.00  0.00     0.062 A 
ATOM      7  F   UNL d   1      -0.533   0.096   4.234  0.00  0.00    -0.097 F 
ATOM      8  F1  UNL d   1       0.842  -1.316   2.376  0.00  0.00    -0.096 F 
ATOM      9  I   UNL d   1       0.653  -1.378  -0.817  0.00  0.00    -0.060 I 
ATOM     10  F2  UNL d   1      -1.698   0.781  -1.056  0.00  0.00    -0.096 F 
ATOM     11  F3  UNL d   1      -3.055   2.179   0.825  0.00  0.00    -0.097 F 
ATOM     12  F4  UNL d   1      -2.482   1.846   3.472  0.00  0.00    -0.092 F 
ENDROOT
TORSDOF 0
ENDMDL
