MODEL 1
REMARK minimizedAffinity -1.64178646
REMARK minimizedRMSD -1
REMARK  0 active torsions:
REMARK  status: ('A' for Active; 'I' for Inactive)
ROOT
ATOM      1  C   UNL d   1      -0.888   1.975  -0.415  0.00  0.00     0.124 A 
ATOM      2  C1  UNL d   1      -0.075   2.323  -1.485  0.00  0.00     0.062 A 
ATOM      3  C2  UNL d   1       0.778   1.381  -2.051  0.00  0.00     0.162 A 
ATOM      4  C3  UNL d   1       0.821   0.080  -1.551  0.00  0.00    -0.034 A 
ATOM      5  C4  UNL d   1       0.001  -0.263  -0.474  0.00  0.00     0.162 A 
ATOM      6  C5  UNL d   1      -0.850   0.683   0.089  0.00  0.00     0.062 A 
ATOM      7  F   UNL d   1      -1.635   0.344   1.122  0.00  0.00    -0.097 F 
ATOM      8  F1  UNL d   1       0.017  -1.505   0.032  0.00  0.00    -0.096 F 
ATOM      9  I   UNL d   1       2.095  -1.333  -2.395  0.00  0.00    -0.060 I 
ATOM     10  F2  UNL d   1       1.553   1.745  -3.084  0.00  0.00    -0.096 F 
ATOM     11  F3  UNL d   1      -0.110   3.572  -1.973  0.00  0.00    -0.097 F 
ATOM     12  F4  UNL d   1      -1.707   2.884   0.129  0.00  0.00    -0.092 F 
ENDROOT
TORSDOF 0
ENDMDL
