MODEL 1
REMARK minimizedAffinity 0.0182474237
REMARK minimizedRMSD -1
REMARK  0 active torsions:
REMARK  status: ('A' for Active; 'I' for Inactive)
ROOT
ATOM      1  C   UNL d   1      -1.099   1.030   2.901  0.00  0.00     0.124 A 
ATOM      2  C1  UNL d   1      -1.358   1.219   1.550  0.00  0.00     0.062 A 
ATOM      3  C2  UNL d   1      -0.594   0.560   0.592  0.00  0.00     0.162 A 
ATOM      4  C3  UNL d   1       0.438  -0.295   0.981  0.00  0.00    -0.034 A 
ATOM      5  C4  UNL d   1       0.693  -0.478   2.341  0.00  0.00     0.162 A 
ATOM      6  C5  UNL d   1      -0.074   0.182   3.295  0.00  0.00     0.062 A 
ATOM      7  F   UNL d   1       0.178  -0.001   4.599  0.00  0.00    -0.097 F 
ATOM      8  F1  UNL d   1       1.677  -1.293   2.750  0.00  0.00    -0.096 F 
ATOM      9  I   UNL d   1       1.584  -1.282  -0.449  0.00  0.00    -0.060 I 
ATOM     10  F2  UNL d   1      -0.866   0.761  -0.706  0.00  0.00    -0.096 F 
ATOM     11  F3  UNL d   1      -2.348   2.039   1.167  0.00  0.00    -0.097 F 
ATOM     12  F4  UNL d   1      -1.836   1.666   3.820  0.00  0.00    -0.092 F 
ENDROOT
TORSDOF 0
ENDMDL
