MODEL 1
REMARK minimizedAffinity -2.52542567
REMARK minimizedRMSD -1
REMARK  0 active torsions:
REMARK  status: ('A' for Active; 'I' for Inactive)
ROOT
ATOM      1  C   UNL d   1       1.220  -0.645  -1.751  0.00  0.00     0.124 A 
ATOM      2  C1  UNL d   1       0.935  -1.699  -0.894  0.00  0.00     0.062 A 
ATOM      3  C2  UNL d   1       0.011  -1.535   0.134  0.00  0.00     0.162 A 
ATOM      4  C3  UNL d   1      -0.635  -0.312   0.311  0.00  0.00    -0.034 A 
ATOM      5  C4  UNL d   1      -0.342   0.744  -0.554  0.00  0.00     0.162 A 
ATOM      6  C5  UNL d   1       0.581   0.575  -1.580  0.00  0.00     0.062 A 
ATOM      7  F   UNL d   1       0.856   1.595  -2.407  0.00  0.00    -0.097 F 
ATOM      8  F1  UNL d   1      -0.946   1.934  -0.412  0.00  0.00    -0.096 F 
ATOM      9  I   UNL d   1      -2.017  -0.062   1.848  0.00  0.00    -0.060 I 
ATOM     10  F2  UNL d   1      -0.245  -2.571   0.947  0.00  0.00    -0.096 F 
ATOM     11  F3  UNL d   1       1.551  -2.879  -1.056  0.00  0.00    -0.097 F 
ATOM     12  F4  UNL d   1       2.110  -0.805  -2.739  0.00  0.00    -0.092 F 
ENDROOT
TORSDOF 0
ENDMDL
