MODEL 1
REMARK minimizedAffinity -2.34786439
REMARK minimizedRMSD -1
REMARK  0 active torsions:
REMARK  status: ('A' for Active; 'I' for Inactive)
ROOT
ATOM      1  C   UNL d   1      -0.612   1.799  -1.332  0.00  0.00     0.124 A 
ATOM      2  C1  UNL d   1      -1.431   0.913  -0.646  0.00  0.00     0.062 A 
ATOM      3  C2  UNL d   1      -0.953  -0.343  -0.283  0.00  0.00     0.162 A 
ATOM      4  C3  UNL d   1       0.352  -0.720  -0.603  0.00  0.00    -0.034 A 
ATOM      5  C4  UNL d   1       1.169   0.177  -1.293  0.00  0.00     0.162 A 
ATOM      6  C5  UNL d   1       0.687   1.431  -1.654  0.00  0.00     0.062 A 
ATOM      7  F   UNL d   1       1.479   2.286  -2.317  0.00  0.00    -0.097 F 
ATOM      8  F1  UNL d   1       2.428  -0.153  -1.617  0.00  0.00    -0.096 F 
ATOM      9  I   UNL d   1       1.070  -2.597  -0.061  0.00  0.00    -0.060 I 
ATOM     10  F2  UNL d   1      -1.766  -1.180   0.379  0.00  0.00    -0.096 F 
ATOM     11  F3  UNL d   1      -2.686   1.266  -0.334  0.00  0.00    -0.097 F 
ATOM     12  F4  UNL d   1      -1.074   3.007  -1.681  0.00  0.00    -0.092 F 
ENDROOT
TORSDOF 0
ENDMDL
