MODEL 1
REMARK minimizedAffinity 2.70550585
REMARK minimizedRMSD -1
REMARK  0 active torsions:
REMARK  status: ('A' for Active; 'I' for Inactive)
ROOT
ATOM      1  C   UNL d   1       1.043   0.428  -2.144  0.00  0.00     0.124 A 
ATOM      2  C1  UNL d   1       0.248   1.524  -1.837  0.00  0.00     0.062 A 
ATOM      3  C2  UNL d   1      -0.661   1.457  -0.785  0.00  0.00     0.162 A 
ATOM      4  C3  UNL d   1      -0.779   0.290  -0.031  0.00  0.00    -0.034 A 
ATOM      5  C4  UNL d   1       0.022  -0.808  -0.346  0.00  0.00     0.162 A 
ATOM      6  C5  UNL d   1       0.929  -0.737  -1.398  0.00  0.00     0.062 A 
ATOM      7  F   UNL d   1       1.696  -1.797  -1.693  0.00  0.00    -0.097 F 
ATOM      8  F1  UNL d   1      -0.066  -1.946   0.359  0.00  0.00    -0.096 F 
ATOM      9  I   UNL d   1      -2.137   0.186   1.543  0.00  0.00    -0.060 I 
ATOM     10  F2  UNL d   1      -1.416   2.532  -0.511  0.00  0.00    -0.096 F 
ATOM     11  F3  UNL d   1       0.355   2.650  -2.557  0.00  0.00    -0.097 F 
ATOM     12  F4  UNL d   1       1.916   0.495  -3.158  0.00  0.00    -0.092 F 
ENDROOT
TORSDOF 0
ENDMDL
