MODEL 1
REMARK minimizedAffinity 7.92180824
REMARK minimizedRMSD -1
REMARK  1 active torsions:
REMARK  status: ('A' for Active; 'I' for Inactive)
REMARK    1  A    between atoms: C3_4  and  O_7 
ROOT
ATOM      1  C   UNL d   1       2.743  -2.843   4.871  0.00  0.00    -0.033 A 
ATOM      2  C1  UNL d   1       1.561  -2.378   4.292  0.00  0.00     0.039 A 
ATOM      3  C2  UNL d   1       1.599  -1.342   3.356  0.00  0.00    -0.080 A 
ATOM      4  C3  UNL d   1       2.825  -0.782   3.008  0.00  0.00     0.150 A 
ATOM      5  C4  UNL d   1       4.007  -1.242   3.577  0.00  0.00    -0.007 A 
ATOM      6  C5  UNL d   1       3.967  -2.276   4.512  0.00  0.00     0.039 A 
ENDROOT
BRANCH   4   7
ATOM      7  O   UNL d   1       2.912   0.234   2.103  0.00  0.00    -0.526 OA
ATOM      8  H5  UNL d   1       2.014   0.468   1.815  0.00  0.00     0.418 HD
ENDBRANCH   4   7
TORSDOF 1
ENDMDL
