MODEL 1
REMARK minimizedAffinity 5.75111389
REMARK minimizedRMSD -1
REMARK  1 active torsions:
REMARK  status: ('A' for Active; 'I' for Inactive)
REMARK    1  A    between atoms: C3_4  and  O_7 
ROOT
ATOM      1  C   UNL d   1       6.000  -3.413   5.998  0.00  0.00    -0.033 A 
ATOM      2  C1  UNL d   1       4.846  -4.177   5.815  0.00  0.00     0.039 A 
ATOM      3  C2  UNL d   1       3.687  -3.584   5.309  0.00  0.00    -0.080 A 
ATOM      4  C3  UNL d   1       3.697  -2.229   4.990  0.00  0.00     0.150 A 
ATOM      5  C4  UNL d   1       4.845  -1.463   5.166  0.00  0.00    -0.007 A 
ATOM      6  C5  UNL d   1       6.000  -2.057   5.673  0.00  0.00     0.039 A 
ENDROOT
BRANCH   4   7
ATOM      7  O   UNL d   1       2.589  -1.605   4.498  0.00  0.00    -0.526 OA
ATOM      8  H5  UNL d   1       1.865  -2.251   4.456  0.00  0.00     0.418 HD
ENDBRANCH   4   7
TORSDOF 1
ENDMDL
