MODEL 1
REMARK minimizedAffinity 4.11432695
REMARK minimizedRMSD -1
REMARK  1 active torsions:
REMARK  status: ('A' for Active; 'I' for Inactive)
REMARK    1  A    between atoms: C3_4  and  O_7 
ROOT
ATOM      1  C   UNL d   1       1.644  -1.131   2.919  0.00  0.00    -0.033 A 
ATOM      2  C1  UNL d   1       1.522  -2.226   3.777  0.00  0.00     0.039 A 
ATOM      3  C2  UNL d   1       2.602  -2.615   4.572  0.00  0.00    -0.080 A 
ATOM      4  C3  UNL d   1       3.795  -1.901   4.502  0.00  0.00     0.150 A 
ATOM      5  C4  UNL d   1       3.921  -0.806   3.653  0.00  0.00    -0.007 A 
ATOM      6  C5  UNL d   1       2.843  -0.420   2.859  0.00  0.00     0.039 A 
ENDROOT
BRANCH   4   7
ATOM      7  O   UNL d   1       4.877  -2.246   5.256  0.00  0.00    -0.526 OA
ATOM      8  H5  UNL d   1       4.652  -3.038   5.772  0.00  0.00     0.418 HD
ENDBRANCH   4   7
TORSDOF 1
ENDMDL
