MODEL 1
REMARK minimizedAffinity 11.4784365
REMARK minimizedRMSD -1
REMARK  1 active torsions:
REMARK  status: ('A' for Active; 'I' for Inactive)
REMARK    1  A    between atoms: C3_4  and  O_7 
ROOT
ATOM      1  C   UNL d   1       0.042  -2.086  -0.918  0.00  0.00    -0.033 A 
ATOM      2  C1  UNL d   1      -0.727  -1.282  -0.074  0.00  0.00     0.039 A 
ATOM      3  C2  UNL d   1      -0.262  -0.961   1.202  0.00  0.00    -0.080 A 
ATOM      4  C3  UNL d   1       0.972  -1.449   1.622  0.00  0.00     0.150 A 
ATOM      5  C4  UNL d   1       1.745  -2.248   0.786  0.00  0.00    -0.007 A 
ATOM      6  C5  UNL d   1       1.279  -2.568  -0.488  0.00  0.00     0.039 A 
ENDROOT
BRANCH   4   7
ATOM      7  O   UNL d   1       1.466  -1.167   2.861  0.00  0.00    -0.526 OA
ATOM      8  H5  UNL d   1       0.811  -0.630   3.338  0.00  0.00     0.418 HD
ENDBRANCH   4   7
TORSDOF 1
ENDMDL
