MODEL 1
REMARK minimizedAffinity -1.48073721
REMARK minimizedRMSD -1
REMARK  1 active torsions:
REMARK  status: ('A' for Active; 'I' for Inactive)
REMARK    1  A    between atoms: C3_4  and  O_7 
ROOT
ATOM      1  C   UNL d   1       1.876  -1.560   3.540  0.00  0.00    -0.033 A 
ATOM      2  C1  UNL d   1       2.847  -1.007   2.702  0.00  0.00     0.039 A 
ATOM      3  C2  UNL d   1       4.186  -1.377   2.843  0.00  0.00    -0.080 A 
ATOM      4  C3  UNL d   1       4.541  -2.299   3.824  0.00  0.00     0.150 A 
ATOM      5  C4  UNL d   1       3.578  -2.856   4.659  0.00  0.00    -0.007 A 
ATOM      6  C5  UNL d   1       2.242  -2.485   4.517  0.00  0.00     0.039 A 
ENDROOT
BRANCH   4   7
ATOM      7  O   UNL d   1       5.835  -2.687   4.002  0.00  0.00    -0.526 OA
ATOM      8  H5  UNL d   1       6.392  -2.198   3.373  0.00  0.00     0.418 HD
ENDBRANCH   4   7
TORSDOF 1
ENDMDL
