MODEL 1
REMARK minimizedAffinity -0.294674128
REMARK minimizedRMSD -1
REMARK  1 active torsions:
REMARK  status: ('A' for Active; 'I' for Inactive)
REMARK    1  A    between atoms: C3_4  and  O_7 
ROOT
ATOM      1  C   UNL d   1       2.915   1.349   1.136  0.00  0.00    -0.033 A 
ATOM      2  C1  UNL d   1       3.413   2.178   0.129  0.00  0.00     0.039 A 
ATOM      3  C2  UNL d   1       2.600   3.167  -0.428  0.00  0.00    -0.080 A 
ATOM      4  C3  UNL d   1       1.295   3.318   0.030  0.00  0.00     0.150 A 
ATOM      5  C4  UNL d   1       0.794   2.498   1.036  0.00  0.00    -0.007 A 
ATOM      6  C5  UNL d   1       1.606   1.510   1.591  0.00  0.00     0.039 A 
ENDROOT
BRANCH   4   7
ATOM      7  O   UNL d   1       0.463   4.266  -0.486  0.00  0.00    -0.526 OA
ATOM      8  H5  UNL d   1       0.935   4.738  -1.192  0.00  0.00     0.418 HD
ENDBRANCH   4   7
TORSDOF 1
ENDMDL
