MODEL 1
REMARK minimizedAffinity 2.81296325
REMARK minimizedRMSD -1
REMARK  1 active torsions:
REMARK  status: ('A' for Active; 'I' for Inactive)
REMARK    1  A    between atoms: C3_4  and  O_7 
ROOT
ATOM      1  C   UNL d   1      -5.983   2.949  -3.112  0.00  0.00    -0.033 A 
ATOM      2  C1  UNL d   1      -5.991   3.277  -4.469  0.00  0.00     0.039 A 
ATOM      3  C2  UNL d   1      -5.998   2.266  -5.433  0.00  0.00    -0.080 A 
ATOM      4  C3  UNL d   1      -5.998   0.935  -5.027  0.00  0.00     0.150 A 
ATOM      5  C4  UNL d   1      -5.994   0.601  -3.676  0.00  0.00    -0.007 A 
ATOM      6  C5  UNL d   1      -5.986   1.612  -2.716  0.00  0.00     0.039 A 
ENDROOT
BRANCH   4   7
ATOM      7  O   UNL d   1      -6.000  -0.086  -5.931  0.00  0.00    -0.526 OA
ATOM      8  H5  UNL d   1      -5.973   0.295  -6.824  0.00  0.00     0.418 HD
ENDBRANCH   4   7
TORSDOF 1
ENDMDL
