MODEL 1
REMARK minimizedAffinity 2.44055629
REMARK minimizedRMSD -1
REMARK  1 active torsions:
REMARK  status: ('A' for Active; 'I' for Inactive)
REMARK    1  A    between atoms: C3_4  and  O_7 
ROOT
ATOM      1  C   UNL d   1       1.449  -1.989   3.749  0.00  0.00    -0.033 A 
ATOM      2  C1  UNL d   1       2.024  -2.830   4.704  0.00  0.00     0.039 A 
ATOM      3  C2  UNL d   1       3.408  -2.841   4.885  0.00  0.00    -0.080 A 
ATOM      4  C3  UNL d   1       4.206  -2.006   4.107  0.00  0.00     0.150 A 
ATOM      5  C4  UNL d   1       3.640  -1.163   3.156  0.00  0.00    -0.007 A 
ATOM      6  C5  UNL d   1       2.257  -1.155   2.977  0.00  0.00     0.039 A 
ENDROOT
BRANCH   4   7
ATOM      7  O   UNL d   1       5.562  -1.985   4.244  0.00  0.00    -0.526 OA
ATOM      8  H5  UNL d   1       5.813  -2.640   4.917  0.00  0.00     0.418 HD
ENDBRANCH   4   7
TORSDOF 1
ENDMDL
