MODEL 1
REMARK minimizedAffinity 1.75343633
REMARK minimizedRMSD -1
REMARK  1 active torsions:
REMARK  status: ('A' for Active; 'I' for Inactive)
REMARK    1  A    between atoms: C3_4  and  O_7 
ROOT
ATOM      1  C   UNL d   1       2.329  -1.891   4.123  0.00  0.00    -0.033 A 
ATOM      2  C1  UNL d   1       2.326  -2.502   5.378  0.00  0.00     0.039 A 
ATOM      3  C2  UNL d   1       3.532  -2.832   5.998  0.00  0.00    -0.080 A 
ATOM      4  C3  UNL d   1       4.733  -2.546   5.354  0.00  0.00     0.150 A 
ATOM      5  C4  UNL d   1       4.743  -1.934   4.105  0.00  0.00    -0.007 A 
ATOM      6  C5  UNL d   1       3.537  -1.605   3.487  0.00  0.00     0.039 A 
ENDROOT
BRANCH   4   7
ATOM      7  O   UNL d   1       5.935  -2.854   5.918  0.00  0.00    -0.526 OA
ATOM      8  H5  UNL d   1       5.772  -3.298   6.767  0.00  0.00     0.418 HD
ENDBRANCH   4   7
TORSDOF 1
ENDMDL
