MODEL 1
REMARK minimizedAffinity -0.113245614
REMARK minimizedRMSD -1
REMARK  1 active torsions:
REMARK  status: ('A' for Active; 'I' for Inactive)
REMARK    1  A    between atoms: C3_4  and  O_7 
ROOT
ATOM      1  C   UNL d   1       6.000  -2.636   5.388  0.00  0.00    -0.033 A 
ATOM      2  C1  UNL d   1       4.877  -3.195   6.000  0.00  0.00     0.039 A 
ATOM      3  C2  UNL d   1       3.607  -2.986   5.457  0.00  0.00    -0.080 A 
ATOM      4  C3  UNL d   1       3.475  -2.219   4.303  0.00  0.00     0.150 A 
ATOM      5  C4  UNL d   1       4.590  -1.662   3.686  0.00  0.00    -0.007 A 
ATOM      6  C5  UNL d   1       5.857  -1.871   4.230  0.00  0.00     0.039 A 
ENDROOT
BRANCH   4   7
ATOM      7  O   UNL d   1       2.256  -1.984   3.740  0.00  0.00    -0.526 OA
ATOM      8  H5  UNL d   1       1.576  -2.406   4.290  0.00  0.00     0.418 HD
ENDBRANCH   4   7
TORSDOF 1
ENDMDL
