MODEL 1
REMARK minimizedAffinity 10.7376184
REMARK minimizedRMSD -1
REMARK  1 active torsions:
REMARK  status: ('A' for Active; 'I' for Inactive)
REMARK    1  A    between atoms: C3_4  and  O_7 
ROOT
ATOM      1  C   UNL d   1       4.793  -2.164   3.612  0.00  0.00    -0.033 A 
ATOM      2  C1  UNL d   1       6.000  -1.783   3.024  0.00  0.00     0.039 A 
ATOM      3  C2  UNL d   1       5.998  -1.026   1.850  0.00  0.00    -0.080 A 
ATOM      4  C3  UNL d   1       4.784  -0.657   1.277  0.00  0.00     0.150 A 
ATOM      5  C4  UNL d   1       3.578  -1.030   1.861  0.00  0.00    -0.007 A 
ATOM      6  C5  UNL d   1       3.582  -1.786   3.032  0.00  0.00     0.039 A 
ENDROOT
BRANCH   4   7
ATOM      7  O   UNL d   1       4.732   0.077   0.130  0.00  0.00    -0.526 OA
ATOM      8  H5  UNL d   1       5.641   0.237  -0.175  0.00  0.00     0.418 HD
ENDBRANCH   4   7
TORSDOF 1
ENDMDL
