MODEL 1
REMARK minimizedAffinity -1.86871374
REMARK minimizedRMSD -1
REMARK  1 active torsions:
REMARK  status: ('A' for Active; 'I' for Inactive)
REMARK    1  A    between atoms: C3_4  and  O_7 
ROOT
ATOM      1  C   UNL d   1       4.922   1.551  -4.935  0.00  0.00    -0.033 A 
ATOM      2  C1  UNL d   1       4.544   0.732  -3.869  0.00  0.00     0.039 A 
ATOM      3  C2  UNL d   1       4.892  -0.621  -3.868  0.00  0.00    -0.080 A 
ATOM      4  C3  UNL d   1       5.617  -1.140  -4.937  0.00  0.00     0.150 A 
ATOM      5  C4  UNL d   1       6.000  -0.330  -6.000  0.00  0.00    -0.007 A 
ATOM      6  C5  UNL d   1       5.651   1.020  -6.000  0.00  0.00     0.039 A 
ENDROOT
BRANCH   4   7
ATOM      7  O   UNL d   1       5.975  -2.455  -4.982  0.00  0.00    -0.526 OA
ATOM      8  H5  UNL d   1       5.618  -2.899  -4.195  0.00  0.00     0.418 HD
ENDBRANCH   4   7
TORSDOF 1
ENDMDL
