MODEL 1
REMARK minimizedAffinity -1.32542622
REMARK minimizedRMSD -1
REMARK  0 active torsions:
REMARK  status: ('A' for Active; 'I' for Inactive)
ROOT
ATOM      1  N1  IND d   1       1.988  -0.232  -0.719  0.00  0.00    -0.196 N 
ATOM      2  C2  IND d   1       1.276  -1.199  -1.373  0.00  0.00     0.054 A 
ATOM      3  C3  IND d   1      -0.016  -1.181  -0.976  0.00  0.00    -0.031 A 
ATOM      4  C4  IND d   1      -1.203   0.413   0.660  0.00  0.00     0.051 A 
ATOM      5  C5  IND d   1      -0.961   1.436   1.533  0.00  0.00    -0.031 A 
ATOM      6  C6  IND d   1       0.301   1.968   1.702  0.00  0.00     0.015 A 
ATOM      7  C7  IND d   1       1.371   1.501   0.992  0.00  0.00    -0.016 A 
ATOM      8  C8  IND d   1       1.130   0.458   0.110  0.00  0.00    -0.047 A 
ATOM      9  C9  IND d   1      -0.140  -0.114  -0.035  0.00  0.00    -0.096 A 
ATOM     10  HN1 IND d   1       2.829  -0.081  -0.809  0.00  0.00     0.298 HD
ENDROOT
TORSDOF 0
ENDMDL
