MODEL 1
REMARK minimizedAffinity -2.69094515
REMARK minimizedRMSD -1
REMARK  0 active torsions:
REMARK  status: ('A' for Active; 'I' for Inactive)
ROOT
ATOM      1  N1  IND d   1       0.650   1.748   2.038  0.00  0.00    -0.196 N 
ATOM      2  C2  IND d   1       1.462   2.652   1.412  0.00  0.00     0.054 A 
ATOM      3  C3  IND d   1       1.601   2.333   0.106  0.00  0.00    -0.031 A 
ATOM      4  C4  IND d   1       0.507   0.430  -1.240  0.00  0.00     0.051 A 
ATOM      5  C5  IND d   1      -0.285  -0.674  -1.095  0.00  0.00    -0.031 A 
ATOM      6  C6  IND d   1      -0.818  -1.034   0.126  0.00  0.00     0.015 A 
ATOM      7  C7  IND d   1      -0.588  -0.292   1.250  0.00  0.00    -0.016 A 
ATOM      8  C8  IND d   1       0.221   0.826   1.108  0.00  0.00    -0.047 A 
ATOM      9  C9  IND d   1       0.800   1.172  -0.120  0.00  0.00    -0.096 A 
ATOM     10  HN1 IND d   1       0.442   1.753   2.872  0.00  0.00     0.298 HD
ENDROOT
TORSDOF 0
ENDMDL
