MODEL 1
REMARK minimizedAffinity -4.98124981
REMARK minimizedRMSD -1
REMARK  0 active torsions:
REMARK  status: ('A' for Active; 'I' for Inactive)
ROOT
ATOM      1  N1  IND d   1       1.088  -1.784  -0.470  0.00  0.00    -0.196 N 
ATOM      2  C2  IND d   1       2.295  -1.389  -0.975  0.00  0.00     0.054 A 
ATOM      3  C3  IND d   1       2.538  -0.098  -0.655  0.00  0.00    -0.031 A 
ATOM      4  C4  IND d   1       1.141   1.524   0.775  0.00  0.00     0.051 A 
ATOM      5  C5  IND d   1      -0.057   1.630   1.423  0.00  0.00    -0.031 A 
ATOM      6  C6  IND d   1      -0.952   0.581   1.477  0.00  0.00     0.015 A 
ATOM      7  C7  IND d   1      -0.676  -0.622   0.891  0.00  0.00    -0.016 A 
ATOM      8  C8  IND d   1       0.537  -0.731   0.226  0.00  0.00    -0.047 A 
ATOM      9  C9  IND d   1       1.431   0.344   0.132  0.00  0.00    -0.096 A 
ATOM     10  HN1 IND d   1       0.732  -2.561  -0.571  0.00  0.00     0.298 HD
ENDROOT
TORSDOF 0
ENDMDL
