MODEL 1
REMARK minimizedAffinity -2.17944241
REMARK minimizedRMSD -1
REMARK  0 active torsions:
REMARK  status: ('A' for Active; 'I' for Inactive)
ROOT
ATOM      1  N1  IND d   1      -0.244  -1.311  -0.088  0.00  0.00    -0.196 N 
ATOM      2  C2  IND d   1       0.047   0.003   0.152  0.00  0.00     0.054 A 
ATOM      3  C3  IND d   1      -0.575   0.795  -0.749  0.00  0.00    -0.031 A 
ATOM      4  C4  IND d   1      -2.200   0.157  -2.641  0.00  0.00     0.051 A 
ATOM      5  C5  IND d   1      -2.744  -0.925  -3.275  0.00  0.00    -0.031 A 
ATOM      6  C6  IND d   1      -2.479  -2.217  -2.869  0.00  0.00     0.015 A 
ATOM      7  C7  IND d   1      -1.666  -2.476  -1.802  0.00  0.00    -0.016 A 
ATOM      8  C8  IND d   1      -1.106  -1.380  -1.160  0.00  0.00    -0.047 A 
ATOM      9  C9  IND d   1      -1.337  -0.068  -1.595  0.00  0.00    -0.096 A 
ATOM     10  HN1 IND d   1       0.060  -1.982   0.356  0.00  0.00     0.298 HD
ENDROOT
TORSDOF 0
ENDMDL
