MODEL 1
REMARK minimizedAffinity -4.8652072
REMARK minimizedRMSD -1
REMARK  0 active torsions:
REMARK  status: ('A' for Active; 'I' for Inactive)
ROOT
ATOM      1  N1  IND d   1       1.923   0.055  -0.571  0.00  0.00    -0.196 N 
ATOM      2  C2  IND d   1       1.428  -1.165  -0.940  0.00  0.00     0.054 A 
ATOM      3  C3  IND d   1       0.209  -1.363  -0.391  0.00  0.00    -0.031 A 
ATOM      4  C4  IND d   1      -1.208   0.220   1.062  0.00  0.00     0.051 A 
ATOM      5  C5  IND d   1      -1.163   1.430   1.696  0.00  0.00    -0.031 A 
ATOM      6  C6  IND d   1      -0.066   2.262   1.602  0.00  0.00     0.015 A 
ATOM      7  C7  IND d   1       1.027   1.918   0.858  0.00  0.00    -0.016 A 
ATOM      8  C8  IND d   1       0.988   0.686   0.220  0.00  0.00    -0.047 A 
ATOM      9  C9  IND d   1      -0.105  -0.181   0.346  0.00  0.00    -0.096 A 
ATOM     10  HN1 IND d   1       2.690   0.374  -0.794  0.00  0.00     0.298 HD
ENDROOT
TORSDOF 0
ENDMDL
