MODEL 1
REMARK minimizedAffinity -4.56331873
REMARK minimizedRMSD -1
REMARK  0 active torsions:
REMARK  status: ('A' for Active; 'I' for Inactive)
ROOT
ATOM      1  N1  IND d   1       1.124   2.439  -0.190  0.00  0.00    -0.196 N 
ATOM      2  C2  IND d   1       1.028   3.002   1.053  0.00  0.00     0.054 A 
ATOM      3  C3  IND d   1       0.287   2.218   1.868  0.00  0.00    -0.031 A 
ATOM      4  C4  IND d   1      -0.780  -0.078   1.404  0.00  0.00     0.051 A 
ATOM      5  C5  IND d   1      -0.995  -0.983   0.402  0.00  0.00    -0.031 A 
ATOM      6  C6  IND d   1      -0.503  -0.791  -0.872  0.00  0.00     0.015 A 
ATOM      7  C7  IND d   1       0.236   0.313  -1.192  0.00  0.00    -0.016 A 
ATOM      8  C8  IND d   1       0.451   1.237  -0.179  0.00  0.00    -0.047 A 
ATOM      9  C9  IND d   1      -0.083   1.068   1.105  0.00  0.00    -0.096 A 
ATOM     10  HN1 IND d   1       1.535   2.779  -0.864  0.00  0.00     0.298 HD
ENDROOT
TORSDOF 0
ENDMDL
