MODEL 1
REMARK minimizedAffinity -2.44221544
REMARK minimizedRMSD -1
REMARK  0 active torsions:
REMARK  status: ('A' for Active; 'I' for Inactive)
ROOT
ATOM      1  N1  IND d   1       0.058  -0.394  -0.678  0.00  0.00    -0.196 N 
ATOM      2  C2  IND d   1      -0.987  -0.931   0.021  0.00  0.00     0.054 A 
ATOM      3  C3  IND d   1      -1.256  -0.182   1.114  0.00  0.00    -0.031 A 
ATOM      4  C4  IND d   1      -0.174   2.019   1.896  0.00  0.00     0.051 A 
ATOM      5  C5  IND d   1       0.845   2.881   1.605  0.00  0.00    -0.031 A 
ATOM      6  C6  IND d   1       1.670   2.694   0.514  0.00  0.00     0.015 A 
ATOM      7  C7  IND d   1       1.497   1.638  -0.336  0.00  0.00    -0.016 A 
ATOM      8  C8  IND d   1       0.467   0.757  -0.039  0.00  0.00    -0.047 A 
ATOM      9  C9  IND d   1      -0.346   0.919   1.090  0.00  0.00    -0.096 A 
ATOM     10  HN1 IND d   1       0.403  -0.719  -1.395  0.00  0.00     0.298 HD
ENDROOT
TORSDOF 0
ENDMDL
