MODEL 1
REMARK minimizedAffinity -5.8328681
REMARK minimizedRMSD -1
REMARK  0 active torsions:
REMARK  status: ('A' for Active; 'I' for Inactive)
ROOT
ATOM      1  N1  IND d   1       1.230  -0.692  -0.884  0.00  0.00    -0.196 N 
ATOM      2  C2  IND d   1       0.203  -1.593  -0.903  0.00  0.00     0.054 A 
ATOM      3  C3  IND d   1      -0.765  -1.221  -0.035  0.00  0.00    -0.031 A 
ATOM      4  C4  IND d   1      -0.916   0.882   1.442  0.00  0.00     0.051 A 
ATOM      5  C5  IND d   1      -0.201   1.981   1.828  0.00  0.00    -0.031 A 
ATOM      6  C6  IND d   1       1.051   2.252   1.317  0.00  0.00     0.015 A 
ATOM      7  C7  IND d   1       1.634   1.437   0.389  0.00  0.00    -0.016 A 
ATOM      8  C8  IND d   1       0.914   0.316  -0.000  0.00  0.00    -0.047 A 
ATOM      9  C9  IND d   1      -0.340   0.013   0.546  0.00  0.00    -0.096 A 
ATOM     10  HN1 IND d   1       1.953  -0.746  -1.347  0.00  0.00     0.298 HD
ENDROOT
TORSDOF 0
ENDMDL
