MODEL 1
REMARK minimizedAffinity -1.84907246
REMARK minimizedRMSD -1
REMARK  0 active torsions:
REMARK  status: ('A' for Active; 'I' for Inactive)
ROOT
ATOM      1  N1  IND d   1      -0.588   1.309   1.082  0.00  0.00    -0.196 N 
ATOM      2  C2  IND d   1       0.173   2.378   1.464  0.00  0.00     0.054 A 
ATOM      3  C3  IND d   1       1.439   2.241   1.012  0.00  0.00    -0.031 A 
ATOM      4  C4  IND d   1       2.457   0.391  -0.462  0.00  0.00     0.051 A 
ATOM      5  C5  IND d   1       2.163  -0.815  -1.033  0.00  0.00    -0.031 A 
ATOM      6  C6  IND d   1       0.910  -1.385  -0.929  0.00  0.00     0.015 A 
ATOM      7  C7  IND d   1      -0.102  -0.762  -0.256  0.00  0.00    -0.016 A 
ATOM      8  C8  IND d   1       0.195   0.460   0.332  0.00  0.00    -0.047 A 
ATOM      9  C9  IND d   1       1.476   1.023   0.265  0.00  0.00    -0.096 A 
ATOM     10  HN1 IND d   1      -1.416   1.187   1.278  0.00  0.00     0.298 HD
ENDROOT
TORSDOF 0
ENDMDL
