MODEL 1
REMARK minimizedAffinity -2.30793262
REMARK minimizedRMSD -1
REMARK  0 active torsions:
REMARK  status: ('A' for Active; 'I' for Inactive)
ROOT
ATOM      1  N1  IND d   1      -0.573  -0.366  -0.217  0.00  0.00    -0.196 N 
ATOM      2  C2  IND d   1      -1.495  -0.629   0.758  0.00  0.00     0.054 A 
ATOM      3  C3  IND d   1      -1.299   0.183   1.821  0.00  0.00    -0.031 A 
ATOM      4  C4  IND d   1       0.408   2.084   2.135  0.00  0.00     0.051 A 
ATOM      5  C5  IND d   1       1.483   2.676   1.534  0.00  0.00    -0.031 A 
ATOM      6  C6  IND d   1       1.935   2.279   0.292  0.00  0.00     0.015 A 
ATOM      7  C7  IND d   1       1.318   1.277  -0.403  0.00  0.00    -0.016 A 
ATOM      8  C8  IND d   1       0.231   0.668   0.207  0.00  0.00    -0.047 A 
ATOM      9  C9  IND d   1      -0.205   1.038   1.486  0.00  0.00    -0.096 A 
ATOM     10  HN1 IND d   1      -0.507  -0.778  -0.969  0.00  0.00     0.298 HD
ENDROOT
TORSDOF 0
ENDMDL
