MODEL 1
REMARK minimizedAffinity -2.92705274
REMARK minimizedRMSD -1
REMARK  0 active torsions:
REMARK  status: ('A' for Active; 'I' for Inactive)
ROOT
ATOM      1  N1  IND d   1      -1.346  -0.313   1.027  0.00  0.00    -0.196 N 
ATOM      2  C2  IND d   1      -1.356  -1.056  -0.121  0.00  0.00     0.054 A 
ATOM      3  C3  IND d   1      -0.310  -0.722  -0.908  0.00  0.00    -0.031 A 
ATOM      4  C4  IND d   1       1.601   0.946  -0.466  0.00  0.00     0.051 A 
ATOM      5  C5  IND d   1       2.022   1.889   0.429  0.00  0.00    -0.031 A 
ATOM      6  C6  IND d   1       1.330   2.150   1.593  0.00  0.00     0.015 A 
ATOM      7  C7  IND d   1       0.192   1.466   1.914  0.00  0.00    -0.016 A 
ATOM      8  C8  IND d   1      -0.243   0.513   1.004  0.00  0.00    -0.047 A 
ATOM      9  C9  IND d   1       0.432   0.274  -0.200  0.00  0.00    -0.096 A 
ATOM     10  HN1 IND d   1      -1.930  -0.354   1.656  0.00  0.00     0.298 HD
ENDROOT
TORSDOF 0
ENDMDL
