MODEL 1
REMARK minimizedAffinity -4.65933275
REMARK minimizedRMSD -1
REMARK  0 active torsions:
REMARK  status: ('A' for Active; 'I' for Inactive)
ROOT
ATOM      1  N1  IND d   1       1.488  -0.388  -0.687  0.00  0.00    -0.196 N 
ATOM      2  C2  IND d   1       0.586  -1.413  -0.622  0.00  0.00     0.054 A 
ATOM      3  C3  IND d   1      -0.482  -1.053   0.124  0.00  0.00    -0.031 A 
ATOM      4  C4  IND d   1      -1.006   1.202   1.249  0.00  0.00     0.051 A 
ATOM      5  C5  IND d   1      -0.466   2.433   1.499  0.00  0.00    -0.031 A 
ATOM      6  C6  IND d   1       0.777   2.794   1.020  0.00  0.00     0.015 A 
ATOM      7  C7  IND d   1       1.525   1.938   0.262  0.00  0.00    -0.016 A 
ATOM      8  C8  IND d   1       0.983   0.686   0.012  0.00  0.00    -0.047 A 
ATOM      9  C9  IND d   1      -0.260   0.298   0.530  0.00  0.00    -0.096 A 
ATOM     10  HN1 IND d   1       2.244  -0.410  -1.096  0.00  0.00     0.298 HD
ENDROOT
TORSDOF 0
ENDMDL
