MODEL 1
REMARK minimizedAffinity -5.17878056
REMARK minimizedRMSD -1
REMARK  0 active torsions:
REMARK  status: ('A' for Active; 'I' for Inactive)
ROOT
ATOM      1  N1  IND d   1      -0.846  -0.642  -0.075  0.00  0.00    -0.196 N 
ATOM      2  C2  IND d   1       0.076  -0.648  -1.084  0.00  0.00     0.054 A 
ATOM      3  C3  IND d   1       0.907   0.412  -0.968  0.00  0.00    -0.031 A 
ATOM      4  C4  IND d   1       0.999   2.226   0.856  0.00  0.00     0.051 A 
ATOM      5  C5  IND d   1       0.337   2.673   1.966  0.00  0.00    -0.031 A 
ATOM      6  C6  IND d   1      -0.774   2.022   2.463  0.00  0.00     0.015 A 
ATOM      7  C7  IND d   1      -1.259   0.890   1.874  0.00  0.00    -0.016 A 
ATOM      8  C8  IND d   1      -0.594   0.438   0.743  0.00  0.00    -0.047 A 
ATOM      9  C9  IND d   1       0.508   1.117   0.209  0.00  0.00    -0.096 A 
ATOM     10  HN1 IND d   1      -1.478  -1.216   0.031  0.00  0.00     0.298 HD
ENDROOT
TORSDOF 0
ENDMDL
