MODEL 1
REMARK minimizedAffinity -4.85790634
REMARK minimizedRMSD -1
REMARK  0 active torsions:
REMARK  status: ('A' for Active; 'I' for Inactive)
ROOT
ATOM      1  N1  IND d   1       0.829  -1.121  -0.350  0.00  0.00    -0.196 N 
ATOM      2  C2  IND d   1       1.985  -0.733  -0.968  0.00  0.00     0.054 A 
ATOM      3  C3  IND d   1       2.209   0.584  -0.764  0.00  0.00    -0.031 A 
ATOM      4  C4  IND d   1       0.864   2.274   0.638  0.00  0.00     0.051 A 
ATOM      5  C5  IND d   1      -0.290   2.397   1.361  0.00  0.00    -0.031 A 
ATOM      6  C6  IND d   1      -1.145   1.332   1.557  0.00  0.00     0.015 A 
ATOM      7  C7  IND d   1      -0.872   0.095   1.044  0.00  0.00    -0.016 A 
ATOM      8  C8  IND d   1       0.295  -0.032   0.303  0.00  0.00    -0.047 A 
ATOM      9  C9  IND d   1       1.145   1.056   0.065  0.00  0.00    -0.096 A 
ATOM     10  HN1 IND d   1       0.492  -1.911  -0.367  0.00  0.00     0.298 HD
ENDROOT
TORSDOF 0
ENDMDL
