MODEL 1
REMARK minimizedAffinity -2.49463725
REMARK minimizedRMSD -1
REMARK  0 active torsions:
REMARK  status: ('A' for Active; 'I' for Inactive)
ROOT
ATOM      1  N1  IND d   1      -2.072  -0.500  -1.279  0.00  0.00    -0.196 N 
ATOM      2  C2  IND d   1      -1.378  -1.264  -2.175  0.00  0.00     0.054 A 
ATOM      3  C3  IND d   1      -0.047  -1.131  -1.976  0.00  0.00    -0.031 A 
ATOM      4  C4  IND d   1       1.210   0.209  -0.173  0.00  0.00     0.051 A 
ATOM      5  C5  IND d   1       1.008   1.094   0.849  0.00  0.00    -0.031 A 
ATOM      6  C6  IND d   1      -0.257   1.500   1.222  0.00  0.00     0.015 A 
ATOM      7  C7  IND d   1      -1.373   1.024   0.593  0.00  0.00    -0.016 A 
ATOM      8  C8  IND d   1      -1.171   0.130  -0.449  0.00  0.00    -0.047 A 
ATOM      9  C9  IND d   1       0.113  -0.252  -0.861  0.00  0.00    -0.096 A 
ATOM     10  HN1 IND d   1      -2.928  -0.425  -1.241  0.00  0.00     0.298 HD
ENDROOT
TORSDOF 0
ENDMDL
