MODEL 1
REMARK minimizedAffinity -3.49401307
REMARK minimizedRMSD -1
REMARK  0 active torsions:
REMARK  status: ('A' for Active; 'I' for Inactive)
ROOT
ATOM      1  N1  IND d   1       0.790   0.073  -1.460  0.00  0.00    -0.196 N 
ATOM      2  C2  IND d   1      -0.045  -1.005  -1.565  0.00  0.00     0.054 A 
ATOM      3  C3  IND d   1      -0.821  -1.108  -0.463  0.00  0.00    -0.031 A 
ATOM      4  C4  IND d   1      -0.960   0.440   1.590  0.00  0.00     0.051 A 
ATOM      5  C5  IND d   1      -0.368   1.534   2.156  0.00  0.00    -0.031 A 
ATOM      6  C6  IND d   1       0.659   2.212   1.532  0.00  0.00     0.015 A 
ATOM      7  C7  IND d   1       1.126   1.827   0.307  0.00  0.00    -0.016 A 
ATOM      8  C8  IND d   1       0.533   0.712  -0.267  0.00  0.00    -0.047 A 
ATOM      9  C9  IND d   1      -0.481  -0.006   0.381  0.00  0.00    -0.096 A 
ATOM     10  HN1 IND d   1       1.376   0.311  -2.042  0.00  0.00     0.298 HD
ENDROOT
TORSDOF 0
ENDMDL
