MODEL 1
REMARK minimizedAffinity -4.76726484
REMARK minimizedRMSD -1
REMARK  0 active torsions:
REMARK  status: ('A' for Active; 'I' for Inactive)
ROOT
ATOM      1  N1  IND d   1       1.035  -0.875  -0.631  0.00  0.00    -0.196 N 
ATOM      2  C2  IND d   1       2.297  -0.554  -1.048  0.00  0.00     0.054 A 
ATOM      3  C3  IND d   1       2.653   0.662  -0.577  0.00  0.00    -0.031 A 
ATOM      4  C4  IND d   1       1.361   2.256   0.978  0.00  0.00     0.051 A 
ATOM      5  C5  IND d   1       0.151   2.414   1.594  0.00  0.00    -0.031 A 
ATOM      6  C6  IND d   1      -0.845   1.463   1.501  0.00  0.00     0.015 A 
ATOM      7  C7  IND d   1      -0.663   0.308   0.793  0.00  0.00    -0.016 A 
ATOM      8  C8  IND d   1       0.562   0.148   0.160  0.00  0.00    -0.047 A 
ATOM      9  C9  IND d   1       1.561   1.128   0.217  0.00  0.00    -0.096 A 
ATOM     10  HN1 IND d   1       0.609  -1.595  -0.830  0.00  0.00     0.298 HD
ENDROOT
TORSDOF 0
ENDMDL
