MODEL 1
REMARK minimizedAffinity -4.25218344
REMARK minimizedRMSD -1
REMARK  0 active torsions:
REMARK  status: ('A' for Active; 'I' for Inactive)
ROOT
ATOM      1  N1  IND d   1       1.523   2.172   0.336  0.00  0.00    -0.196 N 
ATOM      2  C2  IND d   1       1.102   2.782   1.485  0.00  0.00     0.054 A 
ATOM      3  C3  IND d   1       0.104   2.071   2.057  0.00  0.00    -0.031 A 
ATOM      4  C4  IND d   1      -0.925  -0.176   1.334  0.00  0.00     0.051 A 
ATOM      5  C5  IND d   1      -0.894  -1.101   0.329  0.00  0.00    -0.031 A 
ATOM      6  C6  IND d   1      -0.036  -0.982  -0.746  0.00  0.00     0.015 A 
ATOM      7  C7  IND d   1       0.834   0.066  -0.850  0.00  0.00    -0.016 A 
ATOM      8  C8  IND d   1       0.800   1.011   0.166  0.00  0.00    -0.047 A 
ATOM      9  C9  IND d   1      -0.098   0.918   1.237  0.00  0.00    -0.096 A 
ATOM     10  HN1 IND d   1       2.136   2.464  -0.191  0.00  0.00     0.298 HD
ENDROOT
TORSDOF 0
ENDMDL
