MODEL 1
REMARK minimizedAffinity 1.23736608
REMARK minimizedRMSD -1
REMARK  0 active torsions:
REMARK  status: ('A' for Active; 'I' for Inactive)
ROOT
ATOM      1  C   UNL d   1       4.517   2.523   2.442  0.00  0.00     0.077 C 
ATOM      2  C1  UNL d   1       4.785   1.385   3.382  0.00  0.00    -0.074 A 
ATOM      3  C2  UNL d   1       5.768   1.486   4.371  0.00  0.00    -0.005 A 
ATOM      4  C3  UNL d   1       6.000   0.423   5.244  0.00  0.00     0.006 A 
ATOM      5  C4  UNL d   1       5.252  -0.750   5.136  0.00  0.00    -0.005 A 
ATOM      6  C5  UNL d   1       4.264  -0.869   4.153  0.00  0.00    -0.074 A 
ATOM      7  C6  UNL d   1       3.444  -2.119   4.030  0.00  0.00     0.077 C 
ATOM      8  C7  UNL d   1       4.033   0.206   3.285  0.00  0.00    -0.001 A 
ENDROOT
TORSDOF 0
ENDMDL
