MODEL 1
REMARK minimizedAffinity 1.91183126
REMARK minimizedRMSD -1
REMARK  0 active torsions:
REMARK  status: ('A' for Active; 'I' for Inactive)
ROOT
ATOM      1  C   UNL d   1       2.962  -2.347   2.505  0.00  0.00     0.077 C 
ATOM      2  C1  UNL d   1       3.623  -1.010   2.660  0.00  0.00    -0.074 A 
ATOM      3  C2  UNL d   1       3.395   0.016   1.737  0.00  0.00    -0.005 A 
ATOM      4  C3  UNL d   1       4.009   1.258   1.900  0.00  0.00     0.006 A 
ATOM      5  C4  UNL d   1       4.857   1.486   2.985  0.00  0.00    -0.005 A 
ATOM      6  C5  UNL d   1       5.097   0.472   3.918  0.00  0.00    -0.074 A 
ATOM      7  C6  UNL d   1       5.998   0.703   5.094  0.00  0.00     0.077 C 
ATOM      8  C7  UNL d   1       4.470  -0.771   3.751  0.00  0.00    -0.001 A 
ENDROOT
TORSDOF 0
ENDMDL
