MODEL 1
REMARK minimizedAffinity 0.546827197
REMARK minimizedRMSD -1
REMARK  0 active torsions:
REMARK  status: ('A' for Active; 'I' for Inactive)
ROOT
ATOM      1  C   UNL d   1       6.000  -0.743  -6.000  0.00  0.00     0.077 C 
ATOM      2  C1  UNL d   1       5.251   0.496  -5.609  0.00  0.00    -0.074 A 
ATOM      3  C2  UNL d   1       5.702   1.761  -5.999  0.00  0.00    -0.005 A 
ATOM      4  C3  UNL d   1       4.990   2.905  -5.636  0.00  0.00     0.006 A 
ATOM      5  C4  UNL d   1       3.823   2.795  -4.880  0.00  0.00    -0.005 A 
ATOM      6  C5  UNL d   1       3.356   1.538  -4.482  0.00  0.00    -0.074 A 
ATOM      7  C6  UNL d   1       2.098   1.401  -3.677  0.00  0.00     0.077 C 
ATOM      8  C7  UNL d   1       4.073   0.394  -4.856  0.00  0.00    -0.001 A 
ENDROOT
TORSDOF 0
ENDMDL
