MODEL 1
REMARK minimizedAffinity -2.42559123
REMARK minimizedRMSD -1
REMARK  0 active torsions:
REMARK  status: ('A' for Active; 'I' for Inactive)
ROOT
ATOM      1  C   UNL d   1      -2.909   2.394   0.307  0.00  0.00     0.077 C 
ATOM      2  C1  UNL d   1      -2.862   1.174   1.177  0.00  0.00    -0.074 A 
ATOM      3  C2  UNL d   1      -3.310   1.217   2.501  0.00  0.00    -0.005 A 
ATOM      4  C3  UNL d   1      -3.269   0.071   3.295  0.00  0.00     0.006 A 
ATOM      5  C4  UNL d   1      -2.781  -1.128   2.774  0.00  0.00    -0.005 A 
ATOM      6  C5  UNL d   1      -2.330  -1.191   1.452  0.00  0.00    -0.074 A 
ATOM      7  C6  UNL d   1      -1.811  -2.474   0.873  0.00  0.00     0.077 C 
ATOM      8  C7  UNL d   1      -2.380  -0.037   0.658  0.00  0.00    -0.001 A 
ENDROOT
TORSDOF 0
ENDMDL
