MODEL 1
REMARK minimizedAffinity 0.51903981
REMARK minimizedRMSD -1
REMARK  0 active torsions:
REMARK  status: ('A' for Active; 'I' for Inactive)
ROOT
ATOM      1  C   UNL d   1      -2.252  -0.003   3.743  0.00  0.00     0.077 C 
ATOM      2  C1  UNL d   1      -2.709  -0.679   2.484  0.00  0.00    -0.074 A 
ATOM      3  C2  UNL d   1      -1.785  -1.188   1.565  0.00  0.00    -0.005 A 
ATOM      4  C3  UNL d   1      -2.224  -1.822   0.403  0.00  0.00     0.006 A 
ATOM      5  C4  UNL d   1      -3.590  -1.954   0.148  0.00  0.00    -0.005 A 
ATOM      6  C5  UNL d   1      -4.528  -1.452   1.055  0.00  0.00    -0.074 A 
ATOM      7  C6  UNL d   1      -6.000  -1.594   0.801  0.00  0.00     0.077 C 
ATOM      8  C7  UNL d   1      -4.079  -0.822   2.224  0.00  0.00    -0.001 A 
ENDROOT
TORSDOF 0
ENDMDL
