MODEL 1
REMARK minimizedAffinity 3.70021224
REMARK minimizedRMSD -1
REMARK  0 active torsions:
REMARK  status: ('A' for Active; 'I' for Inactive)
ROOT
ATOM      1  C   UNL d   1      -2.181   3.107   1.075  0.00  0.00     0.077 C 
ATOM      2  C1  UNL d   1      -2.436   1.629   1.083  0.00  0.00    -0.074 A 
ATOM      3  C2  UNL d   1      -2.457   0.897  -0.109  0.00  0.00    -0.005 A 
ATOM      4  C3  UNL d   1      -2.685  -0.479  -0.085  0.00  0.00     0.006 A 
ATOM      5  C4  UNL d   1      -2.894  -1.136   1.128  0.00  0.00    -0.005 A 
ATOM      6  C5  UNL d   1      -2.876  -0.420   2.330  0.00  0.00    -0.074 A 
ATOM      7  C6  UNL d   1      -3.089  -1.112   3.644  0.00  0.00     0.077 C 
ATOM      8  C7  UNL d   1      -2.639   0.961   2.299  0.00  0.00    -0.001 A 
ENDROOT
TORSDOF 0
ENDMDL
