MODEL 1
REMARK minimizedAffinity -5.62523413
REMARK minimizedRMSD -1
REMARK  0 active torsions:
REMARK  status: ('A' for Active; 'I' for Inactive)
ROOT
ATOM      1  C   UNL d   1       1.003   1.678  -3.002  0.00  0.00     0.077 C 
ATOM      2  C1  UNL d   1       1.879   0.548  -3.454  0.00  0.00    -0.074 A 
ATOM      3  C2  UNL d   1       2.792   0.720  -4.499  0.00  0.00    -0.005 A 
ATOM      4  C3  UNL d   1       3.607  -0.338  -4.902  0.00  0.00     0.006 A 
ATOM      5  C4  UNL d   1       3.517  -1.576  -4.266  0.00  0.00    -0.005 A 
ATOM      6  C5  UNL d   1       2.611  -1.767  -3.218  0.00  0.00    -0.074 A 
ATOM      7  C6  UNL d   1       2.508  -3.089  -2.517  0.00  0.00     0.077 C 
ATOM      8  C7  UNL d   1       1.800  -0.697  -2.814  0.00  0.00    -0.001 A 
ENDROOT
TORSDOF 0
ENDMDL
