MODEL 1
REMARK minimizedAffinity 1.20446062
REMARK minimizedRMSD -1
REMARK  0 active torsions:
REMARK  status: ('A' for Active; 'I' for Inactive)
ROOT
ATOM      1  C   UNL d   1      -2.238   2.670  -0.251  0.00  0.00     0.077 C 
ATOM      2  C1  UNL d   1      -2.660   1.527   0.623  0.00  0.00    -0.074 A 
ATOM      3  C2  UNL d   1      -3.257   0.386   0.077  0.00  0.00    -0.005 A 
ATOM      4  C3  UNL d   1      -3.635  -0.673   0.901  0.00  0.00     0.006 A 
ATOM      5  C4  UNL d   1      -3.421  -0.603   2.278  0.00  0.00    -0.005 A 
ATOM      6  C5  UNL d   1      -2.825   0.529   2.843  0.00  0.00    -0.074 A 
ATOM      7  C6  UNL d   1      -2.578   0.616   4.320  0.00  0.00     0.077 C 
ATOM      8  C7  UNL d   1      -2.441   1.587   2.007  0.00  0.00    -0.001 A 
ENDROOT
TORSDOF 0
ENDMDL
