MODEL 1
REMARK minimizedAffinity 0.449483335
REMARK minimizedRMSD -1
REMARK  0 active torsions:
REMARK  status: ('A' for Active; 'I' for Inactive)
ROOT
ATOM      1  C   UNL d   1      -1.854   0.470   4.023  0.00  0.00     0.077 C 
ATOM      2  C1  UNL d   1      -2.609  -0.324   3.000  0.00  0.00    -0.074 A 
ATOM      3  C2  UNL d   1      -3.935  -0.711   3.224  0.00  0.00    -0.005 A 
ATOM      4  C3  UNL d   1      -4.627  -1.441   2.258  0.00  0.00     0.006 A 
ATOM      5  C4  UNL d   1      -4.002  -1.793   1.061  0.00  0.00    -0.005 A 
ATOM      6  C5  UNL d   1      -2.678  -1.414   0.819  0.00  0.00    -0.074 A 
ATOM      7  C6  UNL d   1      -1.994  -1.775  -0.467  0.00  0.00     0.077 C 
ATOM      8  C7  UNL d   1      -1.991  -0.674   1.791  0.00  0.00    -0.001 A 
ENDROOT
TORSDOF 0
ENDMDL
