MODEL 1
REMARK minimizedAffinity 1.06722784
REMARK minimizedRMSD -1
REMARK  0 active torsions:
REMARK  status: ('A' for Active; 'I' for Inactive)
ROOT
ATOM      1  C   UNL d   1      -2.924   1.938   4.136  0.00  0.00     0.077 C 
ATOM      2  C1  UNL d   1      -3.019   1.009   2.962  0.00  0.00    -0.074 A 
ATOM      3  C2  UNL d   1      -3.877  -0.095   2.986  0.00  0.00    -0.005 A 
ATOM      4  C3  UNL d   1      -3.961  -0.944   1.883  0.00  0.00     0.006 A 
ATOM      5  C4  UNL d   1      -3.190  -0.698   0.746  0.00  0.00    -0.005 A 
ATOM      6  C5  UNL d   1      -2.327   0.401   0.703  0.00  0.00    -0.074 A 
ATOM      7  C6  UNL d   1      -1.498   0.685  -0.514  0.00  0.00     0.077 C 
ATOM      8  C7  UNL d   1      -2.253   1.254   1.813  0.00  0.00    -0.001 A 
ENDROOT
TORSDOF 0
ENDMDL
