MODEL 1
REMARK minimizedAffinity 6.51918316
REMARK minimizedRMSD -1
REMARK  0 active torsions:
REMARK  status: ('A' for Active; 'I' for Inactive)
ROOT
ATOM      1  C   UNL d   1      -2.551   2.048   0.763  0.00  0.00     0.077 C 
ATOM      2  C1  UNL d   1      -2.956   1.078   1.832  0.00  0.00    -0.074 A 
ATOM      3  C2  UNL d   1      -2.199   0.937   3.000  0.00  0.00    -0.005 A 
ATOM      4  C3  UNL d   1      -2.594   0.037   3.990  0.00  0.00     0.006 A 
ATOM      5  C4  UNL d   1      -3.748  -0.729   3.823  0.00  0.00    -0.005 A 
ATOM      6  C5  UNL d   1      -4.519  -0.600   2.663  0.00  0.00    -0.074 A 
ATOM      7  C6  UNL d   1      -5.768  -1.409   2.473  0.00  0.00     0.077 C 
ATOM      8  C7  UNL d   1      -4.119   0.311   1.676  0.00  0.00    -0.001 A 
ENDROOT
TORSDOF 0
ENDMDL
