MODEL 1
REMARK minimizedAffinity 5.79272223
REMARK minimizedRMSD -1
REMARK  0 active torsions:
REMARK  status: ('A' for Active; 'I' for Inactive)
ROOT
ATOM      1  C   UNL d   1      -3.463  -0.429  -0.211  0.00  0.00     0.077 C 
ATOM      2  C1  UNL d   1      -3.741  -0.531   1.260  0.00  0.00    -0.074 A 
ATOM      3  C2  UNL d   1      -5.035  -0.773   1.732  0.00  0.00    -0.005 A 
ATOM      4  C3  UNL d   1      -5.276  -0.875   3.102  0.00  0.00     0.006 A 
ATOM      5  C4  UNL d   1      -4.227  -0.735   4.012  0.00  0.00    -0.005 A 
ATOM      6  C5  UNL d   1      -2.927  -0.493   3.558  0.00  0.00    -0.074 A 
ATOM      7  C6  UNL d   1      -1.787  -0.350   4.523  0.00  0.00     0.077 C 
ATOM      8  C7  UNL d   1      -2.691  -0.399   2.180  0.00  0.00    -0.001 A 
ENDROOT
TORSDOF 0
ENDMDL
