MODEL 1
REMARK minimizedAffinity -4.63658237
REMARK minimizedRMSD -1
REMARK  0 active torsions:
REMARK  status: ('A' for Active; 'I' for Inactive)
ROOT
ATOM      1  C   UNL d   1      -2.776  -0.712  -0.001  0.00  0.00     0.077 C 
ATOM      2  C1  UNL d   1      -2.869   0.074   1.272  0.00  0.00    -0.074 A 
ATOM      3  C2  UNL d   1      -2.476   1.415   1.319  0.00  0.00    -0.005 A 
ATOM      4  C3  UNL d   1      -2.578   2.137   2.509  0.00  0.00     0.006 A 
ATOM      5  C4  UNL d   1      -3.073   1.525   3.661  0.00  0.00    -0.005 A 
ATOM      6  C5  UNL d   1      -3.472   0.185   3.633  0.00  0.00    -0.074 A 
ATOM      7  C6  UNL d   1      -4.015  -0.485   4.860  0.00  0.00     0.077 C 
ATOM      8  C7  UNL d   1      -3.373  -0.531   2.432  0.00  0.00    -0.001 A 
ENDROOT
TORSDOF 0
ENDMDL
