MODEL 1
REMARK minimizedAffinity 5.29874754
REMARK minimizedRMSD -1
REMARK  0 active torsions:
REMARK  status: ('A' for Active; 'I' for Inactive)
ROOT
ATOM      1  C   UNL d   1       3.712  -1.355   4.095  0.00  0.00     0.077 C 
ATOM      2  C1  UNL d   1       4.368  -0.007   4.096  0.00  0.00    -0.074 A 
ATOM      3  C2  UNL d   1       5.393   0.294   4.999  0.00  0.00    -0.005 A 
ATOM      4  C3  UNL d   1       6.000   1.549   4.981  0.00  0.00     0.006 A 
ATOM      5  C4  UNL d   1       5.589   2.516   4.062  0.00  0.00    -0.005 A 
ATOM      6  C5  UNL d   1       4.567   2.233   3.151  0.00  0.00    -0.074 A 
ATOM      7  C6  UNL d   1       4.120   3.257   2.150  0.00  0.00     0.077 C 
ATOM      8  C7  UNL d   1       3.966   0.967   3.171  0.00  0.00    -0.001 A 
ENDROOT
TORSDOF 0
ENDMDL
