MODEL 1
REMARK minimizedAffinity 10.296463
REMARK minimizedRMSD -1
REMARK  0 active torsions:
REMARK  status: ('A' for Active; 'I' for Inactive)
ROOT
ATOM      1  C   UNL d   1       6.000   1.748   5.366  0.00  0.00     0.077 C 
ATOM      2  C1  UNL d   1       5.289   1.447   4.081  0.00  0.00    -0.074 A 
ATOM      3  C2  UNL d   1       5.462   0.219   3.434  0.00  0.00    -0.005 A 
ATOM      4  C3  UNL d   1       4.787  -0.050   2.244  0.00  0.00     0.006 A 
ATOM      5  C4  UNL d   1       3.932   0.903   1.689  0.00  0.00    -0.005 A 
ATOM      6  C5  UNL d   1       3.745   2.136   2.322  0.00  0.00    -0.074 A 
ATOM      7  C6  UNL d   1       2.823   3.169   1.745  0.00  0.00     0.077 C 
ATOM      8  C7  UNL d   1       4.422   2.397   3.521  0.00  0.00    -0.001 A 
ENDROOT
TORSDOF 0
ENDMDL
