MODEL 1
REMARK minimizedAffinity 3.00170898
REMARK minimizedRMSD -1
REMARK  0 active torsions:
REMARK  status: ('A' for Active; 'I' for Inactive)
ROOT
ATOM      1  C   UNL d   1       3.375  -1.601   4.503  0.00  0.00     0.077 C 
ATOM      2  C1  UNL d   1       4.119  -0.303   4.392  0.00  0.00    -0.074 A 
ATOM      3  C2  UNL d   1       5.314  -0.098   5.089  0.00  0.00    -0.005 A 
ATOM      4  C3  UNL d   1       5.999   1.111   4.968  0.00  0.00     0.006 A 
ATOM      5  C4  UNL d   1       5.498   2.125   4.152  0.00  0.00    -0.005 A 
ATOM      6  C5  UNL d   1       4.305   1.937   3.446  0.00  0.00    -0.074 A 
ATOM      7  C6  UNL d   1       3.757   3.013   2.556  0.00  0.00     0.077 C 
ATOM      8  C7  UNL d   1       3.625   0.717   3.567  0.00  0.00    -0.001 A 
ENDROOT
TORSDOF 0
ENDMDL
