MODEL 1
REMARK minimizedAffinity -0.127725169
REMARK minimizedRMSD -1
REMARK  0 active torsions:
REMARK  status: ('A' for Active; 'I' for Inactive)
ROOT
ATOM      1  C   UNL d   1      -3.499   4.657  -0.578  0.00  0.00     0.077 C 
ATOM      2  C1  UNL d   1      -2.975   3.261  -0.412  0.00  0.00    -0.074 A 
ATOM      3  C2  UNL d   1      -3.696   2.304   0.309  0.00  0.00    -0.005 A 
ATOM      4  C3  UNL d   1      -3.200   1.007   0.446  0.00  0.00     0.006 A 
ATOM      5  C4  UNL d   1      -1.981   0.655  -0.135  0.00  0.00    -0.005 A 
ATOM      6  C5  UNL d   1      -1.247   1.599  -0.860  0.00  0.00    -0.074 A 
ATOM      7  C6  UNL d   1       0.060   1.235  -1.499  0.00  0.00     0.077 C 
ATOM      8  C7  UNL d   1      -1.755   2.898  -1.000  0.00  0.00    -0.001 A 
ENDROOT
TORSDOF 0
ENDMDL
