MODEL 1
REMARK minimizedAffinity -1.08724773
REMARK minimizedRMSD -1
REMARK  0 active torsions:
REMARK  status: ('A' for Active; 'I' for Inactive)
ROOT
ATOM      1  C   UNL d   1      -0.476   1.670  -1.334  0.00  0.00     0.077 C 
ATOM      2  C1  UNL d   1      -1.632   2.209  -0.544  0.00  0.00    -0.074 A 
ATOM      3  C2  UNL d   1      -2.285   1.417   0.406  0.00  0.00    -0.005 A 
ATOM      4  C3  UNL d   1      -3.352   1.935   1.140  0.00  0.00     0.006 A 
ATOM      5  C4  UNL d   1      -3.776   3.248   0.932  0.00  0.00    -0.005 A 
ATOM      6  C5  UNL d   1      -3.134   4.055  -0.013  0.00  0.00    -0.074 A 
ATOM      7  C6  UNL d   1      -3.571   5.472  -0.241  0.00  0.00     0.077 C 
ATOM      8  C7  UNL d   1      -2.058   3.530  -0.741  0.00  0.00    -0.001 A 
ENDROOT
TORSDOF 0
ENDMDL
