MODEL 1
REMARK minimizedAffinity 5.51255989
REMARK minimizedRMSD -1
REMARK  0 active torsions:
REMARK  status: ('A' for Active; 'I' for Inactive)
ROOT
ATOM      1  C   UNL d   1      -6.000   0.367  -1.069  0.00  0.00     0.077 C 
ATOM      2  C1  UNL d   1      -4.694   0.491  -0.342  0.00  0.00    -0.074 A 
ATOM      3  C2  UNL d   1      -3.545   0.942  -1.000  0.00  0.00    -0.005 A 
ATOM      4  C3  UNL d   1      -2.339   1.061  -0.309  0.00  0.00     0.006 A 
ATOM      5  C4  UNL d   1      -2.270   0.731   1.045  0.00  0.00    -0.005 A 
ATOM      6  C5  UNL d   1      -3.409   0.280   1.720  0.00  0.00    -0.074 A 
ATOM      7  C6  UNL d   1      -3.355  -0.069   3.178  0.00  0.00     0.077 C 
ATOM      8  C7  UNL d   1      -4.618   0.170   1.021  0.00  0.00    -0.001 A 
ENDROOT
TORSDOF 0
ENDMDL
