MODEL 1
REMARK minimizedAffinity -3.19643998
REMARK minimizedRMSD -1
REMARK  0 active torsions:
REMARK  status: ('A' for Active; 'I' for Inactive)
ROOT
ATOM      1  C   UNL d   1       2.851  -1.861   0.268  0.00  0.00     0.020 A 
ATOM      2  C1  UNL d   1       1.655  -2.405  -0.199  0.00  0.00     0.020 A 
ATOM      3  C2  UNL d   1       0.529  -1.593  -0.345  0.00  0.00     0.034 A 
ATOM      4  C3  UNL d   1       0.595  -0.233  -0.023  0.00  0.00     0.017 A 
ATOM      5  C4  UNL d   1       1.796   0.313   0.446  0.00  0.00     0.017 A 
ATOM      6  C5  UNL d   1       2.921  -0.505   0.590  0.00  0.00     0.034 A 
ATOM      7 Cl   UNL d   1       1.955   1.982   0.863  0.00  0.00    -0.070 Cl
ATOM      8 Cl1  UNL d   1      -0.837   0.712  -0.229  0.00  0.00    -0.070 Cl
ENDROOT
TORSDOF 0
ENDMDL
