MODEL 1
REMARK minimizedAffinity -2.75024366
REMARK minimizedRMSD -1
REMARK  0 active torsions:
REMARK  status: ('A' for Active; 'I' for Inactive)
ROOT
ATOM      1  C   UNL d   1      -0.885   0.519  -0.350  0.00  0.00     0.020 A 
ATOM      2  C1  UNL d   1      -0.616  -0.813  -0.663  0.00  0.00     0.020 A 
ATOM      3  C2  UNL d   1       0.580  -1.401  -0.245  0.00  0.00     0.034 A 
ATOM      4  C3  UNL d   1       1.511  -0.658   0.489  0.00  0.00     0.017 A 
ATOM      5  C4  UNL d   1       1.240   0.679   0.803  0.00  0.00     0.017 A 
ATOM      6  C5  UNL d   1       0.041   1.263   0.382  0.00  0.00     0.034 A 
ATOM      7 Cl   UNL d   1       2.340   1.660   1.706  0.00  0.00    -0.070 Cl
ATOM      8 Cl1  UNL d   1       2.968  -1.449   0.974  0.00  0.00    -0.070 Cl
ENDROOT
TORSDOF 0
ENDMDL
