MODEL 1
REMARK minimizedAffinity -4.83137751
REMARK minimizedRMSD -1
REMARK  0 active torsions:
REMARK  status: ('A' for Active; 'I' for Inactive)
ROOT
ATOM      1  C   UNL d   1       3.529  -0.002   0.316  0.00  0.00     0.020 A 
ATOM      2  C1  UNL d   1       3.070   1.312   0.400  0.00  0.00     0.020 A 
ATOM      3  C2  UNL d   1       1.702   1.580   0.312  0.00  0.00     0.034 A 
ATOM      4  C3  UNL d   1       0.789   0.533   0.140  0.00  0.00     0.017 A 
ATOM      5  C4  UNL d   1       1.251  -0.785   0.057  0.00  0.00     0.017 A 
ATOM      6  C5  UNL d   1       2.622  -1.048   0.145  0.00  0.00     0.034 A 
ATOM      7 Cl   UNL d   1       0.186  -2.129  -0.155  0.00  0.00    -0.070 Cl
ATOM      8 Cl1  UNL d   1      -0.888   0.938   0.040  0.00  0.00    -0.070 Cl
ENDROOT
TORSDOF 0
ENDMDL
