MODEL 1
REMARK minimizedAffinity -4.7897191
REMARK minimizedRMSD -1
REMARK  0 active torsions:
REMARK  status: ('A' for Active; 'I' for Inactive)
ROOT
ATOM      1  C   UNL d   1       3.315  -0.110   0.602  0.00  0.00     0.020 A 
ATOM      2  C1  UNL d   1       2.445  -1.200   0.595  0.00  0.00     0.020 A 
ATOM      3  C2  UNL d   1       1.090  -1.010   0.315  0.00  0.00     0.034 A 
ATOM      4  C3  UNL d   1       0.601   0.273   0.042  0.00  0.00     0.017 A 
ATOM      5  C4  UNL d   1       1.475   1.366   0.050  0.00  0.00     0.017 A 
ATOM      6  C5  UNL d   1       2.831   1.170   0.330  0.00  0.00     0.034 A 
ATOM      7 Cl   UNL d   1       0.946   2.979  -0.278  0.00  0.00    -0.070 Cl
ATOM      8 Cl1  UNL d   1      -1.086   0.435  -0.295  0.00  0.00    -0.070 Cl
ENDROOT
TORSDOF 0
ENDMDL
