MODEL 1
REMARK minimizedAffinity -5.1721921
REMARK minimizedRMSD -1
REMARK  0 active torsions:
REMARK  status: ('A' for Active; 'I' for Inactive)
ROOT
ATOM      1  C   UNL d   1       2.280   0.076   1.126  0.00  0.00     0.020 A 
ATOM      2  C1  UNL d   1       2.470  -1.275   0.838  0.00  0.00     0.020 A 
ATOM      3  C2  UNL d   1       1.575  -1.943  -0.001  0.00  0.00     0.034 A 
ATOM      4  C3  UNL d   1       0.487  -1.259  -0.556  0.00  0.00     0.017 A 
ATOM      5  C4  UNL d   1       0.298   0.097  -0.267  0.00  0.00     0.017 A 
ATOM      6  C5  UNL d   1       1.196   0.760   0.574  0.00  0.00     0.034 A 
ATOM      7 Cl   UNL d   1      -1.021   1.007  -0.915  0.00  0.00    -0.070 Cl
ATOM      8 Cl1  UNL d   1      -0.579  -2.147  -1.587  0.00  0.00    -0.070 Cl
ENDROOT
TORSDOF 0
ENDMDL
