MODEL 1
REMARK minimizedAffinity -0.598474383
REMARK minimizedRMSD -1
REMARK  0 active torsions:
REMARK  status: ('A' for Active; 'I' for Inactive)
ROOT
ATOM      1  C   UNL d   1      -1.240   0.478  -0.676  0.00  0.00     0.020 A 
ATOM      2  C1  UNL d   1      -1.158  -0.911  -0.756  0.00  0.00     0.020 A 
ATOM      3  C2  UNL d   1      -0.014  -1.570  -0.300  0.00  0.00     0.034 A 
ATOM      4  C3  UNL d   1       1.052  -0.840   0.238  0.00  0.00     0.017 A 
ATOM      5  C4  UNL d   1       0.969   0.555   0.317  0.00  0.00     0.017 A 
ATOM      6  C5  UNL d   1      -0.179   1.210  -0.140  0.00  0.00     0.034 A 
ATOM      7 Cl   UNL d   1       2.243   1.524   0.968  0.00  0.00    -0.070 Cl
ATOM      8 Cl1  UNL d   1       2.435  -1.720   0.783  0.00  0.00    -0.070 Cl
ENDROOT
TORSDOF 0
ENDMDL
