MODEL 1
REMARK minimizedAffinity -2.03195596
REMARK minimizedRMSD -1
REMARK  0 active torsions:
REMARK  status: ('A' for Active; 'I' for Inactive)
ROOT
ATOM      1  C   UNL d   1      -0.584  -0.234  -0.499  0.00  0.00     0.020 A 
ATOM      2  C1  UNL d   1      -0.062  -1.525  -0.573  0.00  0.00     0.020 A 
ATOM      3  C2  UNL d   1       1.198  -1.800  -0.037  0.00  0.00     0.034 A 
ATOM      4  C3  UNL d   1       1.940  -0.783   0.574  0.00  0.00     0.017 A 
ATOM      5  C4  UNL d   1       1.415   0.512   0.647  0.00  0.00     0.017 A 
ATOM      6  C5  UNL d   1       0.153   0.782   0.109  0.00  0.00     0.034 A 
ATOM      7 Cl   UNL d   1       2.272   1.819   1.386  0.00  0.00    -0.070 Cl
ATOM      8 Cl1  UNL d   1       3.491  -1.195   1.216  0.00  0.00    -0.070 Cl
ENDROOT
TORSDOF 0
ENDMDL
