MODEL 1
REMARK minimizedAffinity 2.60366654
REMARK minimizedRMSD -1
REMARK  1 active torsions:
REMARK  status: ('A' for Active; 'I' for Inactive)
REMARK    1  A    between atoms: C3_4  and  O_7 
ROOT
ATOM      1  C   UNL d   1      -1.750  -5.974   2.997  0.00  0.00    -0.033 A 
ATOM      2  C1  UNL d   1      -1.128  -5.962   4.248  0.00  0.00     0.039 A 
ATOM      3  C2  UNL d   1       0.265  -5.967   4.337  0.00  0.00    -0.080 A 
ATOM      4  C3  UNL d   1       1.024  -5.982   3.170  0.00  0.00     0.150 A 
ATOM      5  C4  UNL d   1       0.412  -5.990   1.921  0.00  0.00    -0.007 A 
ATOM      6  C5  UNL d   1      -0.979  -5.986   1.834  0.00  0.00     0.039 A 
ENDROOT
BRANCH   4   7
ATOM      7  O   UNL d   1       2.387  -5.991   3.207  0.00  0.00    -0.526 OA
ATOM      8  H5  UNL d   1       2.670  -6.013   4.136  0.00  0.00     0.418 HD
ENDBRANCH   4   7
TORSDOF 1
ENDMDL
