MODEL 1
REMARK minimizedAffinity 6.90614605
REMARK minimizedRMSD -1
REMARK  1 active torsions:
REMARK  status: ('A' for Active; 'I' for Inactive)
REMARK    1  A    between atoms: C3_4  and  O_7 
ROOT
ATOM      1  C   UNL d   1       0.486  -5.993   1.663  0.00  0.00    -0.033 A 
ATOM      2  C1  UNL d   1      -0.339  -5.997   2.790  0.00  0.00     0.039 A 
ATOM      3  C2  UNL d   1       0.223  -5.998   4.068  0.00  0.00    -0.080 A 
ATOM      4  C3  UNL d   1       1.608  -5.993   4.206  0.00  0.00     0.150 A 
ATOM      5  C4  UNL d   1       2.436  -5.985   3.088  0.00  0.00    -0.007 A 
ATOM      6  C5  UNL d   1       1.873  -5.985   1.813  0.00  0.00     0.039 A 
ENDROOT
BRANCH   4   7
ATOM      7  O   UNL d   1       2.202  -5.998   5.433  0.00  0.00    -0.526 OA
ATOM      8  H5  UNL d   1       1.506  -6.033   6.111  0.00  0.00     0.418 HD
ENDBRANCH   4   7
TORSDOF 1
ENDMDL
