MODEL 1
REMARK minimizedAffinity 0.681763768
REMARK minimizedRMSD -1
REMARK  1 active torsions:
REMARK  status: ('A' for Active; 'I' for Inactive)
REMARK    1  A    between atoms: C3_4  and  O_7 
ROOT
ATOM      1  C   UNL d   1       0.812  -6.000   1.861  0.00  0.00    -0.033 A 
ATOM      2  C1  UNL d   1       2.124  -6.000   2.339  0.00  0.00     0.039 A 
ATOM      3  C2  UNL d   1       2.369  -5.989   3.713  0.00  0.00    -0.080 A 
ATOM      4  C3  UNL d   1       1.295  -5.979   4.599  0.00  0.00     0.150 A 
ATOM      5  C4  UNL d   1      -0.015  -5.983   4.130  0.00  0.00    -0.007 A 
ATOM      6  C5  UNL d   1      -0.257  -5.993   2.757  0.00  0.00     0.039 A 
ENDROOT
BRANCH   4   7
ATOM      7  O   UNL d   1       1.484  -5.964   5.949  0.00  0.00    -0.526 OA
ATOM      8  H5  UNL d   1       2.439  -5.934   6.125  0.00  0.00     0.418 HD
ENDBRANCH   4   7
TORSDOF 1
ENDMDL
