MODEL 1
REMARK minimizedAffinity 2.22490191
REMARK minimizedRMSD -1
REMARK  1 active torsions:
REMARK  status: ('A' for Active; 'I' for Inactive)
REMARK    1  A    between atoms: C3_4  and  O_7 
ROOT
ATOM      1  C   UNL d   1       2.414  -5.978   3.541  0.00  0.00    -0.033 A 
ATOM      2  C1  UNL d   1       2.157  -5.964   2.169  0.00  0.00     0.039 A 
ATOM      3  C2  UNL d   1       0.841  -5.969   1.703  0.00  0.00    -0.080 A 
ATOM      4  C3  UNL d   1      -0.208  -5.986   2.618  0.00  0.00     0.150 A 
ATOM      5  C4  UNL d   1       0.040  -5.996   3.987  0.00  0.00    -0.007 A 
ATOM      6  C5  UNL d   1       1.355  -5.992   4.450  0.00  0.00     0.039 A 
ENDROOT
BRANCH   4   7
ATOM      7  O   UNL d   1      -1.509  -5.996   2.211  0.00  0.00    -0.526 OA
ATOM      8  H5  UNL d   1      -1.527  -6.017   1.240  0.00  0.00     0.418 HD
ENDBRANCH   4   7
TORSDOF 1
ENDMDL
