MODEL 1
REMARK minimizedAffinity 1.11984622
REMARK minimizedRMSD -1
REMARK  1 active torsions:
REMARK  status: ('A' for Active; 'I' for Inactive)
REMARK    1  A    between atoms: C3_4  and  O_7 
ROOT
ATOM      1  C   UNL d   1      -0.652  -5.997   3.827  0.00  0.00    -0.033 A 
ATOM      2  C1  UNL d   1      -0.346  -5.999   2.465  0.00  0.00     0.039 A 
ATOM      3  C2  UNL d   1       0.987  -5.999   2.047  0.00  0.00    -0.080 A 
ATOM      4  C3  UNL d   1       2.001  -5.998   3.000  0.00  0.00     0.150 A 
ATOM      5  C4  UNL d   1       1.703  -6.000   4.359  0.00  0.00    -0.007 A 
ATOM      6  C5  UNL d   1       0.372  -5.999   4.774  0.00  0.00     0.039 A 
ENDROOT
BRANCH   4   7
ATOM      7  O   UNL d   1       3.317  -5.993   2.641  0.00  0.00    -0.526 OA
ATOM      8  H5  UNL d   1       3.370  -5.963   1.671  0.00  0.00     0.418 HD
ENDBRANCH   4   7
TORSDOF 1
ENDMDL
