MODEL 1
REMARK minimizedAffinity 0.94783026
REMARK minimizedRMSD -1
REMARK  1 active torsions:
REMARK  status: ('A' for Active; 'I' for Inactive)
REMARK    1  A    between atoms: C3_4  and  O_7 
ROOT
ATOM      1  C   UNL d   1       0.043  -5.999   1.863  0.00  0.00    -0.033 A 
ATOM      2  C1  UNL d   1      -0.753  -5.997   3.010  0.00  0.00     0.039 A 
ATOM      3  C2  UNL d   1      -0.159  -5.995   4.274  0.00  0.00    -0.080 A 
ATOM      4  C3  UNL d   1       1.229  -5.995   4.376  0.00  0.00     0.150 A 
ATOM      5  C4  UNL d   1       2.028  -5.993   3.237  0.00  0.00    -0.007 A 
ATOM      6  C5  UNL d   1       1.433  -5.996   1.976  0.00  0.00     0.039 A 
ENDROOT
BRANCH   4   7
ATOM      7  O   UNL d   1       1.854  -5.999   5.588  0.00  0.00    -0.526 OA
ATOM      8  H5  UNL d   1       1.176  -6.029   6.283  0.00  0.00     0.418 HD
ENDBRANCH   4   7
TORSDOF 1
ENDMDL
