MODEL 1
REMARK minimizedAffinity 0.0789169893
REMARK minimizedRMSD -1
REMARK  1 active torsions:
REMARK  status: ('A' for Active; 'I' for Inactive)
REMARK    1  A    between atoms: C3_4  and  O_7 
ROOT
ATOM      1  C   UNL d   1      -4.695  -5.993   1.008  0.00  0.00    -0.033 A 
ATOM      2  C1  UNL d   1      -4.680  -5.998   2.404  0.00  0.00     0.039 A 
ATOM      3  C2  UNL d   1      -3.465  -5.998   3.091  0.00  0.00    -0.080 A 
ATOM      4  C3  UNL d   1      -2.273  -5.991   2.372  0.00  0.00     0.150 A 
ATOM      5  C4  UNL d   1      -2.281  -5.981   0.981  0.00  0.00    -0.007 A 
ATOM      6  C5  UNL d   1      -3.495  -5.983   0.296  0.00  0.00     0.039 A 
ENDROOT
BRANCH   4   7
ATOM      7  O   UNL d   1      -1.062  -5.995   2.998  0.00  0.00    -0.526 OA
ATOM      8  H5  UNL d   1      -1.213  -6.031   3.958  0.00  0.00     0.418 HD
ENDBRANCH   4   7
TORSDOF 1
ENDMDL
