MODEL 1
REMARK minimizedAffinity 3.01951265
REMARK minimizedRMSD -1
REMARK  1 active torsions:
REMARK  status: ('A' for Active; 'I' for Inactive)
REMARK    1  A    between atoms: C3_4  and  O_7 
ROOT
ATOM      1  C   UNL d   1      -0.173  -6.000   2.226  0.00  0.00    -0.033 A 
ATOM      2  C1  UNL d   1      -1.003  -6.000   3.349  0.00  0.00     0.039 A 
ATOM      3  C2  UNL d   1      -0.514  -5.558   4.580  0.00  0.00    -0.080 A 
ATOM      4  C3  UNL d   1       0.803  -5.119   4.675  0.00  0.00     0.150 A 
ATOM      5  C4  UNL d   1       1.634  -5.112   3.560  0.00  0.00    -0.007 A 
ATOM      6  C5  UNL d   1       1.145  -5.554   2.331  0.00  0.00     0.039 A 
ENDROOT
BRANCH   4   7
ATOM      7  O   UNL d   1       1.326  -4.683   5.856  0.00  0.00    -0.526 OA
ATOM      8  H5  UNL d   1       0.646  -4.771   6.545  0.00  0.00     0.418 HD
ENDBRANCH   4   7
TORSDOF 1
ENDMDL
