MODEL 1
REMARK minimizedAffinity 1.57320082
REMARK minimizedRMSD -1
REMARK  1 active torsions:
REMARK  status: ('A' for Active; 'I' for Inactive)
REMARK    1  A    between atoms: C3_4  and  O_7 
ROOT
ATOM      1  C   UNL d   1       3.009  -6.000   4.759  0.00  0.00    -0.033 A 
ATOM      2  C1  UNL d   1       2.956  -6.000   3.364  0.00  0.00     0.039 A 
ATOM      3  C2  UNL d   1       1.722  -5.969   2.710  0.00  0.00    -0.080 A 
ATOM      4  C3  UNL d   1       0.551  -5.936   3.462  0.00  0.00     0.150 A 
ATOM      5  C4  UNL d   1       0.597  -5.932   4.852  0.00  0.00    -0.007 A 
ATOM      6  C5  UNL d   1       1.829  -5.964   5.503  0.00  0.00     0.039 A 
ENDROOT
BRANCH   4   7
ATOM      7  O   UNL d   1      -0.676  -5.910   2.869  0.00  0.00    -0.526 OA
ATOM      8  H5  UNL d   1      -0.553  -5.946   1.905  0.00  0.00     0.418 HD
ENDBRANCH   4   7
TORSDOF 1
ENDMDL
