MODEL 1
REMARK minimizedAffinity 0.289739311
REMARK minimizedRMSD -1
REMARK  1 active torsions:
REMARK  status: ('A' for Active; 'I' for Inactive)
REMARK    1  A    between atoms: C3_4  and  O_7 
ROOT
ATOM      1  C   UNL d   1      -1.190  -5.993   2.961  0.00  0.00    -0.033 A 
ATOM      2  C1  UNL d   1      -0.414  -5.998   4.122  0.00  0.00     0.039 A 
ATOM      3  C2  UNL d   1       0.980  -5.999   4.032  0.00  0.00    -0.080 A 
ATOM      4  C3  UNL d   1       1.584  -5.994   2.778  0.00  0.00     0.150 A 
ATOM      5  C4  UNL d   1       0.817  -5.985   1.618  0.00  0.00    -0.007 A 
ATOM      6  C5  UNL d   1      -0.574  -5.985   1.709  0.00  0.00     0.039 A 
ENDROOT
BRANCH   4   7
ATOM      7  O   UNL d   1       2.940  -5.999   2.641  0.00  0.00    -0.526 OA
ATOM      8  H5  UNL d   1       3.339  -6.034   3.526  0.00  0.00     0.418 HD
ENDBRANCH   4   7
TORSDOF 1
ENDMDL
