MODEL 1
REMARK minimizedAffinity 2.81101966
REMARK minimizedRMSD -1
REMARK  1 active torsions:
REMARK  status: ('A' for Active; 'I' for Inactive)
REMARK    1  A    between atoms: C3_4  and  O_7 
ROOT
ATOM      1  C   UNL d   1      -0.666  -5.953   3.368  0.00  0.00    -0.033 A 
ATOM      2  C1  UNL d   1      -0.300  -5.945   2.021  0.00  0.00     0.039 A 
ATOM      3  C2  UNL d   1       1.050  -5.960   1.662  0.00  0.00    -0.080 A 
ATOM      4  C3  UNL d   1       2.021  -5.984   2.659  0.00  0.00     0.150 A 
ATOM      5  C4  UNL d   1       1.664  -5.996   4.003  0.00  0.00    -0.007 A 
ATOM      6  C5  UNL d   1       0.316  -5.980   4.359  0.00  0.00     0.039 A 
ENDROOT
BRANCH   4   7
ATOM      7  O   UNL d   1       3.351  -5.995   2.358  0.00  0.00    -0.526 OA
ATOM      8  H5  UNL d   1       3.448  -5.956   1.392  0.00  0.00     0.418 HD
ENDBRANCH   4   7
TORSDOF 1
ENDMDL
