MODEL 1
REMARK minimizedAffinity 2.28975129
REMARK minimizedRMSD -1
REMARK  1 active torsions:
REMARK  status: ('A' for Active; 'I' for Inactive)
REMARK    1  A    between atoms: C3_4  and  O_7 
ROOT
ATOM      1  C   UNL d   1      -0.784  -5.954   2.784  0.00  0.00    -0.033 A 
ATOM      2  C1  UNL d   1      -1.204  -6.000   4.114  0.00  0.00     0.039 A 
ATOM      3  C2  UNL d   1      -0.264  -5.998   5.146  0.00  0.00    -0.080 A 
ATOM      4  C3  UNL d   1       1.092  -5.949   4.835  0.00  0.00     0.150 A 
ATOM      5  C4  UNL d   1       1.518  -5.899   3.512  0.00  0.00    -0.007 A 
ATOM      6  C5  UNL d   1       0.578  -5.903   2.482  0.00  0.00     0.039 A 
ENDROOT
BRANCH   4   7
ATOM      7  O   UNL d   1       2.047  -5.949   5.808  0.00  0.00    -0.526 OA
ATOM      8  H5  UNL d   1       1.606  -6.015   6.671  0.00  0.00     0.418 HD
ENDBRANCH   4   7
TORSDOF 1
ENDMDL
