MODEL 1
REMARK minimizedAffinity 4.64140368
REMARK minimizedRMSD -1
REMARK  1 active torsions:
REMARK  status: ('A' for Active; 'I' for Inactive)
REMARK    1  A    between atoms: C3_4  and  O_7 
ROOT
ATOM      1  C   UNL d   1      -1.420  -0.421  -3.421  0.00  0.00    -0.033 A 
ATOM      2  C1  UNL d   1      -0.614  -0.968  -4.422  0.00  0.00     0.039 A 
ATOM      3  C2  UNL d   1      -0.609  -2.347  -4.640  0.00  0.00    -0.080 A 
ATOM      4  C3  UNL d   1      -1.415  -3.166  -3.854  0.00  0.00     0.150 A 
ATOM      5  C4  UNL d   1      -2.223  -2.628  -2.858  0.00  0.00    -0.007 A 
ATOM      6  C5  UNL d   1      -2.225  -1.250  -2.640  0.00  0.00     0.039 A 
ENDROOT
BRANCH   4   7
ATOM      7  O   UNL d   1      -1.440  -4.519  -4.026  0.00  0.00    -0.526 OA
ATOM      8  H5  UNL d   1      -0.811  -4.751  -4.730  0.00  0.00     0.418 HD
ENDBRANCH   4   7
TORSDOF 1
ENDMDL
