MODEL 1
REMARK minimizedAffinity 6.85677719
REMARK minimizedRMSD -1
REMARK  1 active torsions:
REMARK  status: ('A' for Active; 'I' for Inactive)
REMARK    1  A    between atoms: C1_2  and  C2_3 
ROOT
ATOM      1  C2  UNL d   1       1.268   1.242  -1.112  0.00  0.00    -0.081 A 
ATOM      2  C3  UNL d   1       1.031   2.232  -2.074  0.00  0.00     0.006 A 
ATOM      3  C4  UNL d   1       0.872   3.566  -1.692  0.00  0.00     0.002 A 
ATOM      4  C5  UNL d   1       0.955   3.934  -0.344  0.00  0.00    -0.080 A 
ATOM      5  C6  UNL d   1       0.817   5.367   0.076  0.00  0.00     0.076 C 
ATOM      6  C7  UNL d   1       1.174   2.942   0.618  0.00  0.00     0.002 A 
ATOM      7  C8  UNL d   1       1.333   1.608   0.237  0.00  0.00     0.006 A 
ENDROOT
BRANCH   1   8
ATOM      8  C1  UNL d   1       1.504  -0.188  -1.527  0.00  0.00     0.054 C 
ATOM      9  C   UNL d   1       2.376  -0.920  -0.517  0.00  0.00     0.018 C 
ENDBRANCH   1   8
TORSDOF 1
ENDMDL
