MODEL 1
REMARK minimizedAffinity 6.94974041
REMARK minimizedRMSD -1
REMARK  1 active torsions:
REMARK  status: ('A' for Active; 'I' for Inactive)
REMARK    1  A    between atoms: C1_2  and  C2_3 
ROOT
ATOM      1  C2  UNL d   1       1.264   2.527   1.015  0.00  0.00    -0.081 A 
ATOM      2  C3  UNL d   1       1.036   2.593  -0.365  0.00  0.00     0.006 A 
ATOM      3  C4  UNL d   1       1.038   1.431  -1.140  0.00  0.00     0.002 A 
ATOM      4  C5  UNL d   1       1.260   0.183  -0.547  0.00  0.00    -0.080 A 
ATOM      5  C6  UNL d   1       1.235  -1.075  -1.363  0.00  0.00     0.076 C 
ATOM      6  C7  UNL d   1       1.506   0.118   0.828  0.00  0.00     0.002 A 
ATOM      7  C8  UNL d   1       1.505   1.280   1.603  0.00  0.00     0.006 A 
ENDROOT
BRANCH   1   8
ATOM      8  C1  UNL d   1       1.199   3.771   1.864  0.00  0.00     0.054 C 
ATOM      9  C   UNL d   1       2.396   3.867   2.798  0.00  0.00     0.018 C 
ENDBRANCH   1   8
TORSDOF 1
ENDMDL
