MODEL 1
REMARK minimizedAffinity -2.53660512
REMARK minimizedRMSD -1
REMARK  1 active torsions:
REMARK  status: ('A' for Active; 'I' for Inactive)
REMARK    1  A    between atoms: C1_2  and  C2_3 
ROOT
ATOM      1  C2  UNL d   1       1.219   0.235  -0.495  0.00  0.00    -0.081 A 
ATOM      2  C3  UNL d   1       1.675   0.659  -1.749  0.00  0.00     0.006 A 
ATOM      3  C4  UNL d   1       1.636   2.011  -2.097  0.00  0.00     0.002 A 
ATOM      4  C5  UNL d   1       1.150   2.962  -1.194  0.00  0.00    -0.080 A 
ATOM      5  C6  UNL d   1       1.131   4.421  -1.543  0.00  0.00     0.076 C 
ATOM      6  C7  UNL d   1       0.678   2.537   0.052  0.00  0.00     0.002 A 
ATOM      7  C8  UNL d   1       0.716   1.185   0.400  0.00  0.00     0.006 A 
ENDROOT
BRANCH   1   8
ATOM      8  C1  UNL d   1       1.319  -1.214  -0.093  0.00  0.00     0.054 C 
ATOM      9  C   UNL d   1       1.327  -2.127  -1.310  0.00  0.00     0.018 C 
ENDBRANCH   1   8
TORSDOF 1
ENDMDL
