MODEL 1
REMARK minimizedAffinity 1.79340291
REMARK minimizedRMSD -1
REMARK  1 active torsions:
REMARK  status: ('A' for Active; 'I' for Inactive)
REMARK    1  A    between atoms: C1_2  and  C2_3 
ROOT
ATOM      1  C2  UNL d   1       1.403  -0.435  -2.266  0.00  0.00    -0.081 A 
ATOM      2  C3  UNL d   1       1.275   0.913  -2.623  0.00  0.00     0.006 A 
ATOM      3  C4  UNL d   1       1.054   1.886  -1.646  0.00  0.00     0.002 A 
ATOM      4  C5  UNL d   1       0.965   1.530  -0.296  0.00  0.00    -0.080 A 
ATOM      5  C6  UNL d   1       0.759   2.569   0.766  0.00  0.00     0.076 C 
ATOM      6  C7  UNL d   1       1.076   0.181   0.059  0.00  0.00     0.002 A 
ATOM      7  C8  UNL d   1       1.296  -0.793  -0.917  0.00  0.00     0.006 A 
ENDROOT
BRANCH   1   8
ATOM      8  C1  UNL d   1       1.706  -1.479  -3.310  0.00  0.00     0.054 C 
ATOM      9  C   UNL d   1       1.826  -0.859  -4.694  0.00  0.00     0.018 C 
ENDBRANCH   1   8
TORSDOF 1
ENDMDL
