MODEL 1
REMARK minimizedAffinity -4.14251184
REMARK minimizedRMSD -1
REMARK  1 active torsions:
REMARK  status: ('A' for Active; 'I' for Inactive)
REMARK    1  A    between atoms: C1_2  and  C2_3 
ROOT
ATOM      1  C2  UNL d   1       0.957   0.223  -0.644  0.00  0.00    -0.081 A 
ATOM      2  C3  UNL d   1       0.678   1.422  -1.312  0.00  0.00     0.006 A 
ATOM      3  C4  UNL d   1       0.707   2.638  -0.625  0.00  0.00     0.002 A 
ATOM      4  C5  UNL d   1       1.022   2.677   0.737  0.00  0.00    -0.080 A 
ATOM      5  C6  UNL d   1       1.086   3.979   1.479  0.00  0.00     0.076 C 
ATOM      6  C7  UNL d   1       1.284   1.478   1.408  0.00  0.00     0.002 A 
ATOM      7  C8  UNL d   1       1.255   0.261   0.723  0.00  0.00     0.006 A 
ENDROOT
BRANCH   1   8
ATOM      8  C1  UNL d   1       0.991  -1.083  -1.396  0.00  0.00     0.054 C 
ATOM      9  C   UNL d   1       1.399  -2.234  -0.487  0.00  0.00     0.018 C 
ENDBRANCH   1   8
TORSDOF 1
ENDMDL
