MODEL 1
REMARK minimizedAffinity -0.961073101
REMARK minimizedRMSD -1
REMARK  1 active torsions:
REMARK  status: ('A' for Active; 'I' for Inactive)
REMARK    1  A    between atoms: C1_2  and  C2_3 
ROOT
ATOM      1  C2  UNL d   1      -2.583   3.278   5.001  0.00  0.00    -0.081 A 
ATOM      2  C3  UNL d   1      -3.828   2.690   5.255  0.00  0.00     0.006 A 
ATOM      3  C4  UNL d   1      -4.372   1.769   4.357  0.00  0.00     0.002 A 
ATOM      4  C5  UNL d   1      -3.677   1.414   3.196  0.00  0.00    -0.080 A 
ATOM      5  C6  UNL d   1      -4.236   0.403   2.239  0.00  0.00     0.076 C 
ATOM      6  C7  UNL d   1      -2.441   2.014   2.934  0.00  0.00     0.002 A 
ATOM      7  C8  UNL d   1      -1.897   2.936   3.831  0.00  0.00     0.006 A 
ENDROOT
BRANCH   1   8
ATOM      8  C1  UNL d   1      -1.964   4.224   5.999  0.00  0.00     0.054 C 
ATOM      9  C   UNL d   1      -1.414   5.467   5.316  0.00  0.00     0.018 C 
ENDBRANCH   1   8
TORSDOF 1
ENDMDL
