MODEL 1
REMARK minimizedAffinity -2.91277122
REMARK minimizedRMSD -1
REMARK  1 active torsions:
REMARK  status: ('A' for Active; 'I' for Inactive)
REMARK    1  A    between atoms: C1_2  and  C2_3 
ROOT
ATOM      1  C2  UNL d   1       1.469   0.558  -0.131  0.00  0.00    -0.081 A 
ATOM      2  C3  UNL d   1       0.739  -0.580  -0.494  0.00  0.00     0.006 A 
ATOM      3  C4  UNL d   1       1.349  -1.837  -0.511  0.00  0.00     0.002 A 
ATOM      4  C5  UNL d   1       2.696  -1.977  -0.159  0.00  0.00    -0.080 A 
ATOM      5  C6  UNL d   1       3.355  -3.324  -0.145  0.00  0.00     0.076 C 
ATOM      6  C7  UNL d   1       3.430  -0.837   0.186  0.00  0.00     0.002 A 
ATOM      7  C8  UNL d   1       2.821   0.419   0.203  0.00  0.00     0.006 A 
ENDROOT
BRANCH   1   8
ATOM      8  C1  UNL d   1       0.798   1.905  -0.049  0.00  0.00     0.054 C 
ATOM      9  C   UNL d   1       0.998   2.541   1.320  0.00  0.00     0.018 C 
ENDBRANCH   1   8
TORSDOF 1
ENDMDL
