MODEL 1
REMARK minimizedAffinity -3.80792379
REMARK minimizedRMSD -1
REMARK  1 active torsions:
REMARK  status: ('A' for Active; 'I' for Inactive)
REMARK    1  A    between atoms: C1_2  and  C2_3 
ROOT
ATOM      1  C2  UNL d   1       0.827   1.469  -0.429  0.00  0.00    -0.081 A 
ATOM      2  C3  UNL d   1       1.930   0.633  -0.641  0.00  0.00     0.006 A 
ATOM      3  C4  UNL d   1       2.071  -0.061  -1.845  0.00  0.00     0.002 A 
ATOM      4  C5  UNL d   1       1.116   0.075  -2.859  0.00  0.00    -0.080 A 
ATOM      5  C6  UNL d   1       1.271  -0.641  -4.168  0.00  0.00     0.076 C 
ATOM      6  C7  UNL d   1       0.005   0.897  -2.640  0.00  0.00     0.002 A 
ATOM      7  C8  UNL d   1      -0.136   1.590  -1.436  0.00  0.00     0.006 A 
ENDROOT
BRANCH   1   8
ATOM      8  C1  UNL d   1       0.706   2.269   0.843  0.00  0.00     0.054 C 
ATOM      9  C   UNL d   1       1.047   3.734   0.610  0.00  0.00     0.018 C 
ENDBRANCH   1   8
TORSDOF 1
ENDMDL
