MODEL 1
REMARK minimizedAffinity 0.708106041
REMARK minimizedRMSD -1
REMARK  1 active torsions:
REMARK  status: ('A' for Active; 'I' for Inactive)
REMARK    1  A    between atoms: C1_2  and  C2_3 
ROOT
ATOM      1  C2  UNL d   1       1.213   3.073  -0.044  0.00  0.00    -0.081 A 
ATOM      2  C3  UNL d   1       1.397   2.554  -1.331  0.00  0.00     0.006 A 
ATOM      3  C4  UNL d   1       1.302   1.179  -1.560  0.00  0.00     0.002 A 
ATOM      4  C5  UNL d   1       1.013   0.302  -0.508  0.00  0.00    -0.080 A 
ATOM      5  C6  UNL d   1       0.878  -1.172  -0.746  0.00  0.00     0.076 C 
ATOM      6  C7  UNL d   1       0.846   0.820   0.781  0.00  0.00     0.002 A 
ATOM      7  C8  UNL d   1       0.942   2.194   1.011  0.00  0.00     0.006 A 
ENDROOT
BRANCH   1   8
ATOM      8  C1  UNL d   1       1.251   4.561   0.195  0.00  0.00     0.054 C 
ATOM      9  C   UNL d   1       1.614   5.316  -1.076  0.00  0.00     0.018 C 
ENDBRANCH   1   8
TORSDOF 1
ENDMDL
