MODEL 1
REMARK minimizedAffinity -4.05226612
REMARK minimizedRMSD -1
REMARK  1 active torsions:
REMARK  status: ('A' for Active; 'I' for Inactive)
REMARK    1  A    between atoms: C1_2  and  C2_3 
ROOT
ATOM      1  C2  UNL d   1       0.464   1.787  -1.170  0.00  0.00    -0.081 A 
ATOM      2  C3  UNL d   1       0.420   1.461   0.191  0.00  0.00     0.006 A 
ATOM      3  C4  UNL d   1       0.936   0.244   0.645  0.00  0.00     0.002 A 
ATOM      4  C5  UNL d   1       1.511  -0.662  -0.253  0.00  0.00    -0.080 A 
ATOM      5  C6  UNL d   1       2.096  -1.957   0.225  0.00  0.00     0.076 C 
ATOM      6  C7  UNL d   1       1.539  -0.343  -1.615  0.00  0.00     0.002 A 
ATOM      7  C8  UNL d   1       1.023   0.872  -2.069  0.00  0.00     0.006 A 
ENDROOT
BRANCH   1   8
ATOM      8  C1  UNL d   1      -0.033   3.126  -1.654  0.00  0.00     0.054 C 
ATOM      9  C   UNL d   1       0.890   4.252  -1.209  0.00  0.00     0.018 C 
ENDBRANCH   1   8
TORSDOF 1
ENDMDL
