MODEL 1
REMARK minimizedAffinity -2.1331389
REMARK minimizedRMSD -1
REMARK  1 active torsions:
REMARK  status: ('A' for Active; 'I' for Inactive)
REMARK    1  A    between atoms: C1_2  and  C2_3 
ROOT
ATOM      1  C2  UNL d   1       0.985   1.344  -0.422  0.00  0.00    -0.081 A 
ATOM      2  C3  UNL d   1       1.113   2.072  -1.611  0.00  0.00     0.006 A 
ATOM      3  C4  UNL d   1       1.321   3.452  -1.577  0.00  0.00     0.002 A 
ATOM      4  C5  UNL d   1       1.413   4.127  -0.355  0.00  0.00    -0.080 A 
ATOM      5  C6  UNL d   1       1.666   5.604  -0.304  0.00  0.00     0.076 C 
ATOM      6  C7  UNL d   1       1.268   3.402   0.833  0.00  0.00     0.002 A 
ATOM      7  C8  UNL d   1       1.059   2.022   0.800  0.00  0.00     0.006 A 
ENDROOT
BRANCH   1   8
ATOM      8  C1  UNL d   1       0.825  -0.155  -0.454  0.00  0.00     0.054 C 
ATOM      9  C   UNL d   1       1.100  -0.711  -1.844  0.00  0.00     0.018 C 
ENDBRANCH   1   8
TORSDOF 1
ENDMDL
