MODEL 1
REMARK minimizedAffinity 6.87461472
REMARK minimizedRMSD -1
REMARK  1 active torsions:
REMARK  status: ('A' for Active; 'I' for Inactive)
REMARK    1  A    between atoms: C1_2  and  C2_3 
ROOT
ATOM      1  C2  UNL d   1       1.115   2.234  -1.429  0.00  0.00    -0.081 A 
ATOM      2  C3  UNL d   1       1.493   2.292  -0.082  0.00  0.00     0.006 A 
ATOM      3  C4  UNL d   1       1.496   1.136   0.702  0.00  0.00     0.002 A 
ATOM      4  C5  UNL d   1       1.128  -0.097   0.152  0.00  0.00    -0.080 A 
ATOM      5  C6  UNL d   1       1.156  -1.350   0.976  0.00  0.00     0.076 C 
ATOM      6  C7  UNL d   1       0.734  -0.151  -1.189  0.00  0.00     0.002 A 
ATOM      7  C8  UNL d   1       0.730   1.004  -1.974  0.00  0.00     0.006 A 
ENDROOT
BRANCH   1   8
ATOM      8  C1  UNL d   1       1.173   3.467  -2.295  0.00  0.00     0.054 C 
ATOM      9  C   UNL d   1       0.357   3.288  -3.568  0.00  0.00     0.018 C 
ENDBRANCH   1   8
TORSDOF 1
ENDMDL
