MODEL 1
REMARK minimizedAffinity -3.64761186
REMARK minimizedRMSD -1
REMARK  0 active torsions:
REMARK  status: ('A' for Active; 'I' for Inactive)
ROOT
ATOM      1  C   UNL d   1       0.161  -1.195   0.763  0.00  0.00     0.023 A 
ATOM      2  C1  UNL d   1       0.051   0.040   0.124  0.00  0.00     0.003 A 
ATOM      3  C2  UNL d   1      -1.085   0.828   0.316  0.00  0.00     0.048 A 
ATOM      4  C3  UNL d   1      -2.108   0.376   1.148  0.00  0.00     0.023 A 
ATOM      5  C4  UNL d   1      -2.003  -0.859   1.790  0.00  0.00     0.048 A 
ATOM      6  C5  UNL d   1      -0.865  -1.644   1.595  0.00  0.00     0.003 A 
ATOM      7  I   UNL d   1      -3.801   1.548   1.435  0.00  0.00    -0.146 I 
ENDROOT
TORSDOF 0
ENDMDL
