MODEL 1
REMARK minimizedAffinity -0.702931583
REMARK minimizedRMSD -1
REMARK  0 active torsions:
REMARK  status: ('A' for Active; 'I' for Inactive)
ROOT
ATOM      1  C   UNL d   1      -0.512  -1.192   0.547  0.00  0.00     0.023 A 
ATOM      2  C1  UNL d   1      -0.472  -0.194  -0.427  0.00  0.00     0.003 A 
ATOM      3  C2  UNL d   1       0.400   0.887  -0.284  0.00  0.00     0.048 A 
ATOM      4  C3  UNL d   1       1.231   0.963   0.833  0.00  0.00     0.023 A 
ATOM      5  C4  UNL d   1       1.195  -0.034   1.809  0.00  0.00     0.048 A 
ATOM      6  C5  UNL d   1       0.320  -1.113   1.663  0.00  0.00     0.003 A 
ATOM      7  I   UNL d   1       2.530   2.571   1.048  0.00  0.00    -0.146 I 
ENDROOT
TORSDOF 0
ENDMDL
