MODEL 1
REMARK minimizedAffinity -2.98709631
REMARK minimizedRMSD -1
REMARK  0 active torsions:
REMARK  status: ('A' for Active; 'I' for Inactive)
ROOT
ATOM      1  C   UNL d   1      -1.745  -2.711   1.473  0.00  0.00     0.023 A 
ATOM      2  C1  UNL d   1      -0.503  -2.868   0.859  0.00  0.00     0.003 A 
ATOM      3  C2  UNL d   1       0.198  -1.750   0.402  0.00  0.00     0.048 A 
ATOM      4  C3  UNL d   1      -0.348  -0.478   0.564  0.00  0.00     0.023 A 
ATOM      5  C4  UNL d   1      -1.591  -0.315   1.178  0.00  0.00     0.048 A 
ATOM      6  C5  UNL d   1      -2.289  -1.436   1.632  0.00  0.00     0.003 A 
ATOM      7  I   UNL d   1       0.694   1.188  -0.115  0.00  0.00    -0.146 I 
ENDROOT
TORSDOF 0
ENDMDL
