MODEL 1
REMARK minimizedAffinity -2.35100222
REMARK minimizedRMSD -1
REMARK  0 active torsions:
REMARK  status: ('A' for Active; 'I' for Inactive)
ROOT
ATOM      1  C   UNL d   1      -0.187  -2.782   1.899  0.00  0.00     0.023 A 
ATOM      2  C1  UNL d   1       1.092  -2.435   1.465  0.00  0.00     0.003 A 
ATOM      3  C2  UNL d   1       1.252  -1.608   0.350  0.00  0.00     0.048 A 
ATOM      4  C3  UNL d   1       0.128  -1.132  -0.324  0.00  0.00     0.023 A 
ATOM      5  C4  UNL d   1      -1.154  -1.477   0.108  0.00  0.00     0.048 A 
ATOM      6  C5  UNL d   1      -1.308  -2.304   1.222  0.00  0.00     0.003 A 
ATOM      7  I   UNL d   1       0.363   0.098  -1.983  0.00  0.00    -0.146 I 
ENDROOT
TORSDOF 0
ENDMDL
