MODEL 1
REMARK minimizedAffinity -3.17383218
REMARK minimizedRMSD -1
REMARK  0 active torsions:
REMARK  status: ('A' for Active; 'I' for Inactive)
ROOT
ATOM      1  C   UNL d   1       1.169   3.222  -0.105  0.00  0.00     0.023 A 
ATOM      2  C1  UNL d   1       1.697   2.373   0.867  0.00  0.00     0.003 A 
ATOM      3  C2  UNL d   1       1.294   1.037   0.923  0.00  0.00     0.048 A 
ATOM      4  C3  UNL d   1       0.361   0.557   0.004  0.00  0.00     0.023 A 
ATOM      5  C4  UNL d   1      -0.170   1.403  -0.971  0.00  0.00     0.048 A 
ATOM      6  C5  UNL d   1       0.236   2.738  -1.023  0.00  0.00     0.003 A 
ATOM      7  I   UNL d   1      -0.241  -1.430   0.086  0.00  0.00    -0.146 I 
ENDROOT
TORSDOF 0
ENDMDL
