MODEL 1
REMARK minimizedAffinity -2.7385006
REMARK minimizedRMSD -1
REMARK  0 active torsions:
REMARK  status: ('A' for Active; 'I' for Inactive)
ROOT
ATOM      1  C   UNL d   1      -0.597  -3.364   1.845  0.00  0.00     0.023 A 
ATOM      2  C1  UNL d   1      -1.235  -2.830   0.726  0.00  0.00     0.003 A 
ATOM      3  C2  UNL d   1      -1.012  -1.500   0.361  0.00  0.00     0.048 A 
ATOM      4  C3  UNL d   1      -0.149  -0.711   1.120  0.00  0.00     0.023 A 
ATOM      5  C4  UNL d   1       0.493  -1.242   2.240  0.00  0.00     0.048 A 
ATOM      6  C5  UNL d   1       0.267  -2.571   2.601  0.00  0.00     0.003 A 
ATOM      7  I   UNL d   1       0.185   1.268   0.579  0.00  0.00    -0.146 I 
ENDROOT
TORSDOF 0
ENDMDL
