MODEL 1
REMARK minimizedAffinity -3.32871389
REMARK minimizedRMSD -1
REMARK  0 active torsions:
REMARK  status: ('A' for Active; 'I' for Inactive)
ROOT
ATOM      1  C   UNL d   1      -0.126  -3.264   1.080  0.00  0.00     0.023 A 
ATOM      2  C1  UNL d   1      -0.737  -2.237   1.799  0.00  0.00     0.003 A 
ATOM      3  C2  UNL d   1      -0.697  -0.926   1.318  0.00  0.00     0.048 A 
ATOM      4  C3  UNL d   1      -0.045  -0.650   0.117  0.00  0.00     0.023 A 
ATOM      5  C4  UNL d   1       0.567  -1.675  -0.607  0.00  0.00     0.048 A 
ATOM      6  C5  UNL d   1       0.526  -2.983  -0.122  0.00  0.00     0.003 A 
ATOM      7  I   UNL d   1       0.016   1.300  -0.601  0.00  0.00    -0.146 I 
ENDROOT
TORSDOF 0
ENDMDL
