MODEL 1
REMARK minimizedAffinity -0.169830874
REMARK minimizedRMSD -1
REMARK  0 active torsions:
REMARK  status: ('A' for Active; 'I' for Inactive)
ROOT
ATOM      1  C   UNL d   1      -0.972  -2.527   0.621  0.00  0.00     0.023 A 
ATOM      2  C1  UNL d   1      -1.209  -1.467   1.496  0.00  0.00     0.003 A 
ATOM      3  C2  UNL d   1      -0.747  -0.186   1.184  0.00  0.00     0.048 A 
ATOM      4  C3  UNL d   1      -0.049   0.026  -0.004  0.00  0.00     0.023 A 
ATOM      5  C4  UNL d   1       0.190  -1.032  -0.882  0.00  0.00     0.048 A 
ATOM      6  C5  UNL d   1      -0.273  -2.310  -0.566  0.00  0.00     0.003 A 
ATOM      7  I   UNL d   1       0.639   1.931  -0.470  0.00  0.00    -0.146 I 
ENDROOT
TORSDOF 0
ENDMDL
