MODEL 1
REMARK minimizedAffinity 4.4427309
REMARK minimizedRMSD -1
REMARK  0 active torsions:
REMARK  status: ('A' for Active; 'I' for Inactive)
ROOT
ATOM      1  C   UNL d   1       4.044   3.311  -1.733  0.00  0.00     0.023 A 
ATOM      2  C1  UNL d   1       2.715   2.892  -1.798  0.00  0.00     0.003 A 
ATOM      3  C2  UNL d   1       1.843   3.168  -0.742  0.00  0.00     0.048 A 
ATOM      4  C3  UNL d   1       2.307   3.864   0.374  0.00  0.00     0.023 A 
ATOM      5  C4  UNL d   1       3.636   4.285   0.442  0.00  0.00     0.048 A 
ATOM      6  C5  UNL d   1       4.504   4.006  -0.615  0.00  0.00     0.003 A 
ATOM      7  I   UNL d   1       1.011   4.275   1.946  0.00  0.00    -0.146 I 
ENDROOT
TORSDOF 0
ENDMDL
