MODEL 1
REMARK minimizedAffinity 9.67594719
REMARK minimizedRMSD -1
REMARK  0 active torsions:
REMARK  status: ('A' for Active; 'I' for Inactive)
ROOT
ATOM      1  C   UNL d   1       2.391   4.917   1.393  0.00  0.00     0.023 A 
ATOM      2  C1  UNL d   1       2.720   4.006   0.390  0.00  0.00     0.003 A 
ATOM      3  C2  UNL d   1       1.828   2.987   0.050  0.00  0.00     0.048 A 
ATOM      4  C3  UNL d   1       0.607   2.886   0.717  0.00  0.00     0.023 A 
ATOM      5  C4  UNL d   1       0.274   3.797   1.721  0.00  0.00     0.048 A 
ATOM      6  C5  UNL d   1       1.170   4.813   2.058  0.00  0.00     0.003 A 
ATOM      7  I   UNL d   1      -0.723   1.371   0.213  0.00  0.00    -0.146 I 
ENDROOT
TORSDOF 0
ENDMDL
