MODEL 1
REMARK minimizedAffinity -5.10616875
REMARK minimizedRMSD -1
REMARK  1 active torsions:
REMARK  status: ('A' for Active; 'I' for Inactive)
REMARK    1  A    between atoms: C1_2  and  C2_3 
ROOT
ATOM      1  C2  UNL d   1       0.294  -1.074   0.738  0.00  0.00    -0.081 A 
ATOM      2  C3  UNL d   1       1.476  -1.191  -0.003  0.00  0.00     0.006 A 
ATOM      3  C4  UNL d   1       1.900  -0.148  -0.830  0.00  0.00     0.002 A 
ATOM      4  C5  UNL d   1       1.154   1.032  -0.923  0.00  0.00    -0.080 A 
ATOM      5  C6  UNL d   1       1.613   2.171  -1.783  0.00  0.00     0.076 C 
ATOM      6  C7  UNL d   1      -0.037   1.142  -0.196  0.00  0.00     0.002 A 
ATOM      7  C8  UNL d   1      -0.461   0.099   0.630  0.00  0.00     0.006 A 
ENDROOT
BRANCH   1   8
ATOM      8  C1  UNL d   1      -0.132  -2.171   1.680  0.00  0.00     0.054 C 
ATOM      9  C   UNL d   1       1.067  -2.800   2.375  0.00  0.00     0.018 C 
ENDBRANCH   1   8
TORSDOF 1
ENDMDL
