MODEL 1
REMARK minimizedAffinity -5.10707617
REMARK minimizedRMSD -1
REMARK  1 active torsions:
REMARK  status: ('A' for Active; 'I' for Inactive)
REMARK    1  A    between atoms: C1_2  and  C2_3 
ROOT
ATOM      1  C2  UNL d   1       0.675  -1.339   0.835  0.00  0.00    -0.081 A 
ATOM      2  C3  UNL d   1       1.602  -0.318   0.595  0.00  0.00     0.006 A 
ATOM      3  C4  UNL d   1       1.178   1.007   0.463  0.00  0.00     0.002 A 
ATOM      4  C5  UNL d   1      -0.177   1.333   0.577  0.00  0.00    -0.080 A 
ATOM      5  C6  UNL d   1      -0.642   2.755   0.468  0.00  0.00     0.076 C 
ATOM      6  C7  UNL d   1      -1.106   0.310   0.799  0.00  0.00     0.002 A 
ATOM      7  C8  UNL d   1      -0.682  -1.014   0.931  0.00  0.00     0.006 A 
ENDROOT
BRANCH   1   8
ATOM      8  C1  UNL d   1       1.136  -2.760   1.042  0.00  0.00     0.054 C 
ATOM      9  C   UNL d   1       2.609  -2.919   0.695  0.00  0.00     0.018 C 
ENDBRANCH   1   8
TORSDOF 1
ENDMDL
