MODEL 1
REMARK minimizedAffinity 1.5480262
REMARK minimizedRMSD -1
REMARK  1 active torsions:
REMARK  status: ('A' for Active; 'I' for Inactive)
REMARK    1  A    between atoms: C1_2  and  C2_3 
ROOT
ATOM      1  C2  UNL d   1       0.305   1.340  -1.970  0.00  0.00    -0.081 A 
ATOM      2  C3  UNL d   1       0.531   1.760  -0.653  0.00  0.00     0.006 A 
ATOM      3  C4  UNL d   1       0.102   0.979   0.422  0.00  0.00     0.002 A 
ATOM      4  C5  UNL d   1      -0.551  -0.238   0.200  0.00  0.00    -0.080 A 
ATOM      5  C6  UNL d   1      -0.989  -1.101   1.346  0.00  0.00     0.076 C 
ATOM      6  C7  UNL d   1      -0.792  -0.649  -1.115  0.00  0.00     0.002 A 
ATOM      7  C8  UNL d   1      -0.365   0.132  -2.191  0.00  0.00     0.006 A 
ENDROOT
BRANCH   1   8
ATOM      8  C1  UNL d   1       0.823   2.149  -3.132  0.00  0.00     0.054 C 
ATOM      9  C   UNL d   1      -0.031   1.941  -4.375  0.00  0.00     0.018 C 
ENDBRANCH   1   8
TORSDOF 1
ENDMDL
