MODEL 1
REMARK minimizedAffinity -4.59258604
REMARK minimizedRMSD -1
REMARK  1 active torsions:
REMARK  status: ('A' for Active; 'I' for Inactive)
REMARK    1  A    between atoms: C1_2  and  C2_3 
ROOT
ATOM      1  C2  UNL d   1      -1.186  -1.092   1.318  0.00  0.00    -0.081 A 
ATOM      2  C3  UNL d   1      -0.088  -1.466   0.534  0.00  0.00     0.006 A 
ATOM      3  C4  UNL d   1       0.551  -0.530  -0.283  0.00  0.00     0.002 A 
ATOM      4  C5  UNL d   1       0.108   0.796  -0.323  0.00  0.00    -0.080 A 
ATOM      5  C6  UNL d   1       0.804   1.818  -1.172  0.00  0.00     0.076 C 
ATOM      6  C7  UNL d   1      -0.999   1.166   0.448  0.00  0.00     0.002 A 
ATOM      7  C8  UNL d   1      -1.639   0.231   1.264  0.00  0.00     0.006 A 
ENDROOT
BRANCH   1   8
ATOM      8  C1  UNL d   1      -1.837  -2.083   2.249  0.00  0.00     0.054 C 
ATOM      9  C   UNL d   1      -2.196  -3.371   1.522  0.00  0.00     0.018 C 
ENDBRANCH   1   8
TORSDOF 1
ENDMDL
