MODEL 1
REMARK minimizedAffinity -4.3223815
REMARK minimizedRMSD -1
REMARK  1 active torsions:
REMARK  status: ('A' for Active; 'I' for Inactive)
REMARK    1  A    between atoms: C1_2  and  C2_3 
ROOT
ATOM      1  C2  UNL d   1       0.293  -0.416   0.175  0.00  0.00    -0.081 A 
ATOM      2  C3  UNL d   1      -0.010  -0.850  -1.121  0.00  0.00     0.006 A 
ATOM      3  C4  UNL d   1       0.167   0.004  -2.213  0.00  0.00     0.002 A 
ATOM      4  C5  UNL d   1       0.656   1.301  -2.027  0.00  0.00    -0.080 A 
ATOM      5  C6  UNL d   1       0.878   2.218  -3.193  0.00  0.00     0.076 C 
ATOM      6  C7  UNL d   1       0.942   1.740  -0.730  0.00  0.00     0.002 A 
ATOM      7  C8  UNL d   1       0.765   0.887   0.362  0.00  0.00     0.006 A 
ENDROOT
BRANCH   1   8
ATOM      8  C1  UNL d   1       0.165  -1.356   1.347  0.00  0.00     0.054 C 
ATOM      9  C   UNL d   1      -1.148  -2.123   1.301  0.00  0.00     0.018 C 
ENDBRANCH   1   8
TORSDOF 1
ENDMDL
