MODEL 1
REMARK minimizedAffinity -6.39026308
REMARK minimizedRMSD -1
REMARK  1 active torsions:
REMARK  status: ('A' for Active; 'I' for Inactive)
REMARK    1  A    between atoms: C1_2  and  C2_3 
ROOT
ATOM      1  C2  UNL d   1       0.399   0.398  -0.547  0.00  0.00    -0.081 A 
ATOM      2  C3  UNL d   1       0.718  -0.928  -0.229  0.00  0.00     0.006 A 
ATOM      3  C4  UNL d   1      -0.115  -1.676   0.606  0.00  0.00     0.002 A 
ATOM      4  C5  UNL d   1      -1.284  -1.114   1.130  0.00  0.00    -0.080 A 
ATOM      5  C6  UNL d   1      -2.202  -1.916   2.004  0.00  0.00     0.076 C 
ATOM      6  C7  UNL d   1      -1.594   0.216   0.827  0.00  0.00     0.002 A 
ATOM      7  C8  UNL d   1      -0.761   0.965  -0.007  0.00  0.00     0.006 A 
ENDROOT
BRANCH   1   8
ATOM      8  C1  UNL d   1       1.261   1.187  -1.499  0.00  0.00     0.054 C 
ATOM      9  C   UNL d   1       0.434   1.787  -2.627  0.00  0.00     0.018 C 
ENDBRANCH   1   8
TORSDOF 1
ENDMDL
