MODEL 1
REMARK minimizedAffinity -4.37860775
REMARK minimizedRMSD -1
REMARK  1 active torsions:
REMARK  status: ('A' for Active; 'I' for Inactive)
REMARK    1  A    between atoms: C1_2  and  C2_3 
ROOT
ATOM      1  C2  UNL d   1      -0.057   0.851  -0.355  0.00  0.00    -0.081 A 
ATOM      2  C3  UNL d   1      -1.361   0.940   0.146  0.00  0.00     0.006 A 
ATOM      3  C4  UNL d   1      -2.010  -0.196   0.637  0.00  0.00     0.002 A 
ATOM      4  C5  UNL d   1      -1.363  -1.436   0.642  0.00  0.00    -0.080 A 
ATOM      5  C6  UNL d   1      -2.038  -2.657   1.194  0.00  0.00     0.076 C 
ATOM      6  C7  UNL d   1      -0.067  -1.529   0.125  0.00  0.00     0.002 A 
ATOM      7  C8  UNL d   1       0.582  -0.394  -0.367  0.00  0.00     0.006 A 
ENDROOT
BRANCH   1   8
ATOM      8  C1  UNL d   1       0.669   2.085  -0.826  0.00  0.00     0.054 C 
ATOM      9  C   UNL d   1       0.668   2.183  -2.344  0.00  0.00     0.018 C 
ENDBRANCH   1   8
TORSDOF 1
ENDMDL
