MODEL 1
REMARK minimizedAffinity -4.5159874
REMARK minimizedRMSD -1
REMARK  1 active torsions:
REMARK  status: ('A' for Active; 'I' for Inactive)
REMARK    1  A    between atoms: C1_2  and  C2_3 
ROOT
ATOM      1  C2  UNL d   1       0.635   0.844  -0.777  0.00  0.00    -0.081 A 
ATOM      2  C3  UNL d   1       1.312  -0.382  -0.760  0.00  0.00     0.006 A 
ATOM      3  C4  UNL d   1       0.855  -1.431   0.042  0.00  0.00     0.002 A 
ATOM      4  C5  UNL d   1      -0.288  -1.275   0.833  0.00  0.00    -0.080 A 
ATOM      5  C6  UNL d   1      -0.806  -2.403   1.674  0.00  0.00     0.076 C 
ATOM      6  C7  UNL d   1      -0.954  -0.044   0.828  0.00  0.00     0.002 A 
ATOM      7  C8  UNL d   1      -0.498   1.005   0.028  0.00  0.00     0.006 A 
ENDROOT
BRANCH   1   8
ATOM      8  C1  UNL d   1       1.087   1.955  -1.689  0.00  0.00     0.054 C 
ATOM      9  C   UNL d   1       1.337   1.445  -3.101  0.00  0.00     0.018 C 
ENDBRANCH   1   8
TORSDOF 1
ENDMDL
