MODEL 1
REMARK minimizedAffinity -4.99040508
REMARK minimizedRMSD -1
REMARK  1 active torsions:
REMARK  status: ('A' for Active; 'I' for Inactive)
REMARK    1  A    between atoms: C1_2  and  C2_3 
ROOT
ATOM      1  C2  UNL d   1       0.035   0.727   0.355  0.00  0.00    -0.081 A 
ATOM      2  C3  UNL d   1       0.777  -0.458   0.284  0.00  0.00     0.006 A 
ATOM      3  C4  UNL d   1       0.161  -1.693   0.496  0.00  0.00     0.002 A 
ATOM      4  C5  UNL d   1      -1.208  -1.765   0.774  0.00  0.00    -0.080 A 
ATOM      5  C6  UNL d   1      -1.888  -3.087   0.974  0.00  0.00     0.076 C 
ATOM      6  C7  UNL d   1      -1.947  -0.580   0.862  0.00  0.00     0.002 A 
ATOM      7  C8  UNL d   1      -1.331   0.656   0.651  0.00  0.00     0.006 A 
ENDROOT
BRANCH   1   8
ATOM      8  C1  UNL d   1       0.683   2.056   0.062  0.00  0.00     0.054 C 
ATOM      9  C   UNL d   1       1.478   2.011  -1.234  0.00  0.00     0.018 C 
ENDBRANCH   1   8
TORSDOF 1
ENDMDL
