MODEL 1
REMARK minimizedAffinity -4.13909388
REMARK minimizedRMSD -1
REMARK  1 active torsions:
REMARK  status: ('A' for Active; 'I' for Inactive)
REMARK    1  A    between atoms: C1_2  and  C2_3 
ROOT
ATOM      1  C2  UNL d   1       0.624   0.490  -0.088  0.00  0.00    -0.081 A 
ATOM      2  C3  UNL d   1       1.269  -0.735   0.125  0.00  0.00     0.006 A 
ATOM      3  C4  UNL d   1       0.541  -1.858   0.526  0.00  0.00     0.002 A 
ATOM      4  C5  UNL d   1      -0.843  -1.777   0.712  0.00  0.00    -0.080 A 
ATOM      5  C6  UNL d   1      -1.640  -2.983   1.113  0.00  0.00     0.076 C 
ATOM      6  C7  UNL d   1      -1.485  -0.550   0.516  0.00  0.00     0.002 A 
ATOM      7  C8  UNL d   1      -0.758   0.574   0.116  0.00  0.00     0.006 A 
ENDROOT
BRANCH   1   8
ATOM      8  C1  UNL d   1       1.396   1.687  -0.583  0.00  0.00     0.054 C 
ATOM      9  C   UNL d   1       1.654   1.598  -2.080  0.00  0.00     0.018 C 
ENDBRANCH   1   8
TORSDOF 1
ENDMDL
