MODEL 1
REMARK minimizedAffinity -5.12242556
REMARK minimizedRMSD -1
REMARK  1 active torsions:
REMARK  status: ('A' for Active; 'I' for Inactive)
REMARK    1  A    between atoms: C1_2  and  C2_3 
ROOT
ATOM      1  C2  UNL d   1       0.805   0.385  -0.197  0.00  0.00    -0.081 A 
ATOM      2  C3  UNL d   1       1.366  -0.873   0.056  0.00  0.00     0.006 A 
ATOM      3  C4  UNL d   1       0.556  -1.946   0.435  0.00  0.00     0.002 A 
ATOM      4  C5  UNL d   1      -0.828  -1.782   0.559  0.00  0.00    -0.080 A 
ATOM      5  C6  UNL d   1      -1.712  -2.933   0.935  0.00  0.00     0.076 C 
ATOM      6  C7  UNL d   1      -1.386  -0.521   0.323  0.00  0.00     0.002 A 
ATOM      7  C8  UNL d   1      -0.576   0.552  -0.055  0.00  0.00     0.006 A 
ENDROOT
BRANCH   1   8
ATOM      8  C1  UNL d   1       1.668   1.528  -0.668  0.00  0.00     0.054 C 
ATOM      9  C   UNL d   1       1.484   1.782  -2.157  0.00  0.00     0.018 C 
ENDBRANCH   1   8
TORSDOF 1
ENDMDL
