MODEL 1
REMARK minimizedAffinity -5.84724045
REMARK minimizedRMSD -1
REMARK  1 active torsions:
REMARK  status: ('A' for Active; 'I' for Inactive)
REMARK    1  A    between atoms: C1_2  and  C2_3 
ROOT
ATOM      1  C2  UNL d   1      -0.218   0.946   0.157  0.00  0.00    -0.081 A 
ATOM      2  C3  UNL d   1      -1.562   0.929   0.552  0.00  0.00     0.006 A 
ATOM      3  C4  UNL d   1      -2.188  -0.275   0.883  0.00  0.00     0.002 A 
ATOM      4  C5  UNL d   1      -1.479  -1.480   0.833  0.00  0.00    -0.080 A 
ATOM      5  C6  UNL d   1      -2.131  -2.776   1.215  0.00  0.00     0.076 C 
ATOM      6  C7  UNL d   1      -0.142  -1.466   0.421  0.00  0.00     0.002 A 
ATOM      7  C8  UNL d   1       0.484  -0.262   0.090  0.00  0.00     0.006 A 
ENDROOT
BRANCH   1   8
ATOM      8  C1  UNL d   1       0.478   2.250  -0.138  0.00  0.00     0.054 C 
ATOM      9  C   UNL d   1       0.806   2.379  -1.618  0.00  0.00     0.018 C 
ENDBRANCH   1   8
TORSDOF 1
ENDMDL
