MODEL 1
REMARK minimizedAffinity 3.38136387
REMARK minimizedRMSD -1
REMARK  2 active torsions:
REMARK  status: ('A' for Active; 'I' for Inactive)
REMARK    1  A    between atoms: C2'_3  and  C1'_4 
REMARK    2  A    between atoms: C1'_4  and  C1_5 
ROOT
ATOM      1  C1  I4B d   1      -5.911   3.378  -4.125  0.00  0.00    -0.075 A 
ATOM      2  C2  I4B d   1      -5.979   2.335  -3.234  0.00  0.00     0.003 A 
ATOM      3  C3  I4B d   1      -5.998   0.999  -3.701  0.00  0.00     0.002 A 
ATOM      4  C4  I4B d   1      -5.999   0.754  -5.059  0.00  0.00    -0.004 A 
ATOM      5  C5  I4B d   1      -5.907   1.811  -5.960  0.00  0.00     0.002 A 
ATOM      6  C6  I4B d   1      -5.850   3.131  -5.490  0.00  0.00     0.003 A 
ENDROOT
BRANCH   1   7
ATOM      7  C1' I4B d   1      -5.925   4.778  -3.598  0.00  0.00     0.060 C 
BRANCH   7   8
ATOM      8  C2' I4B d   1      -4.501   5.161  -3.250  0.00  0.00    -0.013 C 
ATOM      9  C4' I4B d   1      -3.716   3.966  -2.775  0.00  0.00     0.013 C 
ATOM     10  C3' I4B d   1      -3.875   5.771  -4.469  0.00  0.00     0.013 C 
ENDBRANCH   7   8
ENDBRANCH   1   7
TORSDOF 2
ENDMDL
