MODEL 1
REMARK minimizedAffinity 0.0817810372
REMARK minimizedRMSD -1
REMARK  2 active torsions:
REMARK  status: ('A' for Active; 'I' for Inactive)
REMARK    1  A    between atoms: C2'_3  and  C1'_4 
REMARK    2  A    between atoms: C1'_4  and  C1_5 
ROOT
ATOM      1  C1  I4B d   1      -0.866   2.827  -1.511  0.00  0.00    -0.075 A 
ATOM      2  C2  I4B d   1      -0.247   2.663  -0.297  0.00  0.00     0.003 A 
ATOM      3  C3  I4B d   1       0.350   3.769   0.354  0.00  0.00     0.002 A 
ATOM      4  C4  I4B d   1       0.349   5.003  -0.264  0.00  0.00    -0.004 A 
ATOM      5  C5  I4B d   1      -0.299   5.172  -1.484  0.00  0.00     0.002 A 
ATOM      6  C6  I4B d   1      -0.922   4.080  -2.106  0.00  0.00     0.003 A 
ENDROOT
BRANCH   1   7
ATOM      7  C1' I4B d   1      -1.458   1.630  -2.185  0.00  0.00     0.060 C 
BRANCH   7   8
ATOM      8  C2' I4B d   1      -1.445   0.482  -1.197  0.00  0.00    -0.013 C 
ATOM      9  C4' I4B d   1      -2.782   0.329  -0.521  0.00  0.00     0.013 C 
ATOM     10  C3' I4B d   1      -1.067  -0.764  -1.939  0.00  0.00     0.013 C 
ENDBRANCH   7   8
ENDBRANCH   1   7
TORSDOF 2
ENDMDL
