MODEL 1
REMARK minimizedAffinity 6.95717907
REMARK minimizedRMSD -1
REMARK  2 active torsions:
REMARK  status: ('A' for Active; 'I' for Inactive)
REMARK    1  A    between atoms: C2'_3  and  C1'_4 
REMARK    2  A    between atoms: C1'_4  and  C1_5 
ROOT
ATOM      1  C1  I4B d   1      -0.848   3.953   0.202  0.00  0.00    -0.075 A 
ATOM      2  C2  I4B d   1       0.441   3.849  -0.259  0.00  0.00     0.003 A 
ATOM      3  C3  I4B d   1       1.352   2.961   0.362  0.00  0.00     0.002 A 
ATOM      4  C4  I4B d   1       0.949   2.238   1.467  0.00  0.00    -0.004 A 
ATOM      5  C5  I4B d   1      -0.364   2.327   1.920  0.00  0.00     0.002 A 
ATOM      6  C6  I4B d   1      -1.272   3.180   1.276  0.00  0.00     0.003 A 
ENDROOT
BRANCH   1   7
ATOM      7  C1' I4B d   1      -1.774   4.924  -0.457  0.00  0.00     0.060 C 
BRANCH   7   8
ATOM      8  C2' I4B d   1      -1.959   4.490  -1.897  0.00  0.00    -0.013 C 
ATOM      9  C4' I4B d   1      -3.376   4.052  -2.157  0.00  0.00     0.013 C 
ATOM     10  C3' I4B d   1      -1.576   5.640  -2.780  0.00  0.00     0.013 C 
ENDBRANCH   7   8
ENDBRANCH   1   7
TORSDOF 2
ENDMDL
