MODEL 1
REMARK minimizedAffinity 6.50123262
REMARK minimizedRMSD -1
REMARK  2 active torsions:
REMARK  status: ('A' for Active; 'I' for Inactive)
REMARK    1  A    between atoms: C2'_3  and  C1'_4 
REMARK    2  A    between atoms: C1'_4  and  C1_5 
ROOT
ATOM      1  C1  I4B d   1      -0.462  -2.688  -1.413  0.00  0.00    -0.075 A 
ATOM      2  C2  I4B d   1       0.371  -3.705  -1.019  0.00  0.00     0.003 A 
ATOM      3  C3  I4B d   1       1.612  -3.411  -0.403  0.00  0.00     0.002 A 
ATOM      4  C4  I4B d   1       2.000  -2.096  -0.249  0.00  0.00    -0.004 A 
ATOM      5  C5  I4B d   1       1.144  -1.066  -0.629  0.00  0.00     0.002 A 
ATOM      6  C6  I4B d   1      -0.101  -1.364  -1.203  0.00  0.00     0.003 A 
ENDROOT
BRANCH   1   7
ATOM      7  C1' I4B d   1      -1.751  -3.034  -2.089  0.00  0.00     0.060 C 
BRANCH   7   8
ATOM      8  C2' I4B d   1      -1.429  -3.512  -3.491  0.00  0.00    -0.013 C 
ATOM      9  C4' I4B d   1      -0.616  -2.491  -4.242  0.00  0.00     0.013 C 
ATOM     10  C3' I4B d   1      -0.693  -4.814  -3.378  0.00  0.00     0.013 C 
ENDBRANCH   7   8
ENDBRANCH   1   7
TORSDOF 2
ENDMDL
