MODEL 1
REMARK minimizedAffinity 3.31783509
REMARK minimizedRMSD -1
REMARK  2 active torsions:
REMARK  status: ('A' for Active; 'I' for Inactive)
REMARK    1  A    between atoms: C2'_3  and  C1'_4 
REMARK    2  A    between atoms: C1'_4  and  C1_5 
ROOT
ATOM      1  C1  I4B d   1       0.709   3.380   0.172  0.00  0.00    -0.075 A 
ATOM      2  C2  I4B d   1      -0.084   2.606   0.983  0.00  0.00     0.003 A 
ATOM      3  C3  I4B d   1       0.403   2.153   2.233  0.00  0.00     0.002 A 
ATOM      4  C4  I4B d   1       1.698   2.451   2.607  0.00  0.00    -0.004 A 
ATOM      5  C5  I4B d   1       2.492   3.254   1.793  0.00  0.00     0.002 A 
ATOM      6  C6  I4B d   1       1.991   3.732   0.574  0.00  0.00     0.003 A 
ENDROOT
BRANCH   1   7
ATOM      7  C1' I4B d   1       0.175   3.814  -1.156  0.00  0.00     0.060 C 
BRANCH   7   8
ATOM      8  C2' I4B d   1      -1.101   4.594  -0.913  0.00  0.00    -0.013 C 
ATOM      9  C4' I4B d   1      -0.803   5.999  -0.460  0.00  0.00     0.013 C 
ATOM     10  C3' I4B d   1      -1.894   4.593  -2.186  0.00  0.00     0.013 C 
ENDBRANCH   7   8
ENDBRANCH   1   7
TORSDOF 2
ENDMDL
