MODEL 1
REMARK minimizedAffinity 2.25966239
REMARK minimizedRMSD -1
REMARK  2 active torsions:
REMARK  status: ('A' for Active; 'I' for Inactive)
REMARK    1  A    between atoms: C2'_3  and  C1'_4 
REMARK    2  A    between atoms: C1'_4  and  C1_5 
ROOT
ATOM      1  C1  I4B d   1      -0.403   3.319   0.151  0.00  0.00    -0.075 A 
ATOM      2  C2  I4B d   1      -0.546   3.079  -1.193  0.00  0.00     0.003 A 
ATOM      3  C3  I4B d   1      -0.743   4.154  -2.092  0.00  0.00     0.002 A 
ATOM      4  C4  I4B d   1      -0.842   5.440  -1.602  0.00  0.00    -0.004 A 
ATOM      5  C5  I4B d   1      -0.675   5.685  -0.242  0.00  0.00     0.002 A 
ATOM      6  C6  I4B d   1      -0.442   4.619   0.639  0.00  0.00     0.003 A 
ENDROOT
BRANCH   1   7
ATOM      7  C1' I4B d   1      -0.229   2.157   1.076  0.00  0.00     0.060 C 
BRANCH   7   8
ATOM      8  C2' I4B d   1      -0.023   2.701   2.475  0.00  0.00    -0.013 C 
ATOM      9  C4' I4B d   1      -1.094   2.212   3.414  0.00  0.00     0.013 C 
ATOM     10  C3' I4B d   1       1.339   2.278   2.940  0.00  0.00     0.013 C 
ENDBRANCH   7   8
ENDBRANCH   1   7
TORSDOF 2
ENDMDL
