MODEL 1
REMARK minimizedAffinity 2.83365321
REMARK minimizedRMSD -1
REMARK  0 active torsions:
REMARK  status: ('A' for Active; 'I' for Inactive)
ROOT
ATOM      1  C1  BNZ d   1      -4.877  -4.783   1.956  0.00  0.00     0.000 A 
ATOM      2  C2  BNZ d   1      -5.997  -4.782   1.168  0.00  0.00     0.000 A 
ATOM      3  C3  BNZ d   1      -5.999  -5.408  -0.047  0.00  0.00     0.000 A 
ATOM      4  C4  BNZ d   1      -4.871  -5.999  -0.490  0.00  0.00     0.000 A 
ATOM      5  C5  BNZ d   1      -3.730  -6.000   0.288  0.00  0.00     0.000 A 
ATOM      6  C6  BNZ d   1      -3.743  -5.402   1.527  0.00  0.00     0.000 A 
ENDROOT
TORSDOF 0
ENDMDL
