MODEL 1
REMARK minimizedAffinity 11.2428141
REMARK minimizedRMSD -1
REMARK  0 active torsions:
REMARK  status: ('A' for Active; 'I' for Inactive)
ROOT
ATOM      1  C1  BNZ d   1       0.012   1.687   5.992  0.00  0.00     0.000 A 
ATOM      2  C2  BNZ d   1      -0.662   1.845   4.811  0.00  0.00     0.000 A 
ATOM      3  C3  BNZ d   1      -0.111   1.432   3.630  0.00  0.00     0.000 A 
ATOM      4  C4  BNZ d   1       1.128   0.900   3.627  0.00  0.00     0.000 A 
ATOM      5  C5  BNZ d   1       1.824   0.743   4.809  0.00  0.00     0.000 A 
ATOM      6  C6  BNZ d   1       1.251   1.124   6.000  0.00  0.00     0.000 A 
ENDROOT
TORSDOF 0
ENDMDL
