MODEL 1
REMARK minimizedAffinity 3.55623102
REMARK minimizedRMSD -1
REMARK  0 active torsions:
REMARK  status: ('A' for Active; 'I' for Inactive)
ROOT
ATOM      1  C1  BNZ d   1      -3.114   2.622  -6.000  0.00  0.00     0.000 A 
ATOM      2  C2  BNZ d   1      -3.531   3.927  -5.999  0.00  0.00     0.000 A 
ATOM      3  C3  BNZ d   1      -3.054   4.813  -5.073  0.00  0.00     0.000 A 
ATOM      4  C4  BNZ d   1      -2.193   4.385  -4.128  0.00  0.00     0.000 A 
ATOM      5  C5  BNZ d   1      -1.771   3.071  -4.110  0.00  0.00     0.000 A 
ATOM      6  C6  BNZ d   1      -2.222   2.191  -5.066  0.00  0.00     0.000 A 
ENDROOT
TORSDOF 0
ENDMDL
