MODEL 1
REMARK minimizedAffinity 2.98410797
REMARK minimizedRMSD -1
REMARK  0 active torsions:
REMARK  status: ('A' for Active; 'I' for Inactive)
ROOT
ATOM      1  C1  BNZ d   1      -4.834  -2.484  -5.945  0.00  0.00     0.000 A 
ATOM      2  C2  BNZ d   1      -6.000  -3.201  -5.988  0.00  0.00     0.000 A 
ATOM      3  C3  BNZ d   1      -5.981  -4.568  -5.995  0.00  0.00     0.000 A 
ATOM      4  C4  BNZ d   1      -4.797  -5.215  -6.000  0.00  0.00     0.000 A 
ATOM      5  C5  BNZ d   1      -3.613  -4.506  -5.967  0.00  0.00     0.000 A 
ATOM      6  C6  BNZ d   1      -3.637  -3.131  -5.921  0.00  0.00     0.000 A 
ENDROOT
TORSDOF 0
ENDMDL
