MODEL 1
REMARK minimizedAffinity 3.46344447
REMARK minimizedRMSD -1
REMARK  0 active torsions:
REMARK  status: ('A' for Active; 'I' for Inactive)
ROOT
ATOM      1  C1  BNZ d   1       4.189  -1.377  -0.370  0.00  0.00     0.000 A 
ATOM      2  C2  BNZ d   1       5.010  -0.302  -0.157  0.00  0.00     0.000 A 
ATOM      3  C3  BNZ d   1       4.765   0.897  -0.766  0.00  0.00     0.000 A 
ATOM      4  C4  BNZ d   1       3.725   1.008  -1.618  0.00  0.00     0.000 A 
ATOM      5  C5  BNZ d   1       2.894  -0.070  -1.850  0.00  0.00     0.000 A 
ATOM      6  C6  BNZ d   1       3.121  -1.264  -1.205  0.00  0.00     0.000 A 
ENDROOT
TORSDOF 0
ENDMDL
