MODEL 1
REMARK minimizedAffinity 13.507
REMARK minimizedRMSD -1
REMARK  0 active torsions:
REMARK  status: ('A' for Active; 'I' for Inactive)
ROOT
ATOM      1  C1  BNZ d   1      -3.383   1.157   3.896  0.00  0.00     0.000 A 
ATOM      2  C2  BNZ d   1      -3.070   1.551   5.170  0.00  0.00     0.000 A 
ATOM      3  C3  BNZ d   1      -3.820   2.495   5.814  0.00  0.00     0.000 A 
ATOM      4  C4  BNZ d   1      -4.856   3.072   5.170  0.00  0.00     0.000 A 
ATOM      5  C5  BNZ d   1      -5.177   2.692   3.883  0.00  0.00     0.000 A 
ATOM      6  C6  BNZ d   1      -4.444   1.713   3.251  0.00  0.00     0.000 A 
ENDROOT
TORSDOF 0
ENDMDL
