MODEL 1
REMARK minimizedAffinity 12.8159971
REMARK minimizedRMSD -1
REMARK  0 active torsions:
REMARK  status: ('A' for Active; 'I' for Inactive)
ROOT
ATOM      1  C1  BNZ d   1      -4.133  -3.551  -4.452  0.00  0.00     0.000 A 
ATOM      2  C2  BNZ d   1      -4.170  -4.917  -4.533  0.00  0.00     0.000 A 
ATOM      3  C3  BNZ d   1      -5.090  -5.547  -5.323  0.00  0.00     0.000 A 
ATOM      4  C4  BNZ d   1      -5.997  -4.813  -5.999  0.00  0.00     0.000 A 
ATOM      5  C5  BNZ d   1      -5.979  -3.434  -5.920  0.00  0.00     0.000 A 
ATOM      6  C6  BNZ d   1      -5.027  -2.802  -5.154  0.00  0.00     0.000 A 
ENDROOT
TORSDOF 0
ENDMDL
