MODEL 1
REMARK minimizedAffinity 11.532814
REMARK minimizedRMSD -1
REMARK  0 active torsions:
REMARK  status: ('A' for Active; 'I' for Inactive)
ROOT
ATOM      1  C1  BNZ d   1       0.027   1.969   1.960  0.00  0.00     0.000 A 
ATOM      2  C2  BNZ d   1      -0.368   1.474   3.175  0.00  0.00     0.000 A 
ATOM      3  C3  BNZ d   1       0.501   1.426   4.228  0.00  0.00     0.000 A 
ATOM      4  C4  BNZ d   1       1.775   1.834   4.055  0.00  0.00     0.000 A 
ATOM      5  C5  BNZ d   1       2.192   2.327   2.834  0.00  0.00     0.000 A 
ATOM      6  C6  BNZ d   1       1.303   2.410   1.787  0.00  0.00     0.000 A 
ENDROOT
TORSDOF 0
ENDMDL
