MODEL 1
REMARK minimizedAffinity 10.2901707
REMARK minimizedRMSD -1
REMARK  0 active torsions:
REMARK  status: ('A' for Active; 'I' for Inactive)
ROOT
ATOM      1  C1  BNZ d   1      -3.795   1.892   5.656  0.00  0.00     0.000 A 
ATOM      2  C2  BNZ d   1      -3.249   1.251   4.576  0.00  0.00     0.000 A 
ATOM      3  C3  BNZ d   1      -3.788   1.398   3.328  0.00  0.00     0.000 A 
ATOM      4  C4  BNZ d   1      -4.894   2.154   3.169  0.00  0.00     0.000 A 
ATOM      5  C5  BNZ d   1      -5.462   2.799   4.250  0.00  0.00     0.000 A 
ATOM      6  C6  BNZ d   1      -4.893   2.680   5.497  0.00  0.00     0.000 A 
ENDROOT
TORSDOF 0
ENDMDL
