MODEL 1
REMARK minimizedAffinity 0.0298173204
REMARK minimizedRMSD -1
REMARK  0 active torsions:
REMARK  status: ('A' for Active; 'I' for Inactive)
ROOT
ATOM      1  C1  BNZ d   1      -2.219   5.882  -4.447  0.00  0.00     0.000 A 
ATOM      2  C2  BNZ d   1      -1.503   4.714  -4.440  0.00  0.00     0.000 A 
ATOM      3  C3  BNZ d   1      -1.875   3.660  -5.227  0.00  0.00     0.000 A 
ATOM      4  C4  BNZ d   1      -2.983   3.760  -5.989  0.00  0.00     0.000 A 
ATOM      5  C5  BNZ d   1      -3.721   4.927  -6.000  0.00  0.00     0.000 A 
ATOM      6  C6  BNZ d   1      -3.322   6.000  -5.236  0.00  0.00     0.000 A 
ENDROOT
TORSDOF 0
ENDMDL
