MODEL 1
REMARK minimizedAffinity 2.10789156
REMARK minimizedRMSD -1
REMARK  0 active torsions:
REMARK  status: ('A' for Active; 'I' for Inactive)
ROOT
ATOM      1  C1  BNZ d   1       2.604  -3.737  -1.685  0.00  0.00     0.000 A 
ATOM      2  C2  BNZ d   1       1.929  -2.925  -2.558  0.00  0.00     0.000 A 
ATOM      3  C3  BNZ d   1       1.566  -1.658  -2.196  0.00  0.00     0.000 A 
ATOM      4  C4  BNZ d   1       1.842  -1.219  -0.951  0.00  0.00     0.000 A 
ATOM      5  C5  BNZ d   1       2.513  -2.028  -0.057  0.00  0.00     0.000 A 
ATOM      6  C6  BNZ d   1       2.912  -3.289  -0.437  0.00  0.00     0.000 A 
ENDROOT
TORSDOF 0
ENDMDL
