MODEL 1
REMARK minimizedAffinity 4.85396767
REMARK minimizedRMSD -1
REMARK  0 active torsions:
REMARK  status: ('A' for Active; 'I' for Inactive)
ROOT
ATOM      1  C1  BNZ d   1       1.776  -2.927  -1.450  0.00  0.00     0.000 A 
ATOM      2  C2  BNZ d   1       1.424  -2.023  -2.416  0.00  0.00     0.000 A 
ATOM      3  C3  BNZ d   1       1.349  -0.688  -2.131  0.00  0.00     0.000 A 
ATOM      4  C4  BNZ d   1       1.586  -0.265  -0.872  0.00  0.00     0.000 A 
ATOM      5  C5  BNZ d   1       1.933  -1.165   0.115  0.00  0.00     0.000 A 
ATOM      6  C6  BNZ d   1       2.045  -2.504  -0.185  0.00  0.00     0.000 A 
ENDROOT
TORSDOF 0
ENDMDL
