MODEL 1
REMARK minimizedAffinity -0.352031201
REMARK minimizedRMSD -1
REMARK  0 active torsions:
REMARK  status: ('A' for Active; 'I' for Inactive)
ROOT
ATOM      1  C1  BNZ d   1      -2.632  -4.120  -3.987  0.00  0.00     0.000 A 
ATOM      2  C2  BNZ d   1      -1.649  -5.073  -3.962  0.00  0.00     0.000 A 
ATOM      3  C3  BNZ d   1      -1.546  -6.000  -4.961  0.00  0.00     0.000 A 
ATOM      4  C4  BNZ d   1      -2.450  -5.999  -5.961  0.00  0.00     0.000 A 
ATOM      5  C5  BNZ d   1      -3.453  -5.051  -5.996  0.00  0.00     0.000 A 
ATOM      6  C6  BNZ d   1      -3.530  -4.095  -5.010  0.00  0.00     0.000 A 
ENDROOT
TORSDOF 0
ENDMDL
