MODEL 1
REMARK minimizedAffinity 5.39215422
REMARK minimizedRMSD -1
REMARK  0 active torsions:
REMARK  status: ('A' for Active; 'I' for Inactive)
ROOT
ATOM      1  C1  BNZ d   1      -3.373  -3.670  -5.998  0.00  0.00     0.000 A 
ATOM      2  C2  BNZ d   1      -2.998  -2.925  -4.912  0.00  0.00     0.000 A 
ATOM      3  C3  BNZ d   1      -2.434  -3.518  -3.817  0.00  0.00     0.000 A 
ATOM      4  C4  BNZ d   1      -2.282  -4.858  -3.794  0.00  0.00     0.000 A 
ATOM      5  C5  BNZ d   1      -2.664  -5.624  -4.877  0.00  0.00     0.000 A 
ATOM      6  C6  BNZ d   1      -3.196  -5.019  -5.992  0.00  0.00     0.000 A 
ENDROOT
TORSDOF 0
ENDMDL
