MODEL 1
REMARK minimizedAffinity 11.6530352
REMARK minimizedRMSD -1
REMARK  0 active torsions:
REMARK  status: ('A' for Active; 'I' for Inactive)
ROOT
ATOM      1  C1  BNZ d   1      -2.238   2.553   2.695  0.00  0.00     0.000 A 
ATOM      2  C2  BNZ d   1      -0.881   2.701   2.588  0.00  0.00     0.000 A 
ATOM      3  C3  BNZ d   1      -0.042   1.642   2.798  0.00  0.00     0.000 A 
ATOM      4  C4  BNZ d   1      -0.559   0.448   3.153  0.00  0.00     0.000 A 
ATOM      5  C5  BNZ d   1      -1.924   0.285   3.274  0.00  0.00     0.000 A 
ATOM      6  C6  BNZ d   1      -2.767   1.343   3.024  0.00  0.00     0.000 A 
ENDROOT
TORSDOF 0
ENDMDL
