MODEL 1
REMARK minimizedAffinity 6.2184782
REMARK minimizedRMSD -1
REMARK  0 active torsions:
REMARK  status: ('A' for Active; 'I' for Inactive)
ROOT
ATOM      1  C1  BNZ d   1      -5.411   2.596   4.614  0.00  0.00     0.000 A 
ATOM      2  C2  BNZ d   1      -5.014   1.841   3.543  0.00  0.00     0.000 A 
ATOM      3  C3  BNZ d   1      -3.959   0.977   3.648  0.00  0.00     0.000 A 
ATOM      4  C4  BNZ d   1      -3.279   0.900   4.810  0.00  0.00     0.000 A 
ATOM      5  C5  BNZ d   1      -3.661   1.662   5.896  0.00  0.00     0.000 A 
ATOM      6  C6  BNZ d   1      -4.747   2.501   5.798  0.00  0.00     0.000 A 
ENDROOT
TORSDOF 0
ENDMDL
