MODEL 1
REMARK minimizedAffinity -2.36072445
REMARK minimizedRMSD -1
REMARK  0 active torsions:
REMARK  status: ('A' for Active; 'I' for Inactive)
ROOT
ATOM      1  C1  BNZ d   1      -3.007   5.997  -4.866  0.00  0.00     0.000 A 
ATOM      2  C2  BNZ d   1      -2.273   4.903  -4.493  0.00  0.00     0.000 A 
ATOM      3  C3  BNZ d   1      -2.638   3.647  -4.890  0.00  0.00     0.000 A 
ATOM      4  C4  BNZ d   1      -3.757   3.483  -5.624  0.00  0.00     0.000 A 
ATOM      5  C5  BNZ d   1      -4.514   4.575  -6.000  0.00  0.00     0.000 A 
ATOM      6  C6  BNZ d   1      -4.122   5.841  -5.631  0.00  0.00     0.000 A 
ENDROOT
TORSDOF 0
ENDMDL
