MODEL 1
REMARK minimizedAffinity 6.74076891
REMARK minimizedRMSD -1
REMARK  1 active torsions:
REMARK  status: ('A' for Active; 'I' for Inactive)
REMARK    1  A    between atoms: C1_2  and  C2_3 
ROOT
ATOM      1  C2  UNL d   1       0.823   2.007  -2.521  0.00  0.00    -0.073 A 
ATOM      2  C3  UNL d   1       2.167   2.091  -2.901  0.00  0.00    -0.002 A 
ATOM      3  C4  UNL d   1       3.176   1.727  -2.008  0.00  0.00     0.004 A 
ATOM      4  C5  UNL d   1       2.852   1.270  -0.731  0.00  0.00    -0.004 A 
ATOM      5  C6  UNL d   1       1.514   1.167  -0.337  0.00  0.00    -0.075 A 
ATOM      6  C7  UNL d   1       1.148   0.678   1.034  0.00  0.00     0.076 C 
ATOM      7  C8  UNL d   1       0.506   1.536  -1.238  0.00  0.00     0.001 A 
ENDROOT
BRANCH   1   8
ATOM      8  C1  UNL d   1      -0.270   2.392  -3.484  0.00  0.00     0.053 C 
ATOM      9  C   UNL d   1      -0.506   3.894  -3.508  0.00  0.00     0.018 C 
ENDBRANCH   1   8
TORSDOF 1
ENDMDL
