MODEL 1
REMARK minimizedAffinity 14.384573
REMARK minimizedRMSD -1
REMARK  1 active torsions:
REMARK  status: ('A' for Active; 'I' for Inactive)
REMARK    1  A    between atoms: C1_2  and  C2_3 
ROOT
ATOM      1  C2  UNL d   1       5.473   3.468   0.229  0.00  0.00    -0.073 A 
ATOM      2  C3  UNL d   1       6.000   3.801   1.482  0.00  0.00    -0.002 A 
ATOM      3  C4  UNL d   1       5.513   3.187   2.636  0.00  0.00     0.004 A 
ATOM      4  C5  UNL d   1       4.502   2.230   2.550  0.00  0.00    -0.004 A 
ATOM      5  C6  UNL d   1       3.971   1.876   1.306  0.00  0.00    -0.075 A 
ATOM      6  C7  UNL d   1       2.882   0.850   1.196  0.00  0.00     0.076 C 
ATOM      7  C8  UNL d   1       4.463   2.499   0.151  0.00  0.00     0.001 A 
ENDROOT
BRANCH   1   8
ATOM      8  C1  UNL d   1       6.000   4.124  -1.022  0.00  0.00     0.053 C 
ATOM      9  C   UNL d   1       5.930   5.641  -0.943  0.00  0.00     0.018 C 
ENDBRANCH   1   8
TORSDOF 1
ENDMDL
