MODEL 1
REMARK minimizedAffinity 11.2596827
REMARK minimizedRMSD -1
REMARK  1 active torsions:
REMARK  status: ('A' for Active; 'I' for Inactive)
REMARK    1  A    between atoms: C1_2  and  C2_3 
ROOT
ATOM      1  C2  UNL d   1       1.966   2.256  -1.868  0.00  0.00    -0.073 A 
ATOM      2  C3  UNL d   1       3.126   2.363  -2.644  0.00  0.00    -0.002 A 
ATOM      3  C4  UNL d   1       3.110   3.081  -3.840  0.00  0.00     0.004 A 
ATOM      4  C5  UNL d   1       1.939   3.706  -4.268  0.00  0.00    -0.004 A 
ATOM      5  C6  UNL d   1       0.773   3.621  -3.500  0.00  0.00    -0.075 A 
ATOM      6  C7  UNL d   1      -0.496   4.285  -3.948  0.00  0.00     0.076 C 
ATOM      7  C8  UNL d   1       0.796   2.895  -2.302  0.00  0.00     0.001 A 
ENDROOT
BRANCH   1   8
ATOM      8  C1  UNL d   1       1.980   1.486  -0.572  0.00  0.00     0.053 C 
ATOM      9  C   UNL d   1       2.322   2.373   0.614  0.00  0.00     0.018 C 
ENDBRANCH   1   8
TORSDOF 1
ENDMDL
