MODEL 1
REMARK minimizedAffinity 9.33599377
REMARK minimizedRMSD -1
REMARK  1 active torsions:
REMARK  status: ('A' for Active; 'I' for Inactive)
REMARK    1  A    between atoms: C1_2  and  C2_3 
ROOT
ATOM      1  C2  UNL d   1      -2.434   4.961  -1.912  0.00  0.00    -0.073 A 
ATOM      2  C3  UNL d   1      -1.134   4.796  -1.422  0.00  0.00    -0.002 A 
ATOM      3  C4  UNL d   1      -0.052   4.731  -2.302  0.00  0.00     0.004 A 
ATOM      4  C5  UNL d   1      -0.258   4.837  -3.677  0.00  0.00    -0.004 A 
ATOM      5  C6  UNL d   1      -1.549   5.015  -4.185  0.00  0.00    -0.075 A 
ATOM      6  C7  UNL d   1      -1.788   5.129  -5.662  0.00  0.00     0.076 C 
ATOM      7  C8  UNL d   1      -2.630   5.077  -3.296  0.00  0.00     0.001 A 
ENDROOT
BRANCH   1   8
ATOM      8  C1  UNL d   1      -3.604   5.039  -0.966  0.00  0.00     0.053 C 
ATOM      9  C   UNL d   1      -4.894   4.560  -1.614  0.00  0.00     0.018 C 
ENDBRANCH   1   8
TORSDOF 1
ENDMDL
