MODEL 1
REMARK minimizedAffinity 12.4981432
REMARK minimizedRMSD -1
REMARK  1 active torsions:
REMARK  status: ('A' for Active; 'I' for Inactive)
REMARK    1  A    between atoms: C1_2  and  C2_3 
ROOT
ATOM      1  C2  UNL d   1       4.631   4.543  -0.978  0.00  0.00    -0.073 A 
ATOM      2  C3  UNL d   1       5.550   5.590  -1.117  0.00  0.00    -0.002 A 
ATOM      3  C4  UNL d   1       6.000   5.969  -2.382  0.00  0.00     0.004 A 
ATOM      4  C5  UNL d   1       5.532   5.312  -3.520  0.00  0.00    -0.004 A 
ATOM      5  C6  UNL d   1       4.605   4.271  -3.403  0.00  0.00    -0.075 A 
ATOM      6  C7  UNL d   1       4.093   3.553  -4.617  0.00  0.00     0.076 C 
ATOM      7  C8  UNL d   1       4.159   3.895  -2.129  0.00  0.00     0.001 A 
ENDROOT
BRANCH   1   8
ATOM      8  C1  UNL d   1       4.137   4.134   0.385  0.00  0.00     0.053 C 
ATOM      9  C   UNL d   1       3.770   2.660   0.440  0.00  0.00     0.018 C 
ENDBRANCH   1   8
TORSDOF 1
ENDMDL
