MODEL 1
REMARK minimizedAffinity 17.1534805
REMARK minimizedRMSD -1
REMARK  1 active torsions:
REMARK  status: ('A' for Active; 'I' for Inactive)
REMARK    1  A    between atoms: C1_2  and  C2_3 
ROOT
ATOM      1  C2  UNL d   1       2.497  -2.592   1.081  0.00  0.00    -0.073 A 
ATOM      2  C3  UNL d   1       1.899  -3.803   0.717  0.00  0.00    -0.002 A 
ATOM      3  C4  UNL d   1       2.486  -4.615  -0.255  0.00  0.00     0.004 A 
ATOM      4  C5  UNL d   1       3.679  -4.228  -0.866  0.00  0.00    -0.004 A 
ATOM      5  C6  UNL d   1       4.298  -3.026  -0.507  0.00  0.00    -0.075 A 
ATOM      6  C7  UNL d   1       5.579  -2.594  -1.157  0.00  0.00     0.076 C 
ATOM      7  C8  UNL d   1       3.701  -2.215   0.468  0.00  0.00     0.001 A 
ENDROOT
BRANCH   1   8
ATOM      8  C1  UNL d   1       1.870  -1.715   2.134  0.00  0.00     0.053 C 
ATOM      9  C   UNL d   1       0.353  -1.816   2.132  0.00  0.00     0.018 C 
ENDBRANCH   1   8
TORSDOF 1
ENDMDL
