MODEL 1
REMARK minimizedAffinity 19.4122066
REMARK minimizedRMSD -1
REMARK  1 active torsions:
REMARK  status: ('A' for Active; 'I' for Inactive)
REMARK    1  A    between atoms: C1_2  and  C2_3 
ROOT
ATOM      1  C2  UNL d   1       4.980   4.263  -0.536  0.00  0.00    -0.073 A 
ATOM      2  C3  UNL d   1       5.702   5.458  -0.637  0.00  0.00    -0.002 A 
ATOM      3  C4  UNL d   1       5.997   5.999  -1.888  0.00  0.00     0.004 A 
ATOM      4  C5  UNL d   1       5.569   5.357  -3.050  0.00  0.00    -0.004 A 
ATOM      5  C6  UNL d   1       4.836   4.168  -2.970  0.00  0.00    -0.075 A 
ATOM      6  C7  UNL d   1       4.371   3.464  -4.210  0.00  0.00     0.076 C 
ATOM      7  C8  UNL d   1       4.546   3.629  -1.709  0.00  0.00     0.001 A 
ENDROOT
BRANCH   1   8
ATOM      8  C1  UNL d   1       4.653   3.678   0.814  0.00  0.00     0.053 C 
ATOM      9  C   UNL d   1       3.302   2.979   0.820  0.00  0.00     0.018 C 
ENDBRANCH   1   8
TORSDOF 1
ENDMDL
