MODEL 1
REMARK minimizedAffinity 13.672308
REMARK minimizedRMSD -1
REMARK  1 active torsions:
REMARK  status: ('A' for Active; 'I' for Inactive)
REMARK    1  A    between atoms: C1_2  and  C2_3 
ROOT
ATOM      1  C2  UNL d   1       3.537   3.502  -3.453  0.00  0.00    -0.073 A 
ATOM      2  C3  UNL d   1       4.182   3.243  -4.667  0.00  0.00    -0.002 A 
ATOM      3  C4  UNL d   1       5.406   3.847  -4.958  0.00  0.00     0.004 A 
ATOM      4  C5  UNL d   1       6.000   4.710  -4.037  0.00  0.00    -0.004 A 
ATOM      5  C6  UNL d   1       5.376   4.972  -2.813  0.00  0.00    -0.075 A 
ATOM      6  C7  UNL d   1       6.000   5.900  -1.812  0.00  0.00     0.076 C 
ATOM      7  C8  UNL d   1       4.146   4.364  -2.529  0.00  0.00     0.001 A 
ENDROOT
BRANCH   1   8
ATOM      8  C1  UNL d   1       2.218   2.847  -3.132  0.00  0.00     0.053 C 
ATOM      9  C   UNL d   1       2.295   2.001  -1.871  0.00  0.00     0.018 C 
ENDBRANCH   1   8
TORSDOF 1
ENDMDL
