MODEL 1
REMARK minimizedAffinity 13.5320654
REMARK minimizedRMSD -1
REMARK  1 active torsions:
REMARK  status: ('A' for Active; 'I' for Inactive)
REMARK    1  A    between atoms: C1_2  and  C2_3 
ROOT
ATOM      1  C2  UNL d   1       5.045   4.009  -0.065  0.00  0.00    -0.073 A 
ATOM      2  C3  UNL d   1       5.037   4.604   1.202  0.00  0.00    -0.002 A 
ATOM      3  C4  UNL d   1       4.155   4.155   2.186  0.00  0.00     0.004 A 
ATOM      4  C5  UNL d   1       3.279   3.103   1.917  0.00  0.00    -0.004 A 
ATOM      5  C6  UNL d   1       3.280   2.488   0.661  0.00  0.00    -0.075 A 
ATOM      6  C7  UNL d   1       2.343   1.358   0.354  0.00  0.00     0.076 C 
ATOM      7  C8  UNL d   1       4.167   2.947  -0.323  0.00  0.00     0.001 A 
ENDROOT
BRANCH   1   8
ATOM      8  C1  UNL d   1       6.000   4.487  -1.128  0.00  0.00     0.053 C 
ATOM      9  C   UNL d   1       5.726   5.926  -1.536  0.00  0.00     0.018 C 
ENDBRANCH   1   8
TORSDOF 1
ENDMDL
