MODEL 1
REMARK minimizedAffinity 10.7566195
REMARK minimizedRMSD -1
REMARK  1 active torsions:
REMARK  status: ('A' for Active; 'I' for Inactive)
REMARK    1  A    between atoms: C1_2  and  C2_3 
ROOT
ATOM      1  C2  UNL d   1      -5.947   1.446  -1.951  0.00  0.00    -0.073 A 
ATOM      2  C3  UNL d   1      -5.862   0.196  -1.327  0.00  0.00    -0.002 A 
ATOM      3  C4  UNL d   1      -5.830  -0.972  -2.090  0.00  0.00     0.004 A 
ATOM      4  C5  UNL d   1      -5.875  -0.902  -3.482  0.00  0.00    -0.004 A 
ATOM      5  C6  UNL d   1      -5.948   0.338  -4.125  0.00  0.00    -0.075 A 
ATOM      6  C7  UNL d   1      -6.000   0.430  -5.621  0.00  0.00     0.076 C 
ATOM      7  C8  UNL d   1      -5.983   1.506  -3.352  0.00  0.00     0.001 A 
ENDROOT
BRANCH   1   8
ATOM      8  C1  UNL d   1      -5.976   2.710  -1.132  0.00  0.00     0.053 C 
ATOM      9  C   UNL d   1      -4.829   3.644  -1.483  0.00  0.00     0.018 C 
ENDBRANCH   1   8
TORSDOF 1
ENDMDL
