MODEL 1
REMARK minimizedAffinity 14.4594927
REMARK minimizedRMSD -1
REMARK  1 active torsions:
REMARK  status: ('A' for Active; 'I' for Inactive)
REMARK    1  A    between atoms: C1_2  and  C2_3 
ROOT
ATOM      1  C2  UNL d   1      -5.978   0.651  -2.535  0.00  0.00    -0.073 A 
ATOM      2  C3  UNL d   1      -5.979   1.353  -3.745  0.00  0.00    -0.002 A 
ATOM      3  C4  UNL d   1      -5.977   0.666  -4.959  0.00  0.00     0.004 A 
ATOM      4  C5  UNL d   1      -5.981  -0.729  -4.976  0.00  0.00    -0.004 A 
ATOM      5  C6  UNL d   1      -5.992  -1.449  -3.777  0.00  0.00    -0.075 A 
ATOM      6  C7  UNL d   1      -5.994  -2.949  -3.778  0.00  0.00     0.076 C 
ATOM      7  C8  UNL d   1      -5.991  -0.751  -2.562  0.00  0.00     0.001 A 
ENDROOT
BRANCH   1   8
ATOM      8  C1  UNL d   1      -5.986   1.389  -1.221  0.00  0.00     0.053 C 
ATOM      9  C   UNL d   1      -5.993   0.440  -0.034  0.00  0.00     0.018 C 
ENDBRANCH   1   8
TORSDOF 1
ENDMDL
