MODEL 1
REMARK minimizedAffinity 12.2904634
REMARK minimizedRMSD -1
REMARK  1 active torsions:
REMARK  status: ('A' for Active; 'I' for Inactive)
REMARK    1  A    between atoms: C1_2  and  C2_3 
ROOT
ATOM      1  C2  UNL d   1      -3.607   0.946   3.628  0.00  0.00    -0.073 A 
ATOM      2  C3  UNL d   1      -4.777   0.860   2.865  0.00  0.00    -0.002 A 
ATOM      3  C4  UNL d   1      -4.859  -0.038   1.800  0.00  0.00     0.004 A 
ATOM      4  C5  UNL d   1      -3.778  -0.863   1.492  0.00  0.00    -0.004 A 
ATOM      5  C6  UNL d   1      -2.604  -0.801   2.250  0.00  0.00    -0.075 A 
ATOM      6  C7  UNL d   1      -1.431  -1.680   1.930  0.00  0.00     0.076 C 
ATOM      7  C8  UNL d   1      -2.528   0.105   3.316  0.00  0.00     0.001 A 
ENDROOT
BRANCH   1   8
ATOM      8  C1  UNL d   1      -3.515   1.909   4.783  0.00  0.00     0.053 C 
ATOM      9  C   UNL d   1      -4.886   2.280   5.326  0.00  0.00     0.018 C 
ENDBRANCH   1   8
TORSDOF 1
ENDMDL
