MODEL 1
REMARK minimizedAffinity -3.35380387
REMARK minimizedRMSD -1
REMARK  2 active torsions:
REMARK  status: ('A' for Active; 'I' for Inactive)
REMARK    1  A    between atoms: C1_2  and  C2_3 
REMARK    2  A    between atoms: C2_3  and  C3_4 
ROOT
ATOM      1  C3  UNL d   1       0.353  -0.230  -0.101  0.00  0.00    -0.075 A 
ATOM      2  C4  UNL d   1       0.632  -0.462   1.254  0.00  0.00     0.002 A 
ATOM      3  C5  UNL d   1       0.383   0.526   2.208  0.00  0.00     0.002 A 
ATOM      4  C6  UNL d   1      -0.137   1.759   1.819  0.00  0.00    -0.004 A 
ATOM      5  C7  UNL d   1      -0.402   2.006   0.474  0.00  0.00     0.002 A 
ATOM      6  C8  UNL d   1      -0.158   1.018  -0.482  0.00  0.00     0.002 A 
ENDROOT
BRANCH   1   7
ATOM      7  C2  UNL d   1       0.592  -1.305  -1.134  0.00  0.00     0.056 C 
BRANCH   7   8
ATOM      8  C1  UNL d   1      -0.484  -2.395  -1.160  0.00  0.00     0.007 C 
ATOM      9  C   UNL d   1       0.089  -3.805  -1.113  0.00  0.00     0.009 C 
ENDBRANCH   7   8
ENDBRANCH   1   7
TORSDOF 2
ENDMDL
