MODEL 1
REMARK minimizedAffinity -3.24965549
REMARK minimizedRMSD -1
REMARK  2 active torsions:
REMARK  status: ('A' for Active; 'I' for Inactive)
REMARK    1  A    between atoms: C1_2  and  C2_3 
REMARK    2  A    between atoms: C2_3  and  C3_4 
ROOT
ATOM      1  C3  UNL d   1       0.181   0.149  -0.081  0.00  0.00    -0.075 A 
ATOM      2  C4  UNL d   1       0.063   0.143   1.317  0.00  0.00     0.002 A 
ATOM      3  C5  UNL d   1      -0.296   1.303   2.003  0.00  0.00     0.002 A 
ATOM      4  C6  UNL d   1      -0.531   2.485   1.304  0.00  0.00    -0.004 A 
ATOM      5  C7  UNL d   1      -0.401   2.507  -0.083  0.00  0.00     0.002 A 
ATOM      6  C8  UNL d   1      -0.046   1.347  -0.773  0.00  0.00     0.002 A 
ENDROOT
BRANCH   1   7
ATOM      7  C2  UNL d   1       0.541  -1.110  -0.832  0.00  0.00     0.056 C 
BRANCH   7   8
ATOM      8  C1  UNL d   1      -0.535  -2.200  -0.773  0.00  0.00     0.007 C 
ATOM      9  C   UNL d   1      -0.089  -3.518  -1.392  0.00  0.00     0.009 C 
ENDBRANCH   7   8
ENDBRANCH   1   7
TORSDOF 2
ENDMDL
