MODEL 1
REMARK minimizedAffinity -4.57928228
REMARK minimizedRMSD -1
REMARK  2 active torsions:
REMARK  status: ('A' for Active; 'I' for Inactive)
REMARK    1  A    between atoms: C1_2  and  C2_3 
REMARK    2  A    between atoms: C2_3  and  C3_4 
ROOT
ATOM      1  C3  UNL d   1      -0.363   0.171   0.108  0.00  0.00    -0.075 A 
ATOM      2  C4  UNL d   1      -1.199   1.022  -0.629  0.00  0.00     0.002 A 
ATOM      3  C5  UNL d   1      -1.588   2.257  -0.109  0.00  0.00     0.002 A 
ATOM      4  C6  UNL d   1      -1.156   2.651   1.155  0.00  0.00    -0.004 A 
ATOM      5  C7  UNL d   1      -0.339   1.806   1.903  0.00  0.00     0.002 A 
ATOM      6  C8  UNL d   1       0.056   0.572   1.384  0.00  0.00     0.002 A 
ENDROOT
BRANCH   1   7
ATOM      7  C2  UNL d   1       0.086  -1.154  -0.461  0.00  0.00     0.056 C 
BRANCH   7   8
ATOM      8  C1  UNL d   1      -1.038  -1.964  -1.115  0.00  0.00     0.007 C 
ATOM      9  C   UNL d   1      -0.805  -3.468  -1.059  0.00  0.00     0.009 C 
ENDBRANCH   7   8
ENDBRANCH   1   7
TORSDOF 2
ENDMDL
