MODEL 1
REMARK minimizedAffinity -5.91182709
REMARK minimizedRMSD -1
REMARK  2 active torsions:
REMARK  status: ('A' for Active; 'I' for Inactive)
REMARK    1  A    between atoms: C1_2  and  C2_3 
REMARK    2  A    between atoms: C2_3  and  C3_4 
ROOT
ATOM      1  C3  UNL d   1      -0.378   1.143   0.521  0.00  0.00    -0.075 A 
ATOM      2  C4  UNL d   1      -0.842   1.846  -0.600  0.00  0.00     0.002 A 
ATOM      3  C5  UNL d   1      -1.275   3.167  -0.480  0.00  0.00     0.002 A 
ATOM      4  C6  UNL d   1      -1.259   3.798   0.762  0.00  0.00    -0.004 A 
ATOM      5  C7  UNL d   1      -0.815   3.104   1.886  0.00  0.00     0.002 A 
ATOM      6  C8  UNL d   1      -0.377   1.784   1.768  0.00  0.00     0.002 A 
ENDROOT
BRANCH   1   7
ATOM      7  C2  UNL d   1       0.119  -0.277   0.392  0.00  0.00     0.056 C 
BRANCH   7   8
ATOM      8  C1  UNL d   1       0.355  -0.726  -1.054  0.00  0.00     0.007 C 
ATOM      9  C   UNL d   1       0.072  -2.206  -1.276  0.00  0.00     0.009 C 
ENDBRANCH   7   8
ENDBRANCH   1   7
TORSDOF 2
ENDMDL
