MODEL 1
REMARK minimizedAffinity -4.84804964
REMARK minimizedRMSD -1
REMARK  2 active torsions:
REMARK  status: ('A' for Active; 'I' for Inactive)
REMARK    1  A    between atoms: C1_2  and  C2_3 
REMARK    2  A    between atoms: C2_3  and  C3_4 
ROOT
ATOM      1  C3  UNL d   1      -0.014   0.859   0.498  0.00  0.00    -0.075 A 
ATOM      2  C4  UNL d   1      -0.065   1.673   1.639  0.00  0.00     0.002 A 
ATOM      3  C5  UNL d   1      -0.168   3.059   1.517  0.00  0.00     0.002 A 
ATOM      4  C6  UNL d   1      -0.210   3.649   0.255  0.00  0.00    -0.004 A 
ATOM      5  C7  UNL d   1      -0.143   2.851  -0.885  0.00  0.00     0.002 A 
ATOM      6  C8  UNL d   1      -0.044   1.464  -0.766  0.00  0.00     0.002 A 
ENDROOT
BRANCH   1   7
ATOM      7  C2  UNL d   1       0.068  -0.643   0.624  0.00  0.00     0.056 C 
BRANCH   7   8
ATOM      8  C1  UNL d   1       0.379  -1.364  -0.692  0.00  0.00     0.007 C 
ATOM      9  C   UNL d   1      -0.650  -2.427  -1.053  0.00  0.00     0.009 C 
ENDBRANCH   7   8
ENDBRANCH   1   7
TORSDOF 2
ENDMDL
