MODEL 1
REMARK minimizedAffinity -4.44297838
REMARK minimizedRMSD -1
REMARK  2 active torsions:
REMARK  status: ('A' for Active; 'I' for Inactive)
REMARK    1  A    between atoms: C1_2  and  C2_3 
REMARK    2  A    between atoms: C2_3  and  C3_4 
ROOT
ATOM      1  C3  UNL d   1       0.278   0.633   0.015  0.00  0.00    -0.075 A 
ATOM      2  C4  UNL d   1       0.061   1.541   1.061  0.00  0.00     0.002 A 
ATOM      3  C5  UNL d   1      -0.177   2.889   0.792  0.00  0.00     0.002 A 
ATOM      4  C6  UNL d   1      -0.191   3.348  -0.524  0.00  0.00    -0.004 A 
ATOM      5  C7  UNL d   1       0.039   2.458  -1.570  0.00  0.00     0.002 A 
ATOM      6  C8  UNL d   1       0.273   1.108  -1.304  0.00  0.00     0.002 A 
ENDROOT
BRANCH   1   7
ATOM      7  C2  UNL d   1       0.507  -0.832   0.298  0.00  0.00     0.056 C 
BRANCH   7   8
ATOM      8  C1  UNL d   1       0.260  -1.746  -0.906  0.00  0.00     0.007 C 
ATOM      9  C   UNL d   1       1.086  -3.026  -0.868  0.00  0.00     0.009 C 
ENDBRANCH   7   8
ENDBRANCH   1   7
TORSDOF 2
ENDMDL
