MODEL 1
REMARK minimizedAffinity -5.04007578
REMARK minimizedRMSD -1
REMARK  2 active torsions:
REMARK  status: ('A' for Active; 'I' for Inactive)
REMARK    1  A    between atoms: C1_2  and  C2_3 
REMARK    2  A    between atoms: C2_3  and  C3_4 
ROOT
ATOM      1  C3  UNL d   1      -0.345   0.875   0.307  0.00  0.00    -0.075 A 
ATOM      2  C4  UNL d   1      -0.738   1.405   1.544  0.00  0.00     0.002 A 
ATOM      3  C5  UNL d   1      -1.460   2.597   1.606  0.00  0.00     0.002 A 
ATOM      4  C6  UNL d   1      -1.789   3.279   0.436  0.00  0.00    -0.004 A 
ATOM      5  C7  UNL d   1      -1.389   2.770  -0.797  0.00  0.00     0.002 A 
ATOM      6  C8  UNL d   1      -0.670   1.575  -0.863  0.00  0.00     0.002 A 
ENDROOT
BRANCH   1   7
ATOM      7  C2  UNL d   1       0.411  -0.430   0.230  0.00  0.00     0.056 C 
BRANCH   7   8
ATOM      8  C1  UNL d   1       0.527  -1.002  -1.186  0.00  0.00     0.007 C 
ATOM      9  C   UNL d   1       0.186  -2.484  -1.265  0.00  0.00     0.009 C 
ENDBRANCH   7   8
ENDBRANCH   1   7
TORSDOF 2
ENDMDL
