MODEL 1
REMARK minimizedAffinity -0.74075228
REMARK minimizedRMSD -1
REMARK  2 active torsions:
REMARK  status: ('A' for Active; 'I' for Inactive)
REMARK    1  A    between atoms: C1_2  and  C2_3 
REMARK    2  A    between atoms: C2_3  and  C3_4 
ROOT
ATOM      1  C3  UNL d   1       0.336  -1.797  -0.144  0.00  0.00    -0.075 A 
ATOM      2  C4  UNL d   1       0.373  -0.625  -0.914  0.00  0.00     0.002 A 
ATOM      3  C5  UNL d   1       0.388   0.627  -0.299  0.00  0.00     0.002 A 
ATOM      4  C6  UNL d   1       0.356   0.724   1.090  0.00  0.00    -0.004 A 
ATOM      5  C7  UNL d   1       0.302  -0.432   1.865  0.00  0.00     0.002 A 
ATOM      6  C8  UNL d   1       0.292  -1.687   1.252  0.00  0.00     0.002 A 
ENDROOT
BRANCH   1   7
ATOM      7  C2  UNL d   1       0.349  -3.155  -0.802  0.00  0.00     0.056 C 
BRANCH   7   8
ATOM      8  C1  UNL d   1      -0.996  -3.888  -0.749  0.00  0.00     0.007 C 
ATOM      9  C   UNL d   1      -1.924  -3.525  -1.901  0.00  0.00     0.009 C 
ENDBRANCH   7   8
ENDBRANCH   1   7
TORSDOF 2
ENDMDL
