MODEL 1
REMARK minimizedAffinity -5.28348637
REMARK minimizedRMSD -1
REMARK  2 active torsions:
REMARK  status: ('A' for Active; 'I' for Inactive)
REMARK    1  A    between atoms: C1_2  and  C2_3 
REMARK    2  A    between atoms: C2_3  and  C3_4 
ROOT
ATOM      1  C3  UNL d   1       0.775  -0.910  -0.552  0.00  0.00    -0.075 A 
ATOM      2  C4  UNL d   1       0.528  -0.689   0.810  0.00  0.00     0.002 A 
ATOM      3  C5  UNL d   1       0.127   0.568   1.263  0.00  0.00     0.002 A 
ATOM      4  C6  UNL d   1      -0.022   1.621   0.363  0.00  0.00    -0.004 A 
ATOM      5  C7  UNL d   1       0.237   1.418  -0.991  0.00  0.00     0.002 A 
ATOM      6  C8  UNL d   1       0.634   0.159  -1.447  0.00  0.00     0.002 A 
ENDROOT
BRANCH   1   7
ATOM      7  C2  UNL d   1       1.181  -2.276  -1.053  0.00  0.00     0.056 C 
BRANCH   7   8
ATOM      8  C1  UNL d   1       0.062  -3.033  -1.776  0.00  0.00     0.007 C 
ATOM      9  C   UNL d   1      -0.501  -4.192  -0.964  0.00  0.00     0.009 C 
ENDBRANCH   7   8
ENDBRANCH   1   7
TORSDOF 2
ENDMDL
