MODEL 1
REMARK minimizedAffinity -3.36653066
REMARK minimizedRMSD -1
REMARK  1 active torsions:
REMARK  status: ('A' for Active; 'I' for Inactive)
REMARK    1  A    between atoms: C1_2  and  C2_3 
ROOT
ATOM      1  C2  UNL d   1       1.406  -0.966  -1.564  0.00  0.00    -0.081 A 
ATOM      2  C3  UNL d   1       1.092   0.388  -1.394  0.00  0.00     0.006 A 
ATOM      3  C4  UNL d   1       0.162   0.782  -0.429  0.00  0.00     0.002 A 
ATOM      4  C5  UNL d   1      -0.461  -0.168   0.387  0.00  0.00    -0.080 A 
ATOM      5  C6  UNL d   1      -1.438   0.246   1.447  0.00  0.00     0.076 C 
ATOM      6  C7  UNL d   1      -0.160  -1.522   0.205  0.00  0.00     0.002 A 
ATOM      7  C8  UNL d   1       0.769  -1.917  -0.760  0.00  0.00     0.006 A 
ENDROOT
BRANCH   1   8
ATOM      8  C1  UNL d   1       2.456  -1.390  -2.560  0.00  0.00     0.054 C 
ATOM      9  C   UNL d   1       3.605  -2.117  -1.877  0.00  0.00     0.018 C 
ENDBRANCH   1   8
TORSDOF 1
ENDMDL
