MODEL 1
REMARK minimizedAffinity -4.33817577
REMARK minimizedRMSD -1
REMARK  1 active torsions:
REMARK  status: ('A' for Active; 'I' for Inactive)
REMARK    1  A    between atoms: C1_2  and  C2_3 
ROOT
ATOM      1  C2  UNL d   1       0.427   0.224  -0.952  0.00  0.00    -0.081 A 
ATOM      2  C3  UNL d   1       0.344  -0.434   0.281  0.00  0.00     0.006 A 
ATOM      3  C4  UNL d   1      -0.804  -0.322   1.068  0.00  0.00     0.002 A 
ATOM      4  C5  UNL d   1      -1.892   0.442   0.632  0.00  0.00    -0.080 A 
ATOM      5  C6  UNL d   1      -3.142   0.546   1.454  0.00  0.00     0.076 C 
ATOM      6  C7  UNL d   1      -1.803   1.114  -0.592  0.00  0.00     0.002 A 
ATOM      7  C8  UNL d   1      -0.654   1.003  -1.379  0.00  0.00     0.006 A 
ENDROOT
BRANCH   1   8
ATOM      8  C1  UNL d   1       1.638   0.052  -1.833  0.00  0.00     0.054 C 
ATOM      9  C   UNL d   1       1.892  -1.415  -2.145  0.00  0.00     0.018 C 
ENDBRANCH   1   8
TORSDOF 1
ENDMDL
