MODEL 1
REMARK minimizedAffinity -5.74935532
REMARK minimizedRMSD -1
REMARK  1 active torsions:
REMARK  status: ('A' for Active; 'I' for Inactive)
REMARK    1  A    between atoms: C1_2  and  C2_3 
ROOT
ATOM      1  C2  UNL d   1       0.379   0.877  -0.866  0.00  0.00    -0.081 A 
ATOM      2  C3  UNL d   1      -0.723   1.712  -1.087  0.00  0.00     0.006 A 
ATOM      3  C4  UNL d   1      -1.861   1.611  -0.283  0.00  0.00     0.002 A 
ATOM      4  C5  UNL d   1      -1.913   0.680   0.759  0.00  0.00    -0.080 A 
ATOM      5  C6  UNL d   1      -3.117   0.582   1.649  0.00  0.00     0.076 C 
ATOM      6  C7  UNL d   1      -0.820  -0.167   0.970  0.00  0.00     0.002 A 
ATOM      7  C8  UNL d   1       0.318  -0.067   0.166  0.00  0.00     0.006 A 
ENDROOT
BRANCH   1   8
ATOM      8  C1  UNL d   1       1.632   1.027  -1.689  0.00  0.00     0.054 C 
ATOM      9  C   UNL d   1       1.755  -0.087  -2.719  0.00  0.00     0.018 C 
ENDBRANCH   1   8
TORSDOF 1
ENDMDL
