MODEL 1
REMARK minimizedAffinity 6.46050358
REMARK minimizedRMSD -1
REMARK  1 active torsions:
REMARK  status: ('A' for Active; 'I' for Inactive)
REMARK    1  A    between atoms: C1_2  and  C2_3 
ROOT
ATOM      1  C2  UNL d   1      -2.803   1.108   5.278  0.00  0.00    -0.081 A 
ATOM      2  C3  UNL d   1      -2.764   1.067   3.879  0.00  0.00     0.006 A 
ATOM      3  C4  UNL d   1      -1.613   0.639   3.215  0.00  0.00     0.002 A 
ATOM      4  C5  UNL d   1      -0.484   0.237   3.937  0.00  0.00    -0.080 A 
ATOM      5  C6  UNL d   1       0.748  -0.253   3.237  0.00  0.00     0.076 C 
ATOM      6  C7  UNL d   1      -0.516   0.294   5.335  0.00  0.00     0.002 A 
ATOM      7  C8  UNL d   1      -1.667   0.723   6.000  0.00  0.00     0.006 A 
ENDROOT
BRANCH   1   8
ATOM      8  C1  UNL d   1      -4.065   1.507   5.999  0.00  0.00     0.054 C 
ATOM      9  C   UNL d   1      -4.326   3.001   5.872  0.00  0.00     0.018 C 
ENDBRANCH   1   8
TORSDOF 1
ENDMDL
