MODEL 1
REMARK minimizedAffinity -5.2957778
REMARK minimizedRMSD -1
REMARK  1 active torsions:
REMARK  status: ('A' for Active; 'I' for Inactive)
REMARK    1  A    between atoms: C1_2  and  C2_3 
ROOT
ATOM      1  C2  UNL d   1       1.380  -0.824  -1.625  0.00  0.00    -0.081 A 
ATOM      2  C3  UNL d   1       1.974   0.325  -2.161  0.00  0.00     0.006 A 
ATOM      3  C4  UNL d   1       1.775   1.571  -1.561  0.00  0.00     0.002 A 
ATOM      4  C5  UNL d   1       0.986   1.687  -0.412  0.00  0.00    -0.080 A 
ATOM      5  C6  UNL d   1       0.790   3.014   0.260  0.00  0.00     0.076 C 
ATOM      6  C7  UNL d   1       0.378   0.542   0.114  0.00  0.00     0.002 A 
ATOM      7  C8  UNL d   1       0.576  -0.703  -0.486  0.00  0.00     0.006 A 
ENDROOT
BRANCH   1   8
ATOM      8  C1  UNL d   1       1.645  -2.178  -2.231  0.00  0.00     0.054 C 
ATOM      9  C   UNL d   1       1.148  -3.297  -1.327  0.00  0.00     0.018 C 
ENDBRANCH   1   8
TORSDOF 1
ENDMDL
