MODEL 1
REMARK minimizedAffinity -5.36008072
REMARK minimizedRMSD -1
REMARK  1 active torsions:
REMARK  status: ('A' for Active; 'I' for Inactive)
REMARK    1  A    between atoms: C1_2  and  C2_3 
ROOT
ATOM      1  C2  UNL d   1       0.663   0.130  -0.801  0.00  0.00    -0.081 A 
ATOM      2  C3  UNL d   1      -0.484   0.567  -1.475  0.00  0.00     0.006 A 
ATOM      3  C4  UNL d   1      -1.729   0.548  -0.842  0.00  0.00     0.002 A 
ATOM      4  C5  UNL d   1      -1.847   0.098   0.478  0.00  0.00    -0.080 A 
ATOM      5  C6  UNL d   1      -3.172   0.100   1.179  0.00  0.00     0.076 C 
ATOM      6  C7  UNL d   1      -0.704  -0.356   1.146  0.00  0.00     0.002 A 
ATOM      7  C8  UNL d   1       0.541  -0.337   0.513  0.00  0.00     0.006 A 
ENDROOT
BRANCH   1   8
ATOM      8  C1  UNL d   1       2.017   0.211  -1.458  0.00  0.00     0.054 C 
ATOM      9  C   UNL d   1       1.958  -0.259  -2.905  0.00  0.00     0.018 C 
ENDBRANCH   1   8
TORSDOF 1
ENDMDL
