MODEL 1
REMARK minimizedAffinity -2.03101778
REMARK minimizedRMSD -1
REMARK  1 active torsions:
REMARK  status: ('A' for Active; 'I' for Inactive)
REMARK    1  A    between atoms: C1_2  and  C2_3 
ROOT
ATOM      1  C2  UNL d   1      -1.490  -0.063   0.793  0.00  0.00    -0.081 A 
ATOM      2  C3  UNL d   1      -0.195  -0.062   1.325  0.00  0.00     0.006 A 
ATOM      3  C4  UNL d   1       0.915   0.067   0.485  0.00  0.00     0.002 A 
ATOM      4  C5  UNL d   1       0.747   0.204  -0.897  0.00  0.00    -0.080 A 
ATOM      5  C6  UNL d   1       1.928   0.374  -1.805  0.00  0.00     0.076 C 
ATOM      6  C7  UNL d   1      -0.547   0.186  -1.429  0.00  0.00     0.002 A 
ATOM      7  C8  UNL d   1      -1.656   0.056  -0.591  0.00  0.00     0.006 A 
ENDROOT
BRANCH   1   8
ATOM      8  C1  UNL d   1      -2.691  -0.137   1.702  0.00  0.00     0.054 C 
ATOM      9  C   UNL d   1      -2.950   1.198   2.386  0.00  0.00     0.018 C 
ENDBRANCH   1   8
TORSDOF 1
ENDMDL
