MODEL 1
REMARK minimizedAffinity -3.07065773
REMARK minimizedRMSD -1
REMARK  1 active torsions:
REMARK  status: ('A' for Active; 'I' for Inactive)
REMARK    1  A    between atoms: C1_2  and  C2_3 
ROOT
ATOM      1  C2  UNL d   1       1.239  -1.607  -1.640  0.00  0.00    -0.081 A 
ATOM      2  C3  UNL d   1       0.322  -1.192  -0.666  0.00  0.00     0.006 A 
ATOM      3  C4  UNL d   1       0.261   0.148  -0.277  0.00  0.00     0.002 A 
ATOM      4  C5  UNL d   1       1.109   1.096  -0.859  0.00  0.00    -0.080 A 
ATOM      5  C6  UNL d   1       1.032   2.543  -0.471  0.00  0.00     0.076 C 
ATOM      6  C7  UNL d   1       2.036   0.679  -1.819  0.00  0.00     0.002 A 
ATOM      7  C8  UNL d   1       2.099  -0.661  -2.209  0.00  0.00     0.006 A 
ENDROOT
BRANCH   1   8
ATOM      8  C1  UNL d   1       1.263  -3.039  -2.109  0.00  0.00     0.054 C 
ATOM      9  C   UNL d   1       1.098  -4.005  -0.945  0.00  0.00     0.018 C 
ENDBRANCH   1   8
TORSDOF 1
ENDMDL
