MODEL 1
REMARK minimizedAffinity -6.1061554
REMARK minimizedRMSD -1
REMARK  1 active torsions:
REMARK  status: ('A' for Active; 'I' for Inactive)
REMARK    1  A    between atoms: C1_2  and  C2_3 
ROOT
ATOM      1  C2  UNL d   1      -1.155   0.190   0.988  0.00  0.00    -0.081 A 
ATOM      2  C3  UNL d   1      -1.453   0.878  -0.195  0.00  0.00     0.006 A 
ATOM      3  C4  UNL d   1      -0.482   1.035  -1.187  0.00  0.00     0.002 A 
ATOM      4  C5  UNL d   1       0.800   0.500  -1.015  0.00  0.00    -0.080 A 
ATOM      5  C6  UNL d   1       1.843   0.635  -2.085  0.00  0.00     0.076 C 
ATOM      6  C7  UNL d   1       1.103  -0.171   0.174  0.00  0.00     0.002 A 
ATOM      7  C8  UNL d   1       0.132  -0.328   1.166  0.00  0.00     0.006 A 
ENDROOT
BRANCH   1   8
ATOM      8  C1  UNL d   1      -2.220  -0.036   2.031  0.00  0.00     0.054 C 
ATOM      9  C   UNL d   1      -3.527  -0.490   1.398  0.00  0.00     0.018 C 
ENDBRANCH   1   8
TORSDOF 1
ENDMDL
