MODEL 1
REMARK minimizedAffinity -3.50092721
REMARK minimizedRMSD -1
REMARK  1 active torsions:
REMARK  status: ('A' for Active; 'I' for Inactive)
REMARK    1  A    between atoms: C1_2  and  C2_3 
ROOT
ATOM      1  C2  UNL d   1       0.645   0.127  -0.473  0.00  0.00    -0.081 A 
ATOM      2  C3  UNL d   1      -0.566  -0.488  -0.815  0.00  0.00     0.006 A 
ATOM      3  C4  UNL d   1      -1.700  -0.311  -0.019  0.00  0.00     0.002 A 
ATOM      4  C5  UNL d   1      -1.644   0.489   1.128  0.00  0.00    -0.080 A 
ATOM      5  C6  UNL d   1      -2.862   0.711   1.974  0.00  0.00     0.076 C 
ATOM      6  C7  UNL d   1      -0.431   1.089   1.479  0.00  0.00     0.002 A 
ATOM      7  C8  UNL d   1       0.704   0.912   0.684  0.00  0.00     0.006 A 
ENDROOT
BRANCH   1   8
ATOM      8  C1  UNL d   1       1.852  -0.009  -1.365  0.00  0.00     0.054 C 
ATOM      9  C   UNL d   1       1.483  -0.626  -2.706  0.00  0.00     0.018 C 
ENDBRANCH   1   8
TORSDOF 1
ENDMDL
