MODEL 1
REMARK minimizedAffinity -3.54253674
REMARK minimizedRMSD -1
REMARK  1 active torsions:
REMARK  status: ('A' for Active; 'I' for Inactive)
REMARK    1  A    between atoms: C1_2  and  C2_3 
ROOT
ATOM      1  C2  UNL d   1       1.485   0.159  -1.161  0.00  0.00    -0.081 A 
ATOM      2  C3  UNL d   1       0.539  -0.852  -0.952  0.00  0.00     0.006 A 
ATOM      3  C4  UNL d   1      -0.405  -0.738   0.072  0.00  0.00     0.002 A 
ATOM      4  C5  UNL d   1      -0.423   0.391   0.898  0.00  0.00    -0.080 A 
ATOM      5  C6  UNL d   1      -1.450   0.539   1.981  0.00  0.00     0.076 C 
ATOM      6  C7  UNL d   1       0.533   1.393   0.700  0.00  0.00     0.002 A 
ATOM      7  C8  UNL d   1       1.477   1.279  -0.323  0.00  0.00     0.006 A 
ENDROOT
BRANCH   1   8
ATOM      8  C1  UNL d   1       2.463   0.069  -2.305  0.00  0.00     0.054 C 
ATOM      9  C   UNL d   1       1.909  -0.780  -3.440  0.00  0.00     0.018 C 
ENDBRANCH   1   8
TORSDOF 1
ENDMDL
