MODEL 1
REMARK minimizedAffinity -5.58931923
REMARK minimizedRMSD -1
REMARK  1 active torsions:
REMARK  status: ('A' for Active; 'I' for Inactive)
REMARK    1  A    between atoms: C1_2  and  C2_3 
ROOT
ATOM      1  C2  UNL d   1      -2.437   0.242   0.703  0.00  0.00    -0.081 A 
ATOM      2  C3  UNL d   1      -2.351   0.720  -0.610  0.00  0.00     0.006 A 
ATOM      3  C4  UNL d   1      -1.110   0.846  -1.239  0.00  0.00     0.002 A 
ATOM      4  C5  UNL d   1       0.064   0.488  -0.569  0.00  0.00    -0.080 A 
ATOM      5  C6  UNL d   1       1.400   0.590  -1.243  0.00  0.00     0.076 C 
ATOM      6  C7  UNL d   1      -0.019   0.027   0.749  0.00  0.00     0.002 A 
ATOM      7  C8  UNL d   1      -1.260  -0.098   1.379  0.00  0.00     0.006 A 
ENDROOT
BRANCH   1   8
ATOM      8  C1  UNL d   1      -3.778   0.044   1.361  0.00  0.00     0.054 C 
ATOM      9  C   UNL d   1      -4.241   1.311   2.066  0.00  0.00     0.018 C 
ENDBRANCH   1   8
TORSDOF 1
ENDMDL
