MODEL 1
REMARK minimizedAffinity -3.20157671
REMARK minimizedRMSD -1
REMARK  0 active torsions:
REMARK  status: ('A' for Active; 'I' for Inactive)
ROOT
ATOM      1  C   UNL d   1      -1.606   1.728   1.229  0.00  0.00     0.172 C 
ATOM      2  N   UNL d   1      -0.585   0.972   0.542  0.00  0.00    -0.070 N 
ATOM      3  C1  UNL d   1      -0.084  -0.238   0.941  0.00  0.00    -0.004 A 
ATOM      4  C2  UNL d   1       0.867  -0.625   0.021  0.00  0.00    -0.047 A 
ATOM      5  C3  UNL d   1       0.939   0.388  -0.965  0.00  0.00    -0.047 A 
ATOM      6  C4  UNL d   1       0.030   1.365  -0.617  0.00  0.00    -0.004 A 
ENDROOT
TORSDOF 0
ENDMDL
