MODEL 1
REMARK minimizedAffinity -0.556884468
REMARK minimizedRMSD -1
REMARK  0 active torsions:
REMARK  status: ('A' for Active; 'I' for Inactive)
ROOT
ATOM      1  C   UNL d   1      -1.567   1.557   2.007  0.00  0.00     0.172 C 
ATOM      2  N   UNL d   1      -0.743   0.804   1.090  0.00  0.00    -0.070 N 
ATOM      3  C1  UNL d   1      -0.308   1.238  -0.133  0.00  0.00    -0.004 A 
ATOM      4  C2  UNL d   1       0.449   0.232  -0.694  0.00  0.00    -0.047 A 
ATOM      5  C3  UNL d   1       0.468  -0.845   0.224  0.00  0.00    -0.047 A 
ATOM      6  C4  UNL d   1      -0.278  -0.464   1.320  0.00  0.00    -0.004 A 
ENDROOT
TORSDOF 0
ENDMDL
