MODEL 1
REMARK minimizedAffinity -4.01513672
REMARK minimizedRMSD -1
REMARK  0 active torsions:
REMARK  status: ('A' for Active; 'I' for Inactive)
ROOT
ATOM      1  C   UNL d   1       0.524  -0.302  -0.448  0.00  0.00     0.172 C 
ATOM      2  N   UNL d   1      -0.332   0.505   0.390  0.00  0.00    -0.070 N 
ATOM      3  C1  UNL d   1      -0.888   1.707   0.041  0.00  0.00    -0.004 A 
ATOM      4  C2  UNL d   1      -1.635   2.152   1.110  0.00  0.00    -0.047 A 
ATOM      5  C3  UNL d   1      -1.523   1.185   2.137  0.00  0.00    -0.047 A 
ATOM      6  C4  UNL d   1      -0.711   0.176   1.665  0.00  0.00    -0.004 A 
ENDROOT
TORSDOF 0
ENDMDL
