MODEL 1
REMARK minimizedAffinity -2.87719131
REMARK minimizedRMSD -1
REMARK  0 active torsions:
REMARK  status: ('A' for Active; 'I' for Inactive)
ROOT
ATOM      1  C   UNL d   1      -2.851   1.179  -0.735  0.00  0.00     0.172 C 
ATOM      2  N   UNL d   1      -1.436   0.911  -0.627  0.00  0.00    -0.070 N 
ATOM      3  C1  UNL d   1      -0.848   0.088   0.297  0.00  0.00    -0.004 A 
ATOM      4  C2  UNL d   1       0.511   0.100   0.067  0.00  0.00    -0.047 A 
ATOM      5  C3  UNL d   1       0.748   0.960  -1.032  0.00  0.00    -0.047 A 
ATOM      6  C4  UNL d   1      -0.475   1.448  -1.442  0.00  0.00    -0.004 A 
ENDROOT
TORSDOF 0
ENDMDL
