MODEL 1
REMARK minimizedAffinity -2.52119923
REMARK minimizedRMSD -1
REMARK  0 active torsions:
REMARK  status: ('A' for Active; 'I' for Inactive)
ROOT
ATOM      1  C   UNL d   1       0.528  -0.394  -0.455  0.00  0.00     0.172 C 
ATOM      2  N   UNL d   1      -0.324   0.466   0.332  0.00  0.00    -0.070 N 
ATOM      3  C1  UNL d   1      -0.672   1.752   0.016  0.00  0.00    -0.004 A 
ATOM      4  C2  UNL d   1      -1.493   2.226   1.016  0.00  0.00    -0.047 A 
ATOM      5  C3  UNL d   1      -1.643   1.188   1.967  0.00  0.00    -0.047 A 
ATOM      6  C4  UNL d   1      -0.909   0.111   1.519  0.00  0.00    -0.004 A 
ENDROOT
TORSDOF 0
ENDMDL
