MODEL 1
REMARK minimizedAffinity -3.64673305
REMARK minimizedRMSD -1
REMARK  0 active torsions:
REMARK  status: ('A' for Active; 'I' for Inactive)
ROOT
ATOM      1  C   UNL d   1       0.729  -0.484  -0.562  0.00  0.00     0.172 C 
ATOM      2  N   UNL d   1      -0.196   0.347   0.172  0.00  0.00    -0.070 N 
ATOM      3  C1  UNL d   1      -0.663   0.099   1.435  0.00  0.00    -0.004 A 
ATOM      4  C2  UNL d   1      -1.519   1.123   1.777  0.00  0.00    -0.047 A 
ATOM      5  C3  UNL d   1      -1.569   2.017   0.681  0.00  0.00    -0.047 A 
ATOM      6  C4  UNL d   1      -0.741   1.513  -0.299  0.00  0.00    -0.004 A 
ENDROOT
TORSDOF 0
ENDMDL
