MODEL 1
REMARK minimizedAffinity -0.417372704
REMARK minimizedRMSD -1
REMARK  0 active torsions:
REMARK  status: ('A' for Active; 'I' for Inactive)
ROOT
ATOM      1  C   UNL d   1      -0.904   1.856  -0.761  0.00  0.00     0.172 C 
ATOM      2  N   UNL d   1      -0.306   0.650  -0.237  0.00  0.00    -0.070 N 
ATOM      3  C1  UNL d   1       0.574  -0.159  -0.905  0.00  0.00    -0.004 A 
ATOM      4  C2  UNL d   1       0.910  -1.200  -0.067  0.00  0.00    -0.047 A 
ATOM      5  C3  UNL d   1       0.207  -1.010   1.147  0.00  0.00    -0.047 A 
ATOM      6  C4  UNL d   1      -0.538   0.143   1.014  0.00  0.00    -0.004 A 
ENDROOT
TORSDOF 0
ENDMDL
