MODEL 1
REMARK minimizedAffinity -1.58736074
REMARK minimizedRMSD -1
REMARK  0 active torsions:
REMARK  status: ('A' for Active; 'I' for Inactive)
ROOT
ATOM      1  C   UNL d   1       0.791   1.437  -0.761  0.00  0.00     0.172 C 
ATOM      2  N   UNL d   1       0.071   0.931   0.383  0.00  0.00    -0.070 N 
ATOM      3  C1  UNL d   1      -0.490   1.692   1.374  0.00  0.00    -0.004 A 
ATOM      4  C2  UNL d   1      -1.083   0.838   2.278  0.00  0.00    -0.047 A 
ATOM      5  C3  UNL d   1      -0.870  -0.483   1.816  0.00  0.00    -0.047 A 
ATOM      6  C4  UNL d   1      -0.153  -0.396   0.641  0.00  0.00    -0.004 A 
ENDROOT
TORSDOF 0
ENDMDL
