MODEL 1
REMARK minimizedAffinity -3.62662506
REMARK minimizedRMSD -1
REMARK  0 active torsions:
REMARK  status: ('A' for Active; 'I' for Inactive)
ROOT
ATOM      1  C   UNL d   1       0.184  -0.041  -0.403  0.00  0.00     0.172 C 
ATOM      2  N   UNL d   1      -0.647   0.778   0.448  0.00  0.00    -0.070 N 
ATOM      3  C1  UNL d   1      -1.091   2.040   0.155  0.00  0.00    -0.004 A 
ATOM      4  C2  UNL d   1      -1.852   2.477   1.217  0.00  0.00    -0.047 A 
ATOM      5  C3  UNL d   1      -1.865   1.443   2.183  0.00  0.00    -0.047 A 
ATOM      6  C4  UNL d   1      -1.111   0.403   1.681  0.00  0.00    -0.004 A 
ENDROOT
TORSDOF 0
ENDMDL
