MODEL 1
REMARK minimizedAffinity -3.49918461
REMARK minimizedRMSD -1
REMARK  0 active torsions:
REMARK  status: ('A' for Active; 'I' for Inactive)
ROOT
ATOM      1  C   UNL d   1      -1.943   1.656   1.838  0.00  0.00     0.172 C 
ATOM      2  N   UNL d   1      -0.949   0.970   1.046  0.00  0.00    -0.070 N 
ATOM      3  C1  UNL d   1      -0.370  -0.231   1.356  0.00  0.00    -0.004 A 
ATOM      4  C2  UNL d   1       0.521  -0.542   0.353  0.00  0.00    -0.047 A 
ATOM      5  C3  UNL d   1       0.478   0.510  -0.593  0.00  0.00    -0.047 A 
ATOM      6  C4  UNL d   1      -0.440   1.433  -0.139  0.00  0.00    -0.004 A 
ENDROOT
TORSDOF 0
ENDMDL
