MODEL 1
REMARK minimizedAffinity -3.0333178
REMARK minimizedRMSD -1
REMARK  0 active torsions:
REMARK  status: ('A' for Active; 'I' for Inactive)
ROOT
ATOM      1  C   UNL d   1      -2.044   2.205   1.707  0.00  0.00     0.172 C 
ATOM      2  N   UNL d   1      -1.250   1.384   0.823  0.00  0.00    -0.070 N 
ATOM      3  C1  UNL d   1      -0.854   0.096   1.069  0.00  0.00    -0.004 A 
ATOM      4  C2  UNL d   1      -0.117  -0.333  -0.013  0.00  0.00    -0.047 A 
ATOM      5  C3  UNL d   1      -0.068   0.733  -0.942  0.00  0.00    -0.047 A 
ATOM      6  C4  UNL d   1      -0.777   1.784  -0.399  0.00  0.00    -0.004 A 
ENDROOT
TORSDOF 0
ENDMDL
