MODEL 1
REMARK minimizedAffinity -2.18655491
REMARK minimizedRMSD -1
REMARK  0 active torsions:
REMARK  status: ('A' for Active; 'I' for Inactive)
ROOT
ATOM      1  C   UNL d   1      -0.440  -0.397   2.041  0.00  0.00     0.172 C 
ATOM      2  N   UNL d   1      -0.209   0.205   0.749  0.00  0.00    -0.070 N 
ATOM      3  C1  UNL d   1      -0.936   1.230   0.204  0.00  0.00    -0.004 A 
ATOM      4  C2  UNL d   1      -0.402   1.515  -1.033  0.00  0.00    -0.047 A 
ATOM      5  C3  UNL d   1       0.684   0.631  -1.240  0.00  0.00    -0.047 A 
ATOM      6  C4  UNL d   1       0.781  -0.169  -0.121  0.00  0.00    -0.004 A 
ENDROOT
TORSDOF 0
ENDMDL
