MODEL 1
REMARK minimizedAffinity -2.79862046
REMARK minimizedRMSD -1
REMARK  0 active torsions:
REMARK  status: ('A' for Active; 'I' for Inactive)
ROOT
ATOM      1  C   UNL d   1       0.156  -0.727  -0.712  0.00  0.00     0.172 C 
ATOM      2  N   UNL d   1      -0.533   0.082   0.266  0.00  0.00    -0.070 N 
ATOM      3  C1  UNL d   1      -1.420   1.088  -0.012  0.00  0.00    -0.004 A 
ATOM      4  C2  UNL d   1      -1.856   1.610   1.186  0.00  0.00    -0.047 A 
ATOM      5  C3  UNL d   1      -1.207   0.895   2.221  0.00  0.00    -0.047 A 
ATOM      6  C4  UNL d   1      -0.394  -0.045   1.623  0.00  0.00    -0.004 A 
ENDROOT
TORSDOF 0
ENDMDL
