MODEL 1
REMARK minimizedAffinity -2.82492518
REMARK minimizedRMSD -1
REMARK  0 active torsions:
REMARK  status: ('A' for Active; 'I' for Inactive)
ROOT
ATOM      1  C   UNL d   1       0.021   2.494  -1.204  0.00  0.00     0.172 C 
ATOM      2  N   UNL d   1       0.009   1.163  -0.643  0.00  0.00    -0.070 N 
ATOM      3  C1  UNL d   1      -0.510   0.815   0.576  0.00  0.00    -0.004 A 
ATOM      4  C2  UNL d   1      -0.326  -0.541   0.741  0.00  0.00    -0.047 A 
ATOM      5  C3  UNL d   1       0.326  -1.024  -0.418  0.00  0.00    -0.047 A 
ATOM      6  C4  UNL d   1       0.522   0.052  -1.258  0.00  0.00    -0.004 A 
ENDROOT
TORSDOF 0
ENDMDL
