MODEL 1
REMARK minimizedAffinity -3.49703813
REMARK minimizedRMSD -1
REMARK  0 active torsions:
REMARK  status: ('A' for Active; 'I' for Inactive)
ROOT
ATOM      1  C   UNL d   1       0.732  -0.436  -0.572  0.00  0.00     0.172 C 
ATOM      2  N   UNL d   1      -0.135   0.240   0.364  0.00  0.00    -0.070 N 
ATOM      3  C1  UNL d   1      -0.104   0.100   1.726  0.00  0.00    -0.004 A 
ATOM      4  C2  UNL d   1      -1.085   0.910   2.257  0.00  0.00    -0.047 A 
ATOM      5  C3  UNL d   1      -1.729   1.558   1.176  0.00  0.00    -0.047 A 
ATOM      6  C4  UNL d   1      -1.121   1.125   0.016  0.00  0.00    -0.004 A 
ENDROOT
TORSDOF 0
ENDMDL
