MODEL 1
REMARK minimizedAffinity -3.39498854
REMARK minimizedRMSD -1
REMARK  0 active torsions:
REMARK  status: ('A' for Active; 'I' for Inactive)
ROOT
ATOM      1  C   UNL d   1       0.379  -0.183  -0.489  0.00  0.00     0.172 C 
ATOM      2  N   UNL d   1      -0.522   0.368   0.495  0.00  0.00    -0.070 N 
ATOM      3  C1  UNL d   1      -1.043   1.634   0.480  0.00  0.00    -0.004 A 
ATOM      4  C2  UNL d   1      -1.854   1.771   1.586  0.00  0.00    -0.047 A 
ATOM      5  C3  UNL d   1      -1.819   0.544   2.291  0.00  0.00    -0.047 A 
ATOM      6  C4  UNL d   1      -0.987  -0.306   1.593  0.00  0.00    -0.004 A 
ENDROOT
TORSDOF 0
ENDMDL
