MODEL 1
REMARK minimizedAffinity -4.12992382
REMARK minimizedRMSD -1
REMARK  0 active torsions:
REMARK  status: ('A' for Active; 'I' for Inactive)
ROOT
ATOM      1  C   UNL d   1       0.445  -0.670  -0.118  0.00  0.00     0.172 C 
ATOM      2  N   UNL d   1      -0.481   0.261   0.484  0.00  0.00    -0.070 N 
ATOM      3  C1  UNL d   1      -0.969   1.396  -0.107  0.00  0.00    -0.004 A 
ATOM      4  C2  UNL d   1      -1.819   2.006   0.790  0.00  0.00    -0.047 A 
ATOM      5  C3  UNL d   1      -1.841   1.212   1.961  0.00  0.00    -0.047 A 
ATOM      6  C4  UNL d   1      -1.004   0.138   1.744  0.00  0.00    -0.004 A 
ENDROOT
TORSDOF 0
ENDMDL
