MODEL 1
REMARK minimizedAffinity -3.45957994
REMARK minimizedRMSD -1
REMARK  1 active torsions:
REMARK  status: ('A' for Active; 'I' for Inactive)
REMARK    1  A    between atoms: C1_2  and  C2_3 
ROOT
ATOM      1  C2  UNL d   1       1.261  -1.374   0.838  0.00  0.00    -0.073 A 
ATOM      2  C3  UNL d   1       1.494  -0.439  -0.177  0.00  0.00    -0.002 A 
ATOM      3  C4  UNL d   1       0.601   0.613  -0.384  0.00  0.00     0.004 A 
ATOM      4  C5  UNL d   1      -0.528   0.746   0.425  0.00  0.00    -0.004 A 
ATOM      5  C6  UNL d   1      -0.771  -0.172   1.452  0.00  0.00    -0.075 A 
ATOM      6  C7  UNL d   1      -1.982  -0.045   2.330  0.00  0.00     0.076 C 
ATOM      7  C8  UNL d   1       0.129  -1.228   1.652  0.00  0.00     0.001 A 
ENDROOT
BRANCH   1   8
ATOM      8  C1  UNL d   1       2.226  -2.509   1.069  0.00  0.00     0.053 C 
ATOM      9  C   UNL d   1       1.600  -3.633   1.879  0.00  0.00     0.018 C 
ENDBRANCH   1   8
TORSDOF 1
ENDMDL
