MODEL 1
REMARK minimizedAffinity -5.25914907
REMARK minimizedRMSD -1
REMARK  1 active torsions:
REMARK  status: ('A' for Active; 'I' for Inactive)
REMARK    1  A    between atoms: C1_2  and  C2_3 
ROOT
ATOM      1  C2  UNL d   1      -0.036   0.403  -0.129  0.00  0.00    -0.073 A 
ATOM      2  C3  UNL d   1       1.139   0.399  -0.889  0.00  0.00    -0.002 A 
ATOM      3  C4  UNL d   1       2.168  -0.496  -0.592  0.00  0.00     0.004 A 
ATOM      4  C5  UNL d   1       2.030  -1.399   0.462  0.00  0.00    -0.004 A 
ATOM      5  C6  UNL d   1       0.859  -1.418   1.226  0.00  0.00    -0.075 A 
ATOM      6  C7  UNL d   1       0.696  -2.382   2.364  0.00  0.00     0.076 C 
ATOM      7  C8  UNL d   1      -0.169  -0.515   0.923  0.00  0.00     0.001 A 
ENDROOT
BRANCH   1   8
ATOM      8  C1  UNL d   1      -1.153   1.362  -0.451  0.00  0.00     0.053 C 
ATOM      9  C   UNL d   1      -1.727   1.124  -1.838  0.00  0.00     0.018 C 
ENDBRANCH   1   8
TORSDOF 1
ENDMDL
