MODEL 1
REMARK minimizedAffinity -5.97952366
REMARK minimizedRMSD -1
REMARK  1 active torsions:
REMARK  status: ('A' for Active; 'I' for Inactive)
REMARK    1  A    between atoms: C1_2  and  C2_3 
ROOT
ATOM      1  C2  UNL d   1       0.657  -1.380   0.596  0.00  0.00    -0.073 A 
ATOM      2  C3  UNL d   1       1.087  -0.629  -0.504  0.00  0.00    -0.002 A 
ATOM      3  C4  UNL d   1       0.409   0.535  -0.871  0.00  0.00     0.004 A 
ATOM      4  C5  UNL d   1      -0.698   0.963  -0.138  0.00  0.00    -0.004 A 
ATOM      5  C6  UNL d   1      -1.135   0.232   0.971  0.00  0.00    -0.075 A 
ATOM      6  C7  UNL d   1      -2.326   0.678   1.768  0.00  0.00     0.076 C 
ATOM      7  C8  UNL d   1      -0.451  -0.937   1.331  0.00  0.00     0.001 A 
ENDROOT
BRANCH   1   8
ATOM      8  C1  UNL d   1       1.390  -2.634   0.999  0.00  0.00     0.053 C 
ATOM      9  C   UNL d   1       1.000  -3.097   2.394  0.00  0.00     0.018 C 
ENDBRANCH   1   8
TORSDOF 1
ENDMDL
