MODEL 1
REMARK minimizedAffinity -5.29252768
REMARK minimizedRMSD -1
REMARK  1 active torsions:
REMARK  status: ('A' for Active; 'I' for Inactive)
REMARK    1  A    between atoms: C1_2  and  C2_3 
ROOT
ATOM      1  C2  UNL d   1       0.266  -0.567   0.037  0.00  0.00    -0.073 A 
ATOM      2  C3  UNL d   1       1.375  -1.420   0.057  0.00  0.00    -0.002 A 
ATOM      3  C4  UNL d   1       1.597  -2.262   1.148  0.00  0.00     0.004 A 
ATOM      4  C5  UNL d   1       0.710  -2.265   2.224  0.00  0.00    -0.004 A 
ATOM      5  C6  UNL d   1      -0.411  -1.428   2.217  0.00  0.00    -0.075 A 
ATOM      6  C7  UNL d   1      -1.373  -1.417   3.368  0.00  0.00     0.076 C 
ATOM      7  C8  UNL d   1      -0.625  -0.583   1.119  0.00  0.00     0.001 A 
ENDROOT
BRANCH   1   8
ATOM      8  C1  UNL d   1       0.019   0.340  -1.142  0.00  0.00     0.053 C 
ATOM      9  C   UNL d   1      -1.292   1.099  -1.012  0.00  0.00     0.018 C 
ENDBRANCH   1   8
TORSDOF 1
ENDMDL
