MODEL 1
REMARK minimizedAffinity -3.57015038
REMARK minimizedRMSD -1
REMARK  1 active torsions:
REMARK  status: ('A' for Active; 'I' for Inactive)
REMARK    1  A    between atoms: C1_2  and  C2_3 
ROOT
ATOM      1  C2  UNL d   1      -0.100  -1.176   0.120  0.00  0.00    -0.073 A 
ATOM      2  C3  UNL d   1      -0.822  -1.078   1.315  0.00  0.00    -0.002 A 
ATOM      3  C4  UNL d   1      -1.603   0.048   1.576  0.00  0.00     0.004 A 
ATOM      4  C5  UNL d   1      -1.677   1.083   0.643  0.00  0.00    -0.004 A 
ATOM      5  C6  UNL d   1      -0.973   0.997  -0.562  0.00  0.00    -0.075 A 
ATOM      6  C7  UNL d   1      -1.040   2.102  -1.575  0.00  0.00     0.076 C 
ATOM      7  C8  UNL d   1      -0.188  -0.136  -0.816  0.00  0.00     0.001 A 
ENDROOT
BRANCH   1   8
ATOM      8  C1  UNL d   1       0.740  -2.393  -0.169  0.00  0.00     0.053 C 
ATOM      9  C   UNL d   1       1.846  -2.579   0.858  0.00  0.00     0.018 C 
ENDBRANCH   1   8
TORSDOF 1
ENDMDL
