MODEL 1
REMARK minimizedAffinity -2.129421
REMARK minimizedRMSD -1
REMARK  1 active torsions:
REMARK  status: ('A' for Active; 'I' for Inactive)
REMARK    1  A    between atoms: C1_2  and  C2_3 
ROOT
ATOM      1  C2  UNL d   1       0.278   0.344   0.094  0.00  0.00    -0.073 A 
ATOM      2  C3  UNL d   1       1.493   0.778  -0.447  0.00  0.00    -0.002 A 
ATOM      3  C4  UNL d   1       2.688   0.154  -0.085  0.00  0.00     0.004 A 
ATOM      4  C5  UNL d   1       2.679  -0.911   0.815  0.00  0.00    -0.004 A 
ATOM      5  C6  UNL d   1       1.473  -1.367   1.357  0.00  0.00    -0.075 A 
ATOM      6  C7  UNL d   1       1.447  -2.510   2.328  0.00  0.00     0.076 C 
ATOM      7  C8  UNL d   1       0.278  -0.734   0.990  0.00  0.00     0.001 A 
ENDROOT
BRANCH   1   8
ATOM      8  C1  UNL d   1      -1.016   1.010  -0.300  0.00  0.00     0.053 C 
ATOM      9  C   UNL d   1      -1.449   0.628  -1.707  0.00  0.00     0.018 C 
ENDBRANCH   1   8
TORSDOF 1
ENDMDL
