MODEL 1
REMARK minimizedAffinity -6.39122581
REMARK minimizedRMSD -1
REMARK  1 active torsions:
REMARK  status: ('A' for Active; 'I' for Inactive)
REMARK    1  A    between atoms: C1_2  and  C2_3 
ROOT
ATOM      1  C2  UNL d   1       1.033  -1.240   0.365  0.00  0.00    -0.073 A 
ATOM      2  C3  UNL d   1       2.015  -2.213   0.581  0.00  0.00    -0.002 A 
ATOM      3  C4  UNL d   1       1.903  -3.103   1.649  0.00  0.00     0.004 A 
ATOM      4  C5  UNL d   1       0.806  -3.035   2.507  0.00  0.00    -0.004 A 
ATOM      5  C6  UNL d   1      -0.192  -2.078   2.302  0.00  0.00    -0.075 A 
ATOM      6  C7  UNL d   1      -1.378  -1.990   3.218  0.00  0.00     0.076 C 
ATOM      7  C8  UNL d   1      -0.071  -1.185   1.228  0.00  0.00     0.001 A 
ENDROOT
BRANCH   1   8
ATOM      8  C1  UNL d   1       1.146  -0.280  -0.791  0.00  0.00     0.053 C 
ATOM      9  C   UNL d   1       0.058   0.782  -0.759  0.00  0.00     0.018 C 
ENDBRANCH   1   8
TORSDOF 1
ENDMDL
