MODEL 1
REMARK minimizedAffinity -3.79182816
REMARK minimizedRMSD -1
REMARK  1 active torsions:
REMARK  status: ('A' for Active; 'I' for Inactive)
REMARK    1  A    between atoms: C1_2  and  C2_3 
ROOT
ATOM      1  C2  UNL d   1       0.236  -0.948   0.533  0.00  0.00    -0.073 A 
ATOM      2  C3  UNL d   1      -0.674  -0.885   1.595  0.00  0.00    -0.002 A 
ATOM      3  C4  UNL d   1      -1.633   0.127   1.641  0.00  0.00     0.004 A 
ATOM      4  C5  UNL d   1      -1.698   1.080   0.625  0.00  0.00    -0.004 A 
ATOM      5  C6  UNL d   1      -0.805   1.027  -0.450  0.00  0.00    -0.075 A 
ATOM      6  C7  UNL d   1      -0.861   2.047  -1.550  0.00  0.00     0.076 C 
ATOM      7  C8  UNL d   1       0.157   0.010  -0.488  0.00  0.00     0.001 A 
ENDROOT
BRANCH   1   8
ATOM      8  C1  UNL d   1       1.270  -2.042   0.475  0.00  0.00     0.053 C 
ATOM      9  C   UNL d   1       1.514  -2.669   1.839  0.00  0.00     0.018 C 
ENDBRANCH   1   8
TORSDOF 1
ENDMDL
