MODEL 1
REMARK minimizedAffinity 1.07467771
REMARK minimizedRMSD -1
REMARK  1 active torsions:
REMARK  status: ('A' for Active; 'I' for Inactive)
REMARK    1  A    between atoms: C1_2  and  C2_3 
ROOT
ATOM      1  C2  UNL d   1      -1.412   1.563  -1.017  0.00  0.00    -0.073 A 
ATOM      2  C3  UNL d   1      -1.005   2.512  -1.962  0.00  0.00    -0.002 A 
ATOM      3  C4  UNL d   1      -1.923   3.042  -2.869  0.00  0.00     0.004 A 
ATOM      4  C5  UNL d   1      -3.257   2.636  -2.836  0.00  0.00    -0.004 A 
ATOM      5  C6  UNL d   1      -3.686   1.698  -1.892  0.00  0.00    -0.075 A 
ATOM      6  C7  UNL d   1      -5.117   1.249  -1.845  0.00  0.00     0.076 C 
ATOM      7  C8  UNL d   1      -2.757   1.168  -0.986  0.00  0.00     0.001 A 
ENDROOT
BRANCH   1   8
ATOM      8  C1  UNL d   1      -0.425   0.992  -0.031  0.00  0.00     0.053 C 
ATOM      9  C   UNL d   1       0.129  -0.347  -0.490  0.00  0.00     0.018 C 
ENDBRANCH   1   8
TORSDOF 1
ENDMDL
