MODEL 1
REMARK minimizedAffinity -3.27407217
REMARK minimizedRMSD -1
REMARK  1 active torsions:
REMARK  status: ('A' for Active; 'I' for Inactive)
REMARK    1  A    between atoms: C1_2  and  C2_3 
ROOT
ATOM      1  C2  UNL d   1       0.345  -0.347  -1.137  0.00  0.00    -0.073 A 
ATOM      2  C3  UNL d   1       0.426   0.384   0.053  0.00  0.00    -0.002 A 
ATOM      3  C4  UNL d   1      -0.479   1.415   0.309  0.00  0.00     0.004 A 
ATOM      4  C5  UNL d   1      -1.476   1.720  -0.617  0.00  0.00    -0.004 A 
ATOM      5  C6  UNL d   1      -1.580   0.993  -1.807  0.00  0.00    -0.075 A 
ATOM      6  C7  UNL d   1      -2.646   1.310  -2.815  0.00  0.00     0.076 C 
ATOM      7  C8  UNL d   1      -0.666  -0.039  -2.058  0.00  0.00     0.001 A 
ENDROOT
BRANCH   1   8
ATOM      8  C1  UNL d   1       1.316  -1.465  -1.415  0.00  0.00     0.053 C 
ATOM      9  C   UNL d   1       2.386  -1.573  -0.340  0.00  0.00     0.018 C 
ENDBRANCH   1   8
TORSDOF 1
ENDMDL
