MODEL 1
REMARK minimizedAffinity 23.7257729
REMARK minimizedRMSD -1
REMARK  0 active torsions:
REMARK  status: ('A' for Active; 'I' for Inactive)
ROOT
ATOM      1  C   UNL d   1       2.766   2.073  -2.124  0.00  0.00    -0.002 A 
ATOM      2  C1  UNL d   1       1.856   2.985  -1.608  0.00  0.00     0.010 A 
ATOM      3  C2  UNL d   1       2.287   4.219  -1.119  0.00  0.00     0.041 A 
ATOM      4  C3  UNL d   1       3.661   4.527  -1.161  0.00  0.00    -0.075 A 
ATOM      5  S   UNL d   1       4.419   5.978  -0.620  0.00  0.00     0.015 SA
ATOM      6  C4  UNL d   1       5.968   5.422  -1.063  0.00  0.00     0.022 A 
ATOM      7  C5  UNL d   1       5.927   4.162  -1.611  0.00  0.00     0.026 A 
ATOM      8  C6  UNL d   1       4.597   3.625  -1.677  0.00  0.00    -0.082 A 
ATOM      9  C7  UNL d   1       4.128   2.381  -2.164  0.00  0.00     0.045 A 
ENDROOT
TORSDOF 0
ENDMDL
