MODEL 1
REMARK minimizedAffinity 10.3972473
REMARK minimizedRMSD -1
REMARK  0 active torsions:
REMARK  status: ('A' for Active; 'I' for Inactive)
ROOT
ATOM      1  C   UNL d   1       1.524   0.586   0.266  0.00  0.00    -0.002 A 
ATOM      2  C1  UNL d   1       0.513   1.530   0.146  0.00  0.00     0.010 A 
ATOM      3  C2  UNL d   1       0.277   2.166  -1.074  0.00  0.00     0.041 A 
ATOM      4  C3  UNL d   1       1.080   1.835  -2.182  0.00  0.00    -0.075 A 
ATOM      5  S   UNL d   1       0.973   2.485  -3.775  0.00  0.00     0.015 SA
ATOM      6  C4  UNL d   1       2.266   1.526  -4.335  0.00  0.00     0.022 A 
ATOM      7  C5  UNL d   1       2.779   0.723  -3.343  0.00  0.00     0.026 A 
ATOM      8  C6  UNL d   1       2.103   0.888  -2.087  0.00  0.00    -0.082 A 
ATOM      9  C7  UNL d   1       2.319   0.260  -0.836  0.00  0.00     0.045 A 
ENDROOT
TORSDOF 0
ENDMDL
