MODEL 1
REMARK minimizedAffinity 8.57291317
REMARK minimizedRMSD -1
REMARK  0 active torsions:
REMARK  status: ('A' for Active; 'I' for Inactive)
ROOT
ATOM      1  C   UNL d   1      -1.916   2.985  -5.269  0.00  0.00    -0.002 A 
ATOM      2  C1  UNL d   1      -1.122   3.857  -6.000  0.00  0.00     0.010 A 
ATOM      3  C2  UNL d   1       0.270   3.748  -5.966  0.00  0.00     0.041 A 
ATOM      4  C3  UNL d   1       0.855   2.737  -5.179  0.00  0.00    -0.075 A 
ATOM      5  S   UNL d   1       2.537   2.413  -4.985  0.00  0.00     0.015 SA
ATOM      6  C4  UNL d   1       2.241   1.110  -3.928  0.00  0.00     0.022 A 
ATOM      7  C5  UNL d   1       0.897   0.912  -3.716  0.00  0.00     0.026 A 
ATOM      8  C6  UNL d   1       0.076   1.846  -4.434  0.00  0.00    -0.082 A 
ATOM      9  C7  UNL d   1      -1.332   1.984  -4.489  0.00  0.00     0.045 A 
ENDROOT
TORSDOF 0
ENDMDL
