MODEL 1
REMARK minimizedAffinity 22.0027752
REMARK minimizedRMSD -1
REMARK  0 active torsions:
REMARK  status: ('A' for Active; 'I' for Inactive)
ROOT
ATOM      1  C   UNL d   1      -4.122  -5.982  -1.412  0.00  0.00    -0.002 A 
ATOM      2  C1  UNL d   1      -4.907  -6.000  -0.267  0.00  0.00     0.010 A 
ATOM      3  C2  UNL d   1      -4.769  -5.005   0.703  0.00  0.00     0.041 A 
ATOM      4  C3  UNL d   1      -3.822  -3.982   0.501  0.00  0.00    -0.075 A 
ATOM      5  S   UNL d   1      -3.480  -2.659   1.553  0.00  0.00     0.015 SA
ATOM      6  C4  UNL d   1      -2.286  -2.039   0.507  0.00  0.00     0.022 A 
ATOM      7  C5  UNL d   1      -2.139  -2.810  -0.622  0.00  0.00     0.026 A 
ATOM      8  C6  UNL d   1      -3.022  -3.942  -0.644  0.00  0.00    -0.082 A 
ATOM      9  C7  UNL d   1      -3.184  -4.965  -1.609  0.00  0.00     0.045 A 
ENDROOT
TORSDOF 0
ENDMDL
