MODEL 1
REMARK minimizedAffinity 17.5084763
REMARK minimizedRMSD -1
REMARK  0 active torsions:
REMARK  status: ('A' for Active; 'I' for Inactive)
ROOT
ATOM      1  C   UNL d   1       5.297   3.057  -6.000  0.00  0.00    -0.002 A 
ATOM      2  C1  UNL d   1       5.619   4.407  -6.000  0.00  0.00     0.010 A 
ATOM      3  C2  UNL d   1       4.614   5.377  -5.999  0.00  0.00     0.041 A 
ATOM      4  C3  UNL d   1       3.268   4.964  -5.995  0.00  0.00    -0.075 A 
ATOM      5  S   UNL d   1       1.870   5.973  -5.992  0.00  0.00     0.015 SA
ATOM      6  C4  UNL d   1       0.813   4.637  -5.989  0.00  0.00     0.022 A 
ATOM      7  C5  UNL d   1       1.492   3.441  -5.991  0.00  0.00     0.026 A 
ATOM      8  C6  UNL d   1       2.918   3.610  -5.994  0.00  0.00    -0.082 A 
ATOM      9  C7  UNL d   1       3.960   2.651  -5.996  0.00  0.00     0.045 A 
ENDROOT
TORSDOF 0
ENDMDL
