MODEL 1
REMARK minimizedAffinity 10.705327
REMARK minimizedRMSD -1
REMARK  0 active torsions:
REMARK  status: ('A' for Active; 'I' for Inactive)
ROOT
ATOM      1  C   UNL d   1      -1.135  -2.476   2.022  0.00  0.00    -0.002 A 
ATOM      2  C1  UNL d   1      -0.341  -3.542   2.422  0.00  0.00     0.010 A 
ATOM      3  C2  UNL d   1      -0.686  -4.305   3.538  0.00  0.00     0.041 A 
ATOM      4  C3  UNL d   1      -1.855  -3.978   4.252  0.00  0.00    -0.075 A 
ATOM      5  S   UNL d   1      -2.476  -4.774   5.650  0.00  0.00     0.015 SA
ATOM      6  C4  UNL d   1      -3.811  -3.719   5.749  0.00  0.00     0.022 A 
ATOM      7  C5  UNL d   1      -3.799  -2.776   4.749  0.00  0.00     0.026 A 
ATOM      8  C6  UNL d   1      -2.672  -2.911   3.869  0.00  0.00    -0.082 A 
ATOM      9  C7  UNL d   1      -2.294  -2.155   2.733  0.00  0.00     0.045 A 
ENDROOT
TORSDOF 0
ENDMDL
