MODEL 1
REMARK minimizedAffinity 19.096981
REMARK minimizedRMSD -1
REMARK  0 active torsions:
REMARK  status: ('A' for Active; 'I' for Inactive)
ROOT
ATOM      1  C   UNL d   1      -0.509   3.580  -5.954  0.00  0.00    -0.002 A 
ATOM      2  C1  UNL d   1      -0.383   4.962  -5.965  0.00  0.00     0.010 A 
ATOM      3  C2  UNL d   1      -1.516   5.778  -5.975  0.00  0.00     0.041 A 
ATOM      4  C3  UNL d   1      -2.790   5.176  -5.971  0.00  0.00    -0.075 A 
ATOM      5  S   UNL d   1      -4.317   5.976  -5.980  0.00  0.00     0.015 SA
ATOM      6  C4  UNL d   1      -5.172   4.502  -5.968  0.00  0.00     0.022 A 
ATOM      7  C5  UNL d   1      -4.329   3.416  -5.958  0.00  0.00     0.026 A 
ATOM      8  C6  UNL d   1      -2.942   3.787  -5.959  0.00  0.00    -0.082 A 
ATOM      9  C7  UNL d   1      -1.774   2.987  -5.950  0.00  0.00     0.045 A 
ENDROOT
TORSDOF 0
ENDMDL
