MODEL 1
REMARK minimizedAffinity 10.1603918
REMARK minimizedRMSD -1
REMARK  0 active torsions:
REMARK  status: ('A' for Active; 'I' for Inactive)
ROOT
ATOM      1  C   UNL d   1      -0.682  -2.638   2.554  0.00  0.00    -0.002 A 
ATOM      2  C1  UNL d   1       0.027  -3.756   2.969  0.00  0.00     0.010 A 
ATOM      3  C2  UNL d   1      -0.443  -4.545   4.021  0.00  0.00     0.041 A 
ATOM      4  C3  UNL d   1      -1.651  -4.189   4.652  0.00  0.00    -0.075 A 
ATOM      5  S   UNL d   1      -2.421  -5.007   5.960  0.00  0.00     0.015 SA
ATOM      6  C4  UNL d   1      -3.710  -3.893   5.997  0.00  0.00     0.022 A 
ATOM      7  C5  UNL d   1      -3.572  -2.913   5.042  0.00  0.00     0.026 A 
ATOM      8  C6  UNL d   1      -2.384  -3.068   4.251  0.00  0.00    -0.082 A 
ATOM      9  C7  UNL d   1      -1.880  -2.288   3.182  0.00  0.00     0.045 A 
ENDROOT
TORSDOF 0
ENDMDL
