MODEL 1
REMARK minimizedAffinity 1.50226748
REMARK minimizedRMSD -1
REMARK  0 active torsions:
REMARK  status: ('A' for Active; 'I' for Inactive)
ROOT
ATOM      1  C   UNL d   1       3.633   3.979  -2.655  0.00  0.00    -0.002 A 
ATOM      2  C1  UNL d   1       2.868   3.016  -2.011  0.00  0.00     0.010 A 
ATOM      3  C2  UNL d   1       1.608   2.666  -2.502  0.00  0.00     0.041 A 
ATOM      4  C3  UNL d   1       1.127   3.303  -3.662  0.00  0.00    -0.075 A 
ATOM      5  S   UNL d   1      -0.386   3.033  -4.445  0.00  0.00     0.015 SA
ATOM      6  C4  UNL d   1      -0.051   4.188  -5.653  0.00  0.00     0.022 A 
ATOM      7  C5  UNL d   1       1.180   4.775  -5.478  0.00  0.00     0.026 A 
ATOM      8  C6  UNL d   1       1.880   4.274  -4.329  0.00  0.00    -0.082 A 
ATOM      9  C7  UNL d   1       3.152   4.608  -3.806  0.00  0.00     0.045 A 
ENDROOT
TORSDOF 0
ENDMDL
