MODEL 1
REMARK minimizedAffinity 10.6048269
REMARK minimizedRMSD -1
REMARK  0 active torsions:
REMARK  status: ('A' for Active; 'I' for Inactive)
ROOT
ATOM      1  C   UNL d   1      -1.588   5.471  -5.988  0.00  0.00    -0.002 A 
ATOM      2  C1  UNL d   1      -0.291   5.965  -5.998  0.00  0.00     0.010 A 
ATOM      3  C2  UNL d   1       0.765   5.199  -5.500  0.00  0.00     0.041 A 
ATOM      4  C3  UNL d   1       0.492   3.915  -4.987  0.00  0.00    -0.075 A 
ATOM      5  S   UNL d   1       1.626   2.798  -4.325  0.00  0.00     0.015 SA
ATOM      6  C4  UNL d   1       0.416   1.639  -4.014  0.00  0.00     0.022 A 
ATOM      7  C5  UNL d   1      -0.829   2.077  -4.399  0.00  0.00     0.026 A 
ATOM      8  C6  UNL d   1      -0.805   3.396  -4.967  0.00  0.00    -0.082 A 
ATOM      9  C7  UNL d   1      -1.854   4.197  -5.479  0.00  0.00     0.045 A 
ENDROOT
TORSDOF 0
ENDMDL
