MODEL 1
REMARK minimizedAffinity 2.43082094
REMARK minimizedRMSD -1
REMARK  0 active torsions:
REMARK  status: ('A' for Active; 'I' for Inactive)
ROOT
ATOM      1  C   UNL d   1      -2.770   4.649  -5.999  0.00  0.00    -0.002 A 
ATOM      2  C1  UNL d   1      -2.049   5.835  -6.000  0.00  0.00     0.010 A 
ATOM      3  C2  UNL d   1      -0.653   5.817  -5.999  0.00  0.00     0.041 A 
ATOM      4  C3  UNL d   1       0.013   4.575  -6.000  0.00  0.00    -0.075 A 
ATOM      5  S   UNL d   1       1.716   4.309  -6.000  0.00  0.00     0.015 SA
ATOM      6  C4  UNL d   1       1.527   2.615  -5.999  0.00  0.00     0.022 A 
ATOM      7  C5  UNL d   1       0.203   2.244  -5.999  0.00  0.00     0.026 A 
ATOM      8  C6  UNL d   1      -0.692   3.368  -5.999  0.00  0.00    -0.082 A 
ATOM      9  C7  UNL d   1      -2.106   3.419  -5.999  0.00  0.00     0.045 A 
ENDROOT
TORSDOF 0
ENDMDL
