MODEL 1
REMARK minimizedAffinity 1.4696449
REMARK minimizedRMSD -1
REMARK  0 active torsions:
REMARK  status: ('A' for Active; 'I' for Inactive)
ROOT
ATOM      1  C   UNL d   1      -5.544   4.772  -5.372  0.00  0.00    -0.002 A 
ATOM      2  C1  UNL d   1      -4.933   5.949  -5.782  0.00  0.00     0.010 A 
ATOM      3  C2  UNL d   1      -3.555   5.996  -5.998  0.00  0.00     0.041 A 
ATOM      4  C3  UNL d   1      -2.793   4.828  -5.795  0.00  0.00    -0.075 A 
ATOM      5  S   UNL d   1      -1.090   4.650  -6.000  0.00  0.00     0.015 SA
ATOM      6  C4  UNL d   1      -1.133   3.007  -5.548  0.00  0.00     0.022 A 
ATOM      7  C5  UNL d   1      -2.408   2.588  -5.246  0.00  0.00     0.026 A 
ATOM      8  C6  UNL d   1      -3.385   3.631  -5.384  0.00  0.00    -0.082 A 
ATOM      9  C7  UNL d   1      -4.785   3.616  -5.172  0.00  0.00     0.045 A 
ENDROOT
TORSDOF 0
ENDMDL
