MODEL 1
REMARK minimizedAffinity 1.67885733
REMARK minimizedRMSD -1
REMARK  1 active torsions:
REMARK  status: ('A' for Active; 'I' for Inactive)
REMARK    1  A    between atoms: C1_2  and  C2_3 
ROOT
ATOM      1  C2  UNL d   1       1.821  -1.918  -3.825  0.00  0.00    -0.073 A 
ATOM      2  C3  UNL d   1       2.824  -1.170  -4.452  0.00  0.00    -0.002 A 
ATOM      3  C4  UNL d   1       2.516  -0.346  -5.536  0.00  0.00     0.004 A 
ATOM      4  C5  UNL d   1       1.203  -0.257  -5.999  0.00  0.00    -0.004 A 
ATOM      5  C6  UNL d   1       0.185  -0.988  -5.378  0.00  0.00    -0.075 A 
ATOM      6  C7  UNL d   1      -1.231  -0.904  -5.865  0.00  0.00     0.076 C 
ATOM      7  C8  UNL d   1       0.503  -1.814  -4.292  0.00  0.00     0.001 A 
ENDROOT
BRANCH   1   8
ATOM      8  C1  UNL d   1       2.148  -2.804  -2.651  0.00  0.00     0.053 C 
ATOM      9  C   UNL d   1       2.547  -1.999  -1.424  0.00  0.00     0.018 C 
ENDBRANCH   1   8
TORSDOF 1
ENDMDL
