MODEL 1
REMARK minimizedAffinity 4.83252287
REMARK minimizedRMSD -1
REMARK  1 active torsions:
REMARK  status: ('A' for Active; 'I' for Inactive)
REMARK    1  A    between atoms: C1_2  and  C2_3 
ROOT
ATOM      1  C2  UNL d   1       2.466  -1.045  -3.680  0.00  0.00    -0.073 A 
ATOM      2  C3  UNL d   1       3.126  -0.586  -4.825  0.00  0.00    -0.002 A 
ATOM      3  C4  UNL d   1       2.404  -0.281  -5.980  0.00  0.00     0.004 A 
ATOM      4  C5  UNL d   1       1.017  -0.425  -6.000  0.00  0.00    -0.004 A 
ATOM      5  C6  UNL d   1       0.338  -0.872  -4.861  0.00  0.00    -0.075 A 
ATOM      6  C7  UNL d   1      -1.154  -1.034  -4.867  0.00  0.00     0.076 C 
ATOM      7  C8  UNL d   1       1.070  -1.179  -3.706  0.00  0.00     0.001 A 
ENDROOT
BRANCH   1   8
ATOM      8  C1  UNL d   1       3.240  -1.370  -2.428  0.00  0.00     0.053 C 
ATOM      9  C   UNL d   1       2.403  -2.149  -1.426  0.00  0.00     0.018 C 
ENDBRANCH   1   8
TORSDOF 1
ENDMDL
