MODEL 1
REMARK minimizedAffinity -3.06178784
REMARK minimizedRMSD -1
REMARK  1 active torsions:
REMARK  status: ('A' for Active; 'I' for Inactive)
REMARK    1  A    between atoms: C1_2  and  C2_3 
ROOT
ATOM      1  C2  UNL d   1      -0.503  -0.225   1.764  0.00  0.00    -0.073 A 
ATOM      2  C3  UNL d   1      -1.396  -1.284   1.961  0.00  0.00    -0.002 A 
ATOM      3  C4  UNL d   1      -1.054  -2.348   2.797  0.00  0.00     0.004 A 
ATOM      4  C5  UNL d   1       0.179  -2.361   3.448  0.00  0.00    -0.004 A 
ATOM      5  C6  UNL d   1       1.080  -1.306   3.273  0.00  0.00    -0.075 A 
ATOM      6  C7  UNL d   1       2.412  -1.305   3.965  0.00  0.00     0.076 C 
ATOM      7  C8  UNL d   1       0.731  -0.242   2.431  0.00  0.00     0.001 A 
ENDROOT
BRANCH   1   8
ATOM      8  C1  UNL d   1      -0.870   0.930   0.868  0.00  0.00     0.053 C 
ATOM      9  C   UNL d   1      -2.148   0.662   0.088  0.00  0.00     0.018 C 
ENDBRANCH   1   8
TORSDOF 1
ENDMDL
