MODEL 1
REMARK minimizedAffinity 4.76009083
REMARK minimizedRMSD -1
REMARK  1 active torsions:
REMARK  status: ('A' for Active; 'I' for Inactive)
REMARK    1  A    between atoms: C1_2  and  C2_3 
ROOT
ATOM      1  C2  UNL d   1      -0.128  -2.075   2.941  0.00  0.00    -0.073 A 
ATOM      2  C3  UNL d   1       0.720  -1.639   1.916  0.00  0.00    -0.002 A 
ATOM      3  C4  UNL d   1       1.996  -1.159   2.213  0.00  0.00     0.004 A 
ATOM      4  C5  UNL d   1       2.440  -1.116   3.535  0.00  0.00    -0.004 A 
ATOM      5  C6  UNL d   1       1.612  -1.559   4.572  0.00  0.00    -0.075 A 
ATOM      6  C7  UNL d   1       2.073  -1.517   5.999  0.00  0.00     0.076 C 
ATOM      7  C8  UNL d   1       0.331  -2.037   4.265  0.00  0.00     0.001 A 
ENDROOT
BRANCH   1   8
ATOM      8  C1  UNL d   1      -1.504  -2.600   2.624  0.00  0.00     0.053 C 
ATOM      9  C   UNL d   1      -2.465  -1.485   2.241  0.00  0.00     0.018 C 
ENDBRANCH   1   8
TORSDOF 1
ENDMDL
