MODEL 1
REMARK minimizedAffinity 11.3957825
REMARK minimizedRMSD -1
REMARK  1 active torsions:
REMARK  status: ('A' for Active; 'I' for Inactive)
REMARK    1  A    between atoms: C1_2  and  C2_3 
ROOT
ATOM      1  C2  UNL d   1      -0.314  -1.824   3.343  0.00  0.00    -0.073 A 
ATOM      2  C3  UNL d   1       0.556  -1.937   2.252  0.00  0.00    -0.002 A 
ATOM      3  C4  UNL d   1       1.892  -1.550   2.373  0.00  0.00     0.004 A 
ATOM      4  C5  UNL d   1       2.372  -1.054   3.584  0.00  0.00    -0.004 A 
ATOM      5  C6  UNL d   1       1.521  -0.944   4.689  0.00  0.00    -0.075 A 
ATOM      6  C7  UNL d   1       2.022  -0.409   5.998  0.00  0.00     0.076 C 
ATOM      7  C8  UNL d   1       0.181  -1.332   4.559  0.00  0.00     0.001 A 
ENDROOT
BRANCH   1   8
ATOM      8  C1  UNL d   1      -1.755  -2.247   3.220  0.00  0.00     0.053 C 
ATOM      9  C   UNL d   1      -2.623  -1.146   2.630  0.00  0.00     0.018 C 
ENDBRANCH   1   8
TORSDOF 1
ENDMDL
