MODEL 1
REMARK minimizedAffinity 8.87315083
REMARK minimizedRMSD -1
REMARK  1 active torsions:
REMARK  status: ('A' for Active; 'I' for Inactive)
REMARK    1  A    between atoms: C1_2  and  C2_3 
ROOT
ATOM      1  C2  UNL d   1       2.182   0.061  -5.800  0.00  0.00    -0.073 A 
ATOM      2  C3  UNL d   1       1.485   1.230  -5.474  0.00  0.00    -0.002 A 
ATOM      3  C4  UNL d   1       0.103   1.196  -5.284  0.00  0.00     0.004 A 
ATOM      4  C5  UNL d   1      -0.594  -0.005  -5.411  0.00  0.00    -0.004 A 
ATOM      5  C6  UNL d   1       0.087  -1.186  -5.725  0.00  0.00    -0.075 A 
ATOM      6  C7  UNL d   1      -0.649  -2.486  -5.868  0.00  0.00     0.076 C 
ATOM      7  C8  UNL d   1       1.474  -1.143  -5.917  0.00  0.00     0.001 A 
ENDROOT
BRANCH   1   8
ATOM      8  C1  UNL d   1       3.676   0.092  -6.000  0.00  0.00     0.053 C 
ATOM      9  C   UNL d   1       4.429  -0.131  -4.698  0.00  0.00     0.018 C 
ENDBRANCH   1   8
TORSDOF 1
ENDMDL
