MODEL 1
REMARK minimizedAffinity 10.7387571
REMARK minimizedRMSD -1
REMARK  1 active torsions:
REMARK  status: ('A' for Active; 'I' for Inactive)
REMARK    1  A    between atoms: C1_2  and  C2_3 
ROOT
ATOM      1  C2  UNL d   1       2.052  -0.744  -5.245  0.00  0.00    -0.073 A 
ATOM      2  C3  UNL d   1       2.083  -1.238  -3.936  0.00  0.00    -0.002 A 
ATOM      3  C4  UNL d   1       3.302  -1.478  -3.302  0.00  0.00     0.004 A 
ATOM      4  C5  UNL d   1       4.502  -1.222  -3.966  0.00  0.00    -0.004 A 
ATOM      5  C6  UNL d   1       4.492  -0.718  -5.270  0.00  0.00    -0.075 A 
ATOM      6  C7  UNL d   1       5.773  -0.439  -6.000  0.00  0.00     0.076 C 
ATOM      7  C8  UNL d   1       3.263  -0.481  -5.902  0.00  0.00     0.001 A 
ENDROOT
BRANCH   1   8
ATOM      8  C1  UNL d   1       0.738  -0.477  -5.932  0.00  0.00     0.053 C 
ATOM      9  C   UNL d   1      -0.417  -1.198  -5.254  0.00  0.00     0.018 C 
ENDBRANCH   1   8
TORSDOF 1
ENDMDL
