MODEL 1
REMARK minimizedAffinity 13.9191046
REMARK minimizedRMSD -1
REMARK  0 active torsions:
REMARK  status: ('A' for Active; 'I' for Inactive)
ROOT
ATOM      1  C2' OXE d   1      -0.971  -0.470   4.965  0.00  0.00     0.078 C 
ATOM      2  C1' OXE d   1      -1.662  -2.899   3.738  0.00  0.00     0.078 C 
ATOM      3  C1  OXE d   1      -0.629  -2.036   3.058  0.00  0.00    -0.078 A 
ATOM      4  C2  OXE d   1      -0.331  -0.828   3.641  0.00  0.00    -0.078 A 
ATOM      5  C3  OXE d   1       0.655  -0.018   3.084  0.00  0.00     0.003 A 
ATOM      6  C4  OXE d   1       1.235  -0.352   1.854  0.00  0.00    -0.002 A 
ATOM      7  C5  OXE d   1       0.916  -1.559   1.223  0.00  0.00    -0.002 A 
ATOM      8  C6  OXE d   1       0.020  -2.430   1.832  0.00  0.00     0.003 A 
ENDROOT
TORSDOF 0
ENDMDL
