MODEL 1
REMARK minimizedAffinity 14.937644
REMARK minimizedRMSD -1
REMARK  0 active torsions:
REMARK  status: ('A' for Active; 'I' for Inactive)
ROOT
ATOM      1  C2' OXE d   1      -1.156  -0.536   5.211  0.00  0.00     0.078 C 
ATOM      2  C1' OXE d   1      -1.797  -2.837   3.736  0.00  0.00     0.078 C 
ATOM      3  C1  OXE d   1      -0.688  -1.955   3.217  0.00  0.00    -0.078 A 
ATOM      4  C2  OXE d   1      -0.413  -0.806   3.920  0.00  0.00    -0.078 A 
ATOM      5  C3  OXE d   1       0.636   0.015   3.516  0.00  0.00     0.003 A 
ATOM      6  C4  OXE d   1       1.311  -0.237   2.316  0.00  0.00    -0.002 A 
ATOM      7  C5  OXE d   1       1.020  -1.380   1.564  0.00  0.00    -0.002 A 
ATOM      8  C6  OXE d   1       0.054  -2.270   2.022  0.00  0.00     0.003 A 
ENDROOT
TORSDOF 0
ENDMDL
