MODEL 1
REMARK minimizedAffinity 8.18772507
REMARK minimizedRMSD -1
REMARK  0 active torsions:
REMARK  status: ('A' for Active; 'I' for Inactive)
ROOT
ATOM      1  C2' OXE d   1       2.622  -5.963  -5.841  0.00  0.00     0.078 C 
ATOM      2  C1' OXE d   1      -0.182  -5.988  -5.984  0.00  0.00     0.078 C 
ATOM      3  C1  OXE d   1       0.453  -5.472  -4.718  0.00  0.00    -0.078 A 
ATOM      4  C2  OXE d   1       1.825  -5.507  -4.638  0.00  0.00    -0.078 A 
ATOM      5  C3  OXE d   1       2.464  -4.992  -3.514  0.00  0.00     0.003 A 
ATOM      6  C4  OXE d   1       1.719  -4.581  -2.401  0.00  0.00    -0.002 A 
ATOM      7  C5  OXE d   1       0.321  -4.574  -2.446  0.00  0.00    -0.002 A 
ATOM      8  C6  OXE d   1      -0.325  -4.976  -3.610  0.00  0.00     0.003 A 
ENDROOT
TORSDOF 0
ENDMDL
