MODEL 1
REMARK minimizedAffinity 11.7799053
REMARK minimizedRMSD -1
REMARK  0 active torsions:
REMARK  status: ('A' for Active; 'I' for Inactive)
ROOT
ATOM      1  C2' OXE d   1       1.144  -0.403   2.562  0.00  0.00     0.078 C 
ATOM      2  C1' OXE d   1       1.660   0.429   5.192  0.00  0.00     0.078 C 
ATOM      3  C1  OXE d   1       0.407  -0.372   4.941  0.00  0.00    -0.078 A 
ATOM      4  C2  OXE d   1       0.138  -0.735   3.643  0.00  0.00    -0.078 A 
ATOM      5  C3  OXE d   1      -0.976  -1.522   3.364  0.00  0.00     0.003 A 
ATOM      6  C4  OXE d   1      -1.906  -1.816   4.368  0.00  0.00    -0.002 A 
ATOM      7  C5  OXE d   1      -1.672  -1.422   5.690  0.00  0.00    -0.002 A 
ATOM      8  C6  OXE d   1      -0.501  -0.738   6.000  0.00  0.00     0.003 A 
ENDROOT
TORSDOF 0
ENDMDL
