MODEL 1
REMARK minimizedAffinity 13.2720232
REMARK minimizedRMSD -1
REMARK  0 active torsions:
REMARK  status: ('A' for Active; 'I' for Inactive)
ROOT
ATOM      1  C2' OXE d   1       4.541  -1.484   0.264  0.00  0.00     0.078 C 
ATOM      2  C1' OXE d   1       3.729   0.980   1.337  0.00  0.00     0.078 C 
ATOM      3  C1  OXE d   1       2.735  -0.154   1.347  0.00  0.00    -0.078 A 
ATOM      4  C2  OXE d   1       3.125  -1.342   0.777  0.00  0.00    -0.078 A 
ATOM      5  C3  OXE d   1       2.265  -2.437   0.809  0.00  0.00     0.003 A 
ATOM      6  C4  OXE d   1       0.953  -2.295   1.277  0.00  0.00    -0.002 A 
ATOM      7  C5  OXE d   1       0.522  -1.082   1.825  0.00  0.00    -0.002 A 
ATOM      8  C6  OXE d   1       1.412  -0.016   1.906  0.00  0.00     0.003 A 
ENDROOT
TORSDOF 0
ENDMDL
