MODEL 1
REMARK minimizedAffinity 12.4631195
REMARK minimizedRMSD -1
REMARK  0 active torsions:
REMARK  status: ('A' for Active; 'I' for Inactive)
ROOT
ATOM      1  C2' OXE d   1      -3.953   2.932  -1.799  0.00  0.00     0.078 C 
ATOM      2  C1' OXE d   1      -2.382   3.174  -4.113  0.00  0.00     0.078 C 
ATOM      3  C1  OXE d   1      -1.674   2.921  -2.806  0.00  0.00    -0.078 A 
ATOM      4  C2  OXE d   1      -2.447   2.851  -1.671  0.00  0.00    -0.078 A 
ATOM      5  C3  OXE d   1      -1.850   2.565  -0.447  0.00  0.00     0.003 A 
ATOM      6  C4  OXE d   1      -0.455   2.501  -0.336  0.00  0.00    -0.002 A 
ATOM      7  C5  OXE d   1       0.353   2.609  -1.473  0.00  0.00    -0.002 A 
ATOM      8  C6  OXE d   1      -0.242   2.777  -2.718  0.00  0.00     0.003 A 
ENDROOT
TORSDOF 0
ENDMDL
