MODEL 1
REMARK minimizedAffinity 15.1105642
REMARK minimizedRMSD -1
REMARK  0 active torsions:
REMARK  status: ('A' for Active; 'I' for Inactive)
ROOT
ATOM      1  C2' OXE d   1      -0.613   2.239  -0.940  0.00  0.00     0.078 C 
ATOM      2  C1' OXE d   1       1.987   2.865  -1.792  0.00  0.00     0.078 C 
ATOM      3  C1  OXE d   1       1.276   3.862  -0.912  0.00  0.00    -0.078 A 
ATOM      4  C2  OXE d   1      -0.014   3.569  -0.539  0.00  0.00    -0.078 A 
ATOM      5  C3  OXE d   1      -0.696   4.430   0.317  0.00  0.00     0.003 A 
ATOM      6  C4  OXE d   1      -0.138   5.663   0.675  0.00  0.00    -0.002 A 
ATOM      7  C5  OXE d   1       1.159   5.999   0.272  0.00  0.00    -0.002 A 
ATOM      8  C6  OXE d   1       1.894   5.093  -0.485  0.00  0.00     0.003 A 
ENDROOT
TORSDOF 0
ENDMDL
