MODEL 1
REMARK minimizedAffinity 13.3868208
REMARK minimizedRMSD -1
REMARK  0 active torsions:
REMARK  status: ('A' for Active; 'I' for Inactive)
ROOT
ATOM      1  C2' OXE d   1       0.221  -0.747   2.580  0.00  0.00     0.078 C 
ATOM      2  C1' OXE d   1      -0.788  -3.120   1.470  0.00  0.00     0.078 C 
ATOM      3  C1  OXE d   1       0.653  -2.771   1.194  0.00  0.00    -0.078 A 
ATOM      4  C2  OXE d   1       1.125  -1.585   1.703  0.00  0.00    -0.078 A 
ATOM      5  C3  OXE d   1       2.462  -1.241   1.524  0.00  0.00     0.003 A 
ATOM      6  C4  OXE d   1       3.289  -2.017   0.702  0.00  0.00    -0.002 A 
ATOM      7  C5  OXE d   1       2.817  -3.208   0.142  0.00  0.00    -0.002 A 
ATOM      8  C6  OXE d   1       1.517  -3.621   0.413  0.00  0.00     0.003 A 
ENDROOT
TORSDOF 0
ENDMDL
