MODEL 1
REMARK minimizedAffinity 2.48616815
REMARK minimizedRMSD -1
REMARK  0 active torsions:
REMARK  status: ('A' for Active; 'I' for Inactive)
ROOT
ATOM      1  C2' OXE d   1       1.467  -0.152   4.605  0.00  0.00     0.078 C 
ATOM      2  C1' OXE d   1       0.988  -1.546   2.216  0.00  0.00     0.078 C 
ATOM      3  C1  OXE d   1       0.065  -1.807   3.380  0.00  0.00    -0.078 A 
ATOM      4  C2  OXE d   1       0.334  -1.156   4.559  0.00  0.00    -0.078 A 
ATOM      5  C3  OXE d   1      -0.518  -1.319   5.647  0.00  0.00     0.003 A 
ATOM      6  C4  OXE d   1      -1.557  -2.256   5.599  0.00  0.00    -0.002 A 
ATOM      7  C5  OXE d   1      -1.825  -2.960   4.420  0.00  0.00    -0.002 A 
ATOM      8  C6  OXE d   1      -1.051  -2.716   3.291  0.00  0.00     0.003 A 
ENDROOT
TORSDOF 0
ENDMDL
