MODEL 1
REMARK minimizedAffinity 4.28726912
REMARK minimizedRMSD -1
REMARK  0 active torsions:
REMARK  status: ('A' for Active; 'I' for Inactive)
ROOT
ATOM      1  C2' OXE d   1      -3.786  -3.553   2.016  0.00  0.00     0.078 C 
ATOM      2  C1' OXE d   1      -5.140  -5.961   1.515  0.00  0.00     0.078 C 
ATOM      3  C1  OXE d   1      -5.230  -5.379   2.904  0.00  0.00    -0.078 A 
ATOM      4  C2  OXE d   1      -4.526  -4.225   3.152  0.00  0.00    -0.078 A 
ATOM      5  C3  OXE d   1      -4.619  -3.616   4.401  0.00  0.00     0.003 A 
ATOM      6  C4  OXE d   1      -5.298  -4.249   5.449  0.00  0.00    -0.002 A 
ATOM      7  C5  OXE d   1      -5.988  -5.446   5.228  0.00  0.00    -0.002 A 
ATOM      8  C6  OXE d   1      -6.000  -6.000   3.953  0.00  0.00     0.003 A 
ENDROOT
TORSDOF 0
ENDMDL
