MODEL 1
REMARK minimizedAffinity -4.44389343
REMARK minimizedRMSD -1
REMARK  0 active torsions:
REMARK  status: ('A' for Active; 'I' for Inactive)
ROOT
ATOM      1  C2' OXE d   1      -0.587  -0.841   3.143  0.00  0.00     0.078 C 
ATOM      2  C1' OXE d   1       2.057   0.103   3.130  0.00  0.00     0.078 C 
ATOM      3  C1  OXE d   1       1.757  -1.159   2.361  0.00  0.00    -0.078 A 
ATOM      4  C2  OXE d   1       0.470  -1.639   2.410  0.00  0.00    -0.078 A 
ATOM      5  C3  OXE d   1       0.127  -2.769   1.674  0.00  0.00     0.003 A 
ATOM      6  C4  OXE d   1       1.113  -3.507   1.007  0.00  0.00    -0.002 A 
ATOM      7  C5  OXE d   1       2.437  -3.057   0.976  0.00  0.00    -0.002 A 
ATOM      8  C6  OXE d   1       2.767  -1.865   1.611  0.00  0.00     0.003 A 
ENDROOT
TORSDOF 0
ENDMDL
