MODEL 1
REMARK minimizedAffinity 11.5170698
REMARK minimizedRMSD -1
REMARK  0 active torsions:
REMARK  status: ('A' for Active; 'I' for Inactive)
ROOT
ATOM      1  C2' OXE d   1       5.660  -1.868  -1.873  0.00  0.00     0.078 C 
ATOM      2  C1' OXE d   1       3.986  -0.271  -3.463  0.00  0.00     0.078 C 
ATOM      3  C1  OXE d   1       4.597  -1.497  -4.095  0.00  0.00    -0.078 A 
ATOM      4  C2  OXE d   1       5.452  -2.247  -3.323  0.00  0.00    -0.078 A 
ATOM      5  C3  OXE d   1       5.999  -3.417  -3.840  0.00  0.00     0.003 A 
ATOM      6  C4  OXE d   1       5.810  -3.755  -5.185  0.00  0.00    -0.002 A 
ATOM      7  C5  OXE d   1       4.974  -2.983  -6.000  0.00  0.00    -0.002 A 
ATOM      8  C6  OXE d   1       4.328  -1.878  -5.459  0.00  0.00     0.003 A 
ENDROOT
TORSDOF 0
ENDMDL
