MODEL 1
REMARK minimizedAffinity 17.4291534
REMARK minimizedRMSD -1
REMARK  0 active torsions:
REMARK  status: ('A' for Active; 'I' for Inactive)
ROOT
ATOM      1  C2' OXE d   1       0.906  -1.085   1.802  0.00  0.00     0.078 C 
ATOM      2  C1' OXE d   1       2.142   1.202   0.742  0.00  0.00     0.078 C 
ATOM      3  C1  OXE d   1       2.509  -0.135   0.149  0.00  0.00    -0.078 A 
ATOM      4  C2  OXE d   1       1.935  -1.253   0.705  0.00  0.00    -0.078 A 
ATOM      5  C3  OXE d   1       2.197  -2.506   0.160  0.00  0.00     0.003 A 
ATOM      6  C4  OXE d   1       3.158  -2.654  -0.848  0.00  0.00    -0.002 A 
ATOM      7  C5  OXE d   1       3.784  -1.532  -1.401  0.00  0.00    -0.002 A 
ATOM      8  C6  OXE d   1       3.440  -0.265  -0.944  0.00  0.00     0.003 A 
ENDROOT
TORSDOF 0
ENDMDL
