MODEL 1
REMARK minimizedAffinity 15.4953756
REMARK minimizedRMSD -1
REMARK  0 active torsions:
REMARK  status: ('A' for Active; 'I' for Inactive)
ROOT
ATOM      1  C2' OXE d   1       1.083   3.659  -0.693  0.00  0.00     0.078 C 
ATOM      2  C1' OXE d   1       0.214   5.993  -1.988  0.00  0.00     0.078 C 
ATOM      3  C1  OXE d   1      -0.382   4.680  -2.430  0.00  0.00    -0.078 A 
ATOM      4  C2  OXE d   1       0.083   3.538  -1.823  0.00  0.00    -0.078 A 
ATOM      5  C3  OXE d   1      -0.472   2.306  -2.156  0.00  0.00     0.003 A 
ATOM      6  C4  OXE d   1      -1.389   2.203  -3.209  0.00  0.00    -0.002 A 
ATOM      7  C5  OXE d   1      -1.846   3.349  -3.868  0.00  0.00    -0.002 A 
ATOM      8  C6  OXE d   1      -1.385   4.597  -3.462  0.00  0.00     0.003 A 
ENDROOT
TORSDOF 0
ENDMDL
