MODEL 1
REMARK minimizedAffinity 16.2705765
REMARK minimizedRMSD -1
REMARK  0 active torsions:
REMARK  status: ('A' for Active; 'I' for Inactive)
ROOT
ATOM      1  C2' OXE d   1      -3.895   2.820  -2.573  0.00  0.00     0.078 C 
ATOM      2  C1' OXE d   1      -1.116   3.176  -2.393  0.00  0.00     0.078 C 
ATOM      3  C1  OXE d   1      -1.799   3.606  -3.667  0.00  0.00    -0.078 A 
ATOM      4  C2  OXE d   1      -3.152   3.385  -3.765  0.00  0.00    -0.078 A 
ATOM      5  C3  OXE d   1      -3.840   3.812  -4.897  0.00  0.00     0.003 A 
ATOM      6  C4  OXE d   1      -3.144   4.324  -5.999  0.00  0.00    -0.002 A 
ATOM      7  C5  OXE d   1      -1.760   4.521  -5.935  0.00  0.00    -0.002 A 
ATOM      8  C6  OXE d   1      -1.081   4.207  -4.764  0.00  0.00     0.003 A 
ENDROOT
TORSDOF 0
ENDMDL
