MODEL 1
REMARK minimizedAffinity 16.7116165
REMARK minimizedRMSD -1
REMARK  0 active torsions:
REMARK  status: ('A' for Active; 'I' for Inactive)
ROOT
ATOM      1  C2' OXE d   1       2.952   0.157   2.707  0.00  0.00     0.078 C 
ATOM      2  C1' OXE d   1       3.229   2.377   1.011  0.00  0.00     0.078 C 
ATOM      3  C1  OXE d   1       3.488   1.010   0.429  0.00  0.00    -0.078 A 
ATOM      4  C2  OXE d   1       3.396  -0.067   1.277  0.00  0.00    -0.078 A 
ATOM      5  C3  OXE d   1       3.572  -1.354   0.779  0.00  0.00     0.003 A 
ATOM      6  C4  OXE d   1       3.992  -1.552  -0.542  0.00  0.00    -0.002 A 
ATOM      7  C5  OXE d   1       4.131  -0.466  -1.413  0.00  0.00    -0.002 A 
ATOM      8  C6  OXE d   1       3.842   0.815  -0.956  0.00  0.00     0.003 A 
ENDROOT
TORSDOF 0
ENDMDL
