MODEL 1
REMARK minimizedAffinity 10.9856825
REMARK minimizedRMSD -1
REMARK  0 active torsions:
REMARK  status: ('A' for Active; 'I' for Inactive)
ROOT
ATOM      1  C2' OXE d   1       1.411   1.764   0.374  0.00  0.00     0.078 C 
ATOM      2  C1' OXE d   1      -0.018   2.618  -1.886  0.00  0.00     0.078 C 
ATOM      3  C1  OXE d   1       0.495   3.673  -0.938  0.00  0.00    -0.078 A 
ATOM      4  C2  OXE d   1       1.153   3.244   0.189  0.00  0.00    -0.078 A 
ATOM      5  C3  OXE d   1       1.695   4.177   1.069  0.00  0.00     0.003 A 
ATOM      6  C4  OXE d   1       1.443   5.543   0.896  0.00  0.00    -0.002 A 
ATOM      7  C5  OXE d   1       0.741   6.000  -0.224  0.00  0.00    -0.002 A 
ATOM      8  C6  OXE d   1       0.298   5.083  -1.171  0.00  0.00     0.003 A 
ENDROOT
TORSDOF 0
ENDMDL
