MODEL 1
REMARK minimizedAffinity -4.18799353
REMARK minimizedRMSD -1
REMARK  1 active torsions:
REMARK  status: ('A' for Active; 'I' for Inactive)
REMARK    1  A    between atoms: C1_2  and  C2_3 
ROOT
ATOM      1  C2  UNL d   1       0.353   0.021  -1.241  0.00  0.00    -0.076 A 
ATOM      2  C3  UNL d   1      -0.979  -0.308  -0.933  0.00  0.00     0.004 A 
ATOM      3  C4  UNL d   1      -1.715  -1.160  -1.754  0.00  0.00    -0.003 A 
ATOM      4  C5  UNL d   1      -1.131  -1.698  -2.896  0.00  0.00     0.000 A 
ATOM      5  C6  UNL d   1       0.194  -1.397  -3.207  0.00  0.00     0.000 A 
ATOM      6  C7  UNL d   1       0.956  -0.552  -2.381  0.00  0.00    -0.073 A 
ATOM      7  C8  UNL d   1       2.379  -0.257  -2.767  0.00  0.00     0.078 C 
ENDROOT
BRANCH   1   8
ATOM      8  C1  UNL d   1       1.094   0.972  -0.328  0.00  0.00     0.053 C 
ATOM      9  C   UNL d   1       1.391   0.361   1.033  0.00  0.00     0.018 C 
ENDBRANCH   1   8
TORSDOF 1
ENDMDL
