MODEL 1
REMARK minimizedAffinity 2.06326962
REMARK minimizedRMSD -1
REMARK  1 active torsions:
REMARK  status: ('A' for Active; 'I' for Inactive)
REMARK    1  A    between atoms: C1_2  and  C2_3 
ROOT
ATOM      1  C2  UNL d   1      -0.124   0.428  -0.495  0.00  0.00    -0.076 A 
ATOM      2  C3  UNL d   1      -1.285   0.742   0.232  0.00  0.00     0.004 A 
ATOM      3  C4  UNL d   1      -2.542   0.328  -0.208  0.00  0.00    -0.003 A 
ATOM      4  C5  UNL d   1      -2.657  -0.408  -1.382  0.00  0.00     0.000 A 
ATOM      5  C6  UNL d   1      -1.514  -0.744  -2.107  0.00  0.00     0.000 A 
ATOM      6  C7  UNL d   1      -0.239  -0.348  -1.669  0.00  0.00    -0.073 A 
ATOM      7  C8  UNL d   1       0.959  -0.733  -2.493  0.00  0.00     0.078 C 
ENDROOT
BRANCH   1   8
ATOM      8  C1  UNL d   1       1.208   0.927   0.016  0.00  0.00     0.053 C 
ATOM      9  C   UNL d   1       1.556   0.362   1.385  0.00  0.00     0.018 C 
ENDBRANCH   1   8
TORSDOF 1
ENDMDL
