MODEL 1
REMARK minimizedAffinity -5.32228708
REMARK minimizedRMSD -1
REMARK  1 active torsions:
REMARK  status: ('A' for Active; 'I' for Inactive)
REMARK    1  A    between atoms: C1_2  and  C2_3 
ROOT
ATOM      1  C2  UNL d   1      -0.688  -0.274   0.796  0.00  0.00    -0.076 A 
ATOM      2  C3  UNL d   1       0.133   0.429  -0.103  0.00  0.00     0.004 A 
ATOM      3  C4  UNL d   1       1.375   0.921   0.294  0.00  0.00    -0.003 A 
ATOM      4  C5  UNL d   1       1.818   0.717   1.597  0.00  0.00     0.000 A 
ATOM      5  C6  UNL d   1       1.024   0.006   2.497  0.00  0.00     0.000 A 
ATOM      6  C7  UNL d   1      -0.224  -0.511   2.108  0.00  0.00    -0.073 A 
ATOM      7  C8  UNL d   1      -1.041  -1.264   3.122  0.00  0.00     0.078 C 
ENDROOT
BRANCH   1   8
ATOM      8  C1  UNL d   1      -2.037  -0.761   0.317  0.00  0.00     0.053 C 
ATOM      9  C   UNL d   1      -2.813   0.314  -0.428  0.00  0.00     0.018 C 
ENDBRANCH   1   8
TORSDOF 1
ENDMDL
