MODEL 1
REMARK minimizedAffinity -4.69225645
REMARK minimizedRMSD -1
REMARK  1 active torsions:
REMARK  status: ('A' for Active; 'I' for Inactive)
REMARK    1  A    between atoms: C1_2  and  C2_3 
ROOT
ATOM      1  C2  UNL d   1      -0.138   0.079  -1.612  0.00  0.00    -0.076 A 
ATOM      2  C3  UNL d   1      -1.430  -0.367  -1.941  0.00  0.00     0.004 A 
ATOM      3  C4  UNL d   1      -2.363  -0.658  -0.948  0.00  0.00    -0.003 A 
ATOM      4  C5  UNL d   1      -2.020  -0.506   0.392  0.00  0.00     0.000 A 
ATOM      5  C6  UNL d   1      -0.749  -0.048   0.736  0.00  0.00     0.000 A 
ATOM      6  C7  UNL d   1       0.199   0.265  -0.254  0.00  0.00    -0.073 A 
ATOM      7  C8  UNL d   1       1.557   0.749   0.174  0.00  0.00     0.078 C 
ENDROOT
BRANCH   1   8
ATOM      8  C1  UNL d   1       0.841   0.352  -2.731  0.00  0.00     0.053 C 
ATOM      9  C   UNL d   1       1.378  -0.924  -3.361  0.00  0.00     0.018 C 
ENDBRANCH   1   8
TORSDOF 1
ENDMDL
