MODEL 1
REMARK minimizedAffinity -6.86144733
REMARK minimizedRMSD -1
REMARK  1 active torsions:
REMARK  status: ('A' for Active; 'I' for Inactive)
REMARK    1  A    between atoms: C1_2  and  C2_3 
ROOT
ATOM      1  C2  UNL d   1      -1.329  -0.164   0.130  0.00  0.00    -0.076 A 
ATOM      2  C3  UNL d   1       0.008  -0.372   0.508  0.00  0.00     0.004 A 
ATOM      3  C4  UNL d   1       0.380  -0.391   1.851  0.00  0.00    -0.003 A 
ATOM      4  C5  UNL d   1      -0.581  -0.203   2.839  0.00  0.00     0.000 A 
ATOM      5  C6  UNL d   1      -1.916  -0.013   2.482  0.00  0.00     0.000 A 
ATOM      6  C7  UNL d   1      -2.310  -0.008   1.133  0.00  0.00    -0.073 A 
ATOM      7  C8  UNL d   1      -3.762   0.207   0.805  0.00  0.00     0.078 C 
ENDROOT
BRANCH   1   8
ATOM      8  C1  UNL d   1      -1.668  -0.127  -1.343  0.00  0.00     0.053 C 
ATOM      9  C   UNL d   1      -0.931  -1.194  -2.138  0.00  0.00     0.018 C 
ENDBRANCH   1   8
TORSDOF 1
ENDMDL
