MODEL 1
REMARK minimizedAffinity -6.68764353
REMARK minimizedRMSD -1
REMARK  1 active torsions:
REMARK  status: ('A' for Active; 'I' for Inactive)
REMARK    1  A    between atoms: C1_2  and  C2_3 
ROOT
ATOM      1  C2  UNL d   1      -1.130  -0.179   0.246  0.00  0.00    -0.076 A 
ATOM      2  C3  UNL d   1      -2.504  -0.023   0.494  0.00  0.00     0.004 A 
ATOM      3  C4  UNL d   1      -2.978   0.225   1.781  0.00  0.00    -0.003 A 
ATOM      4  C5  UNL d   1      -2.084   0.322   2.842  0.00  0.00     0.000 A 
ATOM      5  C6  UNL d   1      -0.715   0.188   2.612  0.00  0.00     0.000 A 
ATOM      6  C7  UNL d   1      -0.220  -0.046   1.317  0.00  0.00    -0.073 A 
ATOM      7  C8  UNL d   1       1.265  -0.189   1.127  0.00  0.00     0.078 C 
ENDROOT
BRANCH   1   8
ATOM      8  C1  UNL d   1      -0.677  -0.474  -1.166  0.00  0.00     0.053 C 
ATOM      9  C   UNL d   1      -0.711   0.758  -2.058  0.00  0.00     0.018 C 
ENDBRANCH   1   8
TORSDOF 1
ENDMDL
