MODEL 1
REMARK minimizedAffinity -6.66586113
REMARK minimizedRMSD -1
REMARK  1 active torsions:
REMARK  status: ('A' for Active; 'I' for Inactive)
REMARK    1  A    between atoms: C1_2  and  C2_3 
ROOT
ATOM      1  C2  UNL d   1      -0.864  -0.143   0.904  0.00  0.00    -0.076 A 
ATOM      2  C3  UNL d   1       0.280  -0.151   0.088  0.00  0.00     0.004 A 
ATOM      3  C4  UNL d   1       0.191   0.126  -1.275  0.00  0.00    -0.003 A 
ATOM      4  C5  UNL d   1      -1.044   0.416  -1.844  0.00  0.00     0.000 A 
ATOM      5  C6  UNL d   1      -2.187   0.445  -1.047  0.00  0.00     0.000 A 
ATOM      6  C7  UNL d   1      -2.112   0.185   0.333  0.00  0.00    -0.073 A 
ATOM      7  C8  UNL d   1      -3.378   0.224   1.144  0.00  0.00     0.078 C 
ENDROOT
BRANCH   1   8
ATOM      8  C1  UNL d   1      -0.710  -0.477   2.371  0.00  0.00     0.053 C 
ATOM      9  C   UNL d   1       0.134   0.545   3.116  0.00  0.00     0.018 C 
ENDBRANCH   1   8
TORSDOF 1
ENDMDL
