MODEL 1
REMARK minimizedAffinity -4.02843094
REMARK minimizedRMSD -1
REMARK  1 active torsions:
REMARK  status: ('A' for Active; 'I' for Inactive)
REMARK    1  A    between atoms: C1_2  and  C2_3 
ROOT
ATOM      1  C2  UNL d   1       0.043   0.154  -1.295  0.00  0.00    -0.076 A 
ATOM      2  C3  UNL d   1       1.031  -0.296  -2.187  0.00  0.00     0.004 A 
ATOM      3  C4  UNL d   1       0.719  -1.189  -3.211  0.00  0.00    -0.003 A 
ATOM      4  C5  UNL d   1      -0.586  -1.646  -3.360  0.00  0.00     0.000 A 
ATOM      5  C6  UNL d   1      -1.582  -1.196  -2.494  0.00  0.00     0.000 A 
ATOM      6  C7  UNL d   1      -1.288  -0.283  -1.466  0.00  0.00    -0.073 A 
ATOM      7  C8  UNL d   1      -2.400   0.165  -0.558  0.00  0.00     0.078 C 
ENDROOT
BRANCH   1   8
ATOM      8  C1  UNL d   1       0.445   1.102  -0.187  0.00  0.00     0.053 C 
ATOM      9  C   UNL d   1       0.747   0.379   1.117  0.00  0.00     0.018 C 
ENDBRANCH   1   8
TORSDOF 1
ENDMDL
