MODEL 1
REMARK minimizedAffinity -6.41865349
REMARK minimizedRMSD -1
REMARK  1 active torsions:
REMARK  status: ('A' for Active; 'I' for Inactive)
REMARK    1  A    between atoms: C1_2  and  C2_3 
ROOT
ATOM      1  C2  UNL d   1      -0.622  -0.095   0.255  0.00  0.00    -0.076 A 
ATOM      2  C3  UNL d   1      -2.002  -0.138   0.515  0.00  0.00     0.004 A 
ATOM      3  C4  UNL d   1      -2.483  -0.273   1.817  0.00  0.00    -0.003 A 
ATOM      4  C5  UNL d   1      -1.591  -0.365   2.879  0.00  0.00     0.000 A 
ATOM      5  C6  UNL d   1      -0.218  -0.305   2.641  0.00  0.00     0.000 A 
ATOM      6  C7  UNL d   1       0.283  -0.154   1.337  0.00  0.00    -0.073 A 
ATOM      7  C8  UNL d   1       1.773  -0.102   1.137  0.00  0.00     0.078 C 
ENDROOT
BRANCH   1   8
ATOM      8  C1  UNL d   1      -0.158   0.025  -1.179  0.00  0.00     0.053 C 
ATOM      9  C   UNL d   1      -0.327  -1.272  -1.956  0.00  0.00     0.018 C 
ENDBRANCH   1   8
TORSDOF 1
ENDMDL
