MODEL 1
REMARK minimizedAffinity -3.08058286
REMARK minimizedRMSD -1
REMARK  1 active torsions:
REMARK  status: ('A' for Active; 'I' for Inactive)
REMARK    1  A    between atoms: C1_2  and  C2_3 
ROOT
ATOM      1  C2  UNL d   1       0.287  -0.119  -1.538  0.00  0.00    -0.076 A 
ATOM      2  C3  UNL d   1      -0.979  -0.492  -1.053  0.00  0.00     0.004 A 
ATOM      3  C4  UNL d   1      -1.803  -1.346  -1.782  0.00  0.00    -0.003 A 
ATOM      4  C5  UNL d   1      -1.375  -1.843  -3.009  0.00  0.00     0.000 A 
ATOM      5  C6  UNL d   1      -0.115  -1.498  -3.496  0.00  0.00     0.000 A 
ATOM      6  C7  UNL d   1       0.735  -0.651  -2.766  0.00  0.00    -0.073 A 
ATOM      7  C8  UNL d   1       2.081  -0.307  -3.343  0.00  0.00     0.078 C 
ENDROOT
BRANCH   1   8
ATOM      8  C1  UNL d   1       1.126   0.833  -0.715  0.00  0.00     0.053 C 
ATOM      9  C   UNL d   1       1.615   0.207   0.582  0.00  0.00     0.018 C 
ENDBRANCH   1   8
TORSDOF 1
ENDMDL
