MODEL 1
REMARK minimizedAffinity -5.1558876
REMARK minimizedRMSD -1
REMARK  1 active torsions:
REMARK  status: ('A' for Active; 'I' for Inactive)
REMARK    1  A    between atoms: C1_2  and  C2_3 
ROOT
ATOM      1  C2  UNL d   1       0.240  -0.023  -1.228  0.00  0.00    -0.076 A 
ATOM      2  C3  UNL d   1       1.228  -0.521  -2.096  0.00  0.00     0.004 A 
ATOM      3  C4  UNL d   1       0.911  -1.449  -3.086  0.00  0.00    -0.003 A 
ATOM      4  C5  UNL d   1      -0.399  -1.894  -3.225  0.00  0.00     0.000 A 
ATOM      5  C6  UNL d   1      -1.395  -1.398  -2.385  0.00  0.00     0.000 A 
ATOM      6  C7  UNL d   1      -1.095  -0.449  -1.392  0.00  0.00    -0.073 A 
ATOM      7  C8  UNL d   1      -2.208   0.048  -0.510  0.00  0.00     0.078 C 
ENDROOT
BRANCH   1   8
ATOM      8  C1  UNL d   1       0.647   0.962  -0.156  0.00  0.00     0.053 C 
ATOM      9  C   UNL d   1       1.102   0.276   1.123  0.00  0.00     0.018 C 
ENDBRANCH   1   8
TORSDOF 1
ENDMDL
