MODEL 1
REMARK minimizedAffinity -1.7011801
REMARK minimizedRMSD -1
REMARK  1 active torsions:
REMARK  status: ('A' for Active; 'I' for Inactive)
REMARK    1  A    between atoms: C1_2  and  C2_3 
ROOT
ATOM      1  C2  UNL d   1       0.468   0.239  -0.785  0.00  0.00    -0.076 A 
ATOM      2  C3  UNL d   1      -0.928   0.208  -0.949  0.00  0.00     0.004 A 
ATOM      3  C4  UNL d   1      -1.781   0.240   0.154  0.00  0.00    -0.003 A 
ATOM      4  C5  UNL d   1      -1.251   0.304   1.438  0.00  0.00     0.000 A 
ATOM      5  C6  UNL d   1       0.131   0.353   1.618  0.00  0.00     0.000 A 
ATOM      6  C7  UNL d   1       1.004   0.338   0.516  0.00  0.00    -0.073 A 
ATOM      7  C8  UNL d   1       2.486   0.387   0.769  0.00  0.00     0.078 C 
ENDROOT
BRANCH   1   8
ATOM      8  C1  UNL d   1       1.343   0.174  -2.017  0.00  0.00     0.053 C 
ATOM      9  C   UNL d   1       1.028  -1.029  -2.892  0.00  0.00     0.018 C 
ENDBRANCH   1   8
TORSDOF 1
ENDMDL
