MODEL 1
REMARK minimizedAffinity -6.37894917
REMARK minimizedRMSD -1
REMARK  1 active torsions:
REMARK  status: ('A' for Active; 'I' for Inactive)
REMARK    1  A    between atoms: C1_2  and  C2_3 
ROOT
ATOM      1  C2  UNL d   1      -0.590  -0.416   0.032  0.00  0.00    -0.076 A 
ATOM      2  C3  UNL d   1      -1.175   0.228  -1.072  0.00  0.00     0.004 A 
ATOM      3  C4  UNL d   1      -2.558   0.252  -1.238  0.00  0.00    -0.003 A 
ATOM      4  C5  UNL d   1      -3.380  -0.366  -0.302  0.00  0.00     0.000 A 
ATOM      5  C6  UNL d   1      -2.818  -0.994   0.808  0.00  0.00     0.000 A 
ATOM      6  C7  UNL d   1      -1.426  -1.014   0.999  0.00  0.00    -0.073 A 
ATOM      7  C8  UNL d   1      -0.873  -1.712   2.212  0.00  0.00     0.078 C 
ENDROOT
BRANCH   1   8
ATOM      8  C1  UNL d   1       0.918  -0.434   0.145  0.00  0.00     0.053 C 
ATOM      9  C   UNL d   1       1.454   0.725   0.971  0.00  0.00     0.018 C 
ENDBRANCH   1   8
TORSDOF 1
ENDMDL
