MODEL 1
REMARK minimizedAffinity -5.35397434
REMARK minimizedRMSD -1
REMARK  1 active torsions:
REMARK  status: ('A' for Active; 'I' for Inactive)
REMARK    1  A    between atoms: C1_2  and  C2_3 
ROOT
ATOM      1  C2  UNL d   1      -0.579  -0.090   0.587  0.00  0.00    -0.076 A 
ATOM      2  C3  UNL d   1       0.777  -0.236   0.929  0.00  0.00     0.004 A 
ATOM      3  C4  UNL d   1       1.201  -0.100   2.250  0.00  0.00    -0.003 A 
ATOM      4  C5  UNL d   1       0.277   0.181   3.250  0.00  0.00     0.000 A 
ATOM      5  C6  UNL d   1      -1.074   0.311   2.931  0.00  0.00     0.000 A 
ATOM      6  C7  UNL d   1      -1.521   0.162   1.607  0.00  0.00    -0.073 A 
ATOM      7  C8  UNL d   1      -2.989   0.318   1.319  0.00  0.00     0.078 C 
ENDROOT
BRANCH   1   8
ATOM      8  C1  UNL d   1      -0.977  -0.221  -0.866  0.00  0.00     0.053 C 
ATOM      9  C   UNL d   1       0.198  -0.582  -1.762  0.00  0.00     0.018 C 
ENDBRANCH   1   8
TORSDOF 1
ENDMDL
