MODEL 1
REMARK minimizedAffinity 9.03675365
REMARK minimizedRMSD -1
REMARK  0 active torsions:
REMARK  status: ('A' for Active; 'I' for Inactive)
ROOT
ATOM      1  C   UNL d   1      -2.137  -0.395   3.025  0.00  0.00     0.124 A 
ATOM      2  C1  UNL d   1      -0.904  -0.871   3.451  0.00  0.00     0.062 A 
ATOM      3  C2  UNL d   1       0.243  -0.605   2.709  0.00  0.00     0.162 A 
ATOM      4  C3  UNL d   1       0.163   0.143   1.534  0.00  0.00    -0.034 A 
ATOM      5  C4  UNL d   1      -1.080   0.617   1.112  0.00  0.00     0.162 A 
ATOM      6  C5  UNL d   1      -2.224   0.348   1.857  0.00  0.00     0.062 A 
ATOM      7  F   UNL d   1      -3.414   0.809   1.445  0.00  0.00    -0.097 F 
ATOM      8  F1  UNL d   1      -1.193   1.339  -0.013  0.00  0.00    -0.096 F 
ATOM      9  I   UNL d   1       1.876   0.543   0.421  0.00  0.00    -0.060 I 
ATOM     10  F2  UNL d   1       1.420  -1.077   3.143  0.00  0.00    -0.096 F 
ATOM     11  F3  UNL d   1      -0.818  -1.590   4.579  0.00  0.00    -0.097 F 
ATOM     12  F4  UNL d   1      -3.239  -0.654   3.741  0.00  0.00    -0.092 F 
ENDROOT
TORSDOF 0
ENDMDL
