MODEL 1
REMARK minimizedAffinity 10.8070889
REMARK minimizedRMSD -1
REMARK  0 active torsions:
REMARK  status: ('A' for Active; 'I' for Inactive)
ROOT
ATOM      1  C   UNL d   1      -1.195   0.105   2.180  0.00  0.00     0.124 A 
ATOM      2  C1  UNL d   1       0.014  -0.354   1.677  0.00  0.00     0.062 A 
ATOM      3  C2  UNL d   1       0.176  -0.542   0.307  0.00  0.00     0.162 A 
ATOM      4  C3  UNL d   1      -0.874  -0.270  -0.569  0.00  0.00    -0.034 A 
ATOM      5  C4  UNL d   1      -2.088   0.190  -0.056  0.00  0.00     0.162 A 
ATOM      6  C5  UNL d   1      -2.245   0.377   1.314  0.00  0.00     0.062 A 
ATOM      7  F   UNL d   1      -3.414   0.820   1.798  0.00  0.00    -0.097 F 
ATOM      8  F1  UNL d   1      -3.118   0.462  -0.870  0.00  0.00    -0.096 F 
ATOM      9  I   UNL d   1      -0.636  -0.550  -2.618  0.00  0.00    -0.060 I 
ATOM     10  F2  UNL d   1       1.356  -0.986  -0.151  0.00  0.00    -0.096 F 
ATOM     11  F3  UNL d   1       1.029  -0.618   2.512  0.00  0.00    -0.097 F 
ATOM     12  F4  UNL d   1      -1.349   0.284   3.499  0.00  0.00    -0.092 F 
ENDROOT
TORSDOF 0
ENDMDL
