MODEL 1
REMARK minimizedAffinity 6.82041836
REMARK minimizedRMSD -1
REMARK  0 active torsions:
REMARK  status: ('A' for Active; 'I' for Inactive)
ROOT
ATOM      1  C   UNL d   1      -2.460  -0.796   3.183  0.00  0.00     0.124 A 
ATOM      2  C1  UNL d   1      -2.566   0.037   2.078  0.00  0.00     0.062 A 
ATOM      3  C2  UNL d   1      -1.420   0.506   1.442  0.00  0.00     0.162 A 
ATOM      4  C3  UNL d   1      -0.157   0.142   1.909  0.00  0.00    -0.034 A 
ATOM      5  C4  UNL d   1      -0.058  -0.695   3.022  0.00  0.00     0.162 A 
ATOM      6  C5  UNL d   1      -1.207  -1.161   3.654  0.00  0.00     0.062 A 
ATOM      7  F   UNL d   1      -1.102  -1.965   4.721  0.00  0.00    -0.097 F 
ATOM      8  F1  UNL d   1       1.140  -1.064   3.497  0.00  0.00    -0.096 F 
ATOM      9  I   UNL d   1       1.558   0.841   0.961  0.00  0.00    -0.060 I 
ATOM     10  F2  UNL d   1      -1.553   1.309   0.376  0.00  0.00    -0.096 F 
ATOM     11  F3  UNL d   1      -3.776   0.392   1.621  0.00  0.00    -0.097 F 
ATOM     12  F4  UNL d   1      -3.564  -1.245   3.794  0.00  0.00    -0.092 F 
ENDROOT
TORSDOF 0
ENDMDL
