MODEL 1
REMARK minimizedAffinity 12.643755
REMARK minimizedRMSD -1
REMARK  0 active torsions:
REMARK  status: ('A' for Active; 'I' for Inactive)
ROOT
ATOM      1  C   UNL d   1      -1.328   0.202   2.304  0.00  0.00     0.124 A 
ATOM      2  C1  UNL d   1      -2.357   0.513   1.425  0.00  0.00     0.062 A 
ATOM      3  C2  UNL d   1      -2.144   0.462   0.051  0.00  0.00     0.162 A 
ATOM      4  C3  UNL d   1      -0.896   0.097  -0.455  0.00  0.00    -0.034 A 
ATOM      5  C4  UNL d   1       0.134  -0.213   0.435  0.00  0.00     0.162 A 
ATOM      6  C5  UNL d   1      -0.084  -0.160   1.808  0.00  0.00     0.062 A 
ATOM      7  F   UNL d   1       0.912  -0.460   2.654  0.00  0.00    -0.097 F 
ATOM      8  F1  UNL d   1       1.347  -0.567  -0.017  0.00  0.00    -0.096 F 
ATOM      9  I   UNL d   1      -0.573   0.020  -2.509  0.00  0.00    -0.060 I 
ATOM     10  F2  UNL d   1      -3.157   0.767  -0.774  0.00  0.00    -0.096 F 
ATOM     11  F3  UNL d   1      -3.560   0.864   1.902  0.00  0.00    -0.097 F 
ATOM     12  F4  UNL d   1      -1.536   0.253   3.626  0.00  0.00    -0.092 F 
ENDROOT
TORSDOF 0
ENDMDL
