MODEL 1
REMARK minimizedAffinity 5.66295671
REMARK minimizedRMSD -1
REMARK  0 active torsions:
REMARK  status: ('A' for Active; 'I' for Inactive)
ROOT
ATOM      1  C   UNL d   1      -2.340  -0.518   2.302  0.00  0.00     0.124 A 
ATOM      2  C1  UNL d   1      -2.346  -0.129   0.970  0.00  0.00     0.062 A 
ATOM      3  C2  UNL d   1      -1.151   0.176   0.325  0.00  0.00     0.162 A 
ATOM      4  C3  UNL d   1       0.060   0.093   1.011  0.00  0.00    -0.034 A 
ATOM      5  C4  UNL d   1       0.058  -0.298   2.351  0.00  0.00     0.162 A 
ATOM      6  C5  UNL d   1      -1.139  -0.602   2.991  0.00  0.00     0.062 A 
ATOM      7  F   UNL d   1      -1.131  -0.978   4.279  0.00  0.00    -0.097 F 
ATOM      8  F1  UNL d   1       1.205  -0.389   3.040  0.00  0.00    -0.096 F 
ATOM      9  I   UNL d   1       1.849   0.548   0.049  0.00  0.00    -0.060 I 
ATOM     10  F2  UNL d   1      -1.187   0.549  -0.963  0.00  0.00    -0.096 F 
ATOM     11  F3  UNL d   1      -3.506  -0.047   0.302  0.00  0.00    -0.097 F 
ATOM     12  F4  UNL d   1      -3.491  -0.810   2.921  0.00  0.00    -0.092 F 
ENDROOT
TORSDOF 0
ENDMDL
