MODEL 1
REMARK minimizedAffinity 8.98794937
REMARK minimizedRMSD -1
REMARK  0 active torsions:
REMARK  status: ('A' for Active; 'I' for Inactive)
ROOT
ATOM      1  C   UNL d   1      -2.037  -0.570   3.139  0.00  0.00     0.124 A 
ATOM      2  C1  UNL d   1      -0.745  -0.891   3.530  0.00  0.00     0.062 A 
ATOM      3  C2  UNL d   1       0.299  -0.837   2.612  0.00  0.00     0.162 A 
ATOM      4  C3  UNL d   1       0.056  -0.457   1.292  0.00  0.00    -0.034 A 
ATOM      5  C4  UNL d   1      -1.247  -0.136   0.905  0.00  0.00     0.162 A 
ATOM      6  C5  UNL d   1      -2.287  -0.193   1.827  0.00  0.00     0.062 A 
ATOM      7  F   UNL d   1      -3.535   0.118   1.446  0.00  0.00    -0.097 F 
ATOM      8  F1  UNL d   1      -1.516   0.232  -0.356  0.00  0.00    -0.096 F 
ATOM      9  I   UNL d   1       1.614  -0.374  -0.085  0.00  0.00    -0.060 I 
ATOM     10  F2  UNL d   1       1.537  -1.153   3.018  0.00  0.00    -0.096 F 
ATOM     11  F3  UNL d   1      -0.502  -1.257   4.797  0.00  0.00    -0.097 F 
ATOM     12  F4  UNL d   1      -3.040  -0.624   4.024  0.00  0.00    -0.092 F 
ENDROOT
TORSDOF 0
ENDMDL
