MODEL 1
REMARK minimizedAffinity -1.70710301
REMARK minimizedRMSD -1
REMARK  0 active torsions:
REMARK  status: ('A' for Active; 'I' for Inactive)
ROOT
ATOM      1  C   UNL d   1      -0.055   0.400   2.859  0.00  0.00     0.124 A 
ATOM      2  C1  UNL d   1      -1.135  -0.096   2.141  0.00  0.00     0.062 A 
ATOM      3  C2  UNL d   1      -1.133  -0.046   0.750  0.00  0.00     0.162 A 
ATOM      4  C3  UNL d   1      -0.046   0.501   0.067  0.00  0.00    -0.034 A 
ATOM      5  C4  UNL d   1       1.036   0.998   0.796  0.00  0.00     0.162 A 
ATOM      6  C5  UNL d   1       1.029   0.946   2.186  0.00  0.00     0.062 A 
ATOM      7  F   UNL d   1       2.073   1.425   2.877  0.00  0.00    -0.097 F 
ATOM      8  F1  UNL d   1       2.097   1.530   0.171  0.00  0.00    -0.096 F 
ATOM      9  I   UNL d   1      -0.039   0.577  -2.013  0.00  0.00    -0.060 I 
ATOM     10  F2  UNL d   1      -2.190  -0.532   0.082  0.00  0.00    -0.096 F 
ATOM     11  F3  UNL d   1      -2.184  -0.623   2.789  0.00  0.00    -0.097 F 
ATOM     12  F4  UNL d   1      -0.060   0.352   4.197  0.00  0.00    -0.092 F 
ENDROOT
TORSDOF 0
ENDMDL
