MODEL 1
REMARK minimizedAffinity 10.1338158
REMARK minimizedRMSD -1
REMARK  0 active torsions:
REMARK  status: ('A' for Active; 'I' for Inactive)
ROOT
ATOM      1  C   UNL d   1      -1.347  -0.769   2.951  0.00  0.00     0.124 A 
ATOM      2  C1  UNL d   1      -1.507   0.173   1.945  0.00  0.00     0.062 A 
ATOM      3  C2  UNL d   1      -0.394   0.762   1.353  0.00  0.00     0.162 A 
ATOM      4  C3  UNL d   1       0.891   0.410   1.766  0.00  0.00    -0.034 A 
ATOM      5  C4  UNL d   1       1.045  -0.537   2.780  0.00  0.00     0.162 A 
ATOM      6  C5  UNL d   1      -0.071  -1.123   3.367  0.00  0.00     0.062 A 
ATOM      7  F   UNL d   1       0.086  -2.034   4.340  0.00  0.00    -0.097 F 
ATOM      8  F1  UNL d   1       2.266  -0.899   3.201  0.00  0.00    -0.096 F 
ATOM      9  I   UNL d   1       2.559   1.289   0.884  0.00  0.00    -0.060 I 
ATOM     10  F2  UNL d   1      -0.579   1.670   0.383  0.00  0.00    -0.096 F 
ATOM     11  F3  UNL d   1      -2.739   0.518   1.541  0.00  0.00    -0.097 F 
ATOM     12  F4  UNL d   1      -2.420  -1.334   3.519  0.00  0.00    -0.092 F 
ENDROOT
TORSDOF 0
ENDMDL
