MODEL 1
REMARK minimizedAffinity 7.43395472
REMARK minimizedRMSD -1
REMARK  0 active torsions:
REMARK  status: ('A' for Active; 'I' for Inactive)
ROOT
ATOM      1  C   UNL d   1      -1.353   0.362   0.207  0.00  0.00     0.124 A 
ATOM      2  C1  UNL d   1      -2.051   0.378   1.406  0.00  0.00     0.062 A 
ATOM      3  C2  UNL d   1      -1.435  -0.043   2.581  0.00  0.00     0.162 A 
ATOM      4  C3  UNL d   1      -0.112  -0.483   2.563  0.00  0.00    -0.034 A 
ATOM      5  C4  UNL d   1       0.584  -0.498   1.353  0.00  0.00     0.162 A 
ATOM      6  C5  UNL d   1      -0.036  -0.076   0.182  0.00  0.00     0.062 A 
ATOM      7  F   UNL d   1       0.640  -0.092  -0.976  0.00  0.00    -0.097 F 
ATOM      8  F1  UNL d   1       1.858  -0.915   1.300  0.00  0.00    -0.096 F 
ATOM      9  I   UNL d   1       0.813  -1.114   4.318  0.00  0.00    -0.060 I 
ATOM     10  F2  UNL d   1      -2.134  -0.016   3.726  0.00  0.00    -0.096 F 
ATOM     11  F3  UNL d   1      -3.324   0.800   1.434  0.00  0.00    -0.097 F 
ATOM     12  F4  UNL d   1      -1.948   0.767  -0.922  0.00  0.00    -0.092 F 
ENDROOT
TORSDOF 0
ENDMDL
