MODEL 1
REMARK minimizedAffinity 16.4346485
REMARK minimizedRMSD -1
REMARK  0 active torsions:
REMARK  status: ('A' for Active; 'I' for Inactive)
ROOT
ATOM      1  C   UNL d   1      -1.824  -0.937  -0.391  0.00  0.00     0.124 A 
ATOM      2  C1  UNL d   1      -0.540  -1.447  -0.526  0.00  0.00     0.062 A 
ATOM      3  C2  UNL d   1       0.552  -0.734  -0.040  0.00  0.00     0.162 A 
ATOM      4  C3  UNL d   1       0.365   0.498   0.587  0.00  0.00    -0.034 A 
ATOM      5  C4  UNL d   1      -0.929   1.005   0.719  0.00  0.00     0.162 A 
ATOM      6  C5  UNL d   1      -2.017   0.289   0.231  0.00  0.00     0.062 A 
ATOM      7  F   UNL d   1      -3.256   0.784   0.362  0.00  0.00    -0.097 F 
ATOM      8  F1  UNL d   1      -1.144   2.187   1.316  0.00  0.00    -0.096 F 
ATOM      9  I   UNL d   1       1.995   1.567   1.316  0.00  0.00    -0.060 I 
ATOM     10  F2  UNL d   1       1.781  -1.252  -0.184  0.00  0.00    -0.096 F 
ATOM     11  F3  UNL d   1      -0.351  -2.631  -1.127  0.00  0.00    -0.097 F 
ATOM     12  F4  UNL d   1      -2.873  -1.625  -0.860  0.00  0.00    -0.092 F 
ENDROOT
TORSDOF 0
ENDMDL
