MODEL 1
REMARK minimizedAffinity -2.30307889
REMARK minimizedRMSD -1
REMARK  0 active torsions:
REMARK  status: ('A' for Active; 'I' for Inactive)
ROOT
ATOM      1  C1  BNZ d   1      -1.929   5.230   4.049  0.00  0.00     0.000 A 
ATOM      2  C2  BNZ d   1      -0.786   5.984   4.068  0.00  0.00     0.000 A 
ATOM      3  C3  BNZ d   1       0.163   5.793   5.033  0.00  0.00     0.000 A 
ATOM      4  C4  BNZ d   1      -0.050   4.877   6.000  0.00  0.00     0.000 A 
ATOM      5  C5  BNZ d   1      -1.201   4.115   6.000  0.00  0.00     0.000 A 
ATOM      6  C6  BNZ d   1      -2.136   4.283   5.005  0.00  0.00     0.000 A 
ENDROOT
TORSDOF 0
ENDMDL
