MODEL 1
REMARK minimizedAffinity -2.52216887
REMARK minimizedRMSD -1
REMARK  0 active torsions:
REMARK  status: ('A' for Active; 'I' for Inactive)
ROOT
ATOM      1  C1  BNZ d   1       4.790   5.905   5.586  0.00  0.00     0.000 A 
ATOM      2  C2  BNZ d   1       5.964   5.348   5.155  0.00  0.00     0.000 A 
ATOM      3  C3  BNZ d   1       5.998   4.067   4.679  0.00  0.00     0.000 A 
ATOM      4  C4  BNZ d   1       4.867   3.332   4.673  0.00  0.00     0.000 A 
ATOM      5  C5  BNZ d   1       3.677   3.876   5.114  0.00  0.00     0.000 A 
ATOM      6  C6  BNZ d   1       3.639   5.179   5.555  0.00  0.00     0.000 A 
ENDROOT
TORSDOF 0
ENDMDL
