MODEL 1
REMARK minimizedAffinity -2.43519211
REMARK minimizedRMSD -1
REMARK  0 active torsions:
REMARK  status: ('A' for Active; 'I' for Inactive)
ROOT
ATOM      1  C1  BNZ d   1      -1.853   4.312   5.999  0.00  0.00     0.000 A 
ATOM      2  C2  BNZ d   1      -0.512   4.593   6.000  0.00  0.00     0.000 A 
ATOM      3  C3  BNZ d   1       0.023   5.454   5.082  0.00  0.00     0.000 A 
ATOM      4  C4  BNZ d   1      -0.774   6.000   4.142  0.00  0.00     0.000 A 
ATOM      5  C5  BNZ d   1      -2.126   5.718   4.122  0.00  0.00     0.000 A 
ATOM      6  C6  BNZ d   1      -2.668   4.882   5.071  0.00  0.00     0.000 A 
ENDROOT
TORSDOF 0
ENDMDL
