MODEL 1
REMARK minimizedAffinity -1.79670966
REMARK minimizedRMSD -1
REMARK  0 active torsions:
REMARK  status: ('A' for Active; 'I' for Inactive)
ROOT
ATOM      1  C1  BNZ d   1       0.677   5.964   4.829  0.00  0.00     0.000 A 
ATOM      2  C2  BNZ d   1      -0.018   5.708   3.677  0.00  0.00     0.000 A 
ATOM      3  C3  BNZ d   1      -1.103   4.875   3.684  0.00  0.00     0.000 A 
ATOM      4  C4  BNZ d   1      -1.466   4.269   4.832  0.00  0.00     0.000 A 
ATOM      5  C5  BNZ d   1      -0.769   4.509   6.000  0.00  0.00     0.000 A 
ATOM      6  C6  BNZ d   1       0.298   5.378   5.997  0.00  0.00     0.000 A 
ENDROOT
TORSDOF 0
ENDMDL
