MODEL 1
REMARK minimizedAffinity -1.21057558
REMARK minimizedRMSD -1
REMARK  0 active torsions:
REMARK  status: ('A' for Active; 'I' for Inactive)
ROOT
ATOM      1  C1  BNZ d   1       0.205   5.256   3.755  0.00  0.00     0.000 A 
ATOM      2  C2  BNZ d   1      -1.137   4.988   3.775  0.00  0.00     0.000 A 
ATOM      3  C3  BNZ d   1      -1.886   5.244   4.889  0.00  0.00     0.000 A 
ATOM      4  C4  BNZ d   1      -1.285   5.729   5.995  0.00  0.00     0.000 A 
ATOM      5  C5  BNZ d   1       0.069   5.996   5.994  0.00  0.00     0.000 A 
ATOM      6  C6  BNZ d   1       0.813   5.774   4.858  0.00  0.00     0.000 A 
ENDROOT
TORSDOF 0
ENDMDL
