MODEL 1
REMARK minimizedAffinity -1.79817009
REMARK minimizedRMSD -1
REMARK  1 active torsions:
REMARK  status: ('A' for Active; 'I' for Inactive)
REMARK    1  A    between atoms: C1_2  and  C2_3 
ROOT
ATOM      1  C2  UNL d   1       0.341  -2.491   4.864  0.00  0.00    -0.077 A 
ATOM      2  C3  UNL d   1      -0.844  -3.240   4.850  0.00  0.00     0.002 A 
ATOM      3  C4  UNL d   1      -0.878  -4.520   5.405  0.00  0.00     0.002 A 
ATOM      4  C5  UNL d   1       0.269  -5.062   5.982  0.00  0.00    -0.004 A 
ATOM      5  C6  UNL d   1       1.453  -4.326   6.000  0.00  0.00     0.002 A 
ATOM      6  C7  UNL d   1       1.489  -3.046   5.444  0.00  0.00     0.002 A 
ENDROOT
BRANCH   1   7
ATOM      7  C1  UNL d   1       0.367  -1.091   4.310  0.00  0.00     0.055 C 
ATOM      8  C   UNL d   1       1.083  -0.135   5.253  0.00  0.00     0.019 C 
ENDBRANCH   1   7
TORSDOF 1
ENDMDL
