MODEL 1
REMARK minimizedAffinity -1.7177918
REMARK minimizedRMSD -1
REMARK  1 active torsions:
REMARK  status: ('A' for Active; 'I' for Inactive)
REMARK    1  A    between atoms: C1_2  and  C2_3 
ROOT
ATOM      1  C2  UNL d   1      -4.803   5.363   3.478  0.00  0.00    -0.077 A 
ATOM      2  C3  UNL d   1      -4.854   4.645   2.275  0.00  0.00     0.002 A 
ATOM      3  C4  UNL d   1      -3.730   4.569   1.450  0.00  0.00     0.002 A 
ATOM      4  C5  UNL d   1      -2.547   5.204   1.822  0.00  0.00    -0.004 A 
ATOM      5  C6  UNL d   1      -2.487   5.922   3.016  0.00  0.00     0.002 A 
ATOM      6  C7  UNL d   1      -3.610   6.000   3.841  0.00  0.00     0.002 A 
ENDROOT
BRANCH   1   7
ATOM      7  C1  UNL d   1      -6.000   5.405   4.393  0.00  0.00     0.055 C 
ATOM      8  C   UNL d   1      -5.641   5.999   5.747  0.00  0.00     0.019 C 
ENDBRANCH   1   7
TORSDOF 1
ENDMDL
