MODEL 1
REMARK minimizedAffinity -1.36259174
REMARK minimizedRMSD -1
REMARK  1 active torsions:
REMARK  status: ('A' for Active; 'I' for Inactive)
REMARK    1  A    between atoms: C1_2  and  C2_3 
ROOT
ATOM      1  C2  UNL d   1      -4.506   5.336   2.901  0.00  0.00    -0.077 A 
ATOM      2  C3  UNL d   1      -5.657   4.666   3.338  0.00  0.00     0.002 A 
ATOM      3  C4  UNL d   1      -6.000   4.660   4.692  0.00  0.00     0.002 A 
ATOM      4  C5  UNL d   1      -5.200   5.326   5.617  0.00  0.00    -0.004 A 
ATOM      5  C6  UNL d   1      -4.052   5.994   5.193  0.00  0.00     0.002 A 
ATOM      6  C7  UNL d   1      -3.707   5.999   3.840  0.00  0.00     0.002 A 
ENDROOT
BRANCH   1   7
ATOM      7  C1  UNL d   1      -4.162   5.385   1.435  0.00  0.00     0.055 C 
ATOM      8  C   UNL d   1      -5.309   5.956   0.615  0.00  0.00     0.019 C 
ENDBRANCH   1   7
TORSDOF 1
ENDMDL
