MODEL 1
REMARK minimizedAffinity 4.12373638
REMARK minimizedRMSD -1
REMARK  1 active torsions:
REMARK  status: ('A' for Active; 'I' for Inactive)
REMARK    1  A    between atoms: C1_2  and  C2_3 
ROOT
ATOM      1  C2  UNL d   1      -3.734   5.686   2.708  0.00  0.00    -0.077 A 
ATOM      2  C3  UNL d   1      -4.922   5.154   3.228  0.00  0.00     0.002 A 
ATOM      3  C4  UNL d   1      -5.994   4.862   2.382  0.00  0.00     0.002 A 
ATOM      4  C5  UNL d   1      -5.887   5.096   1.013  0.00  0.00    -0.004 A 
ATOM      5  C6  UNL d   1      -4.710   5.627   0.487  0.00  0.00     0.002 A 
ATOM      6  C7  UNL d   1      -3.638   5.920   1.330  0.00  0.00     0.002 A 
ENDROOT
BRANCH   1   7
ATOM      7  C1  UNL d   1      -2.558   5.955   3.611  0.00  0.00     0.055 C 
ATOM      8  C   UNL d   1      -1.255   5.991   2.828  0.00  0.00     0.019 C 
ENDBRANCH   1   7
TORSDOF 1
ENDMDL
