MODEL 1
REMARK minimizedAffinity -2.64349627
REMARK minimizedRMSD -1
REMARK  1 active torsions:
REMARK  status: ('A' for Active; 'I' for Inactive)
REMARK    1  A    between atoms: C1_2  and  C2_3 
ROOT
ATOM      1  C2  UNL d   1      -4.037   5.922   3.280  0.00  0.00    -0.077 A 
ATOM      2  C3  UNL d   1      -5.423   5.818   3.461  0.00  0.00     0.002 A 
ATOM      3  C4  UNL d   1      -5.968   5.792   4.746  0.00  0.00     0.002 A 
ATOM      4  C5  UNL d   1      -5.135   5.874   5.860  0.00  0.00    -0.004 A 
ATOM      5  C6  UNL d   1      -3.754   5.975   5.691  0.00  0.00     0.002 A 
ATOM      6  C7  UNL d   1      -3.208   6.000   4.407  0.00  0.00     0.002 A 
ENDROOT
BRANCH   1   7
ATOM      7  C1  UNL d   1      -3.452   5.999   1.895  0.00  0.00     0.055 C 
ATOM      8  C   UNL d   1      -4.540   5.965   0.831  0.00  0.00     0.019 C 
ENDBRANCH   1   7
TORSDOF 1
ENDMDL
