MODEL 1
REMARK minimizedAffinity 1.72501326
REMARK minimizedRMSD -1
REMARK  0 active torsions:
REMARK  status: ('A' for Active; 'I' for Inactive)
ROOT
ATOM      1  C   UNL d   1      -1.218  -0.045   3.589  0.00  0.00    -0.002 A 
ATOM      2  C1  UNL d   1       0.017  -0.557   3.217  0.00  0.00     0.010 A 
ATOM      3  C2  UNL d   1       0.344  -0.713   1.869  0.00  0.00     0.041 A 
ATOM      4  C3  UNL d   1      -0.599  -0.341   0.891  0.00  0.00    -0.075 A 
ATOM      5  S   UNL d   1      -0.417  -0.442  -0.820  0.00  0.00     0.015 SA
ATOM      6  C4  UNL d   1      -1.974   0.193  -1.098  0.00  0.00     0.022 A 
ATOM      7  C5  UNL d   1      -2.630   0.481   0.075  0.00  0.00     0.026 A 
ATOM      8  C6  UNL d   1      -1.849   0.178   1.241  0.00  0.00    -0.082 A 
ATOM      9  C7  UNL d   1      -2.151   0.324   2.616  0.00  0.00     0.045 A 
ENDROOT
TORSDOF 0
ENDMDL
