MODEL 1
REMARK minimizedAffinity 0.0643330514
REMARK minimizedRMSD -1
REMARK  0 active torsions:
REMARK  status: ('A' for Active; 'I' for Inactive)
ROOT
ATOM      1  C   UNL d   1      -1.672  -0.067   3.277  0.00  0.00    -0.002 A 
ATOM      2  C1  UNL d   1      -0.376  -0.379   3.663  0.00  0.00     0.010 A 
ATOM      3  C2  UNL d   1       0.572  -0.771   2.715  0.00  0.00     0.041 A 
ATOM      4  C3  UNL d   1       0.192  -0.844   1.361  0.00  0.00    -0.075 A 
ATOM      5  S   UNL d   1       1.184  -1.299   0.026  0.00  0.00     0.015 SA
ATOM      6  C4  UNL d   1      -0.089  -1.089  -1.088  0.00  0.00     0.022 A 
ATOM      7  C5  UNL d   1      -1.250  -0.682  -0.473  0.00  0.00     0.026 A 
ATOM      8  C6  UNL d   1      -1.107  -0.533   0.948  0.00  0.00    -0.082 A 
ATOM      9  C7  UNL d   1      -2.045  -0.140   1.932  0.00  0.00     0.045 A 
ENDROOT
TORSDOF 0
ENDMDL
