MODEL 1
REMARK minimizedAffinity -1.56477904
REMARK minimizedRMSD -1
REMARK  0 active torsions:
REMARK  status: ('A' for Active; 'I' for Inactive)
ROOT
ATOM      1  C4' PXY d   1       5.996   5.565   2.357  0.00  0.00     0.077 C 
ATOM      2  C1' PXY d   1       4.935   0.556  -0.327  0.00  0.00     0.077 C 
ATOM      3  C1  PXY d   1       5.213   1.876   0.366  0.00  0.00    -0.082 A 
ATOM      4  C2  PXY d   1       5.770   1.880   1.566  0.00  0.00     0.003 A 
ATOM      5  C3  PXY d   1       6.000   3.063   2.220  0.00  0.00     0.003 A 
ATOM      6  C4  PXY d   1       5.705   4.257   1.617  0.00  0.00    -0.082 A 
ATOM      7  C5  PXY d   1       5.147   4.261   0.388  0.00  0.00     0.003 A 
ATOM      8  C6  PXY d   1       4.884   3.048  -0.242  0.00  0.00     0.003 A 
ENDROOT
TORSDOF 0
ENDMDL
