MODEL 1
REMARK minimizedAffinity 6.36900759
REMARK minimizedRMSD -1
REMARK  0 active torsions:
REMARK  status: ('A' for Active; 'I' for Inactive)
ROOT
ATOM      1  C4' PXY d   1       3.438  -5.751  -0.437  0.00  0.00     0.077 C 
ATOM      2  C1' PXY d   1       1.621  -1.213   2.648  0.00  0.00     0.077 C 
ATOM      3  C1  PXY d   1       2.085  -2.408   1.839  0.00  0.00    -0.082 A 
ATOM      4  C2  PXY d   1       3.354  -2.780   1.891  0.00  0.00     0.003 A 
ATOM      5  C3  PXY d   1       3.798  -3.839   1.141  0.00  0.00     0.003 A 
ATOM      6  C4  PXY d   1       2.923  -4.557   0.370  0.00  0.00    -0.082 A 
ATOM      7  C5  PXY d   1       1.625  -4.190   0.320  0.00  0.00     0.003 A 
ATOM      8  C6  PXY d   1       1.203  -3.087   1.057  0.00  0.00     0.003 A 
ENDROOT
TORSDOF 0
ENDMDL
