MODEL 1
REMARK minimizedAffinity 7.28495264
REMARK minimizedRMSD -1
REMARK  0 active torsions:
REMARK  status: ('A' for Active; 'I' for Inactive)
ROOT
ATOM      1  C4' PXY d   1       5.640  -5.897   0.294  0.00  0.00     0.077 C 
ATOM      2  C1' PXY d   1       1.198  -2.251   0.924  0.00  0.00     0.077 C 
ATOM      3  C1  PXY d   1       2.368  -3.204   0.771  0.00  0.00    -0.082 A 
ATOM      4  C2  PXY d   1       2.785  -3.538  -0.440  0.00  0.00     0.003 A 
ATOM      5  C3  PXY d   1       3.820  -4.423  -0.597  0.00  0.00     0.003 A 
ATOM      6  C4  PXY d   1       4.470  -4.931   0.497  0.00  0.00    -0.082 A 
ATOM      7  C5  PXY d   1       4.057  -4.587   1.735  0.00  0.00     0.003 A 
ATOM      8  C6  PXY d   1       2.977  -3.719   1.873  0.00  0.00     0.003 A 
ENDROOT
TORSDOF 0
ENDMDL
