MODEL 1
REMARK minimizedAffinity 11.1363592
REMARK minimizedRMSD -1
REMARK  0 active torsions:
REMARK  status: ('A' for Active; 'I' for Inactive)
ROOT
ATOM      1  C4' PXY d   1       2.179   6.000   6.000  0.00  0.00     0.077 C 
ATOM      2  C1' PXY d   1       2.613   2.455   1.455  0.00  0.00     0.077 C 
ATOM      3  C1  PXY d   1       2.506   3.376   2.654  0.00  0.00    -0.082 A 
ATOM      4  C2  PXY d   1       1.545   4.285   2.697  0.00  0.00     0.003 A 
ATOM      5  C3  PXY d   1       1.453   5.147   3.759  0.00  0.00     0.003 A 
ATOM      6  C4  PXY d   1       2.320   5.043   4.813  0.00  0.00    -0.082 A 
ATOM      7  C5  PXY d   1       3.296   4.111   4.782  0.00  0.00     0.003 A 
ATOM      8  C6  PXY d   1       3.398   3.273   3.676  0.00  0.00     0.003 A 
ENDROOT
TORSDOF 0
ENDMDL
