MODEL 1
REMARK minimizedAffinity 4.73373795
REMARK minimizedRMSD -1
REMARK  0 active torsions:
REMARK  status: ('A' for Active; 'I' for Inactive)
ROOT
ATOM      1  C4' PXY d   1      -0.860  -1.882   2.449  0.00  0.00     0.077 C 
ATOM      2  C1' PXY d   1       3.432  -5.113   0.315  0.00  0.00     0.077 C 
ATOM      3  C1  PXY d   1       2.315  -4.258   0.880  0.00  0.00    -0.082 A 
ATOM      4  C2  PXY d   1       1.104  -4.772   1.017  0.00  0.00     0.003 A 
ATOM      5  C3  PXY d   1       0.075  -4.003   1.497  0.00  0.00     0.003 A 
ATOM      6  C4  PXY d   1       0.300  -2.711   1.891  0.00  0.00    -0.082 A 
ATOM      7  C5  PXY d   1       1.537  -2.183   1.765  0.00  0.00     0.003 A 
ATOM      8  C6  PXY d   1       2.558  -2.968   1.237  0.00  0.00     0.003 A 
ENDROOT
TORSDOF 0
ENDMDL
