MODEL 1
REMARK minimizedAffinity -0.566627324
REMARK minimizedRMSD -1
REMARK  0 active torsions:
REMARK  status: ('A' for Active; 'I' for Inactive)
ROOT
ATOM      1  C4' PXY d   1      -5.999   0.313   3.982  0.00  0.00     0.077 C 
ATOM      2  C1' PXY d   1      -3.423   5.078   5.999  0.00  0.00     0.077 C 
ATOM      3  C1  PXY d   1      -4.105   3.827   5.481  0.00  0.00    -0.082 A 
ATOM      4  C2  PXY d   1      -3.534   3.122   4.518  0.00  0.00     0.003 A 
ATOM      5  C3  PXY d   1      -4.153   2.006   4.016  0.00  0.00     0.003 A 
ATOM      6  C4  PXY d   1      -5.342   1.577   4.542  0.00  0.00    -0.082 A 
ATOM      7  C5  PXY d   1      -5.925   2.285   5.532  0.00  0.00     0.003 A 
ATOM      8  C6  PXY d   1      -5.301   3.438   6.000  0.00  0.00     0.003 A 
ENDROOT
TORSDOF 0
ENDMDL
