MODEL 1
REMARK minimizedAffinity 7.79120207
REMARK minimizedRMSD -1
REMARK  0 active torsions:
REMARK  status: ('A' for Active; 'I' for Inactive)
ROOT
ATOM      1  C4' PXY d   1       4.979  -2.385   0.107  0.00  0.00     0.077 C 
ATOM      2  C1' PXY d   1      -0.693  -1.947   1.132  0.00  0.00     0.077 C 
ATOM      3  C1  PXY d   1       0.793  -2.074   0.860  0.00  0.00    -0.082 A 
ATOM      4  C2  PXY d   1       1.643  -1.271   1.479  0.00  0.00     0.003 A 
ATOM      5  C3  PXY d   1       2.987  -1.351   1.220  0.00  0.00     0.003 A 
ATOM      6  C4  PXY d   1       3.471  -2.299   0.358  0.00  0.00    -0.082 A 
ATOM      7  C5  PXY d   1       2.611  -3.129  -0.269  0.00  0.00     0.003 A 
ATOM      8  C6  PXY d   1       1.247  -3.004  -0.024  0.00  0.00     0.003 A 
ENDROOT
TORSDOF 0
ENDMDL
