MODEL 1
REMARK minimizedAffinity 8.9087553
REMARK minimizedRMSD -1
REMARK  0 active torsions:
REMARK  status: ('A' for Active; 'I' for Inactive)
ROOT
ATOM      1  C4' PXY d   1      -0.100  -1.464   1.715  0.00  0.00     0.077 C 
ATOM      2  C1' PXY d   1       3.982  -5.196   0.034  0.00  0.00     0.077 C 
ATOM      3  C1  PXY d   1       2.920  -4.208   0.476  0.00  0.00    -0.082 A 
ATOM      4  C2  PXY d   1       1.808  -4.651   1.038  0.00  0.00     0.003 A 
ATOM      5  C3  PXY d   1       0.824  -3.774   1.415  0.00  0.00     0.003 A 
ATOM      6  C4  PXY d   1       1.003  -2.425   1.262  0.00  0.00    -0.082 A 
ATOM      7  C5  PXY d   1       2.140  -1.964   0.699  0.00  0.00     0.003 A 
ATOM      8  C6  PXY d   1       3.109  -2.874   0.286  0.00  0.00     0.003 A 
ENDROOT
TORSDOF 0
ENDMDL
