MODEL 1
REMARK minimizedAffinity 0.228993595
REMARK minimizedRMSD -1
REMARK  0 active torsions:
REMARK  status: ('A' for Active; 'I' for Inactive)
ROOT
ATOM      1  C4' PXY d   1      -0.351  -2.414   1.846  0.00  0.00     0.077 C 
ATOM      2  C1' PXY d   1       5.244  -3.160   0.600  0.00  0.00     0.077 C 
ATOM      3  C1  PXY d   1       3.773  -2.969   0.915  0.00  0.00    -0.082 A 
ATOM      4  C2  PXY d   1       3.411  -2.104   1.848  0.00  0.00     0.003 A 
ATOM      5  C3  PXY d   1       2.088  -1.941   2.168  0.00  0.00     0.003 A 
ATOM      6  C4  PXY d   1       1.121  -2.633   1.488  0.00  0.00    -0.082 A 
ATOM      7  C5  PXY d   1       1.482  -3.510   0.527  0.00  0.00     0.003 A 
ATOM      8  C6  PXY d   1       2.833  -3.690   0.246  0.00  0.00     0.003 A 
ENDROOT
TORSDOF 0
ENDMDL
