MODEL 1
REMARK minimizedAffinity 3.54415894
REMARK minimizedRMSD -1
REMARK  0 active torsions:
REMARK  status: ('A' for Active; 'I' for Inactive)
ROOT
ATOM      1  C4' PXY d   1       5.575  -5.788   1.117  0.00  0.00     0.077 C 
ATOM      2  C1' PXY d   1       1.729  -1.509   1.678  0.00  0.00     0.077 C 
ATOM      3  C1  PXY d   1       2.744  -2.626   1.540  0.00  0.00    -0.082 A 
ATOM      4  C2  PXY d   1       2.858  -3.269   0.389  0.00  0.00     0.003 A 
ATOM      5  C3  PXY d   1       3.749  -4.303   0.257  0.00  0.00     0.003 A 
ATOM      6  C4  PXY d   1       4.570  -4.648   1.298  0.00  0.00    -0.082 A 
ATOM      7  C5  PXY d   1       4.467  -3.990   2.472  0.00  0.00     0.003 A 
ATOM      8  C6  PXY d   1       3.527  -2.971   2.599  0.00  0.00     0.003 A 
ENDROOT
TORSDOF 0
ENDMDL
