MODEL 1
REMARK minimizedAffinity 9.38794231
REMARK minimizedRMSD -1
REMARK  0 active torsions:
REMARK  status: ('A' for Active; 'I' for Inactive)
ROOT
ATOM      1  C4' PXY d   1       3.701  -2.248   4.127  0.00  0.00     0.077 C 
ATOM      2  C1' PXY d   1       0.320  -1.410  -0.487  0.00  0.00     0.077 C 
ATOM      3  C1  PXY d   1       1.203  -1.618   0.728  0.00  0.00    -0.082 A 
ATOM      4  C2  PXY d   1       2.285  -2.372   0.629  0.00  0.00     0.003 A 
ATOM      5  C3  PXY d   1       3.077  -2.598   1.726  0.00  0.00     0.003 A 
ATOM      6  C4  PXY d   1       2.786  -2.002   2.924  0.00  0.00    -0.082 A 
ATOM      7  C5  PXY d   1       1.689  -1.222   3.030  0.00  0.00     0.003 A 
ATOM      8  C6  PXY d   1       0.876  -1.040   1.916  0.00  0.00     0.003 A 
ENDROOT
TORSDOF 0
ENDMDL
