MODEL 1
REMARK minimizedAffinity 15.1098146
REMARK minimizedRMSD -1
REMARK  0 active torsions:
REMARK  status: ('A' for Active; 'I' for Inactive)
ROOT
ATOM      1  C2' OXE d   1       2.904   0.993  -0.890  0.00  0.00     0.078 C 
ATOM      2  C1' OXE d   1       2.303  -1.580  -1.838  0.00  0.00     0.078 C 
ATOM      3  C1  OXE d   1       3.079  -1.469  -0.549  0.00  0.00    -0.078 A 
ATOM      4  C2  OXE d   1       3.409  -0.207  -0.117  0.00  0.00    -0.078 A 
ATOM      5  C3  OXE d   1       4.077  -0.045   1.094  0.00  0.00     0.003 A 
ATOM      6  C4  OXE d   1       4.548  -1.160   1.797  0.00  0.00    -0.002 A 
ATOM      7  C5  OXE d   1       4.257  -2.455   1.354  0.00  0.00    -0.002 A 
ATOM      8  C6  OXE d   1       3.488  -2.626   0.208  0.00  0.00     0.003 A 
ENDROOT
TORSDOF 0
ENDMDL
