MODEL 1
REMARK minimizedAffinity 4.69822121
REMARK minimizedRMSD -1
REMARK  0 active torsions:
REMARK  status: ('A' for Active; 'I' for Inactive)
ROOT
ATOM      1  C2' OXE d   1       3.761   1.682  -0.250  0.00  0.00     0.078 C 
ATOM      2  C1' OXE d   1       4.660   0.771  -2.748  0.00  0.00     0.078 C 
ATOM      3  C1  OXE d   1       3.767  -0.142  -1.946  0.00  0.00    -0.078 A 
ATOM      4  C2  OXE d   1       3.370   0.293  -0.705  0.00  0.00    -0.078 A 
ATOM      5  C3  OXE d   1       2.501  -0.487   0.053  0.00  0.00     0.003 A 
ATOM      6  C4  OXE d   1       2.152  -1.775  -0.370  0.00  0.00    -0.002 A 
ATOM      7  C5  OXE d   1       2.578  -2.253  -1.614  0.00  0.00    -0.002 A 
ATOM      8  C6  OXE d   1       3.349  -1.434  -2.431  0.00  0.00     0.003 A 
ENDROOT
TORSDOF 0
ENDMDL
