MODEL 1
REMARK minimizedAffinity 1.389431
REMARK minimizedRMSD -1
REMARK  0 active torsions:
REMARK  status: ('A' for Active; 'I' for Inactive)
ROOT
ATOM      1  C2' OXE d   1       3.990   5.699   5.972  0.00  0.00     0.078 C 
ATOM      2  C1' OXE d   1       1.302   4.891   5.954  0.00  0.00     0.078 C 
ATOM      3  C1  OXE d   1       2.359   3.816   5.969  0.00  0.00    -0.078 A 
ATOM      4  C2  OXE d   1       3.672   4.220   5.930  0.00  0.00    -0.078 A 
ATOM      5  C3  OXE d   1       4.688   3.271   5.997  0.00  0.00     0.003 A 
ATOM      6  C4  OXE d   1       4.386   1.905   5.948  0.00  0.00    -0.002 A 
ATOM      7  C5  OXE d   1       3.056   1.471   5.947  0.00  0.00    -0.002 A 
ATOM      8  C6  OXE d   1       2.033   2.412   6.000  0.00  0.00     0.003 A 
ENDROOT
TORSDOF 0
ENDMDL
