MODEL 1
REMARK minimizedAffinity 7.98448992
REMARK minimizedRMSD -1
REMARK  0 active torsions:
REMARK  status: ('A' for Active; 'I' for Inactive)
ROOT
ATOM      1  C2' OXE d   1       1.177  -2.065   3.765  0.00  0.00     0.078 C 
ATOM      2  C1' OXE d   1      -1.118  -3.680   3.715  0.00  0.00     0.078 C 
ATOM      3  C1  OXE d   1       0.054  -4.149   4.541  0.00  0.00    -0.078 A 
ATOM      4  C2  OXE d   1       1.189  -3.375   4.522  0.00  0.00    -0.078 A 
ATOM      5  C3  OXE d   1       2.280  -3.733   5.309  0.00  0.00     0.003 A 
ATOM      6  C4  OXE d   1       2.287  -4.952   5.999  0.00  0.00    -0.002 A 
ATOM      7  C5  OXE d   1       1.156  -5.774   5.999  0.00  0.00    -0.002 A 
ATOM      8  C6  OXE d   1       0.018  -5.367   5.311  0.00  0.00     0.003 A 
ENDROOT
TORSDOF 0
ENDMDL
