MODEL 1
REMARK minimizedAffinity 8.18773556
REMARK minimizedRMSD -1
REMARK  0 active torsions:
REMARK  status: ('A' for Active; 'I' for Inactive)
ROOT
ATOM      1  C2' OXE d   1       1.956   2.035  -0.876  0.00  0.00     0.078 C 
ATOM      2  C1' OXE d   1       3.168   1.589   1.617  0.00  0.00     0.078 C 
ATOM      3  C1  OXE d   1       3.041   0.416   0.677  0.00  0.00    -0.078 A 
ATOM      4  C2  OXE d   1       2.404   0.633  -0.522  0.00  0.00    -0.078 A 
ATOM      5  C3  OXE d   1       2.309  -0.401  -1.449  0.00  0.00     0.003 A 
ATOM      6  C4  OXE d   1       2.717  -1.697  -1.109  0.00  0.00    -0.002 A 
ATOM      7  C5  OXE d   1       3.332  -1.948   0.122  0.00  0.00    -0.002 A 
ATOM      8  C6  OXE d   1       3.539  -0.896   1.007  0.00  0.00     0.003 A 
ENDROOT
TORSDOF 0
ENDMDL
