MODEL 1
REMARK minimizedAffinity 4.43739319
REMARK minimizedRMSD -1
REMARK  0 active torsions:
REMARK  status: ('A' for Active; 'I' for Inactive)
ROOT
ATOM      1  C2' OXE d   1      -1.441   0.668   1.562  0.00  0.00     0.078 C 
ATOM      2  C1' OXE d   1      -1.214   1.389  -1.142  0.00  0.00     0.078 C 
ATOM      3  C1  OXE d   1      -2.579   1.466  -0.505  0.00  0.00    -0.078 A 
ATOM      4  C2  OXE d   1      -2.689   1.066   0.805  0.00  0.00    -0.078 A 
ATOM      5  C3  OXE d   1      -3.915   1.169   1.456  0.00  0.00     0.003 A 
ATOM      6  C4  OXE d   1      -5.067   1.529   0.746  0.00  0.00    -0.002 A 
ATOM      7  C5  OXE d   1      -4.984   1.902  -0.600  0.00  0.00    -0.002 A 
ATOM      8  C6  OXE d   1      -3.743   1.916  -1.228  0.00  0.00     0.003 A 
ENDROOT
TORSDOF 0
ENDMDL
