MODEL 1
REMARK minimizedAffinity 4.14906311
REMARK minimizedRMSD -1
REMARK  0 active torsions:
REMARK  status: ('A' for Active; 'I' for Inactive)
ROOT
ATOM      1  C2' OXE d   1      -1.961  -0.280  -2.489  0.00  0.00     0.078 C 
ATOM      2  C1' OXE d   1      -0.651   1.694  -0.982  0.00  0.00     0.078 C 
ATOM      3  C1  OXE d   1      -2.039   1.288  -0.555  0.00  0.00    -0.078 A 
ATOM      4  C2  OXE d   1      -2.691   0.355  -1.325  0.00  0.00    -0.078 A 
ATOM      5  C3  OXE d   1      -3.952  -0.094  -0.944  0.00  0.00     0.003 A 
ATOM      6  C4  OXE d   1      -4.624   0.505   0.128  0.00  0.00    -0.002 A 
ATOM      7  C5  OXE d   1      -3.994   1.486   0.902  0.00  0.00    -0.002 A 
ATOM      8  C6  OXE d   1      -2.689   1.857   0.601  0.00  0.00     0.003 A 
ENDROOT
TORSDOF 0
ENDMDL
