MODEL 1
REMARK minimizedAffinity 1.47368038
REMARK minimizedRMSD -1
REMARK  0 active torsions:
REMARK  status: ('A' for Active; 'I' for Inactive)
ROOT
ATOM      1  C2' OXE d   1       0.421  -3.570  -0.932  0.00  0.00     0.078 C 
ATOM      2  C1' OXE d   1      -0.107  -1.214  -2.364  0.00  0.00     0.078 C 
ATOM      3  C1  OXE d   1       1.071  -1.216  -1.422  0.00  0.00    -0.078 A 
ATOM      4  C2  OXE d   1       1.294  -2.357  -0.691  0.00  0.00    -0.078 A 
ATOM      5  C3  OXE d   1       2.400  -2.431   0.152  0.00  0.00     0.003 A 
ATOM      6  C4  OXE d   1       3.197  -1.302   0.377  0.00  0.00    -0.002 A 
ATOM      7  C5  OXE d   1       2.963  -0.117  -0.328  0.00  0.00    -0.002 A 
ATOM      8  C6  OXE d   1       1.933  -0.070  -1.261  0.00  0.00     0.003 A 
ENDROOT
TORSDOF 0
ENDMDL
