MODEL 1
REMARK minimizedAffinity 9.66459274
REMARK minimizedRMSD -1
REMARK  0 active torsions:
REMARK  status: ('A' for Active; 'I' for Inactive)
ROOT
ATOM      1  C2' OXE d   1      -1.226  -0.113  -3.300  0.00  0.00     0.078 C 
ATOM      2  C1' OXE d   1      -3.412  -1.313  -2.011  0.00  0.00     0.078 C 
ATOM      3  C1  OXE d   1      -3.698  -0.396  -3.173  0.00  0.00    -0.078 A 
ATOM      4  C2  OXE d   1      -2.626   0.224  -3.768  0.00  0.00    -0.078 A 
ATOM      5  C3  OXE d   1      -2.829   1.038  -4.879  0.00  0.00     0.003 A 
ATOM      6  C4  OXE d   1      -4.128   1.352  -5.299  0.00  0.00    -0.002 A 
ATOM      7  C5  OXE d   1      -5.236   0.763  -4.681  0.00  0.00    -0.002 A 
ATOM      8  C6  OXE d   1      -5.037  -0.144  -3.646  0.00  0.00     0.003 A 
ENDROOT
TORSDOF 0
ENDMDL
