MODEL 1
REMARK minimizedAffinity -4.25992918
REMARK minimizedRMSD -1
REMARK  0 active torsions:
REMARK  status: ('A' for Active; 'I' for Inactive)
ROOT
ATOM      1  C2' OXE d   1       2.482   5.936   5.984  0.00  0.00     0.078 C 
ATOM      2  C1' OXE d   1       3.583   5.997   3.402  0.00  0.00     0.078 C 
ATOM      3  C1  OXE d   1       3.437   4.654   4.073  0.00  0.00    -0.078 A 
ATOM      4  C2  OXE d   1       2.941   4.638   5.355  0.00  0.00    -0.078 A 
ATOM      5  C3  OXE d   1       2.736   3.421   5.999  0.00  0.00     0.003 A 
ATOM      6  C4  OXE d   1       3.172   2.227   5.414  0.00  0.00    -0.002 A 
ATOM      7  C5  OXE d   1       3.717   2.225   4.125  0.00  0.00    -0.002 A 
ATOM      8  C6  OXE d   1       3.817   3.422   3.426  0.00  0.00     0.003 A 
ENDROOT
TORSDOF 0
ENDMDL
