MODEL 1
REMARK minimizedAffinity 8.03351212
REMARK minimizedRMSD -1
REMARK  0 active torsions:
REMARK  status: ('A' for Active; 'I' for Inactive)
ROOT
ATOM      1  C2' OXE d   1      -4.753   1.884   2.264  0.00  0.00     0.078 C 
ATOM      2  C1' OXE d   1      -6.000   0.380   0.248  0.00  0.00     0.078 C 
ATOM      3  C1  OXE d   1      -4.512   0.605   0.140  0.00  0.00    -0.078 A 
ATOM      4  C2  OXE d   1      -3.919   1.381   1.106  0.00  0.00    -0.078 A 
ATOM      5  C3  OXE d   1      -2.540   1.574   1.085  0.00  0.00     0.003 A 
ATOM      6  C4  OXE d   1      -1.777   1.114   0.005  0.00  0.00    -0.002 A 
ATOM      7  C5  OXE d   1      -2.369   0.355  -1.011  0.00  0.00    -0.002 A 
ATOM      8  C6  OXE d   1      -3.725   0.056  -0.936  0.00  0.00     0.003 A 
ENDROOT
TORSDOF 0
ENDMDL
