MODEL 1
REMARK minimizedAffinity 0.0127653368
REMARK minimizedRMSD -1
REMARK  0 active torsions:
REMARK  status: ('A' for Active; 'I' for Inactive)
ROOT
ATOM      1  C2' OXE d   1      -3.864   1.625   1.272  0.00  0.00     0.078 C 
ATOM      2  C1' OXE d   1      -5.066   3.010   3.397  0.00  0.00     0.078 C 
ATOM      3  C1  OXE d   1      -3.559   2.983   3.338  0.00  0.00    -0.078 A 
ATOM      4  C2  OXE d   1      -2.979   2.264   2.321  0.00  0.00    -0.078 A 
ATOM      5  C3  OXE d   1      -1.594   2.252   2.188  0.00  0.00     0.003 A 
ATOM      6  C4  OXE d   1      -0.783   2.837   3.168  0.00  0.00    -0.002 A 
ATOM      7  C5  OXE d   1      -1.353   3.541   4.234  0.00  0.00    -0.002 A 
ATOM      8  C6  OXE d   1      -2.736   3.660   4.310  0.00  0.00     0.003 A 
ENDROOT
TORSDOF 0
ENDMDL
