MODEL 1
REMARK minimizedAffinity -1.19409847
REMARK minimizedRMSD -1
REMARK  0 active torsions:
REMARK  status: ('A' for Active; 'I' for Inactive)
ROOT
ATOM      1  C2' OXE d   1       0.878   4.852   4.660  0.00  0.00     0.078 C 
ATOM      2  C1' OXE d   1       2.322   2.448   4.542  0.00  0.00     0.078 C 
ATOM      3  C1  OXE d   1       3.034   3.671   5.063  0.00  0.00    -0.078 A 
ATOM      4  C2  OXE d   1       2.334   4.853   5.074  0.00  0.00    -0.078 A 
ATOM      5  C3  OXE d   1       2.926   6.000   5.596  0.00  0.00     0.003 A 
ATOM      6  C4  OXE d   1       4.276   5.995   5.967  0.00  0.00    -0.002 A 
ATOM      7  C5  OXE d   1       5.019   4.810   5.927  0.00  0.00    -0.002 A 
ATOM      8  C6  OXE d   1       4.402   3.632   5.518  0.00  0.00     0.003 A 
ENDROOT
TORSDOF 0
ENDMDL
