MODEL 1
REMARK minimizedAffinity 0.123804912
REMARK minimizedRMSD -1
REMARK  0 active torsions:
REMARK  status: ('A' for Active; 'I' for Inactive)
ROOT
ATOM      1  C   UNL d   1       3.175   3.671  -6.000  0.00  0.00    -0.002 A 
ATOM      2  C1  UNL d   1       3.141   5.058  -5.997  0.00  0.00     0.010 A 
ATOM      3  C2  UNL d   1       1.922   5.738  -5.996  0.00  0.00     0.041 A 
ATOM      4  C3  UNL d   1       0.726   4.994  -5.995  0.00  0.00    -0.075 A 
ATOM      5  S   UNL d   1      -0.884   5.612  -5.993  0.00  0.00     0.015 SA
ATOM      6  C4  UNL d   1      -1.564   4.049  -5.995  0.00  0.00     0.022 A 
ATOM      7  C5  UNL d   1      -0.601   3.068  -5.998  0.00  0.00     0.026 A 
ATOM      8  C6  UNL d   1       0.735   3.596  -5.997  0.00  0.00    -0.082 A 
ATOM      9  C7  UNL d   1       1.987   2.936  -6.000  0.00  0.00     0.045 A 
ENDROOT
TORSDOF 0
ENDMDL
