MODEL 1
REMARK minimizedAffinity 13.7308455
REMARK minimizedRMSD -1
REMARK  0 active torsions:
REMARK  status: ('A' for Active; 'I' for Inactive)
ROOT
ATOM      1  C   UNL d   1      -2.960   4.276  -5.998  0.00  0.00    -0.002 A 
ATOM      2  C1  UNL d   1      -3.211   2.911  -5.998  0.00  0.00     0.010 A 
ATOM      3  C2  UNL d   1      -2.157   1.996  -5.999  0.00  0.00     0.041 A 
ATOM      4  C3  UNL d   1      -0.834   2.480  -5.999  0.00  0.00    -0.075 A 
ATOM      5  S   UNL d   1       0.615   1.545  -5.999  0.00  0.00     0.015 SA
ATOM      6  C4  UNL d   1       1.601   2.936  -5.999  0.00  0.00     0.022 A 
ATOM      7  C5  UNL d   1       0.859   4.094  -5.999  0.00  0.00     0.026 A 
ATOM      8  C6  UNL d   1      -0.556   3.850  -5.998  0.00  0.00    -0.082 A 
ATOM      9  C7  UNL d   1      -1.647   4.753  -5.998  0.00  0.00     0.045 A 
ENDROOT
TORSDOF 0
ENDMDL
