MODEL 1
REMARK minimizedAffinity -1.04404783
REMARK minimizedRMSD -1
REMARK  0 active torsions:
REMARK  status: ('A' for Active; 'I' for Inactive)
ROOT
ATOM      1  C   UNL d   1      -4.133   3.766  -5.972  0.00  0.00    -0.002 A 
ATOM      2  C1  UNL d   1      -3.602   5.048  -5.976  0.00  0.00     0.010 A 
ATOM      3  C2  UNL d   1      -2.219   5.243  -5.983  0.00  0.00     0.041 A 
ATOM      4  C3  UNL d   1      -1.372   4.117  -5.989  0.00  0.00    -0.075 A 
ATOM      5  S   UNL d   1       0.352   4.114  -5.999  0.00  0.00     0.015 SA
ATOM      6  C4  UNL d   1       0.424   2.412  -6.000  0.00  0.00     0.022 A 
ATOM      7  C5  UNL d   1      -0.828   1.843  -5.992  0.00  0.00     0.026 A 
ATOM      8  C6  UNL d   1      -1.884   2.817  -5.986  0.00  0.00    -0.082 A 
ATOM      9  C7  UNL d   1      -3.290   2.652  -5.978  0.00  0.00     0.045 A 
ENDROOT
TORSDOF 0
ENDMDL
