MODEL 1
REMARK minimizedAffinity 9.66206264
REMARK minimizedRMSD -1
REMARK  0 active torsions:
REMARK  status: ('A' for Active; 'I' for Inactive)
ROOT
ATOM      1  C   UNL d   1       1.495   3.510  -0.820  0.00  0.00    -0.002 A 
ATOM      2  C1  UNL d   1       1.395   2.745  -1.974  0.00  0.00     0.010 A 
ATOM      3  C2  UNL d   1       0.855   1.459  -1.929  0.00  0.00     0.041 A 
ATOM      4  C3  UNL d   1       0.411   0.948  -0.693  0.00  0.00    -0.075 A 
ATOM      5  S   UNL d   1      -0.285  -0.601  -0.398  0.00  0.00     0.015 SA
ATOM      6  C4  UNL d   1      -0.467  -0.285   1.267  0.00  0.00     0.022 A 
ATOM      7  C5  UNL d   1      -0.012   0.967   1.607  0.00  0.00     0.026 A 
ATOM      8  C6  UNL d   1       0.501   1.699   0.483  0.00  0.00    -0.082 A 
ATOM      9  C7  UNL d   1       1.054   3.000   0.404  0.00  0.00     0.045 A 
ENDROOT
TORSDOF 0
ENDMDL
