MODEL 1
REMARK minimizedAffinity 8.56612968
REMARK minimizedRMSD -1
REMARK  0 active torsions:
REMARK  status: ('A' for Active; 'I' for Inactive)
ROOT
ATOM      1  C   UNL d   1       1.590   2.719   0.308  0.00  0.00    -0.002 A 
ATOM      2  C1  UNL d   1       1.555   2.321  -1.022  0.00  0.00     0.010 A 
ATOM      3  C2  UNL d   1       0.744   1.258  -1.423  0.00  0.00     0.041 A 
ATOM      4  C3  UNL d   1      -0.040   0.596  -0.458  0.00  0.00    -0.075 A 
ATOM      5  S   UNL d   1      -1.109  -0.732  -0.719  0.00  0.00     0.015 SA
ATOM      6  C4  UNL d   1      -1.544  -0.802   0.927  0.00  0.00     0.022 A 
ATOM      7  C5  UNL d   1      -0.898   0.157   1.673  0.00  0.00     0.026 A 
ATOM      8  C6  UNL d   1      -0.021   0.978   0.886  0.00  0.00    -0.082 A 
ATOM      9  C7  UNL d   1       0.812   2.059   1.262  0.00  0.00     0.045 A 
ENDROOT
TORSDOF 0
ENDMDL
