MODEL 1
REMARK minimizedAffinity 9.22481251
REMARK minimizedRMSD -1
REMARK  0 active torsions:
REMARK  status: ('A' for Active; 'I' for Inactive)
ROOT
ATOM      1  C   UNL d   1      -4.092  -5.992   0.734  0.00  0.00    -0.002 A 
ATOM      2  C1  UNL d   1      -4.815  -4.827   0.942  0.00  0.00     0.010 A 
ATOM      3  C2  UNL d   1      -4.467  -3.647   0.282  0.00  0.00     0.041 A 
ATOM      4  C3  UNL d   1      -3.370  -3.658  -0.601  0.00  0.00    -0.075 A 
ATOM      5  S   UNL d   1      -2.760  -2.333  -1.520  0.00  0.00     0.015 SA
ATOM      6  C4  UNL d   1      -1.526  -3.283  -2.211  0.00  0.00     0.022 A 
ATOM      7  C5  UNL d   1      -1.563  -4.582  -1.763  0.00  0.00     0.026 A 
ATOM      8  C6  UNL d   1      -2.626  -4.820  -0.828  0.00  0.00    -0.082 A 
ATOM      9  C7  UNL d   1      -3.004  -6.000  -0.143  0.00  0.00     0.045 A 
ENDROOT
TORSDOF 0
ENDMDL
