MODEL 1
REMARK minimizedAffinity 9.89058113
REMARK minimizedRMSD -1
REMARK  0 active torsions:
REMARK  status: ('A' for Active; 'I' for Inactive)
ROOT
ATOM      1  C   UNL d   1       5.407   3.268  -5.966  0.00  0.00    -0.002 A 
ATOM      2  C1  UNL d   1       5.002   4.595  -5.980  0.00  0.00     0.010 A 
ATOM      3  C2  UNL d   1       3.645   4.923  -5.992  0.00  0.00     0.041 A 
ATOM      4  C3  UNL d   1       2.693   3.885  -5.987  0.00  0.00    -0.075 A 
ATOM      5  S   UNL d   1       0.976   4.048  -5.998  0.00  0.00     0.015 SA
ATOM      6  C4  UNL d   1       0.741   2.360  -5.984  0.00  0.00     0.022 A 
ATOM      7  C5  UNL d   1       1.931   1.673  -5.971  0.00  0.00     0.026 A 
ATOM      8  C6  UNL d   1       3.076   2.541  -5.972  0.00  0.00    -0.082 A 
ATOM      9  C7  UNL d   1       4.460   2.240  -5.961  0.00  0.00     0.045 A 
ENDROOT
TORSDOF 0
ENDMDL
