MODEL 1
REMARK minimizedAffinity 7.99266243
REMARK minimizedRMSD -1
REMARK  0 active torsions:
REMARK  status: ('A' for Active; 'I' for Inactive)
ROOT
ATOM      1  C   UNL d   1      -2.583   4.110  -6.000  0.00  0.00    -0.002 A 
ATOM      2  C1  UNL d   1      -2.883   2.755  -5.999  0.00  0.00     0.010 A 
ATOM      3  C2  UNL d   1      -1.864   1.801  -6.000  0.00  0.00     0.041 A 
ATOM      4  C3  UNL d   1      -0.524   2.236  -5.999  0.00  0.00    -0.075 A 
ATOM      5  S   UNL d   1       0.890   1.248  -5.999  0.00  0.00     0.015 SA
ATOM      6  C4  UNL d   1       1.926   2.602  -6.000  0.00  0.00     0.022 A 
ATOM      7  C5  UNL d   1       1.228   3.786  -6.000  0.00  0.00     0.026 A 
ATOM      8  C6  UNL d   1      -0.196   3.595  -5.999  0.00  0.00    -0.082 A 
ATOM      9  C7  UNL d   1      -1.252   4.537  -5.999  0.00  0.00     0.045 A 
ENDROOT
TORSDOF 0
ENDMDL
