MODEL 1
REMARK minimizedAffinity 10.6192961
REMARK minimizedRMSD -1
REMARK  0 active torsions:
REMARK  status: ('A' for Active; 'I' for Inactive)
ROOT
ATOM      1  C   UNL d   1       1.820   3.626   0.757  0.00  0.00    -0.002 A 
ATOM      2  C1  UNL d   1       1.962   3.497  -0.617  0.00  0.00     0.010 A 
ATOM      3  C2  UNL d   1       1.378   2.424  -1.294  0.00  0.00     0.041 A 
ATOM      4  C3  UNL d   1       0.641   1.474  -0.559  0.00  0.00    -0.075 A 
ATOM      5  S   UNL d   1      -0.163   0.079  -1.175  0.00  0.00     0.015 SA
ATOM      6  C4  UNL d   1      -0.715  -0.378   0.372  0.00  0.00     0.022 A 
ATOM      7  C5  UNL d   1      -0.305   0.501   1.346  0.00  0.00     0.026 A 
ATOM      8  C6  UNL d   1       0.483   1.584   0.826  0.00  0.00    -0.082 A 
ATOM      9  C7  UNL d   1       1.087   2.682   1.483  0.00  0.00     0.045 A 
ENDROOT
TORSDOF 0
ENDMDL
