MODEL 1
REMARK minimizedAffinity 8.63762665
REMARK minimizedRMSD -1
REMARK  3 active torsions:
REMARK  status: ('A' for Active; 'I' for Inactive)
REMARK    1  A    between atoms: C3'_2  and  C2'_3 
REMARK    2  A    between atoms: C2'_3  and  C1'_4 
REMARK    3  A    between atoms: C1'_4  and  C1_5 
ROOT
ATOM      1  C1  N4B d   1       1.333  -0.709   2.523  0.00  0.00    -0.075 A 
ATOM      2  C2  N4B d   1       0.838  -1.009   3.811  0.00  0.00     0.002 A 
ATOM      3  C3  N4B d   1       1.390  -2.035   4.538  0.00  0.00     0.002 A 
ATOM      4  C4  N4B d   1       2.422  -2.784   3.991  0.00  0.00    -0.004 A 
ATOM      5  C5  N4B d   1       2.912  -2.472   2.757  0.00  0.00     0.002 A 
ATOM      6  C6  N4B d   1       2.368  -1.441   2.017  0.00  0.00     0.002 A 
ENDROOT
BRANCH   1   7
ATOM      7  C1' N4B d   1       0.704   0.347   1.657  0.00  0.00     0.057 C 
BRANCH   7   8
ATOM      8  C2' N4B d   1      -0.664  -0.138   1.188  0.00  0.00     0.009 C 
BRANCH   8   9
ATOM      9  C3' N4B d   1      -1.382   0.906   0.350  0.00  0.00     0.004 C 
ATOM     10  C4' N4B d   1      -2.367   1.710   1.143  0.00  0.00     0.003 C 
ENDBRANCH   8   9
ENDBRANCH   7   8
ENDBRANCH   1   7
TORSDOF 3
ENDMDL
