MODEL 1
REMARK minimizedAffinity 9.59910393
REMARK minimizedRMSD -1
REMARK  3 active torsions:
REMARK  status: ('A' for Active; 'I' for Inactive)
REMARK    1  A    between atoms: C3'_2  and  C2'_3 
REMARK    2  A    between atoms: C2'_3  and  C1'_4 
REMARK    3  A    between atoms: C1'_4  and  C1_5 
ROOT
ATOM      1  C1  N4B d   1       2.521  -1.583   3.693  0.00  0.00    -0.075 A 
ATOM      2  C2  N4B d   1       2.734  -0.303   3.136  0.00  0.00     0.002 A 
ATOM      3  C3  N4B d   1       1.881   0.178   2.173  0.00  0.00     0.002 A 
ATOM      4  C4  N4B d   1       0.824  -0.608   1.740  0.00  0.00    -0.004 A 
ATOM      5  C5  N4B d   1       0.610  -1.833   2.301  0.00  0.00     0.002 A 
ATOM      6  C6  N4B d   1       1.457  -2.327   3.273  0.00  0.00     0.002 A 
ENDROOT
BRANCH   1   7
ATOM      7  C1' N4B d   1       3.477  -2.185   4.686  0.00  0.00     0.057 C 
BRANCH   7   8
ATOM      8  C2' N4B d   1       4.727  -2.661   3.953  0.00  0.00     0.009 C 
BRANCH   8   9
ATOM      9  C3' N4B d   1       5.988  -2.015   4.502  0.00  0.00     0.004 C 
ATOM     10  C4' N4B d   1       6.000  -1.944   6.000  0.00  0.00     0.003 C 
ENDBRANCH   8   9
ENDBRANCH   7   8
ENDBRANCH   1   7
TORSDOF 3
ENDMDL
