MODEL 1
REMARK minimizedAffinity 1.03004658
REMARK minimizedRMSD -1
REMARK  3 active torsions:
REMARK  status: ('A' for Active; 'I' for Inactive)
REMARK    1  A    between atoms: C3'_2  and  C2'_3 
REMARK    2  A    between atoms: C2'_3  and  C1'_4 
REMARK    3  A    between atoms: C1'_4  and  C1_5 
ROOT
ATOM      1  C1  N4B d   1       3.618  -2.060   4.533  0.00  0.00    -0.075 A 
ATOM      2  C2  N4B d   1       4.819  -1.326   4.427  0.00  0.00     0.002 A 
ATOM      3  C3  N4B d   1       5.981  -1.828   4.961  0.00  0.00     0.002 A 
ATOM      4  C4  N4B d   1       5.961  -3.048   5.620  0.00  0.00    -0.004 A 
ATOM      5  C5  N4B d   1       4.802  -3.763   5.697  0.00  0.00     0.002 A 
ATOM      6  C6  N4B d   1       3.628  -3.272   5.161  0.00  0.00     0.002 A 
ENDROOT
BRANCH   1   7
ATOM      7  C1' N4B d   1       2.306  -1.513   4.040  0.00  0.00     0.057 C 
BRANCH   7   8
ATOM      8  C2' N4B d   1       2.466  -1.059   2.592  0.00  0.00     0.009 C 
BRANCH   8   9
ATOM      9  C3' N4B d   1       2.588   0.451   2.481  0.00  0.00     0.004 C 
ATOM     10  C4' N4B d   1       3.453   0.880   1.333  0.00  0.00     0.003 C 
ENDBRANCH   8   9
ENDBRANCH   7   8
ENDBRANCH   1   7
TORSDOF 3
ENDMDL
