MODEL 1
REMARK minimizedAffinity 9.26565647
REMARK minimizedRMSD -1
REMARK  0 active torsions:
REMARK  status: ('A' for Active; 'I' for Inactive)
ROOT
ATOM      1  C2' OXE d   1      -1.011  -1.906   2.209  0.00  0.00     0.078 C 
ATOM      2  C1' OXE d   1      -1.546   0.553   3.453  0.00  0.00     0.078 C 
ATOM      3  C1  OXE d   1      -0.104   0.133   3.317  0.00  0.00    -0.078 A 
ATOM      4  C2  OXE d   1       0.146  -1.093   2.749  0.00  0.00    -0.078 A 
ATOM      5  C3  OXE d   1       1.460  -1.506   2.550  0.00  0.00     0.003 A 
ATOM      6  C4  OXE d   1       2.525  -0.753   3.062  0.00  0.00    -0.002 A 
ATOM      7  C5  OXE d   1       2.290   0.480   3.680  0.00  0.00    -0.002 A 
ATOM      8  C6  OXE d   1       0.987   0.956   3.777  0.00  0.00     0.003 A 
ENDROOT
TORSDOF 0
ENDMDL
