MODEL 1
REMARK minimizedAffinity -0.351043254
REMARK minimizedRMSD -1
REMARK  0 active torsions:
REMARK  status: ('A' for Active; 'I' for Inactive)
ROOT
ATOM      1  C2' OXE d   1       1.438  -1.277  -1.266  0.00  0.00     0.078 C 
ATOM      2  C1' OXE d   1       1.724  -3.161   0.794  0.00  0.00     0.078 C 
ATOM      3  C1  OXE d   1       0.665  -2.099   0.954  0.00  0.00    -0.078 A 
ATOM      4  C2  OXE d   1       0.564  -1.153  -0.037  0.00  0.00    -0.078 A 
ATOM      5  C3  OXE d   1      -0.432  -0.184   0.034  0.00  0.00     0.003 A 
ATOM      6  C4  OXE d   1      -1.230  -0.071   1.179  0.00  0.00    -0.002 A 
ATOM      7  C5  OXE d   1      -1.116  -1.000   2.219  0.00  0.00    -0.002 A 
ATOM      8  C6  OXE d   1      -0.205  -2.043   2.103  0.00  0.00     0.003 A 
ENDROOT
TORSDOF 0
ENDMDL
