MODEL 1
REMARK minimizedAffinity -1.56679761
REMARK minimizedRMSD -1
REMARK  0 active torsions:
REMARK  status: ('A' for Active; 'I' for Inactive)
ROOT
ATOM      1  C2' OXE d   1      -1.855  -3.500   3.438  0.00  0.00     0.078 C 
ATOM      2  C1' OXE d   1      -0.611  -1.271   2.271  0.00  0.00     0.078 C 
ATOM      3  C1  OXE d   1      -0.005  -2.629   2.015  0.00  0.00    -0.078 A 
ATOM      4  C2  OXE d   1      -0.593  -3.709   2.628  0.00  0.00    -0.078 A 
ATOM      5  C3  OXE d   1      -0.108  -4.990   2.382  0.00  0.00     0.003 A 
ATOM      6  C4  OXE d   1       1.065  -5.173   1.640  0.00  0.00    -0.002 A 
ATOM      7  C5  OXE d   1       1.703  -4.082   1.040  0.00  0.00    -0.002 A 
ATOM      8  C6  OXE d   1       1.157  -2.811   1.182  0.00  0.00     0.003 A 
ENDROOT
TORSDOF 0
ENDMDL
