MODEL 1
REMARK minimizedAffinity 5.32291031
REMARK minimizedRMSD -1
REMARK  0 active torsions:
REMARK  status: ('A' for Active; 'I' for Inactive)
ROOT
ATOM      1  C2' OXE d   1       1.877  -3.849   2.805  0.00  0.00     0.078 C 
ATOM      2  C1' OXE d   1       2.306  -3.209   0.105  0.00  0.00     0.078 C 
ATOM      3  C1  OXE d   1       1.358  -2.339   0.892  0.00  0.00    -0.078 A 
ATOM      4  C2  OXE d   1       1.118  -2.687   2.199  0.00  0.00    -0.078 A 
ATOM      5  C3  OXE d   1       0.294  -1.887   2.986  0.00  0.00     0.003 A 
ATOM      6  C4  OXE d   1      -0.412  -0.821   2.416  0.00  0.00    -0.002 A 
ATOM      7  C5  OXE d   1      -0.212  -0.473   1.075  0.00  0.00    -0.002 A 
ATOM      8  C6  OXE d   1       0.699  -1.195   0.313  0.00  0.00     0.003 A 
ENDROOT
TORSDOF 0
ENDMDL
