MODEL 1
REMARK minimizedAffinity 2.05032969
REMARK minimizedRMSD -1
REMARK  0 active torsions:
REMARK  status: ('A' for Active; 'I' for Inactive)
ROOT
ATOM      1  C2' OXE d   1       2.560  -4.380   1.096  0.00  0.00     0.078 C 
ATOM      2  C1' OXE d   1       1.887  -1.657   1.197  0.00  0.00     0.078 C 
ATOM      3  C1  OXE d   1       0.881  -2.650   1.724  0.00  0.00    -0.078 A 
ATOM      4  C2  OXE d   1       1.199  -3.983   1.627  0.00  0.00    -0.078 A 
ATOM      5  C3  OXE d   1       0.331  -4.939   2.148  0.00  0.00     0.003 A 
ATOM      6  C4  OXE d   1      -0.930  -4.564   2.628  0.00  0.00    -0.002 A 
ATOM      7  C5  OXE d   1      -1.290  -3.214   2.699  0.00  0.00    -0.002 A 
ATOM      8  C6  OXE d   1      -0.381  -2.244   2.291  0.00  0.00     0.003 A 
ENDROOT
TORSDOF 0
ENDMDL
