MODEL 1
REMARK minimizedAffinity 4.8225069
REMARK minimizedRMSD -1
REMARK  0 active torsions:
REMARK  status: ('A' for Active; 'I' for Inactive)
ROOT
ATOM      1  C2' OXE d   1      -1.707  -0.414  -1.126  0.00  0.00     0.078 C 
ATOM      2  C1' OXE d   1       0.791  -1.262  -0.164  0.00  0.00     0.078 C 
ATOM      3  C1  OXE d   1      -0.248  -0.847   0.847  0.00  0.00    -0.078 A 
ATOM      4  C2  OXE d   1      -1.451  -0.389   0.366  0.00  0.00    -0.078 A 
ATOM      5  C3  OXE d   1      -2.464  -0.045   1.256  0.00  0.00     0.003 A 
ATOM      6  C4  OXE d   1      -2.217  -0.015   2.634  0.00  0.00    -0.002 A 
ATOM      7  C5  OXE d   1      -0.985  -0.439   3.144  0.00  0.00    -0.002 A 
ATOM      8  C6  OXE d   1      -0.007  -0.898   2.268  0.00  0.00     0.003 A 
ENDROOT
TORSDOF 0
ENDMDL
