MODEL 1
REMARK minimizedAffinity 11.2880058
REMARK minimizedRMSD -1
REMARK  0 active torsions:
REMARK  status: ('A' for Active; 'I' for Inactive)
ROOT
ATOM      1  C   UNL d   1      -2.544  -2.600  -5.982  0.00  0.00     0.172 C 
ATOM      2  N   UNL d   1      -2.871  -3.962  -5.632  0.00  0.00    -0.070 N 
ATOM      3  C1  UNL d   1      -4.010  -4.628  -5.996  0.00  0.00    -0.004 A 
ATOM      4  C2  UNL d   1      -3.944  -5.899  -5.467  0.00  0.00    -0.047 A 
ATOM      5  C3  UNL d   1      -2.722  -6.000  -4.760  0.00  0.00    -0.047 A 
ATOM      6  C4  UNL d   1      -2.078  -4.786  -4.878  0.00  0.00    -0.004 A 
ENDROOT
TORSDOF 0
ENDMDL
