MODEL 1
REMARK minimizedAffinity 1.03633308
REMARK minimizedRMSD -1
REMARK  0 active torsions:
REMARK  status: ('A' for Active; 'I' for Inactive)
ROOT
ATOM      1  C   UNL d   1      -4.215   0.632  -2.199  0.00  0.00     0.172 C 
ATOM      2  N   UNL d   1      -3.035   1.464  -2.194  0.00  0.00    -0.070 N 
ATOM      3  C1  UNL d   1      -1.958   1.316  -1.362  0.00  0.00    -0.004 A 
ATOM      4  C2  UNL d   1      -1.046   2.302  -1.673  0.00  0.00    -0.047 A 
ATOM      5  C3  UNL d   1      -1.595   3.069  -2.727  0.00  0.00    -0.047 A 
ATOM      6  C4  UNL d   1      -2.826   2.529  -3.031  0.00  0.00    -0.004 A 
ENDROOT
TORSDOF 0
ENDMDL
