MODEL 1
REMARK minimizedAffinity 8.53781128
REMARK minimizedRMSD -1
REMARK  0 active torsions:
REMARK  status: ('A' for Active; 'I' for Inactive)
ROOT
ATOM      1  C   UNL d   1      -4.570  -5.947  -5.817  0.00  0.00     0.172 C 
ATOM      2  N   UNL d   1      -3.283  -5.321  -5.626  0.00  0.00    -0.070 N 
ATOM      3  C1  UNL d   1      -2.175  -5.921  -5.091  0.00  0.00    -0.004 A 
ATOM      4  C2  UNL d   1      -1.156  -4.993  -5.082  0.00  0.00    -0.047 A 
ATOM      5  C3  UNL d   1      -1.670  -3.794  -5.629  0.00  0.00    -0.047 A 
ATOM      6  C4  UNL d   1      -2.989  -4.024  -5.957  0.00  0.00    -0.004 A 
ENDROOT
TORSDOF 0
ENDMDL
