MODEL 1
REMARK minimizedAffinity 2.15543246
REMARK minimizedRMSD -1
REMARK  0 active torsions:
REMARK  status: ('A' for Active; 'I' for Inactive)
ROOT
ATOM      1  C   UNL d   1      -5.892  -5.834  -5.883  0.00  0.00     0.172 C 
ATOM      2  N   UNL d   1      -4.610  -5.199  -5.684  0.00  0.00    -0.070 N 
ATOM      3  C1  UNL d   1      -4.304  -3.902  -6.000  0.00  0.00    -0.004 A 
ATOM      4  C2  UNL d   1      -2.987  -3.685  -5.658  0.00  0.00    -0.047 A 
ATOM      5  C3  UNL d   1      -2.484  -4.893  -5.119  0.00  0.00    -0.047 A 
ATOM      6  C4  UNL d   1      -3.509  -5.814  -5.148  0.00  0.00    -0.004 A 
ENDROOT
TORSDOF 0
ENDMDL
