MODEL 1
REMARK minimizedAffinity 5.86232328
REMARK minimizedRMSD -1
REMARK  0 active torsions:
REMARK  status: ('A' for Active; 'I' for Inactive)
ROOT
ATOM      1  C   UNL d   1       1.580   3.614   1.605  0.00  0.00     0.172 C 
ATOM      2  N   UNL d   1       0.217   3.330   1.988  0.00  0.00    -0.070 N 
ATOM      3  C1  UNL d   1      -0.178   2.375   2.887  0.00  0.00    -0.004 A 
ATOM      4  C2  UNL d   1      -1.552   2.421   2.974  0.00  0.00    -0.047 A 
ATOM      5  C3  UNL d   1      -1.999   3.438   2.097  0.00  0.00    -0.047 A 
ATOM      6  C4  UNL d   1      -0.883   3.984   1.500  0.00  0.00    -0.004 A 
ENDROOT
TORSDOF 0
ENDMDL
