MODEL 1
REMARK minimizedAffinity 10.1928415
REMARK minimizedRMSD -1
REMARK  0 active torsions:
REMARK  status: ('A' for Active; 'I' for Inactive)
ROOT
ATOM      1  C   UNL d   1      -5.960   0.707  -2.853  0.00  0.00     0.172 C 
ATOM      2  N   UNL d   1      -4.915   1.637  -3.211  0.00  0.00    -0.070 N 
ATOM      3  C1  UNL d   1      -4.182   2.391  -2.334  0.00  0.00    -0.004 A 
ATOM      4  C2  UNL d   1      -3.291   3.145  -3.067  0.00  0.00    -0.047 A 
ATOM      5  C3  UNL d   1      -3.496   2.834  -4.432  0.00  0.00    -0.047 A 
ATOM      6  C4  UNL d   1      -4.507   1.898  -4.493  0.00  0.00    -0.004 A 
ENDROOT
TORSDOF 0
ENDMDL
