MODEL 1
REMARK minimizedAffinity 11.2996082
REMARK minimizedRMSD -1
REMARK  0 active torsions:
REMARK  status: ('A' for Active; 'I' for Inactive)
ROOT
ATOM      1  C   UNL d   1      -2.500   5.998   2.258  0.00  0.00     0.172 C 
ATOM      2  N   UNL d   1      -1.922   4.682   2.122  0.00  0.00    -0.070 N 
ATOM      3  C1  UNL d   1      -1.027   4.299   1.159  0.00  0.00    -0.004 A 
ATOM      4  C2  UNL d   1      -0.719   2.972   1.372  0.00  0.00    -0.047 A 
ATOM      5  C3  UNL d   1      -1.456   2.543   2.501  0.00  0.00    -0.047 A 
ATOM      6  C4  UNL d   1      -2.192   3.621   2.946  0.00  0.00    -0.004 A 
ENDROOT
TORSDOF 0
ENDMDL
