MODEL 1
REMARK minimizedAffinity -5.06237364
REMARK minimizedRMSD -1
REMARK  0 active torsions:
REMARK  status: ('A' for Active; 'I' for Inactive)
ROOT
ATOM      1  C2' OXE d   1      -1.498  -0.032   1.862  0.00  0.00     0.078 C 
ATOM      2  C1' OXE d   1       0.502   0.918   0.136  0.00  0.00     0.078 C 
ATOM      3  C1  OXE d   1       0.272  -0.572   0.195  0.00  0.00    -0.078 A 
ATOM      4  C2  OXE d   1      -0.677  -1.031   1.076  0.00  0.00    -0.078 A 
ATOM      5  C3  OXE d   1      -0.967  -2.391   1.130  0.00  0.00     0.003 A 
ATOM      6  C4  OXE d   1      -0.195  -3.310   0.407  0.00  0.00    -0.002 A 
ATOM      7  C5  OXE d   1       0.803  -2.866  -0.467  0.00  0.00    -0.002 A 
ATOM      8  C6  OXE d   1       1.020  -1.501  -0.616  0.00  0.00     0.003 A 
ENDROOT
TORSDOF 0
ENDMDL
