MODEL 1
REMARK minimizedAffinity -4.88524818
REMARK minimizedRMSD -1
REMARK  0 active torsions:
REMARK  status: ('A' for Active; 'I' for Inactive)
ROOT
ATOM      1  C2' OXE d   1       0.510  -3.214   0.796  0.00  0.00     0.078 C 
ATOM      2  C1' OXE d   1      -1.684  -1.743   1.748  0.00  0.00     0.078 C 
ATOM      3  C1  OXE d   1      -0.855  -1.136   0.644  0.00  0.00    -0.078 A 
ATOM      4  C2  OXE d   1       0.244  -1.841   0.217  0.00  0.00    -0.078 A 
ATOM      5  C3  OXE d   1       1.010  -1.352  -0.837  0.00  0.00     0.003 A 
ATOM      6  C4  OXE d   1       0.764  -0.077  -1.360  0.00  0.00    -0.002 A 
ATOM      7  C5  OXE d   1      -0.327   0.676  -0.912  0.00  0.00    -0.002 A 
ATOM      8  C6  OXE d   1      -1.169   0.144   0.058  0.00  0.00     0.003 A 
ENDROOT
TORSDOF 0
ENDMDL
