MODEL 1
REMARK minimizedAffinity -2.48322988
REMARK minimizedRMSD -1
REMARK  0 active torsions:
REMARK  status: ('A' for Active; 'I' for Inactive)
ROOT
ATOM      1  C2' OXE d   1       0.023  -3.328   0.319  0.00  0.00     0.078 C 
ATOM      2  C1' OXE d   1      -1.600  -1.707   1.937  0.00  0.00     0.078 C 
ATOM      3  C1  OXE d   1      -0.724  -1.027   0.914  0.00  0.00    -0.078 A 
ATOM      4  C2  OXE d   1       0.101  -1.825   0.159  0.00  0.00    -0.078 A 
ATOM      5  C3  OXE d   1       0.889  -1.254  -0.837  0.00  0.00     0.003 A 
ATOM      6  C4  OXE d   1       0.963   0.138  -0.971  0.00  0.00    -0.002 A 
ATOM      7  C5  OXE d   1       0.160   0.971  -0.185  0.00  0.00    -0.002 A 
ATOM      8  C6  OXE d   1      -0.718   0.403   0.731  0.00  0.00     0.003 A 
ENDROOT
TORSDOF 0
ENDMDL
