MODEL 1
REMARK minimizedAffinity -4.8537941
REMARK minimizedRMSD -1
REMARK  0 active torsions:
REMARK  status: ('A' for Active; 'I' for Inactive)
ROOT
ATOM      1  C2' OXE d   1       0.320   0.631  -0.894  0.00  0.00     0.078 C 
ATOM      2  C1' OXE d   1      -0.836  -0.604   1.347  0.00  0.00     0.078 C 
ATOM      3  C1  OXE d   1      -0.386  -1.488   0.211  0.00  0.00    -0.078 A 
ATOM      4  C2  OXE d   1       0.136  -0.872  -0.901  0.00  0.00    -0.078 A 
ATOM      5  C3  OXE d   1       0.617  -1.643  -1.955  0.00  0.00     0.003 A 
ATOM      6  C4  OXE d   1       0.433  -3.031  -1.959  0.00  0.00    -0.002 A 
ATOM      7  C5  OXE d   1      -0.132  -3.676  -0.853  0.00  0.00    -0.002 A 
ATOM      8  C6  OXE d   1      -0.507  -2.924   0.255  0.00  0.00     0.003 A 
ENDROOT
TORSDOF 0
ENDMDL
