MODEL 1
REMARK minimizedAffinity -5.86594439
REMARK minimizedRMSD -1
REMARK  0 active torsions:
REMARK  status: ('A' for Active; 'I' for Inactive)
ROOT
ATOM      1  C2' OXE d   1      -1.655  -0.242   2.242  0.00  0.00     0.078 C 
ATOM      2  C1' OXE d   1      -0.208   1.039   0.206  0.00  0.00     0.078 C 
ATOM      3  C1  OXE d   1      -0.115  -0.463   0.296  0.00  0.00    -0.078 A 
ATOM      4  C2  OXE d   1      -0.789  -1.078   1.324  0.00  0.00    -0.078 A 
ATOM      5  C3  OXE d   1      -0.781  -2.467   1.420  0.00  0.00     0.003 A 
ATOM      6  C4  OXE d   1       0.031  -3.231   0.573  0.00  0.00    -0.002 A 
ATOM      7  C5  OXE d   1       0.757  -2.621  -0.456  0.00  0.00    -0.002 A 
ATOM      8  C6  OXE d   1       0.661  -1.246  -0.634  0.00  0.00     0.003 A 
ENDROOT
TORSDOF 0
ENDMDL
