MODEL 1
REMARK minimizedAffinity -4.14285851
REMARK minimizedRMSD -1
REMARK  0 active torsions:
REMARK  status: ('A' for Active; 'I' for Inactive)
ROOT
ATOM      1  C2' OXE d   1      -2.612  -3.032   0.554  0.00  0.00     0.078 C 
ATOM      2  C1' OXE d   1       0.111  -3.697   0.399  0.00  0.00     0.078 C 
ATOM      3  C1  OXE d   1      -0.252  -2.236   0.494  0.00  0.00    -0.078 A 
ATOM      4  C2  OXE d   1      -1.588  -1.917   0.522  0.00  0.00    -0.078 A 
ATOM      5  C3  OXE d   1      -1.977  -0.588   0.664  0.00  0.00     0.003 A 
ATOM      6  C4  OXE d   1      -1.025   0.437   0.624  0.00  0.00    -0.002 A 
ATOM      7  C5  OXE d   1       0.340   0.136   0.555  0.00  0.00    -0.002 A 
ATOM      8  C6  OXE d   1       0.744  -1.194   0.532  0.00  0.00     0.003 A 
ENDROOT
TORSDOF 0
ENDMDL
