MODEL 1
REMARK minimizedAffinity -4.54521894
REMARK minimizedRMSD -1
REMARK  0 active torsions:
REMARK  status: ('A' for Active; 'I' for Inactive)
ROOT
ATOM      1  C2' OXE d   1      -1.918   0.049   1.819  0.00  0.00     0.078 C 
ATOM      2  C1' OXE d   1      -0.110   1.008  -0.102  0.00  0.00     0.078 C 
ATOM      3  C1  OXE d   1      -0.080  -0.466   0.219  0.00  0.00    -0.078 A 
ATOM      4  C2  OXE d   1      -0.936  -0.918   1.194  0.00  0.00    -0.078 A 
ATOM      5  C3  OXE d   1      -0.987  -2.277   1.490  0.00  0.00     0.003 A 
ATOM      6  C4  OXE d   1      -0.068  -3.163   0.915  0.00  0.00    -0.002 A 
ATOM      7  C5  OXE d   1       0.839  -2.716  -0.051  0.00  0.00    -0.002 A 
ATOM      8  C6  OXE d   1       0.818  -1.382  -0.441  0.00  0.00     0.003 A 
ENDROOT
TORSDOF 0
ENDMDL
