MODEL 1
REMARK minimizedAffinity -0.878550947
REMARK minimizedRMSD -1
REMARK  0 active torsions:
REMARK  status: ('A' for Active; 'I' for Inactive)
ROOT
ATOM      1  C2' OXE d   1       1.139  -1.632  -2.739  0.00  0.00     0.078 C 
ATOM      2  C1' OXE d   1       1.133  -2.071   0.033  0.00  0.00     0.078 C 
ATOM      3  C1  OXE d   1       0.941  -0.657  -0.456  0.00  0.00    -0.078 A 
ATOM      4  C2  OXE d   1       0.992  -0.445  -1.812  0.00  0.00    -0.078 A 
ATOM      5  C3  OXE d   1       0.766   0.832  -2.319  0.00  0.00     0.003 A 
ATOM      6  C4  OXE d   1       0.641   1.926  -1.455  0.00  0.00    -0.002 A 
ATOM      7  C5  OXE d   1       0.626   1.737  -0.069  0.00  0.00    -0.002 A 
ATOM      8  C6  OXE d   1       0.731   0.449   0.445  0.00  0.00     0.003 A 
ENDROOT
TORSDOF 0
ENDMDL
