MODEL 1
REMARK minimizedAffinity -2.08504057
REMARK minimizedRMSD -1
REMARK  0 active torsions:
REMARK  status: ('A' for Active; 'I' for Inactive)
ROOT
ATOM      1  C2' OXE d   1       1.093  -1.671  -2.587  0.00  0.00     0.078 C 
ATOM      2  C1' OXE d   1       0.814  -2.543   0.067  0.00  0.00     0.078 C 
ATOM      3  C1  OXE d   1       0.584  -1.081  -0.221  0.00  0.00    -0.078 A 
ATOM      4  C2  OXE d   1       0.768  -0.654  -1.514  0.00  0.00    -0.078 A 
ATOM      5  C3  OXE d   1       0.515   0.674  -1.844  0.00  0.00     0.003 A 
ATOM      6  C4  OXE d   1       0.224   1.610  -0.844  0.00  0.00    -0.002 A 
ATOM      7  C5  OXE d   1       0.071   1.204   0.485  0.00  0.00    -0.002 A 
ATOM      8  C6  OXE d   1       0.205  -0.142   0.806  0.00  0.00     0.003 A 
ENDROOT
TORSDOF 0
ENDMDL
