MODEL 1
REMARK minimizedAffinity -4.91376686
REMARK minimizedRMSD -1
REMARK  0 active torsions:
REMARK  status: ('A' for Active; 'I' for Inactive)
ROOT
ATOM      1  C2' OXE d   1       0.530   1.278  -0.697  0.00  0.00     0.078 C 
ATOM      2  C1' OXE d   1       2.175   3.404  -1.505  0.00  0.00     0.078 C 
ATOM      3  C1  OXE d   1       1.903   3.247  -0.030  0.00  0.00    -0.078 A 
ATOM      4  C2  OXE d   1       1.060   2.232   0.353  0.00  0.00    -0.078 A 
ATOM      5  C3  OXE d   1       0.819   2.008   1.705  0.00  0.00     0.003 A 
ATOM      6  C4  OXE d   1       1.304   2.900   2.669  0.00  0.00    -0.002 A 
ATOM      7  C5  OXE d   1       2.133   3.964   2.297  0.00  0.00    -0.002 A 
ATOM      8  C6  OXE d   1       2.476   4.126   0.959  0.00  0.00     0.003 A 
ENDROOT
TORSDOF 0
ENDMDL
