MODEL 1
REMARK minimizedAffinity -5.59862375
REMARK minimizedRMSD -1
REMARK  0 active torsions:
REMARK  status: ('A' for Active; 'I' for Inactive)
ROOT
ATOM      1  C2' OXE d   1       0.413   0.370  -1.658  0.00  0.00     0.078 C 
ATOM      2  C1' OXE d   1      -0.006  -0.046   1.086  0.00  0.00     0.078 C 
ATOM      3  C1  OXE d   1       0.084  -1.260   0.196  0.00  0.00    -0.078 A 
ATOM      4  C2  OXE d   1       0.243  -1.046  -1.152  0.00  0.00    -0.078 A 
ATOM      5  C3  OXE d   1       0.386  -2.132  -2.010  0.00  0.00     0.003 A 
ATOM      6  C4  OXE d   1       0.217  -3.439  -1.535  0.00  0.00    -0.002 A 
ATOM      7  C5  OXE d   1       0.016  -3.677  -0.172  0.00  0.00    -0.002 A 
ATOM      8  C6  OXE d   1      -0.011  -2.604   0.712  0.00  0.00     0.003 A 
ENDROOT
TORSDOF 0
ENDMDL
