MODEL 1
REMARK minimizedAffinity -2.99178433
REMARK minimizedRMSD -1
REMARK  0 active torsions:
REMARK  status: ('A' for Active; 'I' for Inactive)
ROOT
ATOM      1  C2' OXE d   1       0.125   1.123   0.330  0.00  0.00     0.078 C 
ATOM      2  C1' OXE d   1      -1.240  -0.357   2.286  0.00  0.00     0.078 C 
ATOM      3  C1  OXE d   1      -0.869  -1.060   1.003  0.00  0.00    -0.078 A 
ATOM      4  C2  OXE d   1      -0.243  -0.315   0.033  0.00  0.00    -0.078 A 
ATOM      5  C3  OXE d   1       0.169  -0.927  -1.147  0.00  0.00     0.003 A 
ATOM      6  C4  OXE d   1      -0.184  -2.255  -1.418  0.00  0.00    -0.002 A 
ATOM      7  C5  OXE d   1      -0.857  -3.020  -0.459  0.00  0.00    -0.002 A 
ATOM      8  C6  OXE d   1      -1.168  -2.451   0.771  0.00  0.00     0.003 A 
ENDROOT
TORSDOF 0
ENDMDL
