MODEL 1
REMARK minimizedAffinity -5.7026639
REMARK minimizedRMSD -1
REMARK  0 active torsions:
REMARK  status: ('A' for Active; 'I' for Inactive)
ROOT
ATOM      1  C2' OXE d   1      -1.647  -0.054   1.804  0.00  0.00     0.078 C 
ATOM      2  C1' OXE d   1       0.248   1.162   0.127  0.00  0.00     0.078 C 
ATOM      3  C1  OXE d   1       0.136  -0.342   0.088  0.00  0.00    -0.078 A 
ATOM      4  C2  OXE d   1      -0.762  -0.931   0.945  0.00  0.00    -0.078 A 
ATOM      5  C3  OXE d   1      -0.944  -2.311   0.911  0.00  0.00     0.003 A 
ATOM      6  C4  OXE d   1      -0.114  -3.116   0.121  0.00  0.00    -0.002 A 
ATOM      7  C5  OXE d   1       0.834  -2.539  -0.730  0.00  0.00    -0.002 A 
ATOM      8  C6  OXE d   1       0.942  -1.154  -0.790  0.00  0.00     0.003 A 
ENDROOT
TORSDOF 0
ENDMDL
