MODEL 1
REMARK minimizedAffinity -5.42422581
REMARK minimizedRMSD -1
REMARK  0 active torsions:
REMARK  status: ('A' for Active; 'I' for Inactive)
ROOT
ATOM      1  C2' OXE d   1      -1.013  -1.571   1.753  0.00  0.00     0.078 C 
ATOM      2  C1' OXE d   1       0.569  -3.469   0.421  0.00  0.00     0.078 C 
ATOM      3  C1  OXE d   1       0.419  -2.109  -0.213  0.00  0.00    -0.078 A 
ATOM      4  C2  OXE d   1      -0.395  -1.202   0.421  0.00  0.00    -0.078 A 
ATOM      5  C3  OXE d   1      -0.526   0.085  -0.093  0.00  0.00     0.003 A 
ATOM      6  C4  OXE d   1       0.041   0.415  -1.330  0.00  0.00    -0.002 A 
ATOM      7  C5  OXE d   1       0.842  -0.507  -2.013  0.00  0.00    -0.002 A 
ATOM      8  C6  OXE d   1       1.075  -1.756  -1.448  0.00  0.00     0.003 A 
ENDROOT
TORSDOF 0
ENDMDL
