MODEL 1
REMARK minimizedAffinity -6.08601332
REMARK minimizedRMSD -1
REMARK  0 active torsions:
REMARK  status: ('A' for Active; 'I' for Inactive)
ROOT
ATOM      1  C2' OXE d   1      -2.019   0.034   1.448  0.00  0.00     0.078 C 
ATOM      2  C1' OXE d   1       0.059   1.110  -0.105  0.00  0.00     0.078 C 
ATOM      3  C1  OXE d   1       0.030  -0.385   0.094  0.00  0.00    -0.078 A 
ATOM      4  C2  OXE d   1      -0.963  -0.898   0.893  0.00  0.00    -0.078 A 
ATOM      5  C3  OXE d   1      -1.067  -2.275   1.065  0.00  0.00     0.003 A 
ATOM      6  C4  OXE d   1      -0.081  -3.130   0.557  0.00  0.00    -0.002 A 
ATOM      7  C5  OXE d   1       0.961  -2.624  -0.227  0.00  0.00    -0.002 A 
ATOM      8  C6  OXE d   1       1.007  -1.262  -0.503  0.00  0.00     0.003 A 
ENDROOT
TORSDOF 0
ENDMDL
