MODEL 1
REMARK minimizedAffinity -2.9169445
REMARK minimizedRMSD -1
REMARK  0 active torsions:
REMARK  status: ('A' for Active; 'I' for Inactive)
ROOT
ATOM      1  C2' OXE d   1       0.022   0.659  -2.027  0.00  0.00     0.078 C 
ATOM      2  C1' OXE d   1       0.291   2.517   0.060  0.00  0.00     0.078 C 
ATOM      3  C1  OXE d   1      -0.327   1.180   0.384  0.00  0.00    -0.078 A 
ATOM      4  C2  OXE d   1      -0.498   0.294  -0.653  0.00  0.00    -0.078 A 
ATOM      5  C3  OXE d   1      -1.013  -0.973  -0.399  0.00  0.00     0.003 A 
ATOM      6  C4  OXE d   1      -1.500  -1.299   0.873  0.00  0.00    -0.002 A 
ATOM      7  C5  OXE d   1      -1.372  -0.397   1.934  0.00  0.00    -0.002 A 
ATOM      8  C6  OXE d   1      -0.751   0.828   1.717  0.00  0.00     0.003 A 
ENDROOT
TORSDOF 0
ENDMDL
