MODEL 1
REMARK minimizedAffinity -2.79913163
REMARK minimizedRMSD -1
REMARK  0 active torsions:
REMARK  status: ('A' for Active; 'I' for Inactive)
ROOT
ATOM      1  C2' OXE d   1      -1.716  -0.351   3.058  0.00  0.00     0.078 C 
ATOM      2  C1' OXE d   1      -1.636  -2.309   1.048  0.00  0.00     0.078 C 
ATOM      3  C1  OXE d   1      -1.032  -0.961   0.741  0.00  0.00    -0.078 A 
ATOM      4  C2  OXE d   1      -1.117   0.006   1.714  0.00  0.00    -0.078 A 
ATOM      5  C3  OXE d   1      -0.528   1.249   1.504  0.00  0.00     0.003 A 
ATOM      6  C4  OXE d   1       0.015   1.574   0.255  0.00  0.00    -0.002 A 
ATOM      7  C5  OXE d   1       0.076   0.617  -0.763  0.00  0.00    -0.002 A 
ATOM      8  C6  OXE d   1      -0.403  -0.666  -0.522  0.00  0.00     0.003 A 
ENDROOT
TORSDOF 0
ENDMDL
