MODEL 1
REMARK minimizedAffinity 9.23292065
REMARK minimizedRMSD -1
REMARK  1 active torsions:
REMARK  status: ('A' for Active; 'I' for Inactive)
REMARK    1  A    between atoms: C1_2  and  C2_3 
ROOT
ATOM      1  C2  UNL d   1       2.558  -3.136   4.084  0.00  0.00    -0.077 A 
ATOM      2  C3  UNL d   1       2.465  -2.493   5.326  0.00  0.00     0.002 A 
ATOM      3  C4  UNL d   1       2.183  -1.127   5.394  0.00  0.00     0.002 A 
ATOM      4  C5  UNL d   1       1.989  -0.395   4.225  0.00  0.00    -0.004 A 
ATOM      5  C6  UNL d   1       2.081  -1.025   2.985  0.00  0.00     0.002 A 
ATOM      6  C7  UNL d   1       2.364  -2.390   2.915  0.00  0.00     0.002 A 
ENDROOT
BRANCH   1   7
ATOM      7  C1  UNL d   1       2.813  -4.619   4.010  0.00  0.00     0.055 C 
ATOM      8  C   UNL d   1       2.031  -5.369   5.078  0.00  0.00     0.019 C 
ENDBRANCH   1   7
TORSDOF 1
ENDMDL
