MODEL 1
REMARK minimizedAffinity 8.03563881
REMARK minimizedRMSD -1
REMARK  1 active torsions:
REMARK  status: ('A' for Active; 'I' for Inactive)
REMARK    1  A    between atoms: C1_2  and  C2_3 
ROOT
ATOM      1  C2  UNL d   1       3.656  -2.223   5.028  0.00  0.00    -0.077 A 
ATOM      2  C3  UNL d   1       4.835  -1.495   5.242  0.00  0.00     0.002 A 
ATOM      3  C4  UNL d   1       6.000  -2.143   5.657  0.00  0.00     0.002 A 
ATOM      4  C5  UNL d   1       5.998  -3.522   5.858  0.00  0.00    -0.004 A 
ATOM      5  C6  UNL d   1       4.830  -4.255   5.650  0.00  0.00     0.002 A 
ATOM      6  C7  UNL d   1       3.665  -3.608   5.236  0.00  0.00     0.002 A 
ENDROOT
BRANCH   1   7
ATOM      7  C1  UNL d   1       2.412  -1.533   4.532  0.00  0.00     0.055 C 
ATOM      8  C   UNL d   1       1.738  -2.334   3.427  0.00  0.00     0.019 C 
ENDBRANCH   1   7
TORSDOF 1
ENDMDL
