MODEL 1
REMARK minimizedAffinity 12.0382824
REMARK minimizedRMSD -1
REMARK  1 active torsions:
REMARK  status: ('A' for Active; 'I' for Inactive)
REMARK    1  A    between atoms: C1_2  and  C2_3 
ROOT
ATOM      1  C2  UNL d   1       1.097  -1.421   1.436  0.00  0.00    -0.077 A 
ATOM      2  C3  UNL d   1       1.665  -2.241   0.451  0.00  0.00     0.002 A 
ATOM      3  C4  UNL d   1       0.957  -2.538  -0.715  0.00  0.00     0.002 A 
ATOM      4  C5  UNL d   1      -0.320  -2.015  -0.909  0.00  0.00    -0.004 A 
ATOM      5  C6  UNL d   1      -0.894  -1.200   0.065  0.00  0.00     0.002 A 
ATOM      6  C7  UNL d   1      -0.189  -0.904   1.232  0.00  0.00     0.002 A 
ENDROOT
BRANCH   1   7
ATOM      7  C1  UNL d   1       1.877  -1.060   2.673  0.00  0.00     0.055 C 
ATOM      8  C   UNL d   1       1.553  -1.998   3.826  0.00  0.00     0.019 C 
ENDBRANCH   1   7
TORSDOF 1
ENDMDL
