MODEL 1
REMARK minimizedAffinity 10.7956848
REMARK minimizedRMSD -1
REMARK  1 active torsions:
REMARK  status: ('A' for Active; 'I' for Inactive)
REMARK    1  A    between atoms: C1_2  and  C2_3 
ROOT
ATOM      1  C2  UNL d   1       2.368   0.010   3.014  0.00  0.00    -0.077 A 
ATOM      2  C3  UNL d   1       2.101   0.218   4.374  0.00  0.00     0.002 A 
ATOM      3  C4  UNL d   1       2.409   1.440   4.975  0.00  0.00     0.002 A 
ATOM      4  C5  UNL d   1       2.982   2.463   4.223  0.00  0.00    -0.004 A 
ATOM      5  C6  UNL d   1       3.253   2.265   2.870  0.00  0.00     0.002 A 
ATOM      6  C7  UNL d   1       2.947   1.044   2.268  0.00  0.00     0.002 A 
ENDROOT
BRANCH   1   7
ATOM      7  C1  UNL d   1       1.990  -1.290   2.352  0.00  0.00     0.055 C 
ATOM      8  C   UNL d   1       1.188  -2.178   3.293  0.00  0.00     0.019 C 
ENDBRANCH   1   7
TORSDOF 1
ENDMDL
