MODEL 1
REMARK minimizedAffinity 9.51290607
REMARK minimizedRMSD -1
REMARK  1 active torsions:
REMARK  status: ('A' for Active; 'I' for Inactive)
REMARK    1  A    between atoms: C1_2  and  C2_3 
ROOT
ATOM      1  C2  UNL d   1      -5.162   2.928  -0.598  0.00  0.00    -0.077 A 
ATOM      2  C3  UNL d   1      -3.928   2.295  -0.393  0.00  0.00     0.002 A 
ATOM      3  C4  UNL d   1      -3.174   2.571   0.749  0.00  0.00     0.002 A 
ATOM      4  C5  UNL d   1      -3.646   3.477   1.696  0.00  0.00    -0.004 A 
ATOM      5  C6  UNL d   1      -4.871   4.113   1.500  0.00  0.00     0.002 A 
ATOM      6  C7  UNL d   1      -5.626   3.840   0.359  0.00  0.00     0.002 A 
ENDROOT
BRANCH   1   7
ATOM      7  C1  UNL d   1      -6.000   2.595  -1.805  0.00  0.00     0.055 C 
ATOM      8  C   UNL d   1      -5.130   2.256  -3.006  0.00  0.00     0.019 C 
ENDBRANCH   1   7
TORSDOF 1
ENDMDL
