MODEL 1
REMARK minimizedAffinity 9.72486305
REMARK minimizedRMSD -1
REMARK  1 active torsions:
REMARK  status: ('A' for Active; 'I' for Inactive)
REMARK    1  A    between atoms: C1_2  and  C2_3 
ROOT
ATOM      1  C2  UNL d   1       2.635  -1.630   3.691  0.00  0.00    -0.077 A 
ATOM      2  C3  UNL d   1       1.892  -1.856   4.858  0.00  0.00     0.002 A 
ATOM      3  C4  UNL d   1       2.509  -2.371   5.999  0.00  0.00     0.002 A 
ATOM      4  C5  UNL d   1       3.872  -2.660   5.986  0.00  0.00    -0.004 A 
ATOM      5  C6  UNL d   1       4.619  -2.440   4.830  0.00  0.00     0.002 A 
ATOM      6  C7  UNL d   1       4.004  -1.927   3.688  0.00  0.00     0.002 A 
ENDROOT
BRANCH   1   7
ATOM      7  C1  UNL d   1       1.982  -1.029   2.474  0.00  0.00     0.055 C 
ATOM      8  C   UNL d   1       2.478   0.387   2.222  0.00  0.00     0.019 C 
ENDBRANCH   1   7
TORSDOF 1
ENDMDL
