MODEL 1
REMARK minimizedAffinity -0.134309113
REMARK minimizedRMSD -1
REMARK  1 active torsions:
REMARK  status: ('A' for Active; 'I' for Inactive)
REMARK    1  A    between atoms: C1_2  and  C2_3 
ROOT
ATOM      1  C2  UNL d   1       1.980   1.203   1.336  0.00  0.00    -0.077 A 
ATOM      2  C3  UNL d   1       0.836   2.000   1.188  0.00  0.00     0.002 A 
ATOM      3  C4  UNL d   1       0.867   3.134   0.373  0.00  0.00     0.002 A 
ATOM      4  C5  UNL d   1       2.036   3.477  -0.302  0.00  0.00    -0.004 A 
ATOM      5  C6  UNL d   1       3.178   2.691  -0.160  0.00  0.00     0.002 A 
ATOM      6  C7  UNL d   1       3.150   1.559   0.654  0.00  0.00     0.002 A 
ENDROOT
BRANCH   1   7
ATOM      7  C1  UNL d   1       1.935  -0.048   2.175  0.00  0.00     0.055 C 
ATOM      8  C   UNL d   1       0.874  -1.015   1.670  0.00  0.00     0.019 C 
ENDBRANCH   1   7
TORSDOF 1
ENDMDL
