MODEL 1
REMARK minimizedAffinity 4.4478941
REMARK minimizedRMSD -1
REMARK  1 active torsions:
REMARK  status: ('A' for Active; 'I' for Inactive)
REMARK    1  A    between atoms: C1_2  and  C2_3 
ROOT
ATOM      1  C2  UNL d   1       4.402  -1.937   4.121  0.00  0.00    -0.077 A 
ATOM      2  C3  UNL d   1       3.968  -0.877   3.313  0.00  0.00     0.002 A 
ATOM      3  C4  UNL d   1       2.617  -0.747   2.985  0.00  0.00     0.002 A 
ATOM      4  C5  UNL d   1       1.690  -1.671   3.463  0.00  0.00    -0.004 A 
ATOM      5  C6  UNL d   1       2.113  -2.730   4.265  0.00  0.00     0.002 A 
ATOM      6  C7  UNL d   1       3.463  -2.862   4.593  0.00  0.00     0.002 A 
ENDROOT
BRANCH   1   7
ATOM      7  C1  UNL d   1       5.851  -2.050   4.517  0.00  0.00     0.055 C 
ATOM      8  C   UNL d   1       5.998  -2.361   5.999  0.00  0.00     0.019 C 
ENDBRANCH   1   7
TORSDOF 1
ENDMDL
