MODEL 1
REMARK minimizedAffinity -1.57647359
REMARK minimizedRMSD -1
REMARK  1 active torsions:
REMARK  status: ('A' for Active; 'I' for Inactive)
REMARK    1  A    between atoms: C1_2  and  C2_3 
ROOT
ATOM      1  C2  UNL d   1       3.360  -2.234   4.418  0.00  0.00    -0.077 A 
ATOM      2  C3  UNL d   1       3.629  -2.984   5.572  0.00  0.00     0.002 A 
ATOM      3  C4  UNL d   1       4.944  -3.174   6.000  0.00  0.00     0.002 A 
ATOM      4  C5  UNL d   1       6.000  -2.614   5.283  0.00  0.00    -0.004 A 
ATOM      5  C6  UNL d   1       5.743  -1.869   4.133  0.00  0.00     0.002 A 
ATOM      6  C7  UNL d   1       4.429  -1.679   3.703  0.00  0.00     0.002 A 
ENDROOT
BRANCH   1   7
ATOM      7  C1  UNL d   1       1.940  -1.987   3.982  0.00  0.00     0.055 C 
ATOM      8  C   UNL d   1       1.885  -1.067   2.771  0.00  0.00     0.019 C 
ENDBRANCH   1   7
TORSDOF 1
ENDMDL
