MODEL 1
REMARK minimizedAffinity 8.73484802
REMARK minimizedRMSD -1
REMARK  1 active torsions:
REMARK  status: ('A' for Active; 'I' for Inactive)
REMARK    1  A    between atoms: C1_2  and  C2_3 
ROOT
ATOM      1  C2  UNL d   1       2.868  -2.325   4.012  0.00  0.00    -0.077 A 
ATOM      2  C3  UNL d   1       1.684  -1.585   4.137  0.00  0.00     0.002 A 
ATOM      3  C4  UNL d   1       1.363  -0.601   3.200  0.00  0.00     0.002 A 
ATOM      4  C5  UNL d   1       2.219  -0.352   2.129  0.00  0.00    -0.004 A 
ATOM      5  C6  UNL d   1       3.401  -1.081   1.997  0.00  0.00     0.002 A 
ATOM      6  C7  UNL d   1       3.723  -2.064   2.934  0.00  0.00     0.002 A 
ENDROOT
BRANCH   1   7
ATOM      7  C1  UNL d   1       3.191  -3.420   4.995  0.00  0.00     0.055 C 
ATOM      8  C   UNL d   1       2.875  -4.792   4.418  0.00  0.00     0.019 C 
ENDBRANCH   1   7
TORSDOF 1
ENDMDL
