MODEL 1
REMARK minimizedAffinity -5.62332773
REMARK minimizedRMSD -1
REMARK  1 active torsions:
REMARK  status: ('A' for Active; 'I' for Inactive)
REMARK    1  A    between atoms: C1_2  and  C2_3 
ROOT
ATOM      1  C2  UNL d   1       0.455   0.568  -0.005  0.00  0.00    -0.077 A 
ATOM      2  C3  UNL d   1       1.854   0.646   0.047  0.00  0.00     0.002 A 
ATOM      3  C4  UNL d   1       2.490   1.887   0.109  0.00  0.00     0.002 A 
ATOM      4  C5  UNL d   1       1.736   3.058   0.124  0.00  0.00    -0.004 A 
ATOM      5  C6  UNL d   1       0.344   2.991   0.070  0.00  0.00     0.002 A 
ATOM      6  C7  UNL d   1      -0.294   1.752   0.007  0.00  0.00     0.002 A 
ENDROOT
BRANCH   1   7
ATOM      7  C1  UNL d   1      -0.235  -0.771  -0.022  0.00  0.00     0.055 C 
ATOM      8  C   UNL d   1       0.065  -1.533  -1.305  0.00  0.00     0.019 C 
ENDBRANCH   1   7
TORSDOF 1
ENDMDL
