MODEL 1
REMARK minimizedAffinity -4.42953348
REMARK minimizedRMSD -1
REMARK  1 active torsions:
REMARK  status: ('A' for Active; 'I' for Inactive)
REMARK    1  A    between atoms: C1_2  and  C2_3 
ROOT
ATOM      1  C2  UNL d   1      -0.297   1.553   0.614  0.00  0.00    -0.077 A 
ATOM      2  C3  UNL d   1       0.718   0.657   0.251  0.00  0.00     0.002 A 
ATOM      3  C4  UNL d   1       2.023   1.110   0.054  0.00  0.00     0.002 A 
ATOM      4  C5  UNL d   1       2.327   2.460   0.222  0.00  0.00    -0.004 A 
ATOM      5  C6  UNL d   1       1.324   3.360   0.580  0.00  0.00     0.002 A 
ATOM      6  C7  UNL d   1       0.018   2.908   0.777  0.00  0.00     0.002 A 
ENDROOT
BRANCH   1   7
ATOM      7  C1  UNL d   1      -1.696   1.058   0.875  0.00  0.00     0.055 C 
ATOM      8  C   UNL d   1      -1.684  -0.250   1.653  0.00  0.00     0.019 C 
ENDBRANCH   1   7
TORSDOF 1
ENDMDL
