MODEL 1
REMARK minimizedAffinity -4.84537029
REMARK minimizedRMSD -1
REMARK  1 active torsions:
REMARK  status: ('A' for Active; 'I' for Inactive)
REMARK    1  A    between atoms: C1_2  and  C2_3 
ROOT
ATOM      1  C2  UNL d   1       0.228  -1.929  -0.280  0.00  0.00    -0.077 A 
ATOM      2  C3  UNL d   1      -0.603  -3.008   0.055  0.00  0.00     0.002 A 
ATOM      3  C4  UNL d   1      -1.147  -3.816  -0.945  0.00  0.00     0.002 A 
ATOM      4  C5  UNL d   1      -0.864  -3.557  -2.284  0.00  0.00    -0.004 A 
ATOM      5  C6  UNL d   1      -0.041  -2.486  -2.627  0.00  0.00     0.002 A 
ATOM      6  C7  UNL d   1       0.504  -1.676  -1.630  0.00  0.00     0.002 A 
ENDROOT
BRANCH   1   7
ATOM      7  C1  UNL d   1       0.856  -1.086   0.799  0.00  0.00     0.055 C 
ATOM      8  C   UNL d   1       2.253  -0.630   0.402  0.00  0.00     0.019 C 
ENDBRANCH   1   7
TORSDOF 1
ENDMDL
