MODEL 1
REMARK minimizedAffinity -5.03682995
REMARK minimizedRMSD -1
REMARK  1 active torsions:
REMARK  status: ('A' for Active; 'I' for Inactive)
REMARK    1  A    between atoms: C1_2  and  C2_3 
ROOT
ATOM      1  C2  UNL d   1       0.110   1.578   0.716  0.00  0.00    -0.077 A 
ATOM      2  C3  UNL d   1      -0.870   0.577   0.759  0.00  0.00     0.002 A 
ATOM      3  C4  UNL d   1      -0.507  -0.770   0.696  0.00  0.00     0.002 A 
ATOM      4  C5  UNL d   1       0.836  -1.127   0.593  0.00  0.00    -0.004 A 
ATOM      5  C6  UNL d   1       1.818  -0.138   0.546  0.00  0.00     0.002 A 
ATOM      6  C7  UNL d   1       1.457   1.208   0.608  0.00  0.00     0.002 A 
ENDROOT
BRANCH   1   7
ATOM      7  C1  UNL d   1      -0.276   3.030   0.833  0.00  0.00     0.055 C 
ATOM      8  C   UNL d   1       0.928   3.940   0.640  0.00  0.00     0.019 C 
ENDBRANCH   1   7
TORSDOF 1
ENDMDL
