MODEL 1
REMARK minimizedAffinity -6.02935028
REMARK minimizedRMSD -1
REMARK  1 active torsions:
REMARK  status: ('A' for Active; 'I' for Inactive)
REMARK    1  A    between atoms: C1_2  and  C2_3 
ROOT
ATOM      1  C2  UNL d   1       0.556   1.423   0.393  0.00  0.00    -0.077 A 
ATOM      2  C3  UNL d   1       1.930   1.243   0.180  0.00  0.00     0.002 A 
ATOM      3  C4  UNL d   1       2.471  -0.042   0.104  0.00  0.00     0.002 A 
ATOM      4  C5  UNL d   1       1.645  -1.156   0.236  0.00  0.00    -0.004 A 
ATOM      5  C6  UNL d   1       0.277  -0.987   0.450  0.00  0.00     0.002 A 
ATOM      6  C7  UNL d   1      -0.265   0.296   0.528  0.00  0.00     0.002 A 
ENDROOT
BRANCH   1   7
ATOM      7  C1  UNL d   1      -0.037   2.808   0.426  0.00  0.00     0.055 C 
ATOM      8  C   UNL d   1       0.967   3.851  -0.045  0.00  0.00     0.019 C 
ENDBRANCH   1   7
TORSDOF 1
ENDMDL
