MODEL 1
REMARK minimizedAffinity -5.13745689
REMARK minimizedRMSD -1
REMARK  1 active torsions:
REMARK  status: ('A' for Active; 'I' for Inactive)
REMARK    1  A    between atoms: C1_2  and  C2_3 
ROOT
ATOM      1  C2  UNL d   1       0.390   1.337  -0.123  0.00  0.00    -0.077 A 
ATOM      2  C3  UNL d   1       1.747   1.011   0.001  0.00  0.00     0.002 A 
ATOM      3  C4  UNL d   1       2.707   2.017   0.129  0.00  0.00     0.002 A 
ATOM      4  C5  UNL d   1       2.319   3.355   0.137  0.00  0.00    -0.004 A 
ATOM      5  C6  UNL d   1       0.972   3.690   0.012  0.00  0.00     0.002 A 
ATOM      6  C7  UNL d   1       0.011   2.686  -0.116  0.00  0.00     0.002 A 
ENDROOT
BRANCH   1   7
ATOM      7  C1  UNL d   1      -0.652   0.252  -0.211  0.00  0.00     0.055 C 
ATOM      8  C   UNL d   1      -1.806   0.515   0.745  0.00  0.00     0.019 C 
ENDBRANCH   1   7
TORSDOF 1
ENDMDL
