MODEL 1
REMARK minimizedAffinity -5.84914923
REMARK minimizedRMSD -1
REMARK  1 active torsions:
REMARK  status: ('A' for Active; 'I' for Inactive)
REMARK    1  A    between atoms: C1_2  and  C2_3 
ROOT
ATOM      1  C2  UNL d   1       0.854   0.228   0.572  0.00  0.00    -0.077 A 
ATOM      2  C3  UNL d   1       1.952   1.044   0.877  0.00  0.00     0.002 A 
ATOM      3  C4  UNL d   1       1.776   2.411   1.101  0.00  0.00     0.002 A 
ATOM      4  C5  UNL d   1       0.503   2.972   1.025  0.00  0.00    -0.004 A 
ATOM      5  C6  UNL d   1      -0.595   2.170   0.720  0.00  0.00     0.002 A 
ATOM      6  C7  UNL d   1      -0.421   0.803   0.495  0.00  0.00     0.002 A 
ENDROOT
BRANCH   1   7
ATOM      7  C1  UNL d   1       1.034  -1.255   0.379  0.00  0.00     0.055 C 
ATOM      8  C   UNL d   1      -0.003  -1.819  -0.580  0.00  0.00     0.019 C 
ENDBRANCH   1   7
TORSDOF 1
ENDMDL
