MODEL 1
REMARK minimizedAffinity -0.0363221467
REMARK minimizedRMSD -1
REMARK  1 active torsions:
REMARK  status: ('A' for Active; 'I' for Inactive)
REMARK    1  A    between atoms: C1_2  and  C2_3 
ROOT
ATOM      1  C2  UNL d   1       0.108  -2.224  -0.742  0.00  0.00    -0.077 A 
ATOM      2  C3  UNL d   1       0.971  -2.494  -1.814  0.00  0.00     0.002 A 
ATOM      3  C4  UNL d   1       0.517  -3.209  -2.924  0.00  0.00     0.002 A 
ATOM      4  C5  UNL d   1      -0.802  -3.656  -2.975  0.00  0.00    -0.004 A 
ATOM      5  C6  UNL d   1      -1.667  -3.394  -1.913  0.00  0.00     0.002 A 
ATOM      6  C7  UNL d   1      -1.214  -2.681  -0.802  0.00  0.00     0.002 A 
ENDROOT
BRANCH   1   7
ATOM      7  C1  UNL d   1       0.583  -1.411   0.434  0.00  0.00     0.055 C 
ATOM      8  C   UNL d   1       1.849  -0.637   0.097  0.00  0.00     0.019 C 
ENDBRANCH   1   7
TORSDOF 1
ENDMDL
