MODEL 1
REMARK minimizedAffinity -4.36095572
REMARK minimizedRMSD -1
REMARK  1 active torsions:
REMARK  status: ('A' for Active; 'I' for Inactive)
REMARK    1  A    between atoms: C1_2  and  C2_3 
ROOT
ATOM      1  C2  UNL d   1       0.972   1.804   0.618  0.00  0.00    -0.077 A 
ATOM      2  C3  UNL d   1      -0.215   2.509   0.864  0.00  0.00     0.002 A 
ATOM      3  C4  UNL d   1      -1.453   1.883   0.708  0.00  0.00     0.002 A 
ATOM      4  C5  UNL d   1      -1.516   0.549   0.310  0.00  0.00    -0.004 A 
ATOM      5  C6  UNL d   1      -0.341  -0.160   0.062  0.00  0.00     0.002 A 
ATOM      6  C7  UNL d   1       0.897   0.465   0.216  0.00  0.00     0.002 A 
ENDROOT
BRANCH   1   7
ATOM      7  C1  UNL d   1       2.309   2.463   0.834  0.00  0.00     0.055 C 
ATOM      8  C   UNL d   1       3.395   1.434   1.114  0.00  0.00     0.019 C 
ENDBRANCH   1   7
TORSDOF 1
ENDMDL
