MODEL 1
REMARK minimizedAffinity -6.04968023
REMARK minimizedRMSD -1
REMARK  2 active torsions:
REMARK  status: ('A' for Active; 'I' for Inactive)
REMARK    1  A    between atoms: C1_2  and  C2_3 
REMARK    2  A    between atoms: C2_3  and  C3_4 
ROOT
ATOM      1  C3  UNL d   1      -0.053   0.066   0.159  0.00  0.00    -0.075 A 
ATOM      2  C4  UNL d   1       0.991   0.920  -0.225  0.00  0.00     0.002 A 
ATOM      3  C5  UNL d   1       1.299   2.049   0.534  0.00  0.00     0.002 A 
ATOM      4  C6  UNL d   1       0.562   2.345   1.679  0.00  0.00    -0.004 A 
ATOM      5  C7  UNL d   1      -0.488   1.513   2.061  0.00  0.00     0.002 A 
ATOM      6  C8  UNL d   1      -0.796   0.380   1.306  0.00  0.00     0.002 A 
ENDROOT
BRANCH   1   7
ATOM      7  C2  UNL d   1      -0.372  -1.173  -0.642  0.00  0.00     0.056 C 
BRANCH   7   8
ATOM      8  C1  UNL d   1      -1.829  -1.254  -1.112  0.00  0.00     0.007 C 
ATOM      9  C   UNL d   1      -1.977  -1.162  -2.624  0.00  0.00     0.009 C 
ENDBRANCH   7   8
ENDBRANCH   1   7
TORSDOF 2
ENDMDL
