MODEL 1
REMARK minimizedAffinity -4.22493076
REMARK minimizedRMSD -1
REMARK  2 active torsions:
REMARK  status: ('A' for Active; 'I' for Inactive)
REMARK    1  A    between atoms: C1_2  and  C2_3 
REMARK    2  A    between atoms: C2_3  and  C3_4 
ROOT
ATOM      1  C3  UNL d   1       0.856   0.729   0.105  0.00  0.00    -0.075 A 
ATOM      2  C4  UNL d   1       2.128   0.337  -0.336  0.00  0.00     0.002 A 
ATOM      3  C5  UNL d   1       3.262   1.053   0.046  0.00  0.00     0.002 A 
ATOM      4  C6  UNL d   1       3.139   2.174   0.864  0.00  0.00    -0.004 A 
ATOM      5  C7  UNL d   1       1.879   2.583   1.294  0.00  0.00     0.002 A 
ATOM      6  C8  UNL d   1       0.742   1.865   0.917  0.00  0.00     0.002 A 
ENDROOT
BRANCH   1   7
ATOM      7  C2  UNL d   1      -0.373  -0.060  -0.281  0.00  0.00     0.056 C 
BRANCH   7   8
ATOM      8  C1  UNL d   1      -0.686  -1.227   0.661  0.00  0.00     0.007 C 
ATOM      9  C   UNL d   1      -1.326  -0.785   1.971  0.00  0.00     0.009 C 
ENDBRANCH   7   8
ENDBRANCH   1   7
TORSDOF 2
ENDMDL
