MODEL 1
REMARK minimizedAffinity -3.88372016
REMARK minimizedRMSD -1
REMARK  2 active torsions:
REMARK  status: ('A' for Active; 'I' for Inactive)
REMARK    1  A    between atoms: C1_2  and  C2_3 
REMARK    2  A    between atoms: C2_3  and  C3_4 
ROOT
ATOM      1  C3  UNL d   1      -0.725  -0.066  -0.085  0.00  0.00    -0.075 A 
ATOM      2  C4  UNL d   1      -0.138   0.826  -0.993  0.00  0.00     0.002 A 
ATOM      3  C5  UNL d   1       0.710   1.839  -0.544  0.00  0.00     0.002 A 
ATOM      4  C6  UNL d   1       0.972   1.979   0.817  0.00  0.00    -0.004 A 
ATOM      5  C7  UNL d   1       0.381   1.108   1.730  0.00  0.00     0.002 A 
ATOM      6  C8  UNL d   1      -0.464   0.091   1.283  0.00  0.00     0.002 A 
ENDROOT
BRANCH   1   7
ATOM      7  C2  UNL d   1      -1.620  -1.183  -0.568  0.00  0.00     0.056 C 
BRANCH   7   8
ATOM      8  C1  UNL d   1      -1.891  -1.157  -2.076  0.00  0.00     0.007 C 
ATOM      9  C   UNL d   1      -3.046  -2.057  -2.493  0.00  0.00     0.009 C 
ENDBRANCH   7   8
ENDBRANCH   1   7
TORSDOF 2
ENDMDL
