MODEL 1
REMARK minimizedAffinity -3.50967264
REMARK minimizedRMSD -1
REMARK  2 active torsions:
REMARK  status: ('A' for Active; 'I' for Inactive)
REMARK    1  A    between atoms: C1_2  and  C2_3 
REMARK    2  A    between atoms: C2_3  and  C3_4 
ROOT
ATOM      1  C3  UNL d   1      -0.669  -1.189  -0.477  0.00  0.00    -0.075 A 
ATOM      2  C4  UNL d   1      -1.327  -0.486   0.542  0.00  0.00     0.002 A 
ATOM      3  C5  UNL d   1      -0.704   0.587   1.180  0.00  0.00     0.002 A 
ATOM      4  C6  UNL d   1       0.587   0.963   0.816  0.00  0.00    -0.004 A 
ATOM      5  C7  UNL d   1       1.258   0.261  -0.184  0.00  0.00     0.002 A 
ATOM      6  C8  UNL d   1       0.634  -0.810  -0.827  0.00  0.00     0.002 A 
ENDROOT
BRANCH   1   7
ATOM      7  C2  UNL d   1      -1.349  -2.331  -1.192  0.00  0.00     0.056 C 
BRANCH   7   8
ATOM      8  C1  UNL d   1      -2.455  -1.893  -2.158  0.00  0.00     0.007 C 
ATOM      9  C   UNL d   1      -1.924  -1.447  -3.515  0.00  0.00     0.009 C 
ENDBRANCH   7   8
ENDBRANCH   1   7
TORSDOF 2
ENDMDL
