MODEL 1
REMARK minimizedAffinity -5.18101168
REMARK minimizedRMSD -1
REMARK  2 active torsions:
REMARK  status: ('A' for Active; 'I' for Inactive)
REMARK    1  A    between atoms: C1_2  and  C2_3 
REMARK    2  A    between atoms: C2_3  and  C3_4 
ROOT
ATOM      1  C3  UNL d   1       0.745   0.039  -0.008  0.00  0.00    -0.075 A 
ATOM      2  C4  UNL d   1      -0.083   0.504   1.024  0.00  0.00     0.002 A 
ATOM      3  C5  UNL d   1       0.244   1.664   1.726  0.00  0.00     0.002 A 
ATOM      4  C6  UNL d   1       1.405   2.367   1.414  0.00  0.00    -0.004 A 
ATOM      5  C7  UNL d   1       2.244   1.905   0.402  0.00  0.00     0.002 A 
ATOM      6  C8  UNL d   1       1.917   0.747  -0.306  0.00  0.00     0.002 A 
ENDROOT
BRANCH   1   7
ATOM      7  C2  UNL d   1       0.381  -1.200  -0.792  0.00  0.00     0.056 C 
BRANCH   7   8
ATOM      8  C1  UNL d   1      -1.126  -1.466  -0.874  0.00  0.00     0.007 C 
ATOM      9  C   UNL d   1      -1.651  -1.505  -2.303  0.00  0.00     0.009 C 
ENDBRANCH   7   8
ENDBRANCH   1   7
TORSDOF 2
ENDMDL
