MODEL 1
REMARK minimizedAffinity -5.6946435
REMARK minimizedRMSD -1
REMARK  2 active torsions:
REMARK  status: ('A' for Active; 'I' for Inactive)
REMARK    1  A    between atoms: C1_2  and  C2_3 
REMARK    2  A    between atoms: C2_3  and  C3_4 
ROOT
ATOM      1  C3  UNL d   1       0.683   0.158   0.088  0.00  0.00    -0.075 A 
ATOM      2  C4  UNL d   1      -0.008   0.712   1.175  0.00  0.00     0.002 A 
ATOM      3  C5  UNL d   1       0.508   1.815   1.856  0.00  0.00     0.002 A 
ATOM      4  C6  UNL d   1       1.724   2.371   1.466  0.00  0.00    -0.004 A 
ATOM      5  C7  UNL d   1       2.428   1.819   0.398  0.00  0.00     0.002 A 
ATOM      6  C8  UNL d   1       1.912   0.718  -0.288  0.00  0.00     0.002 A 
ENDROOT
BRANCH   1   7
ATOM      7  C2  UNL d   1       0.116  -1.017  -0.671  0.00  0.00     0.056 C 
BRANCH   7   8
ATOM      8  C1  UNL d   1      -1.394  -1.206  -0.490  0.00  0.00     0.007 C 
ATOM      9  C   UNL d   1      -2.091  -1.706  -1.748  0.00  0.00     0.009 C 
ENDBRANCH   7   8
ENDBRANCH   1   7
TORSDOF 2
ENDMDL
