MODEL 1
REMARK minimizedAffinity -5.30018139
REMARK minimizedRMSD -1
REMARK  2 active torsions:
REMARK  status: ('A' for Active; 'I' for Inactive)
REMARK    1  A    between atoms: C1_2  and  C2_3 
REMARK    2  A    between atoms: C2_3  and  C3_4 
ROOT
ATOM      1  C3  UNL d   1       0.332   0.760   0.635  0.00  0.00    -0.075 A 
ATOM      2  C4  UNL d   1       0.797   1.881   1.338  0.00  0.00     0.002 A 
ATOM      3  C5  UNL d   1       2.156   2.198   1.346  0.00  0.00     0.002 A 
ATOM      4  C6  UNL d   1       3.066   1.396   0.662  0.00  0.00    -0.004 A 
ATOM      5  C7  UNL d   1       2.617   0.271  -0.026  0.00  0.00     0.002 A 
ATOM      6  C8  UNL d   1       1.258  -0.047  -0.040  0.00  0.00     0.002 A 
ENDROOT
BRANCH   1   7
ATOM      7  C2  UNL d   1      -1.140   0.427   0.598  0.00  0.00     0.056 C 
BRANCH   7   8
ATOM      8  C1  UNL d   1      -1.770   0.228   1.981  0.00  0.00     0.007 C 
ATOM      9  C   UNL d   1      -1.819  -1.232   2.413  0.00  0.00     0.009 C 
ENDBRANCH   7   8
ENDBRANCH   1   7
TORSDOF 2
ENDMDL
