MODEL 1
REMARK minimizedAffinity -5.88327599
REMARK minimizedRMSD -1
REMARK  2 active torsions:
REMARK  status: ('A' for Active; 'I' for Inactive)
REMARK    1  A    between atoms: C1_2  and  C2_3 
REMARK    2  A    between atoms: C2_3  and  C3_4 
ROOT
ATOM      1  C3  UNL d   1       1.194   0.671   0.719  0.00  0.00    -0.075 A 
ATOM      2  C4  UNL d   1       1.104   1.883   1.421  0.00  0.00     0.002 A 
ATOM      3  C5  UNL d   1       2.079   2.868   1.261  0.00  0.00     0.002 A 
ATOM      4  C6  UNL d   1       3.159   2.651   0.408  0.00  0.00    -0.004 A 
ATOM      5  C7  UNL d   1       3.267   1.445  -0.281  0.00  0.00     0.002 A 
ATOM      6  C8  UNL d   1       2.291   0.460  -0.127  0.00  0.00     0.002 A 
ENDROOT
BRANCH   1   7
ATOM      7  C2  UNL d   1       0.127  -0.387   0.865  0.00  0.00     0.056 C 
BRANCH   7   8
ATOM      8  C1  UNL d   1       0.253  -1.542  -0.134  0.00  0.00     0.007 C 
ATOM      9  C   UNL d   1      -0.966  -1.692  -1.035  0.00  0.00     0.009 C 
ENDBRANCH   7   8
ENDBRANCH   1   7
TORSDOF 2
ENDMDL
