MODEL 1
REMARK minimizedAffinity -5.55852365
REMARK minimizedRMSD -1
REMARK  2 active torsions:
REMARK  status: ('A' for Active; 'I' for Inactive)
REMARK    1  A    between atoms: C1_2  and  C2_3 
REMARK    2  A    between atoms: C2_3  and  C3_4 
ROOT
ATOM      1  C3  UNL d   1       0.793   0.879   0.859  0.00  0.00    -0.075 A 
ATOM      2  C4  UNL d   1       0.767   1.884   1.838  0.00  0.00     0.002 A 
ATOM      3  C5  UNL d   1       1.795   2.824   1.916  0.00  0.00     0.002 A 
ATOM      4  C6  UNL d   1       2.865   2.766   1.026  0.00  0.00    -0.004 A 
ATOM      5  C7  UNL d   1       2.910   1.763   0.060  0.00  0.00     0.002 A 
ATOM      6  C8  UNL d   1       1.880   0.823  -0.023  0.00  0.00     0.002 A 
ENDROOT
BRANCH   1   7
ATOM      7  C2  UNL d   1      -0.331  -0.123   0.751  0.00  0.00     0.056 C 
BRANCH   7   8
ATOM      8  C1  UNL d   1      -0.066  -1.251  -0.253  0.00  0.00     0.007 C 
ATOM      9  C   UNL d   1      -0.970  -1.189  -1.477  0.00  0.00     0.009 C 
ENDBRANCH   7   8
ENDBRANCH   1   7
TORSDOF 2
ENDMDL
