MODEL 1
REMARK minimizedAffinity -5.47809315
REMARK minimizedRMSD -1
REMARK  2 active torsions:
REMARK  status: ('A' for Active; 'I' for Inactive)
REMARK    1  A    between atoms: C1_2  and  C2_3 
REMARK    2  A    between atoms: C2_3  and  C3_4 
ROOT
ATOM      1  C3  UNL d   1       0.744   0.824   0.272  0.00  0.00    -0.075 A 
ATOM      2  C4  UNL d   1       0.904   1.935   1.111  0.00  0.00     0.002 A 
ATOM      3  C5  UNL d   1       2.134   2.589   1.195  0.00  0.00     0.002 A 
ATOM      4  C6  UNL d   1       3.220   2.134   0.451  0.00  0.00    -0.004 A 
ATOM      5  C7  UNL d   1       3.077   1.020  -0.374  0.00  0.00     0.002 A 
ATOM      6  C8  UNL d   1       1.847   0.367  -0.464  0.00  0.00     0.002 A 
ENDROOT
BRANCH   1   7
ATOM      7  C2  UNL d   1      -0.592   0.130   0.154  0.00  0.00     0.056 C 
BRANCH   7   8
ATOM      8  C1  UNL d   1      -0.508  -1.296  -0.401  0.00  0.00     0.007 C 
ATOM      9  C   UNL d   1      -1.584  -1.603  -1.434  0.00  0.00     0.009 C 
ENDBRANCH   7   8
ENDBRANCH   1   7
TORSDOF 2
ENDMDL
