MODEL 1
REMARK minimizedAffinity -4.60209322
REMARK minimizedRMSD -1
REMARK  2 active torsions:
REMARK  status: ('A' for Active; 'I' for Inactive)
REMARK    1  A    between atoms: C1_2  and  C2_3 
REMARK    2  A    between atoms: C2_3  and  C3_4 
ROOT
ATOM      1  C3  UNL d   1       0.055  -0.400  -0.092  0.00  0.00    -0.075 A 
ATOM      2  C4  UNL d   1      -0.428   0.333   1.002  0.00  0.00     0.002 A 
ATOM      3  C5  UNL d   1       0.420   1.176   1.720  0.00  0.00     0.002 A 
ATOM      4  C6  UNL d   1       1.762   1.289   1.362  0.00  0.00    -0.004 A 
ATOM      5  C7  UNL d   1       2.256   0.553   0.287  0.00  0.00     0.002 A 
ATOM      6  C8  UNL d   1       1.409  -0.287  -0.437  0.00  0.00     0.002 A 
ENDROOT
BRANCH   1   7
ATOM      7  C2  UNL d   1      -0.865  -1.291  -0.892  0.00  0.00     0.056 C 
BRANCH   7   8
ATOM      8  C1  UNL d   1      -1.277  -0.706  -2.247  0.00  0.00     0.007 C 
ATOM      9  C   UNL d   1      -2.555  -1.321  -2.803  0.00  0.00     0.009 C 
ENDBRANCH   7   8
ENDBRANCH   1   7
TORSDOF 2
ENDMDL
