MODEL 1
REMARK minimizedAffinity -4.26299667
REMARK minimizedRMSD -1
REMARK  2 active torsions:
REMARK  status: ('A' for Active; 'I' for Inactive)
REMARK    1  A    between atoms: C1_2  and  C2_3 
REMARK    2  A    between atoms: C2_3  and  C3_4 
ROOT
ATOM      1  C3  UNL d   1       0.758   0.602   0.724  0.00  0.00    -0.075 A 
ATOM      2  C4  UNL d   1      -0.268  -0.352   0.666  0.00  0.00     0.002 A 
ATOM      3  C5  UNL d   1      -0.124  -1.501  -0.112  0.00  0.00     0.002 A 
ATOM      4  C6  UNL d   1       1.041  -1.705  -0.849  0.00  0.00    -0.004 A 
ATOM      5  C7  UNL d   1       2.060  -0.756  -0.812  0.00  0.00     0.002 A 
ATOM      6  C8  UNL d   1       1.920   0.392  -0.030  0.00  0.00     0.002 A 
ENDROOT
BRANCH   1   7
ATOM      7  C2  UNL d   1       0.621   1.833   1.588  0.00  0.00     0.056 C 
BRANCH   7   8
ATOM      8  C1  UNL d   1       1.913   2.241   2.303  0.00  0.00     0.007 C 
ATOM      9  C   UNL d   1       2.432   3.607   1.872  0.00  0.00     0.009 C 
ENDBRANCH   7   8
ENDBRANCH   1   7
TORSDOF 2
ENDMDL
