MODEL 1
REMARK minimizedAffinity -2.93383551
REMARK minimizedRMSD -1
REMARK  0 active torsions:
REMARK  status: ('A' for Active; 'I' for Inactive)
ROOT
ATOM      1  C   UNL d   1      -2.461   3.678  -5.095  0.00  0.00     0.077 C 
ATOM      2  C1  UNL d   1      -2.826   3.214  -3.716  0.00  0.00    -0.074 A 
ATOM      3  C2  UNL d   1      -3.601   4.013  -2.870  0.00  0.00    -0.005 A 
ATOM      4  C3  UNL d   1      -3.940   3.565  -1.594  0.00  0.00     0.006 A 
ATOM      5  C4  UNL d   1      -3.508   2.314  -1.151  0.00  0.00    -0.005 A 
ATOM      6  C5  UNL d   1      -2.733   1.500  -1.983  0.00  0.00    -0.074 A 
ATOM      7  C6  UNL d   1      -2.269   0.148  -1.527  0.00  0.00     0.077 C 
ATOM      8  C7  UNL d   1      -2.403   1.955  -3.267  0.00  0.00    -0.001 A 
ENDROOT
TORSDOF 0
ENDMDL
