MODEL 1
REMARK minimizedAffinity -3.18074512
REMARK minimizedRMSD -1
REMARK  0 active torsions:
REMARK  status: ('A' for Active; 'I' for Inactive)
ROOT
ATOM      1  C   UNL d   1      -4.092   1.367  -4.543  0.00  0.00     0.077 C 
ATOM      2  C1  UNL d   1      -3.206   2.379  -3.879  0.00  0.00    -0.074 A 
ATOM      3  C2  UNL d   1      -2.553   2.084  -2.678  0.00  0.00    -0.005 A 
ATOM      4  C3  UNL d   1      -1.725   3.031  -2.076  0.00  0.00     0.006 A 
ATOM      5  C4  UNL d   1      -1.542   4.281  -2.669  0.00  0.00    -0.005 A 
ATOM      6  C5  UNL d   1      -2.186   4.594  -3.870  0.00  0.00    -0.074 A 
ATOM      7  C6  UNL d   1      -1.992   5.929  -4.525  0.00  0.00     0.077 C 
ATOM      8  C7  UNL d   1      -3.011   3.634  -4.472  0.00  0.00    -0.001 A 
ENDROOT
TORSDOF 0
ENDMDL
