MODEL 1
REMARK minimizedAffinity 0.255574554
REMARK minimizedRMSD -1
REMARK  0 active torsions:
REMARK  status: ('A' for Active; 'I' for Inactive)
ROOT
ATOM      1  C   UNL d   1      -0.543   4.966  -6.000  0.00  0.00     0.077 C 
ATOM      2  C1  UNL d   1      -1.618   4.876  -4.957  0.00  0.00    -0.074 A 
ATOM      3  C2  UNL d   1      -2.374   6.000  -4.606  0.00  0.00    -0.005 A 
ATOM      4  C3  UNL d   1      -3.376   5.899  -3.641  0.00  0.00     0.006 A 
ATOM      5  C4  UNL d   1      -3.632   4.677  -3.019  0.00  0.00    -0.005 A 
ATOM      6  C5  UNL d   1      -2.887   3.543  -3.358  0.00  0.00    -0.074 A 
ATOM      7  C6  UNL d   1      -3.156   2.219  -2.705  0.00  0.00     0.077 C 
ATOM      8  C7  UNL d   1      -1.886   3.650  -4.333  0.00  0.00    -0.001 A 
ENDROOT
TORSDOF 0
ENDMDL
