MODEL 1
REMARK minimizedAffinity -0.153363883
REMARK minimizedRMSD -1
REMARK  0 active torsions:
REMARK  status: ('A' for Active; 'I' for Inactive)
ROOT
ATOM      1  C   UNL d   1      -3.006   0.629  -3.743  0.00  0.00     0.077 C 
ATOM      2  C1  UNL d   1      -3.043   2.007  -3.153  0.00  0.00    -0.074 A 
ATOM      3  C2  UNL d   1      -3.134   2.196  -1.771  0.00  0.00    -0.005 A 
ATOM      4  C3  UNL d   1      -3.159   3.484  -1.236  0.00  0.00     0.006 A 
ATOM      5  C4  UNL d   1      -3.093   4.595  -2.078  0.00  0.00    -0.005 A 
ATOM      6  C5  UNL d   1      -3.000   4.426  -3.463  0.00  0.00    -0.074 A 
ATOM      7  C6  UNL d   1      -2.919   5.609  -4.381  0.00  0.00     0.077 C 
ATOM      8  C7  UNL d   1      -2.969   3.128  -3.992  0.00  0.00    -0.001 A 
ENDROOT
TORSDOF 0
ENDMDL
