MODEL 1
REMARK minimizedAffinity -2.25283122
REMARK minimizedRMSD -1
REMARK  0 active torsions:
REMARK  status: ('A' for Active; 'I' for Inactive)
ROOT
ATOM      1  C   UNL d   1      -1.857   5.713  -5.999  0.00  0.00     0.077 C 
ATOM      2  C1  UNL d   1      -2.335   5.126  -4.704  0.00  0.00    -0.074 A 
ATOM      3  C2  UNL d   1      -3.016   5.910  -3.767  0.00  0.00    -0.005 A 
ATOM      4  C3  UNL d   1      -3.463   5.348  -2.572  0.00  0.00     0.006 A 
ATOM      5  C4  UNL d   1      -3.233   3.999  -2.300  0.00  0.00    -0.005 A 
ATOM      6  C5  UNL d   1      -2.554   3.199  -3.225  0.00  0.00    -0.074 A 
ATOM      7  C6  UNL d   1      -2.307   1.745  -2.954  0.00  0.00     0.077 C 
ATOM      8  C7  UNL d   1      -2.114   3.769  -4.428  0.00  0.00    -0.001 A 
ENDROOT
TORSDOF 0
ENDMDL
