MODEL 1
REMARK minimizedAffinity 9.45211124
REMARK minimizedRMSD -1
REMARK  0 active torsions:
REMARK  status: ('A' for Active; 'I' for Inactive)
ROOT
ATOM      1  C   UNL d   1      -4.742   3.004  -0.738  0.00  0.00     0.077 C 
ATOM      2  C1  UNL d   1      -4.039   3.903  -1.712  0.00  0.00    -0.074 A 
ATOM      3  C2  UNL d   1      -3.608   5.178  -1.332  0.00  0.00    -0.005 A 
ATOM      4  C3  UNL d   1      -2.948   5.999  -2.246  0.00  0.00     0.006 A 
ATOM      5  C4  UNL d   1      -2.712   5.553  -3.548  0.00  0.00    -0.005 A 
ATOM      6  C5  UNL d   1      -3.134   4.281  -3.945  0.00  0.00    -0.074 A 
ATOM      7  C6  UNL d   1      -2.880   3.783  -5.337  0.00  0.00     0.077 C 
ATOM      8  C7  UNL d   1      -3.791   3.459  -3.019  0.00  0.00    -0.001 A 
ENDROOT
TORSDOF 0
ENDMDL
