MODEL 1
REMARK minimizedAffinity 4.13832712
REMARK minimizedRMSD -1
REMARK  0 active torsions:
REMARK  status: ('A' for Active; 'I' for Inactive)
ROOT
ATOM      1  C   UNL d   1      -1.520  -0.913  -1.913  0.00  0.00     0.077 C 
ATOM      2  C1  UNL d   1      -0.613  -1.361  -0.806  0.00  0.00    -0.074 A 
ATOM      3  C2  UNL d   1       0.684  -1.810  -1.076  0.00  0.00    -0.005 A 
ATOM      4  C3  UNL d   1       1.519  -2.215  -0.034  0.00  0.00     0.006 A 
ATOM      5  C4  UNL d   1       1.066  -2.176   1.285  0.00  0.00    -0.005 A 
ATOM      6  C5  UNL d   1      -0.227  -1.730   1.574  0.00  0.00    -0.074 A 
ATOM      7  C6  UNL d   1      -0.726  -1.672   2.987  0.00  0.00     0.077 C 
ATOM      8  C7  UNL d   1      -1.058  -1.318   0.523  0.00  0.00    -0.001 A 
ENDROOT
TORSDOF 0
ENDMDL
