MODEL 1
REMARK minimizedAffinity -4.0115366
REMARK minimizedRMSD -1
REMARK  0 active torsions:
REMARK  status: ('A' for Active; 'I' for Inactive)
ROOT
ATOM      1  C   UNL d   1      -1.895   0.273  -1.704  0.00  0.00     0.077 C 
ATOM      2  C1  UNL d   1      -2.020   1.678  -2.214  0.00  0.00    -0.074 A 
ATOM      3  C2  UNL d   1      -2.976   2.552  -1.686  0.00  0.00    -0.005 A 
ATOM      4  C3  UNL d   1      -3.075   3.858  -2.163  0.00  0.00     0.006 A 
ATOM      5  C4  UNL d   1      -2.220   4.304  -3.172  0.00  0.00    -0.005 A 
ATOM      6  C5  UNL d   1      -1.257   3.445  -3.712  0.00  0.00    -0.074 A 
ATOM      7  C6  UNL d   1      -0.325   3.911  -4.790  0.00  0.00     0.077 C 
ATOM      8  C7  UNL d   1      -1.160   2.136  -3.222  0.00  0.00    -0.001 A 
ENDROOT
TORSDOF 0
ENDMDL
