MODEL 1
REMARK minimizedAffinity -4.86333561
REMARK minimizedRMSD -1
REMARK  2 active torsions:
REMARK  status: ('A' for Active; 'I' for Inactive)
REMARK    1  A    between atoms: C1_2  and  C2_3 
REMARK    2  A    between atoms: C2_3  and  C3_4 
ROOT
ATOM      1  C3  UNL d   1       0.455   0.081   0.297  0.00  0.00    -0.075 A 
ATOM      2  C4  UNL d   1      -0.703   0.433  -0.412  0.00  0.00     0.002 A 
ATOM      3  C5  UNL d   1      -1.861  -0.338  -0.304  0.00  0.00     0.002 A 
ATOM      4  C6  UNL d   1      -1.873  -1.474   0.502  0.00  0.00    -0.004 A 
ATOM      5  C7  UNL d   1      -0.723  -1.843   1.197  0.00  0.00     0.002 A 
ATOM      6  C8  UNL d   1       0.435  -1.070   1.095  0.00  0.00     0.002 A 
ENDROOT
BRANCH   1   7
ATOM      7  C2  UNL d   1       1.702   0.928   0.208  0.00  0.00     0.056 C 
BRANCH   7   8
ATOM      8  C1  UNL d   1       1.532   2.347   0.759  0.00  0.00     0.007 C 
ATOM      9  C   UNL d   1       2.721   2.816   1.587  0.00  0.00     0.009 C 
ENDBRANCH   7   8
ENDBRANCH   1   7
TORSDOF 2
ENDMDL
