MODEL 1
REMARK minimizedAffinity -5.66698027
REMARK minimizedRMSD -1
REMARK  2 active torsions:
REMARK  status: ('A' for Active; 'I' for Inactive)
REMARK    1  A    between atoms: C1_2  and  C2_3 
REMARK    2  A    between atoms: C2_3  and  C3_4 
ROOT
ATOM      1  C3  UNL d   1      -0.344   0.240  -0.497  0.00  0.00    -0.075 A 
ATOM      2  C4  UNL d   1      -0.454  -0.832   0.400  0.00  0.00     0.002 A 
ATOM      3  C5  UNL d   1      -1.655  -1.532   0.524  0.00  0.00     0.002 A 
ATOM      4  C6  UNL d   1      -2.761  -1.162  -0.238  0.00  0.00    -0.004 A 
ATOM      5  C7  UNL d   1      -2.668  -0.088  -1.120  0.00  0.00     0.002 A 
ATOM      6  C8  UNL d   1      -1.466   0.611  -1.249  0.00  0.00     0.002 A 
ENDROOT
BRANCH   1   7
ATOM      7  C2  UNL d   1       0.962   0.983  -0.657  0.00  0.00     0.056 C 
BRANCH   7   8
ATOM      8  C1  UNL d   1       1.996   0.667   0.428  0.00  0.00     0.007 C 
ATOM      9  C   UNL d   1       2.980   1.804   0.669  0.00  0.00     0.009 C 
ENDBRANCH   7   8
ENDBRANCH   1   7
TORSDOF 2
ENDMDL
