MODEL 1
REMARK minimizedAffinity -1.41452885
REMARK minimizedRMSD -1
REMARK  2 active torsions:
REMARK  status: ('A' for Active; 'I' for Inactive)
REMARK    1  A    between atoms: C1_2  and  C2_3 
REMARK    2  A    between atoms: C2_3  and  C3_4 
ROOT
ATOM      1  C3  UNL d   1       1.491   2.241   0.889  0.00  0.00    -0.075 A 
ATOM      2  C4  UNL d   1       2.050   1.011   0.513  0.00  0.00     0.002 A 
ATOM      3  C5  UNL d   1       1.245  -0.121   0.380  0.00  0.00     0.002 A 
ATOM      4  C6  UNL d   1      -0.123  -0.040   0.630  0.00  0.00    -0.004 A 
ATOM      5  C7  UNL d   1      -0.686   1.173   1.020  0.00  0.00     0.002 A 
ATOM      6  C8  UNL d   1       0.116   2.308   1.150  0.00  0.00     0.002 A 
ENDROOT
BRANCH   1   7
ATOM      7  C2  UNL d   1       2.352   3.477   1.007  0.00  0.00     0.056 C 
BRANCH   7   8
ATOM      8  C1  UNL d   1       3.842   3.225   0.758  0.00  0.00     0.007 C 
ATOM      9  C   UNL d   1       4.401   4.029  -0.409  0.00  0.00     0.009 C 
ENDBRANCH   7   8
ENDBRANCH   1   7
TORSDOF 2
ENDMDL
