MODEL 1
REMARK minimizedAffinity -1.24744368
REMARK minimizedRMSD -1
REMARK  2 active torsions:
REMARK  status: ('A' for Active; 'I' for Inactive)
REMARK    1  A    between atoms: C1_2  and  C2_3 
REMARK    2  A    between atoms: C2_3  and  C3_4 
ROOT
ATOM      1  C3  UNL d   1       4.179   3.901   0.470  0.00  0.00    -0.075 A 
ATOM      2  C4  UNL d   1       4.417   2.638  -0.093  0.00  0.00     0.002 A 
ATOM      3  C5  UNL d   1       4.989   2.524  -1.360  0.00  0.00     0.002 A 
ATOM      4  C6  UNL d   1       5.320   3.668  -2.084  0.00  0.00    -0.004 A 
ATOM      5  C7  UNL d   1       5.072   4.927  -1.542  0.00  0.00     0.002 A 
ATOM      6  C8  UNL d   1       4.504   5.044  -0.272  0.00  0.00     0.002 A 
ENDROOT
BRANCH   1   7
ATOM      7  C2  UNL d   1       3.588   4.030   1.853  0.00  0.00     0.056 C 
BRANCH   7   8
ATOM      8  C1  UNL d   1       2.100   3.673   1.932  0.00  0.00     0.007 C 
ATOM      9  C   UNL d   1       1.847   2.177   2.064  0.00  0.00     0.009 C 
ENDBRANCH   7   8
ENDBRANCH   1   7
TORSDOF 2
ENDMDL
