MODEL 1
REMARK minimizedAffinity -5.83722591
REMARK minimizedRMSD -1
REMARK  2 active torsions:
REMARK  status: ('A' for Active; 'I' for Inactive)
REMARK    1  A    between atoms: C1_2  and  C2_3 
REMARK    2  A    between atoms: C2_3  and  C3_4 
ROOT
ATOM      1  C3  UNL d   1      -1.390  -0.318   0.053  0.00  0.00    -0.075 A 
ATOM      2  C4  UNL d   1      -1.247  -1.537   0.732  0.00  0.00     0.002 A 
ATOM      3  C5  UNL d   1      -2.262  -2.493   0.692  0.00  0.00     0.002 A 
ATOM      4  C6  UNL d   1      -3.434  -2.240  -0.017  0.00  0.00    -0.004 A 
ATOM      5  C7  UNL d   1      -3.594  -1.026  -0.681  0.00  0.00     0.002 A 
ATOM      6  C8  UNL d   1      -2.578  -0.069  -0.647  0.00  0.00     0.002 A 
ENDROOT
BRANCH   1   7
ATOM      7  C2  UNL d   1      -0.283   0.709   0.067  0.00  0.00     0.056 C 
BRANCH   7   8
ATOM      8  C1  UNL d   1       1.122   0.115  -0.076  0.00  0.00     0.007 C 
ATOM      9  C   UNL d   1       2.219   1.036   0.440  0.00  0.00     0.009 C 
ENDBRANCH   7   8
ENDBRANCH   1   7
TORSDOF 2
ENDMDL
