MODEL 1
REMARK minimizedAffinity -3.93128037
REMARK minimizedRMSD -1
REMARK  2 active torsions:
REMARK  status: ('A' for Active; 'I' for Inactive)
REMARK    1  A    between atoms: C1_2  and  C2_3 
REMARK    2  A    between atoms: C2_3  and  C3_4 
ROOT
ATOM      1  C3  UNL d   1       0.198  -0.527  -0.110  0.00  0.00    -0.075 A 
ATOM      2  C4  UNL d   1      -0.341  -1.686   0.467  0.00  0.00     0.002 A 
ATOM      3  C5  UNL d   1      -1.553  -2.207   0.013  0.00  0.00     0.002 A 
ATOM      4  C6  UNL d   1      -2.246  -1.571  -1.016  0.00  0.00    -0.004 A 
ATOM      5  C7  UNL d   1      -1.728  -0.410  -1.585  0.00  0.00     0.002 A 
ATOM      6  C8  UNL d   1      -0.513   0.111  -1.135  0.00  0.00     0.002 A 
ENDROOT
BRANCH   1   7
ATOM      7  C2  UNL d   1       1.523   0.024   0.357  0.00  0.00     0.056 C 
BRANCH   7   8
ATOM      8  C1  UNL d   1       1.494   1.519   0.692  0.00  0.00     0.007 C 
ATOM      9  C   UNL d   1       2.739   1.995   1.428  0.00  0.00     0.009 C 
ENDBRANCH   7   8
ENDBRANCH   1   7
TORSDOF 2
ENDMDL
