MODEL 1
REMARK minimizedAffinity 0.844844997
REMARK minimizedRMSD -1
REMARK  2 active torsions:
REMARK  status: ('A' for Active; 'I' for Inactive)
REMARK    1  A    between atoms: C1_2  and  C2_3 
REMARK    2  A    between atoms: C2_3  and  C3_4 
ROOT
ATOM      1  C3  UNL d   1       0.661  -0.000   0.423  0.00  0.00    -0.075 A 
ATOM      2  C4  UNL d   1       0.753  -1.368   0.722  0.00  0.00     0.002 A 
ATOM      3  C5  UNL d   1       0.582  -1.820   2.030  0.00  0.00     0.002 A 
ATOM      4  C6  UNL d   1       0.329  -0.912   3.057  0.00  0.00    -0.004 A 
ATOM      5  C7  UNL d   1       0.253   0.450   2.774  0.00  0.00     0.002 A 
ATOM      6  C8  UNL d   1       0.419   0.905   1.465  0.00  0.00     0.002 A 
ENDROOT
BRANCH   1   7
ATOM      7  C2  UNL d   1       0.816   0.493  -0.996  0.00  0.00     0.056 C 
BRANCH   7   8
ATOM      8  C1  UNL d   1       0.114  -0.382  -2.040  0.00  0.00     0.007 C 
ATOM      9  C   UNL d   1      -1.091   0.295  -2.678  0.00  0.00     0.009 C 
ENDBRANCH   7   8
ENDBRANCH   1   7
TORSDOF 2
ENDMDL
