MODEL 1
REMARK minimizedAffinity -3.37251973
REMARK minimizedRMSD -1
REMARK  2 active torsions:
REMARK  status: ('A' for Active; 'I' for Inactive)
REMARK    1  A    between atoms: C1_2  and  C2_3 
REMARK    2  A    between atoms: C2_3  and  C3_4 
ROOT
ATOM      1  C3  UNL d   1       1.369   1.090   0.998  0.00  0.00    -0.075 A 
ATOM      2  C4  UNL d   1      -0.012   1.178   0.770  0.00  0.00     0.002 A 
ATOM      3  C5  UNL d   1      -0.603   0.474  -0.279  0.00  0.00     0.002 A 
ATOM      4  C6  UNL d   1       0.178  -0.318  -1.118  0.00  0.00    -0.004 A 
ATOM      5  C7  UNL d   1       1.553  -0.400  -0.911  0.00  0.00     0.002 A 
ATOM      6  C8  UNL d   1       2.147   0.301   0.140  0.00  0.00     0.002 A 
ENDROOT
BRANCH   1   7
ATOM      7  C2  UNL d   1       2.011   1.827   2.149  0.00  0.00     0.056 C 
BRANCH   7   8
ATOM      8  C1  UNL d   1       3.058   2.861   1.722  0.00  0.00     0.007 C 
ATOM      9  C   UNL d   1       2.481   3.980   0.865  0.00  0.00     0.009 C 
ENDBRANCH   7   8
ENDBRANCH   1   7
TORSDOF 2
ENDMDL
