MODEL 1
REMARK minimizedAffinity -3.23391104
REMARK minimizedRMSD -1
REMARK  2 active torsions:
REMARK  status: ('A' for Active; 'I' for Inactive)
REMARK    1  A    between atoms: C1_2  and  C2_3 
REMARK    2  A    between atoms: C2_3  and  C3_4 
ROOT
ATOM      1  C3  UNL d   1      -0.659  -0.051  -0.542  0.00  0.00    -0.075 A 
ATOM      2  C4  UNL d   1      -1.181  -0.564   0.655  0.00  0.00     0.002 A 
ATOM      3  C5  UNL d   1      -2.263  -1.445   0.636  0.00  0.00     0.002 A 
ATOM      4  C6  UNL d   1      -2.842  -1.815  -0.576  0.00  0.00    -0.004 A 
ATOM      5  C7  UNL d   1      -2.342  -1.300  -1.770  0.00  0.00     0.002 A 
ATOM      6  C8  UNL d   1      -1.256  -0.422  -1.754  0.00  0.00     0.002 A 
ENDROOT
BRANCH   1   7
ATOM      7  C2  UNL d   1       0.531   0.879  -0.529  0.00  0.00     0.056 C 
BRANCH   7   8
ATOM      8  C1  UNL d   1       1.726   0.352   0.271  0.00  0.00     0.007 C 
ATOM      9  C   UNL d   1       2.540   1.457   0.932  0.00  0.00     0.009 C 
ENDBRANCH   7   8
ENDBRANCH   1   7
TORSDOF 2
ENDMDL
