MODEL 1
REMARK minimizedAffinity -3.93336892
REMARK minimizedRMSD -1
REMARK  2 active torsions:
REMARK  status: ('A' for Active; 'I' for Inactive)
REMARK    1  A    between atoms: C1_2  and  C2_3 
REMARK    2  A    between atoms: C2_3  and  C3_4 
ROOT
ATOM      1  C3  UNL d   1       1.295   0.960   0.279  0.00  0.00    -0.075 A 
ATOM      2  C4  UNL d   1       2.649   0.651   0.475  0.00  0.00     0.002 A 
ATOM      3  C5  UNL d   1       3.539   1.624   0.929  0.00  0.00     0.002 A 
ATOM      4  C6  UNL d   1       3.091   2.918   1.183  0.00  0.00    -0.004 A 
ATOM      5  C7  UNL d   1       1.752   3.241   0.977  0.00  0.00     0.002 A 
ATOM      6  C8  UNL d   1       0.858   2.268   0.526  0.00  0.00     0.002 A 
ENDROOT
BRANCH   1   7
ATOM      7  C2  UNL d   1       0.320  -0.096  -0.184  0.00  0.00     0.056 C 
BRANCH   7   8
ATOM      8  C1  UNL d   1      -0.854   0.455  -1.000  0.00  0.00     0.007 C 
ATOM      9  C   UNL d   1      -1.908  -0.597  -1.322  0.00  0.00     0.009 C 
ENDBRANCH   7   8
ENDBRANCH   1   7
TORSDOF 2
ENDMDL
