MODEL 1
REMARK minimizedAffinity -1.32625008
REMARK minimizedRMSD -1
REMARK  2 active torsions:
REMARK  status: ('A' for Active; 'I' for Inactive)
REMARK    1  A    between atoms: C1_2  and  C2_3 
REMARK    2  A    between atoms: C2_3  and  C3_4 
ROOT
ATOM      1  C3  UNL d   1       1.206   1.376   0.763  0.00  0.00    -0.075 A 
ATOM      2  C4  UNL d   1       1.213   0.107   0.165  0.00  0.00     0.002 A 
ATOM      3  C5  UNL d   1       0.127  -0.321  -0.600  0.00  0.00     0.002 A 
ATOM      4  C6  UNL d   1      -0.980   0.508  -0.768  0.00  0.00    -0.004 A 
ATOM      5  C7  UNL d   1      -1.005   1.763  -0.165  0.00  0.00     0.002 A 
ATOM      6  C8  UNL d   1       0.082   2.196   0.597  0.00  0.00     0.002 A 
ENDROOT
BRANCH   1   7
ATOM      7  C2  UNL d   1       2.390   1.857   1.567  0.00  0.00     0.056 C 
BRANCH   7   8
ATOM      8  C1  UNL d   1       2.966   3.195   1.091  0.00  0.00     0.007 C 
ATOM      9  C   UNL d   1       3.410   3.173  -0.366  0.00  0.00     0.009 C 
ENDBRANCH   7   8
ENDBRANCH   1   7
TORSDOF 2
ENDMDL
