MODEL 1
REMARK minimizedAffinity -2.88875413
REMARK minimizedRMSD -1
REMARK  0 active torsions:
REMARK  status: ('A' for Active; 'I' for Inactive)
ROOT
ATOM      1  C   UNL d   1       1.667  -3.389   0.705  0.00  0.00     0.172 C 
ATOM      2  N   UNL d   1       1.379  -2.191  -0.048  0.00  0.00    -0.070 N 
ATOM      3  C1  UNL d   1       0.423  -1.262   0.263  0.00  0.00    -0.004 A 
ATOM      4  C2  UNL d   1       0.465  -0.275  -0.697  0.00  0.00    -0.047 A 
ATOM      5  C3  UNL d   1       1.481  -0.623  -1.618  0.00  0.00    -0.047 A 
ATOM      6  C4  UNL d   1       2.031  -1.813  -1.193  0.00  0.00    -0.004 A 
ENDROOT
TORSDOF 0
ENDMDL
