MODEL 1
REMARK minimizedAffinity -1.78072143
REMARK minimizedRMSD -1
REMARK  0 active torsions:
REMARK  status: ('A' for Active; 'I' for Inactive)
ROOT
ATOM      1  C   UNL d   1       0.101  -3.683   0.674  0.00  0.00     0.172 C 
ATOM      2  N   UNL d   1       0.621  -2.542  -0.042  0.00  0.00    -0.070 N 
ATOM      3  C1  UNL d   1      -0.094  -1.430  -0.399  0.00  0.00    -0.004 A 
ATOM      4  C2  UNL d   1       0.759  -0.576  -1.065  0.00  0.00    -0.047 A 
ATOM      5  C3  UNL d   1       2.030  -1.197  -1.109  0.00  0.00    -0.047 A 
ATOM      6  C4  UNL d   1       1.916  -2.413  -0.469  0.00  0.00    -0.004 A 
ENDROOT
TORSDOF 0
ENDMDL
