MODEL 1
REMARK minimizedAffinity 0.662058592
REMARK minimizedRMSD -1
REMARK  0 active torsions:
REMARK  status: ('A' for Active; 'I' for Inactive)
ROOT
ATOM      1  C   UNL d   1       0.505  -5.096   1.264  0.00  0.00     0.172 C 
ATOM      2  N   UNL d   1       0.490  -3.768   0.697  0.00  0.00    -0.070 N 
ATOM      3  C1  UNL d   1       1.592  -2.997   0.441  0.00  0.00    -0.004 A 
ATOM      4  C2  UNL d   1       1.157  -1.805  -0.097  0.00  0.00    -0.047 A 
ATOM      5  C3  UNL d   1      -0.256  -1.862  -0.167  0.00  0.00    -0.047 A 
ATOM      6  C4  UNL d   1      -0.642  -3.088   0.331  0.00  0.00    -0.004 A 
ENDROOT
TORSDOF 0
ENDMDL
