MODEL 1
REMARK minimizedAffinity -3.76912808
REMARK minimizedRMSD -1
REMARK  0 active torsions:
REMARK  status: ('A' for Active; 'I' for Inactive)
ROOT
ATOM      1  C   UNL d   1       1.514  -3.634  -0.445  0.00  0.00     0.172 C 
ATOM      2  N   UNL d   1       0.862  -2.346  -0.471  0.00  0.00    -0.070 N 
ATOM      3  C1  UNL d   1       1.454  -1.158  -0.811  0.00  0.00    -0.004 A 
ATOM      4  C2  UNL d   1       0.500  -0.168  -0.711  0.00  0.00    -0.047 A 
ATOM      5  C3  UNL d   1      -0.706  -0.782  -0.296  0.00  0.00    -0.047 A 
ATOM      6  C4  UNL d   1      -0.453  -2.130  -0.155  0.00  0.00    -0.004 A 
ENDROOT
TORSDOF 0
ENDMDL
