MODEL 1
REMARK minimizedAffinity 3.33605552
REMARK minimizedRMSD -1
REMARK  0 active torsions:
REMARK  status: ('A' for Active; 'I' for Inactive)
ROOT
ATOM      1  C   UNL d   1       2.765  -2.607   0.094  0.00  0.00     0.172 C 
ATOM      2  N   UNL d   1       1.726  -1.754  -0.431  0.00  0.00    -0.070 N 
ATOM      3  C1  UNL d   1       1.804  -0.395  -0.573  0.00  0.00    -0.004 A 
ATOM      4  C2  UNL d   1       0.612   0.043  -1.107  0.00  0.00    -0.047 A 
ATOM      5  C3  UNL d   1      -0.212  -1.092  -1.293  0.00  0.00    -0.047 A 
ATOM      6  C4  UNL d   1       0.502  -2.192  -0.866  0.00  0.00    -0.004 A 
ENDROOT
TORSDOF 0
ENDMDL
