MODEL 1
REMARK minimizedAffinity -4.24552441
REMARK minimizedRMSD -1
REMARK  0 active torsions:
REMARK  status: ('A' for Active; 'I' for Inactive)
ROOT
ATOM      1  C   UNL d   1       1.492  -4.251   0.129  0.00  0.00     0.172 C 
ATOM      2  N   UNL d   1       1.129  -2.863  -0.037  0.00  0.00    -0.070 N 
ATOM      3  C1  UNL d   1      -0.097  -2.401  -0.435  0.00  0.00    -0.004 A 
ATOM      4  C2  UNL d   1      -0.038  -1.024  -0.470  0.00  0.00    -0.047 A 
ATOM      5  C3  UNL d   1       1.268  -0.646  -0.079  0.00  0.00    -0.047 A 
ATOM      6  C4  UNL d   1       1.970  -1.804   0.183  0.00  0.00    -0.004 A 
ENDROOT
TORSDOF 0
ENDMDL
