MODEL 1
REMARK minimizedAffinity -2.46488333
REMARK minimizedRMSD -1
REMARK  0 active torsions:
REMARK  status: ('A' for Active; 'I' for Inactive)
ROOT
ATOM      1  C   UNL d   1       1.913  -3.177   0.398  0.00  0.00     0.172 C 
ATOM      2  N   UNL d   1       0.948  -2.204  -0.055  0.00  0.00    -0.070 N 
ATOM      3  C1  UNL d   1      -0.401  -2.251   0.176  0.00  0.00    -0.004 A 
ATOM      4  C2  UNL d   1      -0.970  -1.144  -0.417  0.00  0.00    -0.047 A 
ATOM      5  C3  UNL d   1       0.073  -0.407  -1.027  0.00  0.00    -0.047 A 
ATOM      6  C4  UNL d   1       1.250  -1.086  -0.787  0.00  0.00    -0.004 A 
ENDROOT
TORSDOF 0
ENDMDL
