MODEL 1
REMARK minimizedAffinity -4.45105886
REMARK minimizedRMSD -1
REMARK  0 active torsions:
REMARK  status: ('A' for Active; 'I' for Inactive)
ROOT
ATOM      1  C   UNL d   1       1.143  -4.036   0.729  0.00  0.00     0.172 C 
ATOM      2  N   UNL d   1       0.988  -2.696   0.213  0.00  0.00    -0.070 N 
ATOM      3  C1  UNL d   1      -0.195  -2.015   0.102  0.00  0.00    -0.004 A 
ATOM      4  C2  UNL d   1       0.080  -0.775  -0.432  0.00  0.00    -0.047 A 
ATOM      5  C3  UNL d   1       1.477  -0.709  -0.651  0.00  0.00    -0.047 A 
ATOM      6  C4  UNL d   1       2.014  -1.911  -0.242  0.00  0.00    -0.004 A 
ENDROOT
TORSDOF 0
ENDMDL
