MODEL 1
REMARK minimizedAffinity -2.7064476
REMARK minimizedRMSD -1
REMARK  0 active torsions:
REMARK  status: ('A' for Active; 'I' for Inactive)
ROOT
ATOM      1  C   UNL d   1       0.489  -0.349  -1.324  0.00  0.00     0.172 C 
ATOM      2  N   UNL d   1       0.729  -1.565  -0.582  0.00  0.00    -0.070 N 
ATOM      3  C1  UNL d   1      -0.168  -2.187   0.244  0.00  0.00    -0.004 A 
ATOM      4  C2  UNL d   1       0.441  -3.311   0.759  0.00  0.00    -0.047 A 
ATOM      5  C3  UNL d   1       1.750  -3.366   0.225  0.00  0.00    -0.047 A 
ATOM      6  C4  UNL d   1       1.902  -2.273  -0.603  0.00  0.00    -0.004 A 
ENDROOT
TORSDOF 0
ENDMDL
