MODEL 1
REMARK minimizedAffinity -1.94792676
REMARK minimizedRMSD -1
REMARK  0 active torsions:
REMARK  status: ('A' for Active; 'I' for Inactive)
ROOT
ATOM      1  C   UNL d   1       1.613  -4.155   0.203  0.00  0.00     0.172 C 
ATOM      2  N   UNL d   1       1.334  -2.800  -0.211  0.00  0.00    -0.070 N 
ATOM      3  C1  UNL d   1       2.270  -1.831  -0.454  0.00  0.00    -0.004 A 
ATOM      4  C2  UNL d   1       1.603  -0.684  -0.825  0.00  0.00    -0.047 A 
ATOM      5  C3  UNL d   1       0.218  -0.973  -0.803  0.00  0.00    -0.047 A 
ATOM      6  C4  UNL d   1       0.080  -2.290  -0.420  0.00  0.00    -0.004 A 
ENDROOT
TORSDOF 0
ENDMDL
