MODEL 1
REMARK minimizedAffinity -3.23513031
REMARK minimizedRMSD -1
REMARK  0 active torsions:
REMARK  status: ('A' for Active; 'I' for Inactive)
ROOT
ATOM      1  C   UNL d   1       1.589  -4.793   0.949  0.00  0.00     0.172 C 
ATOM      2  N   UNL d   1       1.504  -3.486   0.339  0.00  0.00    -0.070 N 
ATOM      3  C1  UNL d   1       2.564  -2.741  -0.104  0.00  0.00    -0.004 A 
ATOM      4  C2  UNL d   1       2.066  -1.563  -0.618  0.00  0.00    -0.047 A 
ATOM      5  C3  UNL d   1       0.659  -1.602  -0.479  0.00  0.00    -0.047 A 
ATOM      6  C4  UNL d   1       0.337  -2.803   0.116  0.00  0.00    -0.004 A 
ENDROOT
TORSDOF 0
ENDMDL
