MODEL 1
REMARK minimizedAffinity -2.06513667
REMARK minimizedRMSD -1
REMARK  0 active torsions:
REMARK  status: ('A' for Active; 'I' for Inactive)
ROOT
ATOM      1  C   UNL d   1       1.880  -3.891   0.768  0.00  0.00     0.172 C 
ATOM      2  N   UNL d   1       1.025  -2.816   0.323  0.00  0.00    -0.070 N 
ATOM      3  C1  UNL d   1      -0.335  -2.761   0.479  0.00  0.00    -0.004 A 
ATOM      4  C2  UNL d   1      -0.776  -1.580  -0.078  0.00  0.00    -0.047 A 
ATOM      5  C3  UNL d   1       0.358  -0.902  -0.587  0.00  0.00    -0.047 A 
ATOM      6  C4  UNL d   1       1.459  -1.690  -0.326  0.00  0.00    -0.004 A 
ENDROOT
TORSDOF 0
ENDMDL
