MODEL 1
REMARK minimizedAffinity 7.16345358
REMARK minimizedRMSD -1
REMARK  0 active torsions:
REMARK  status: ('A' for Active; 'I' for Inactive)
ROOT
ATOM      1  C2' OXE d   1       2.846  -5.096   1.396  0.00  0.00     0.078 C 
ATOM      2  C1' OXE d   1       3.693  -3.686   3.671  0.00  0.00     0.078 C 
ATOM      3  C1  OXE d   1       2.616  -3.063   2.818  0.00  0.00    -0.078 A 
ATOM      4  C2  OXE d   1       2.240  -3.738   1.681  0.00  0.00    -0.078 A 
ATOM      5  C3  OXE d   1       1.213  -3.235   0.889  0.00  0.00     0.003 A 
ATOM      6  C4  OXE d   1       0.665  -1.974   1.154  0.00  0.00    -0.002 A 
ATOM      7  C5  OXE d   1       1.062  -1.251   2.285  0.00  0.00    -0.002 A 
ATOM      8  C6  OXE d   1       2.003  -1.800   3.148  0.00  0.00     0.003 A 
ENDROOT
TORSDOF 0
ENDMDL
