MODEL 1
REMARK minimizedAffinity 6.58775711
REMARK minimizedRMSD -1
REMARK  0 active torsions:
REMARK  status: ('A' for Active; 'I' for Inactive)
ROOT
ATOM      1  C2' OXE d   1      -2.076   2.794  -2.806  0.00  0.00     0.078 C 
ATOM      2  C1' OXE d   1       0.255   3.692  -4.088  0.00  0.00     0.078 C 
ATOM      3  C1  OXE d   1       0.369   2.493  -3.179  0.00  0.00    -0.078 A 
ATOM      4  C2  OXE d   1      -0.767   2.090  -2.519  0.00  0.00    -0.078 A 
ATOM      5  C3  OXE d   1      -0.730   0.957  -1.711  0.00  0.00     0.003 A 
ATOM      6  C4  OXE d   1       0.486   0.317  -1.443  0.00  0.00    -0.002 A 
ATOM      7  C5  OXE d   1       1.663   0.737  -2.073  0.00  0.00    -0.002 A 
ATOM      8  C6  OXE d   1       1.613   1.794  -2.975  0.00  0.00     0.003 A 
ENDROOT
TORSDOF 0
ENDMDL
