MODEL 1
REMARK minimizedAffinity 2.82992363
REMARK minimizedRMSD -1
REMARK  0 active torsions:
REMARK  status: ('A' for Active; 'I' for Inactive)
ROOT
ATOM      1  C2' OXE d   1       5.635  -1.460  -5.999  0.00  0.00     0.078 C 
ATOM      2  C1' OXE d   1       5.993  -1.491  -3.215  0.00  0.00     0.078 C 
ATOM      3  C1  OXE d   1       5.918  -0.149  -3.900  0.00  0.00    -0.078 A 
ATOM      4  C2  OXE d   1       5.790  -0.144  -5.268  0.00  0.00    -0.078 A 
ATOM      5  C3  OXE d   1       5.661   1.066  -5.944  0.00  0.00     0.003 A 
ATOM      6  C4  OXE d   1       5.815   2.279  -5.262  0.00  0.00    -0.002 A 
ATOM      7  C5  OXE d   1       5.987   2.295  -3.873  0.00  0.00    -0.002 A 
ATOM      8  C6  OXE d   1       5.998   1.094  -3.174  0.00  0.00     0.003 A 
ENDROOT
TORSDOF 0
ENDMDL
