MODEL 1
REMARK minimizedAffinity 2.23922539
REMARK minimizedRMSD -1
REMARK  0 active torsions:
REMARK  status: ('A' for Active; 'I' for Inactive)
ROOT
ATOM      1  C2' OXE d   1      -3.177   1.629  -2.492  0.00  0.00     0.078 C 
ATOM      2  C1' OXE d   1      -3.292   4.250  -3.489  0.00  0.00     0.078 C 
ATOM      3  C1  OXE d   1      -1.943   3.709  -3.088  0.00  0.00    -0.078 A 
ATOM      4  C2  OXE d   1      -1.902   2.442  -2.558  0.00  0.00    -0.078 A 
ATOM      5  C3  OXE d   1      -0.676   1.874  -2.223  0.00  0.00     0.003 A 
ATOM      6  C4  OXE d   1       0.497   2.637  -2.277  0.00  0.00    -0.002 A 
ATOM      7  C5  OXE d   1       0.472   3.943  -2.777  0.00  0.00    -0.002 A 
ATOM      8  C6  OXE d   1      -0.730   4.478  -3.226  0.00  0.00     0.003 A 
ENDROOT
TORSDOF 0
ENDMDL
