MODEL 1
REMARK minimizedAffinity 7.25353003
REMARK minimizedRMSD -1
REMARK  0 active torsions:
REMARK  status: ('A' for Active; 'I' for Inactive)
ROOT
ATOM      1  C2' OXE d   1       5.779   3.067  -4.214  0.00  0.00     0.078 C 
ATOM      2  C1' OXE d   1       5.966   1.316  -2.028  0.00  0.00     0.078 C 
ATOM      3  C1  OXE d   1       5.923   0.714  -3.411  0.00  0.00    -0.078 A 
ATOM      4  C2  OXE d   1       5.784   1.576  -4.472  0.00  0.00    -0.078 A 
ATOM      5  C3  OXE d   1       5.793   1.077  -5.771  0.00  0.00     0.003 A 
ATOM      6  C4  OXE d   1       5.788  -0.305  -6.000  0.00  0.00    -0.002 A 
ATOM      7  C5  OXE d   1       5.889  -1.202  -4.931  0.00  0.00    -0.002 A 
ATOM      8  C6  OXE d   1       6.000  -0.708  -3.636  0.00  0.00     0.003 A 
ENDROOT
TORSDOF 0
ENDMDL
