MODEL 1
REMARK minimizedAffinity 10.4998569
REMARK minimizedRMSD -1
REMARK  0 active torsions:
REMARK  status: ('A' for Active; 'I' for Inactive)
ROOT
ATOM      1  C2' OXE d   1      -1.584   6.000  -3.791  0.00  0.00     0.078 C 
ATOM      2  C1' OXE d   1       0.957   4.870  -3.409  0.00  0.00     0.078 C 
ATOM      3  C1  OXE d   1      -0.247   4.018  -3.091  0.00  0.00    -0.078 A 
ATOM      4  C2  OXE d   1      -1.485   4.595  -3.236  0.00  0.00    -0.078 A 
ATOM      5  C3  OXE d   1      -2.630   3.836  -3.009  0.00  0.00     0.003 A 
ATOM      6  C4  OXE d   1      -2.530   2.541  -2.487  0.00  0.00    -0.002 A 
ATOM      7  C5  OXE d   1      -1.278   1.948  -2.294  0.00  0.00    -0.002 A 
ATOM      8  C6  OXE d   1      -0.129   2.657  -2.630  0.00  0.00     0.003 A 
ENDROOT
TORSDOF 0
ENDMDL
