MODEL 1
REMARK minimizedAffinity 6.08954477
REMARK minimizedRMSD -1
REMARK  0 active torsions:
REMARK  status: ('A' for Active; 'I' for Inactive)
ROOT
ATOM      1  C2' OXE d   1       5.973   1.741  -2.293  0.00  0.00     0.078 C 
ATOM      2  C1' OXE d   1       5.881   2.831  -4.878  0.00  0.00     0.078 C 
ATOM      3  C1  OXE d   1       5.903   1.328  -4.748  0.00  0.00    -0.078 A 
ATOM      4  C2  OXE d   1       5.995   0.804  -3.481  0.00  0.00    -0.078 A 
ATOM      5  C3  OXE d   1       5.963  -0.576  -3.302  0.00  0.00     0.003 A 
ATOM      6  C4  OXE d   1       5.994  -1.435  -4.407  0.00  0.00    -0.002 A 
ATOM      7  C5  OXE d   1       5.941  -0.921  -5.708  0.00  0.00    -0.002 A 
ATOM      8  C6  OXE d   1       5.852   0.454  -5.894  0.00  0.00     0.003 A 
ENDROOT
TORSDOF 0
ENDMDL
