MODEL 1
REMARK minimizedAffinity 5.11283302
REMARK minimizedRMSD -1
REMARK  0 active torsions:
REMARK  status: ('A' for Active; 'I' for Inactive)
ROOT
ATOM      1  C2' OXE d   1       5.392  -0.754  -5.271  0.00  0.00     0.078 C 
ATOM      2  C1' OXE d   1       5.944   0.033  -2.634  0.00  0.00     0.078 C 
ATOM      3  C1  OXE d   1       5.846   1.111  -3.684  0.00  0.00    -0.078 A 
ATOM      4  C2  OXE d   1       5.622   0.713  -4.980  0.00  0.00    -0.078 A 
ATOM      5  C3  OXE d   1       5.468   1.671  -5.978  0.00  0.00     0.003 A 
ATOM      6  C4  OXE d   1       5.693   3.025  -5.702  0.00  0.00    -0.002 A 
ATOM      7  C5  OXE d   1       5.962   3.448  -4.396  0.00  0.00    -0.002 A 
ATOM      8  C6  OXE d   1       6.000   2.510  -3.370  0.00  0.00     0.003 A 
ENDROOT
TORSDOF 0
ENDMDL
