MODEL 1
REMARK minimizedAffinity 12.3815432
REMARK minimizedRMSD -1
REMARK  0 active torsions:
REMARK  status: ('A' for Active; 'I' for Inactive)
ROOT
ATOM      1  C2' OXE d   1      -1.062  -1.714   3.104  0.00  0.00     0.078 C 
ATOM      2  C1' OXE d   1       1.545  -1.021   3.881  0.00  0.00     0.078 C 
ATOM      3  C1  OXE d   1       1.291  -1.271   2.416  0.00  0.00    -0.078 A 
ATOM      4  C2  OXE d   1       0.023  -1.655   2.050  0.00  0.00    -0.078 A 
ATOM      5  C3  OXE d   1      -0.279  -1.845   0.705  0.00  0.00     0.003 A 
ATOM      6  C4  OXE d   1       0.732  -1.798  -0.262  0.00  0.00    -0.002 A 
ATOM      7  C5  OXE d   1       2.039  -1.447   0.094  0.00  0.00    -0.002 A 
ATOM      8  C6  OXE d   1       2.325  -1.139   1.419  0.00  0.00     0.003 A 
ENDROOT
TORSDOF 0
ENDMDL
