MODEL 1
REMARK minimizedAffinity 4.44539595
REMARK minimizedRMSD -1
REMARK  0 active torsions:
REMARK  status: ('A' for Active; 'I' for Inactive)
ROOT
ATOM      1  C2' OXE d   1       4.988  -0.000  -4.326  0.00  0.00     0.078 C 
ATOM      2  C1' OXE d   1       5.896   2.297  -5.659  0.00  0.00     0.078 C 
ATOM      3  C1  OXE d   1       4.406   2.114  -5.507  0.00  0.00    -0.078 A 
ATOM      4  C2  OXE d   1       3.970   0.964  -4.895  0.00  0.00    -0.078 A 
ATOM      5  C3  OXE d   1       2.608   0.772  -4.681  0.00  0.00     0.003 A 
ATOM      6  C4  OXE d   1       1.673   1.664  -5.219  0.00  0.00    -0.002 A 
ATOM      7  C5  OXE d   1       2.095   2.821  -5.881  0.00  0.00    -0.002 A 
ATOM      8  C6  OXE d   1       3.456   3.082  -5.996  0.00  0.00     0.003 A 
ENDROOT
TORSDOF 0
ENDMDL
