MODEL 1
REMARK minimizedAffinity 9.28522015
REMARK minimizedRMSD -1
REMARK  0 active torsions:
REMARK  status: ('A' for Active; 'I' for Inactive)
ROOT
ATOM      1  C2' OXE d   1      -0.802   2.837  -2.742  0.00  0.00     0.078 C 
ATOM      2  C1' OXE d   1       1.262   3.448  -4.544  0.00  0.00     0.078 C 
ATOM      3  C1  OXE d   1       1.442   2.247  -3.649  0.00  0.00    -0.078 A 
ATOM      4  C2  OXE d   1       0.448   1.983  -2.738  0.00  0.00    -0.078 A 
ATOM      5  C3  OXE d   1       0.538   0.856  -1.926  0.00  0.00     0.003 A 
ATOM      6  C4  OXE d   1       1.701   0.077  -1.921  0.00  0.00    -0.002 A 
ATOM      7  C5  OXE d   1       2.743   0.352  -2.813  0.00  0.00    -0.002 A 
ATOM      8  C6  OXE d   1       2.611   1.406  -3.711  0.00  0.00     0.003 A 
ENDROOT
TORSDOF 0
ENDMDL
