MODEL 1
REMARK minimizedAffinity 7.89603996
REMARK minimizedRMSD -1
REMARK  0 active torsions:
REMARK  status: ('A' for Active; 'I' for Inactive)
ROOT
ATOM      1  C2' OXE d   1       2.149   1.117  -1.505  0.00  0.00     0.078 C 
ATOM      2  C1' OXE d   1      -0.043  -0.495  -0.816  0.00  0.00     0.078 C 
ATOM      3  C1  OXE d   1      -0.319   0.788  -1.560  0.00  0.00    -0.078 A 
ATOM      4  C2  OXE d   1       0.755   1.593  -1.852  0.00  0.00    -0.078 A 
ATOM      5  C3  OXE d   1       0.563   2.761  -2.584  0.00  0.00     0.003 A 
ATOM      6  C4  OXE d   1      -0.731   3.199  -2.892  0.00  0.00    -0.002 A 
ATOM      7  C5  OXE d   1      -1.842   2.413  -2.569  0.00  0.00    -0.002 A 
ATOM      8  C6  OXE d   1      -1.651   1.187  -1.942  0.00  0.00     0.003 A 
ENDROOT
TORSDOF 0
ENDMDL
