MODEL 1
REMARK minimizedAffinity -1.99561596
REMARK minimizedRMSD -1
REMARK  1 active torsions:
REMARK  status: ('A' for Active; 'I' for Inactive)
REMARK    1  A    between atoms: C1_2  and  C2_3 
ROOT
ATOM      1  C2  UNL d   1       3.493  -0.567  -1.732  0.00  0.00    -0.076 A 
ATOM      2  C3  UNL d   1       4.707   0.127  -1.880  0.00  0.00     0.004 A 
ATOM      3  C4  UNL d   1       5.905  -0.417  -1.421  0.00  0.00    -0.003 A 
ATOM      4  C5  UNL d   1       5.910  -1.665  -0.808  0.00  0.00     0.000 A 
ATOM      5  C6  UNL d   1       4.718  -2.375  -0.668  0.00  0.00     0.000 A 
ATOM      6  C7  UNL d   1       3.503  -1.848  -1.140  0.00  0.00    -0.073 A 
ATOM      7  C8  UNL d   1       2.247  -2.654  -0.958  0.00  0.00     0.078 C 
ENDROOT
BRANCH   1   8
ATOM      8  C1  UNL d   1       2.221   0.086  -2.225  0.00  0.00     0.053 C 
ATOM      9  C   UNL d   1       1.232   0.355  -1.102  0.00  0.00     0.018 C 
ENDBRANCH   1   8
TORSDOF 1
ENDMDL
