MODEL 1
REMARK minimizedAffinity 8.94693089
REMARK minimizedRMSD -1
REMARK  1 active torsions:
REMARK  status: ('A' for Active; 'I' for Inactive)
REMARK    1  A    between atoms: C1_2  and  C2_3 
ROOT
ATOM      1  C2  UNL d   1       2.049   0.179  -1.085  0.00  0.00    -0.076 A 
ATOM      2  C3  UNL d   1       2.294   0.873   0.113  0.00  0.00     0.004 A 
ATOM      3  C4  UNL d   1       2.255   2.266   0.157  0.00  0.00    -0.003 A 
ATOM      4  C5  UNL d   1       1.971   2.987  -0.997  0.00  0.00     0.000 A 
ATOM      5  C6  UNL d   1       1.708   2.315  -2.190  0.00  0.00     0.000 A 
ATOM      6  C7  UNL d   1       1.726   0.911  -2.248  0.00  0.00    -0.073 A 
ATOM      7  C8  UNL d   1       1.441   0.238  -3.562  0.00  0.00     0.078 C 
ENDROOT
BRANCH   1   8
ATOM      8  C1  UNL d   1       2.132  -1.330  -1.077  0.00  0.00     0.053 C 
ATOM      9  C   UNL d   1       0.888  -1.979  -0.488  0.00  0.00     0.018 C 
ENDBRANCH   1   8
TORSDOF 1
ENDMDL
