MODEL 1
REMARK minimizedAffinity 21.5829697
REMARK minimizedRMSD -1
REMARK  1 active torsions:
REMARK  status: ('A' for Active; 'I' for Inactive)
REMARK    1  A    between atoms: C1_2  and  C2_3 
ROOT
ATOM      1  C2  UNL d   1      -4.197   0.442   3.894  0.00  0.00    -0.076 A 
ATOM      2  C3  UNL d   1      -3.903  -0.099   5.158  0.00  0.00     0.004 A 
ATOM      3  C4  UNL d   1      -4.652  -1.153   5.679  0.00  0.00    -0.003 A 
ATOM      4  C5  UNL d   1      -5.706  -1.684   4.943  0.00  0.00     0.000 A 
ATOM      5  C6  UNL d   1      -6.000  -1.172   3.680  0.00  0.00     0.000 A 
ATOM      6  C7  UNL d   1      -5.245  -0.120   3.134  0.00  0.00    -0.073 A 
ATOM      7  C8  UNL d   1      -5.610   0.398   1.770  0.00  0.00     0.078 C 
ENDROOT
BRANCH   1   8
ATOM      8  C1  UNL d   1      -3.368   1.602   3.393  0.00  0.00     0.053 C 
ATOM      9  C   UNL d   1      -3.633   2.885   4.166  0.00  0.00     0.018 C 
ENDBRANCH   1   8
TORSDOF 1
ENDMDL
