MODEL 1
REMARK minimizedAffinity 15.2696018
REMARK minimizedRMSD -1
REMARK  1 active torsions:
REMARK  status: ('A' for Active; 'I' for Inactive)
REMARK    1  A    between atoms: C1_2  and  C2_3 
ROOT
ATOM      1  C2  UNL d   1       0.264  -2.856  -2.693  0.00  0.00    -0.076 A 
ATOM      2  C3  UNL d   1      -0.192  -2.761  -1.366  0.00  0.00     0.004 A 
ATOM      3  C4  UNL d   1       0.367  -1.843  -0.480  0.00  0.00    -0.003 A 
ATOM      4  C5  UNL d   1       1.391  -1.004  -0.905  0.00  0.00     0.000 A 
ATOM      5  C6  UNL d   1       1.843  -1.072  -2.223  0.00  0.00     0.000 A 
ATOM      6  C7  UNL d   1       1.279  -1.981  -3.134  0.00  0.00    -0.073 A 
ATOM      7  C8  UNL d   1       1.810  -2.016  -4.541  0.00  0.00     0.078 C 
ENDROOT
BRANCH   1   8
ATOM      8  C1  UNL d   1      -0.362  -3.890  -3.602  0.00  0.00     0.053 C 
ATOM      9  C   UNL d   1      -1.103  -4.972  -2.830  0.00  0.00     0.018 C 
ENDBRANCH   1   8
TORSDOF 1
ENDMDL
