MODEL 1
REMARK minimizedAffinity 15.5840664
REMARK minimizedRMSD -1
REMARK  1 active torsions:
REMARK  status: ('A' for Active; 'I' for Inactive)
REMARK    1  A    between atoms: C1_2  and  C2_3 
ROOT
ATOM      1  C2  UNL d   1      -3.684   0.959   4.527  0.00  0.00    -0.076 A 
ATOM      2  C3  UNL d   1      -3.756   0.391   5.810  0.00  0.00     0.004 A 
ATOM      3  C4  UNL d   1      -4.271  -0.891   6.000  0.00  0.00    -0.003 A 
ATOM      4  C5  UNL d   1      -4.721  -1.625   4.908  0.00  0.00     0.000 A 
ATOM      5  C6  UNL d   1      -4.640  -1.084   3.626  0.00  0.00     0.000 A 
ATOM      6  C7  UNL d   1      -4.109   0.200   3.415  0.00  0.00    -0.073 A 
ATOM      7  C8  UNL d   1      -4.052   0.736   2.011  0.00  0.00     0.078 C 
ENDROOT
BRANCH   1   8
ATOM      8  C1  UNL d   1      -3.141   2.363   4.386  0.00  0.00     0.053 C 
ATOM      9  C   UNL d   1      -4.130   3.420   4.855  0.00  0.00     0.018 C 
ENDBRANCH   1   8
TORSDOF 1
ENDMDL
