MODEL 1
REMARK minimizedAffinity 12.3912096
REMARK minimizedRMSD -1
REMARK  1 active torsions:
REMARK  status: ('A' for Active; 'I' for Inactive)
REMARK    1  A    between atoms: C1_2  and  C2_3 
ROOT
ATOM      1  C2  UNL d   1       1.464   4.729   0.262  0.00  0.00    -0.076 A 
ATOM      2  C3  UNL d   1       1.911   3.530   0.842  0.00  0.00     0.004 A 
ATOM      3  C4  UNL d   1       1.960   2.349   0.102  0.00  0.00    -0.003 A 
ATOM      4  C5  UNL d   1       1.564   2.350  -1.230  0.00  0.00     0.000 A 
ATOM      5  C6  UNL d   1       1.135   3.534  -1.827  0.00  0.00     0.000 A 
ATOM      6  C7  UNL d   1       1.094   4.737  -1.100  0.00  0.00    -0.073 A 
ATOM      7  C8  UNL d   1       0.617   5.984  -1.793  0.00  0.00     0.078 C 
ENDROOT
BRANCH   1   8
ATOM      8  C1  UNL d   1       1.407   5.972   1.121  0.00  0.00     0.053 C 
ATOM      9  C   UNL d   1       2.496   5.998   2.182  0.00  0.00     0.018 C 
ENDBRANCH   1   8
TORSDOF 1
ENDMDL
