MODEL 1
REMARK minimizedAffinity 17.1875229
REMARK minimizedRMSD -1
REMARK  1 active torsions:
REMARK  status: ('A' for Active; 'I' for Inactive)
REMARK    1  A    between atoms: C1_2  and  C2_3 
ROOT
ATOM      1  C2  UNL d   1       2.053   2.310  -0.952  0.00  0.00    -0.076 A 
ATOM      2  C3  UNL d   1       1.355   2.117  -2.158  0.00  0.00     0.004 A 
ATOM      3  C4  UNL d   1       1.381   0.886  -2.812  0.00  0.00    -0.003 A 
ATOM      4  C5  UNL d   1       2.104  -0.171  -2.271  0.00  0.00     0.000 A 
ATOM      5  C6  UNL d   1       2.788  -0.002  -1.067  0.00  0.00     0.000 A 
ATOM      6  C7  UNL d   1       2.758   1.227  -0.386  0.00  0.00    -0.073 A 
ATOM      7  C8  UNL d   1       3.518   1.355   0.905  0.00  0.00     0.078 C 
ENDROOT
BRANCH   1   8
ATOM      8  C1  UNL d   1       2.010   3.674  -0.302  0.00  0.00     0.053 C 
ATOM      9  C   UNL d   1       1.050   4.624  -1.002  0.00  0.00     0.018 C 
ENDBRANCH   1   8
TORSDOF 1
ENDMDL
