MODEL 1
REMARK minimizedAffinity 12.8549156
REMARK minimizedRMSD -1
REMARK  1 active torsions:
REMARK  status: ('A' for Active; 'I' for Inactive)
REMARK    1  A    between atoms: C1_2  and  C2_3 
ROOT
ATOM      1  C2  UNL d   1      -0.934   1.601   4.034  0.00  0.00    -0.076 A 
ATOM      2  C3  UNL d   1      -0.897   2.313   5.246  0.00  0.00     0.004 A 
ATOM      3  C4  UNL d   1       0.276   2.393   5.995  0.00  0.00    -0.003 A 
ATOM      4  C5  UNL d   1       1.431   1.762   5.545  0.00  0.00     0.000 A 
ATOM      5  C6  UNL d   1       1.416   1.066   4.337  0.00  0.00     0.000 A 
ATOM      6  C7  UNL d   1       0.247   0.990   3.561  0.00  0.00    -0.073 A 
ATOM      7  C8  UNL d   1       0.287   0.220   2.269  0.00  0.00     0.078 C 
ENDROOT
BRANCH   1   8
ATOM      8  C1  UNL d   1      -2.241   1.526   3.278  0.00  0.00     0.053 C 
ATOM      9  C   UNL d   1      -3.353   2.309   3.958  0.00  0.00     0.018 C 
ENDBRANCH   1   8
TORSDOF 1
ENDMDL
