MODEL 1
REMARK minimizedAffinity 4.32613373
REMARK minimizedRMSD -1
REMARK  1 active torsions:
REMARK  status: ('A' for Active; 'I' for Inactive)
REMARK    1  A    between atoms: C1_2  and  C2_3 
ROOT
ATOM      1  C2  UNL d   1      -1.056  -2.915  -0.596  0.00  0.00    -0.076 A 
ATOM      2  C3  UNL d   1      -0.093  -1.922  -0.845  0.00  0.00     0.004 A 
ATOM      3  C4  UNL d   1       0.518  -1.236   0.203  0.00  0.00    -0.003 A 
ATOM      4  C5  UNL d   1       0.176  -1.532   1.518  0.00  0.00     0.000 A 
ATOM      5  C6  UNL d   1      -0.764  -2.527   1.784  0.00  0.00     0.000 A 
ATOM      6  C7  UNL d   1      -1.378  -3.239   0.740  0.00  0.00    -0.073 A 
ATOM      7  C8  UNL d   1      -2.390  -4.298   1.084  0.00  0.00     0.078 C 
ENDROOT
BRANCH   1   8
ATOM      8  C1  UNL d   1      -1.705  -3.607  -1.774  0.00  0.00     0.053 C 
ATOM      9  C   UNL d   1      -0.689  -4.096  -2.794  0.00  0.00     0.018 C 
ENDBRANCH   1   8
TORSDOF 1
ENDMDL
