MODEL 1
REMARK minimizedAffinity -3.77176833
REMARK minimizedRMSD -1
REMARK  1 active torsions:
REMARK  status: ('A' for Active; 'I' for Inactive)
REMARK    1  A    between atoms: C1_2  and  C2_3 
ROOT
ATOM      1  C2  UNL d   1       0.305  -0.329   0.583  0.00  0.00    -0.076 A 
ATOM      2  C3  UNL d   1       0.564   1.049   0.484  0.00  0.00     0.004 A 
ATOM      3  C4  UNL d   1       1.431   1.548  -0.487  0.00  0.00    -0.003 A 
ATOM      4  C5  UNL d   1       2.052   0.677  -1.375  0.00  0.00     0.000 A 
ATOM      5  C6  UNL d   1       1.793  -0.691  -1.303  0.00  0.00     0.000 A 
ATOM      6  C7  UNL d   1       0.909  -1.209  -0.340  0.00  0.00    -0.073 A 
ATOM      7  C8  UNL d   1       0.670  -2.693  -0.303  0.00  0.00     0.078 C 
ENDROOT
BRANCH   1   8
ATOM      8  C1  UNL d   1      -0.623  -0.814   1.674  0.00  0.00     0.053 C 
ATOM      9  C   UNL d   1      -1.878   0.037   1.793  0.00  0.00     0.018 C 
ENDBRANCH   1   8
TORSDOF 1
ENDMDL
