MODEL 1
REMARK minimizedAffinity -1.49308467
REMARK minimizedRMSD -1
REMARK  1 active torsions:
REMARK  status: ('A' for Active; 'I' for Inactive)
REMARK    1  A    between atoms: C1_2  and  C2_3 
ROOT
ATOM      1  C2  UNL d   1       0.415  -1.083  -1.072  0.00  0.00    -0.076 A 
ATOM      2  C3  UNL d   1       0.945   0.211  -1.214  0.00  0.00     0.004 A 
ATOM      3  C4  UNL d   1       0.874   1.134  -0.172  0.00  0.00    -0.003 A 
ATOM      4  C5  UNL d   1       0.271   0.777   1.030  0.00  0.00     0.000 A 
ATOM      5  C6  UNL d   1      -0.244  -0.508   1.194  0.00  0.00     0.000 A 
ATOM      6  C7  UNL d   1      -0.166  -1.456   0.159  0.00  0.00    -0.073 A 
ATOM      7  C8  UNL d   1      -0.743  -2.825   0.389  0.00  0.00     0.078 C 
ENDROOT
BRANCH   1   8
ATOM      8  C1  UNL d   1       0.498  -2.032  -2.246  0.00  0.00     0.053 C 
ATOM      9  C   UNL d   1       0.212  -1.345  -3.572  0.00  0.00     0.018 C 
ENDBRANCH   1   8
TORSDOF 1
ENDMDL
