MODEL 1
REMARK minimizedAffinity -4.85551739
REMARK minimizedRMSD -1
REMARK  1 active torsions:
REMARK  status: ('A' for Active; 'I' for Inactive)
REMARK    1  A    between atoms: C1_2  and  C2_3 
ROOT
ATOM      1  C2  UNL d   1      -1.343   0.448   1.294  0.00  0.00    -0.076 A 
ATOM      2  C3  UNL d   1      -2.574  -0.229   1.359  0.00  0.00     0.004 A 
ATOM      3  C4  UNL d   1      -2.790  -1.398   0.632  0.00  0.00    -0.003 A 
ATOM      4  C5  UNL d   1      -1.778  -1.910  -0.173  0.00  0.00     0.000 A 
ATOM      5  C6  UNL d   1      -0.544  -1.262  -0.236  0.00  0.00     0.000 A 
ATOM      6  C7  UNL d   1      -0.305  -0.092   0.504  0.00  0.00    -0.073 A 
ATOM      7  C8  UNL d   1       1.042   0.569   0.394  0.00  0.00     0.078 C 
ENDROOT
BRANCH   1   8
ATOM      8  C1  UNL d   1      -1.176   1.726   2.084  0.00  0.00     0.053 C 
ATOM      9  C   UNL d   1      -2.323   2.701   1.863  0.00  0.00     0.018 C 
ENDBRANCH   1   8
TORSDOF 1
ENDMDL
