MODEL 1
REMARK minimizedAffinity -1.7384311
REMARK minimizedRMSD -1
REMARK  1 active torsions:
REMARK  status: ('A' for Active; 'I' for Inactive)
REMARK    1  A    between atoms: C1_2  and  C2_3 
ROOT
ATOM      1  C2  UNL d   1       1.174  -1.368  -1.515  0.00  0.00    -0.076 A 
ATOM      2  C3  UNL d   1       1.520  -0.111  -2.039  0.00  0.00     0.004 A 
ATOM      3  C4  UNL d   1       2.240  -0.002  -3.227  0.00  0.00    -0.003 A 
ATOM      4  C5  UNL d   1       2.625  -1.150  -3.912  0.00  0.00     0.000 A 
ATOM      5  C6  UNL d   1       2.275  -2.405  -3.416  0.00  0.00     0.000 A 
ATOM      6  C7  UNL d   1       1.536  -2.532  -2.227  0.00  0.00    -0.073 A 
ATOM      7  C8  UNL d   1       1.191  -3.911  -1.735  0.00  0.00     0.078 C 
ENDROOT
BRANCH   1   8
ATOM      8  C1  UNL d   1       0.417  -1.425  -0.207  0.00  0.00     0.053 C 
ATOM      9  C   UNL d   1       0.772  -0.275   0.722  0.00  0.00     0.018 C 
ENDBRANCH   1   8
TORSDOF 1
ENDMDL
