MODEL 1
REMARK minimizedAffinity -2.48656797
REMARK minimizedRMSD -1
REMARK  1 active torsions:
REMARK  status: ('A' for Active; 'I' for Inactive)
REMARK    1  A    between atoms: C1_2  and  C2_3 
ROOT
ATOM      1  C2  UNL d   1       0.595  -0.586   1.899  0.00  0.00    -0.077 A 
ATOM      2  C3  UNL d   1       0.613  -0.715   0.503  0.00  0.00     0.002 A 
ATOM      3  C4  UNL d   1      -0.506  -0.361  -0.254  0.00  0.00     0.002 A 
ATOM      4  C5  UNL d   1      -1.648   0.128   0.376  0.00  0.00    -0.004 A 
ATOM      5  C6  UNL d   1      -1.677   0.258   1.764  0.00  0.00     0.002 A 
ATOM      6  C7  UNL d   1      -0.561  -0.097   2.522  0.00  0.00     0.002 A 
ENDROOT
BRANCH   1   7
ATOM      7  C1  UNL d   1       1.817  -0.921   2.713  0.00  0.00     0.055 C 
ATOM      8  C   UNL d   1       1.490  -1.001   4.197  0.00  0.00     0.019 C 
ENDBRANCH   1   7
TORSDOF 1
ENDMDL
