MODEL 1
REMARK minimizedAffinity -4.22666979
REMARK minimizedRMSD -1
REMARK  1 active torsions:
REMARK  status: ('A' for Active; 'I' for Inactive)
REMARK    1  A    between atoms: C1_2  and  C2_3 
ROOT
ATOM      1  C2  UNL d   1      -0.405   0.576  -0.954  0.00  0.00    -0.077 A 
ATOM      2  C3  UNL d   1      -0.126   1.042  -2.247  0.00  0.00     0.002 A 
ATOM      3  C4  UNL d   1       0.751   0.341  -3.076  0.00  0.00     0.002 A 
ATOM      4  C5  UNL d   1       1.352  -0.832  -2.625  0.00  0.00    -0.004 A 
ATOM      5  C6  UNL d   1       1.082  -1.303  -1.340  0.00  0.00     0.002 A 
ATOM      6  C7  UNL d   1       0.207  -0.603  -0.509  0.00  0.00     0.002 A 
ENDROOT
BRANCH   1   7
ATOM      7  C1  UNL d   1      -1.389   1.304  -0.076  0.00  0.00     0.055 C 
ATOM      8  C   UNL d   1      -1.418   0.717   1.328  0.00  0.00     0.019 C 
ENDBRANCH   1   7
TORSDOF 1
ENDMDL
