MODEL 1
REMARK minimizedAffinity -4.28813457
REMARK minimizedRMSD -1
REMARK  1 active torsions:
REMARK  status: ('A' for Active; 'I' for Inactive)
REMARK    1  A    between atoms: C1_2  and  C2_3 
ROOT
ATOM      1  C2  UNL d   1      -0.019  -0.616   0.373  0.00  0.00    -0.077 A 
ATOM      2  C3  UNL d   1       1.098  -0.892   1.174  0.00  0.00     0.002 A 
ATOM      3  C4  UNL d   1       1.069  -0.623   2.543  0.00  0.00     0.002 A 
ATOM      4  C5  UNL d   1      -0.075  -0.082   3.125  0.00  0.00    -0.004 A 
ATOM      5  C6  UNL d   1      -1.190   0.199   2.337  0.00  0.00     0.002 A 
ATOM      6  C7  UNL d   1      -1.163  -0.068   0.967  0.00  0.00     0.002 A 
ENDROOT
BRANCH   1   7
ATOM      7  C1  UNL d   1      -0.007  -0.951  -1.096  0.00  0.00     0.055 C 
ATOM      8  C   UNL d   1       0.328   0.271  -1.939  0.00  0.00     0.019 C 
ENDBRANCH   1   7
TORSDOF 1
ENDMDL
