MODEL 1
REMARK minimizedAffinity -3.87986875
REMARK minimizedRMSD -1
REMARK  0 active torsions:
REMARK  status: ('A' for Active; 'I' for Inactive)
ROOT
ATOM      1  C   UNL d   1      -1.499  -5.988  -5.249  0.00  0.00     0.077 C 
ATOM      2  C1  UNL d   1      -2.816  -5.271  -5.217  0.00  0.00    -0.074 A 
ATOM      3  C2  UNL d   1      -4.021  -5.981  -5.217  0.00  0.00    -0.005 A 
ATOM      4  C3  UNL d   1      -5.238  -5.301  -5.177  0.00  0.00     0.006 A 
ATOM      5  C4  UNL d   1      -5.262  -3.906  -5.137  0.00  0.00    -0.005 A 
ATOM      6  C5  UNL d   1      -4.067  -3.179  -5.136  0.00  0.00    -0.074 A 
ATOM      7  C6  UNL d   1      -4.075  -1.680  -5.083  0.00  0.00     0.077 C 
ATOM      8  C7  UNL d   1      -2.848  -3.870  -5.169  0.00  0.00    -0.001 A 
ENDROOT
TORSDOF 0
ENDMDL
