MODEL 1
REMARK minimizedAffinity -3.86251998
REMARK minimizedRMSD -1
REMARK  0 active torsions:
REMARK  status: ('A' for Active; 'I' for Inactive)
ROOT
ATOM      1  C   UNL d   1      -5.997  -5.659  -4.359  0.00  0.00     0.077 C 
ATOM      2  C1  UNL d   1      -4.751  -5.020  -4.897  0.00  0.00    -0.074 A 
ATOM      3  C2  UNL d   1      -4.748  -3.680  -5.300  0.00  0.00    -0.005 A 
ATOM      4  C3  UNL d   1      -3.579  -3.096  -5.790  0.00  0.00     0.006 A 
ATOM      5  C4  UNL d   1      -2.405  -3.844  -5.881  0.00  0.00    -0.005 A 
ATOM      6  C5  UNL d   1      -2.389  -5.184  -5.482  0.00  0.00    -0.074 A 
ATOM      7  C6  UNL d   1      -1.133  -6.000  -5.564  0.00  0.00     0.077 C 
ATOM      8  C7  UNL d   1      -3.565  -5.762  -4.984  0.00  0.00    -0.001 A 
ENDROOT
TORSDOF 0
ENDMDL
