MODEL 1
REMARK minimizedAffinity -3.86130404
REMARK minimizedRMSD -1
REMARK  0 active torsions:
REMARK  status: ('A' for Active; 'I' for Inactive)
ROOT
ATOM      1  C   UNL d   1      -5.548  -2.902  -3.733  0.00  0.00     0.077 C 
ATOM      2  C1  UNL d   1      -4.865  -3.987  -4.511  0.00  0.00    -0.074 A 
ATOM      3  C2  UNL d   1      -5.603  -4.898  -5.273  0.00  0.00    -0.005 A 
ATOM      4  C3  UNL d   1      -4.954  -5.896  -5.999  0.00  0.00     0.006 A 
ATOM      5  C4  UNL d   1      -3.562  -5.994  -5.971  0.00  0.00    -0.005 A 
ATOM      6  C5  UNL d   1      -2.808  -5.091  -5.215  0.00  0.00    -0.074 A 
ATOM      7  C6  UNL d   1      -1.310  -5.176  -5.181  0.00  0.00     0.077 C 
ATOM      8  C7  UNL d   1      -3.467  -4.086  -4.493  0.00  0.00    -0.001 A 
ENDROOT
TORSDOF 0
ENDMDL
