MODEL 1
REMARK minimizedAffinity -1.54879415
REMARK minimizedRMSD -1
REMARK  0 active torsions:
REMARK  status: ('A' for Active; 'I' for Inactive)
ROOT
ATOM      1  C   UNL d   1      -5.976  -2.130  -4.114  0.00  0.00     0.077 C 
ATOM      2  C1  UNL d   1      -5.460  -3.478  -4.523  0.00  0.00    -0.074 A 
ATOM      3  C2  UNL d   1      -6.000  -4.150  -5.625  0.00  0.00    -0.005 A 
ATOM      4  C3  UNL d   1      -5.503  -5.398  -5.999  0.00  0.00     0.006 A 
ATOM      5  C4  UNL d   1      -4.463  -5.986  -5.278  0.00  0.00    -0.005 A 
ATOM      6  C5  UNL d   1      -3.911  -5.329  -4.174  0.00  0.00    -0.074 A 
ATOM      7  C6  UNL d   1      -2.786  -5.942  -3.394  0.00  0.00     0.077 C 
ATOM      8  C7  UNL d   1      -4.410  -4.072  -3.808  0.00  0.00    -0.001 A 
ENDROOT
TORSDOF 0
ENDMDL
