MODEL 1
REMARK minimizedAffinity -3.17178798
REMARK minimizedRMSD -1
REMARK  0 active torsions:
REMARK  status: ('A' for Active; 'I' for Inactive)
ROOT
ATOM      1  C   UNL d   1      -1.525  -5.283  -5.625  0.00  0.00     0.077 C 
ATOM      2  C1  UNL d   1      -2.944  -5.143  -5.158  0.00  0.00    -0.074 A 
ATOM      3  C2  UNL d   1      -3.438  -5.930  -4.113  0.00  0.00    -0.005 A 
ATOM      4  C3  UNL d   1      -4.756  -5.782  -3.683  0.00  0.00     0.006 A 
ATOM      5  C4  UNL d   1      -5.593  -4.847  -4.294  0.00  0.00    -0.005 A 
ATOM      6  C5  UNL d   1      -5.117  -4.050  -5.340  0.00  0.00    -0.074 A 
ATOM      7  C6  UNL d   1      -6.000  -3.034  -6.000  0.00  0.00     0.077 C 
ATOM      8  C7  UNL d   1      -3.788  -4.200  -5.761  0.00  0.00    -0.001 A 
ENDROOT
TORSDOF 0
ENDMDL
