MODEL 1
REMARK minimizedAffinity -3.91609597
REMARK minimizedRMSD -1
REMARK  0 active torsions:
REMARK  status: ('A' for Active; 'I' for Inactive)
ROOT
ATOM      1  C   UNL d   1      -1.202  -5.902  -6.000  0.00  0.00     0.077 C 
ATOM      2  C1  UNL d   1      -2.376  -5.107  -5.510  0.00  0.00    -0.074 A 
ATOM      3  C2  UNL d   1      -2.279  -3.724  -5.322  0.00  0.00    -0.005 A 
ATOM      4  C3  UNL d   1      -3.382  -2.996  -4.875  0.00  0.00     0.006 A 
ATOM      5  C4  UNL d   1      -4.590  -3.642  -4.611  0.00  0.00    -0.005 A 
ATOM      6  C5  UNL d   1      -4.706  -5.024  -4.794  0.00  0.00    -0.074 A 
ATOM      7  C6  UNL d   1      -6.000  -5.733  -4.524  0.00  0.00     0.077 C 
ATOM      8  C7  UNL d   1      -3.595  -5.748  -5.250  0.00  0.00    -0.001 A 
ENDROOT
TORSDOF 0
ENDMDL
