MODEL 1
REMARK minimizedAffinity -3.9795723
REMARK minimizedRMSD -1
REMARK  0 active torsions:
REMARK  status: ('A' for Active; 'I' for Inactive)
ROOT
ATOM      1  C   UNL d   1      -1.741  -4.878  -5.260  0.00  0.00     0.077 C 
ATOM      2  C1  UNL d   1      -3.226  -4.876  -5.055  0.00  0.00    -0.074 A 
ATOM      3  C2  UNL d   1      -3.997  -6.000  -5.368  0.00  0.00    -0.005 A 
ATOM      4  C3  UNL d   1      -5.376  -5.987  -5.163  0.00  0.00     0.006 A 
ATOM      5  C4  UNL d   1      -5.998  -4.851  -4.643  0.00  0.00    -0.005 A 
ATOM      6  C5  UNL d   1      -5.244  -3.718  -4.322  0.00  0.00    -0.074 A 
ATOM      7  C6  UNL d   1      -5.895  -2.492  -3.753  0.00  0.00     0.077 C 
ATOM      8  C7  UNL d   1      -3.857  -3.741  -4.525  0.00  0.00    -0.001 A 
ENDROOT
TORSDOF 0
ENDMDL
