MODEL 1
REMARK minimizedAffinity -3.26202965
REMARK minimizedRMSD -1
REMARK  0 active torsions:
REMARK  status: ('A' for Active; 'I' for Inactive)
ROOT
ATOM      1  C   UNL d   1      -4.817  -1.693  -5.622  0.00  0.00     0.077 C 
ATOM      2  C1  UNL d   1      -4.826  -3.192  -5.570  0.00  0.00    -0.074 A 
ATOM      3  C2  UNL d   1      -5.943  -3.919  -5.994  0.00  0.00    -0.005 A 
ATOM      4  C3  UNL d   1      -5.934  -5.313  -5.949  0.00  0.00     0.006 A 
ATOM      5  C4  UNL d   1      -4.809  -5.993  -5.480  0.00  0.00    -0.005 A 
ATOM      6  C5  UNL d   1      -3.683  -5.283  -5.053  0.00  0.00    -0.074 A 
ATOM      7  C6  UNL d   1      -2.462  -5.999  -4.556  0.00  0.00     0.077 C 
ATOM      8  C7  UNL d   1      -3.697  -3.883  -5.108  0.00  0.00    -0.001 A 
ENDROOT
TORSDOF 0
ENDMDL
