MODEL 1
REMARK minimizedAffinity -3.41823888
REMARK minimizedRMSD -1
REMARK  0 active torsions:
REMARK  status: ('A' for Active; 'I' for Inactive)
ROOT
ATOM      1  C   UNL d   1      -2.679  -2.624  -3.355  0.00  0.00     0.077 C 
ATOM      2  C1  UNL d   1      -3.825  -2.929  -4.274  0.00  0.00    -0.074 A 
ATOM      3  C2  UNL d   1      -4.525  -1.901  -4.914  0.00  0.00    -0.005 A 
ATOM      4  C3  UNL d   1      -5.583  -2.200  -5.773  0.00  0.00     0.006 A 
ATOM      5  C4  UNL d   1      -5.951  -3.527  -6.000  0.00  0.00    -0.005 A 
ATOM      6  C5  UNL d   1      -5.262  -4.567  -5.369  0.00  0.00    -0.074 A 
ATOM      7  C6  UNL d   1      -5.638  -5.999  -5.609  0.00  0.00     0.077 C 
ATOM      8  C7  UNL d   1      -4.196  -4.259  -4.513  0.00  0.00    -0.001 A 
ENDROOT
TORSDOF 0
ENDMDL
