MODEL 1
REMARK minimizedAffinity -3.4754796
REMARK minimizedRMSD -1
REMARK  0 active torsions:
REMARK  status: ('A' for Active; 'I' for Inactive)
ROOT
ATOM      1  C   UNL d   1      -5.641  -1.749  -4.874  0.00  0.00     0.077 C 
ATOM      2  C1  UNL d   1      -5.128  -3.112  -5.232  0.00  0.00    -0.074 A 
ATOM      3  C2  UNL d   1      -6.000  -4.118  -5.660  0.00  0.00    -0.005 A 
ATOM      4  C3  UNL d   1      -5.507  -5.378  -5.999  0.00  0.00     0.006 A 
ATOM      5  C4  UNL d   1      -4.140  -5.644  -5.914  0.00  0.00    -0.005 A 
ATOM      6  C5  UNL d   1      -3.253  -4.650  -5.489  0.00  0.00    -0.074 A 
ATOM      7  C6  UNL d   1      -1.779  -4.916  -5.401  0.00  0.00     0.077 C 
ATOM      8  C7  UNL d   1      -3.755  -3.384  -5.157  0.00  0.00    -0.001 A 
ENDROOT
TORSDOF 0
ENDMDL
