MODEL 1
REMARK minimizedAffinity -3.95699406
REMARK minimizedRMSD -1
REMARK  0 active torsions:
REMARK  status: ('A' for Active; 'I' for Inactive)
ROOT
ATOM      1  C   UNL d   1      -5.626  -1.874  -4.503  0.00  0.00     0.077 C 
ATOM      2  C1  UNL d   1      -5.065  -3.177  -4.990  0.00  0.00    -0.074 A 
ATOM      3  C2  UNL d   1      -5.896  -4.156  -5.543  0.00  0.00    -0.005 A 
ATOM      4  C3  UNL d   1      -5.359  -5.359  -6.000  0.00  0.00     0.006 A 
ATOM      5  C4  UNL d   1      -3.987  -5.595  -5.909  0.00  0.00    -0.005 A 
ATOM      6  C5  UNL d   1      -3.139  -4.627  -5.360  0.00  0.00    -0.074 A 
ATOM      7  C6  UNL d   1      -1.661  -4.861  -5.263  0.00  0.00     0.077 C 
ATOM      8  C7  UNL d   1      -3.686  -3.418  -4.909  0.00  0.00    -0.001 A 
ENDROOT
TORSDOF 0
ENDMDL
