MODEL 1
REMARK minimizedAffinity -2.53583598
REMARK minimizedRMSD -1
REMARK  0 active torsions:
REMARK  status: ('A' for Active; 'I' for Inactive)
ROOT
ATOM      1  C   UNL d   1      -2.314  -4.865  -5.957  0.00  0.00     0.077 C 
ATOM      2  C1  UNL d   1      -3.603  -4.459  -5.305  0.00  0.00    -0.074 A 
ATOM      3  C2  UNL d   1      -4.224  -5.287  -4.364  0.00  0.00    -0.005 A 
ATOM      4  C3  UNL d   1      -5.417  -4.892  -3.759  0.00  0.00     0.006 A 
ATOM      5  C4  UNL d   1      -6.000  -3.667  -4.087  0.00  0.00    -0.005 A 
ATOM      6  C5  UNL d   1      -5.392  -2.825  -5.025  0.00  0.00    -0.074 A 
ATOM      7  C6  UNL d   1      -6.000  -1.501  -5.382  0.00  0.00     0.077 C 
ATOM      8  C7  UNL d   1      -4.190  -3.226  -5.623  0.00  0.00    -0.001 A 
ENDROOT
TORSDOF 0
ENDMDL
