MODEL 1
REMARK minimizedAffinity -3.22213745
REMARK minimizedRMSD -1
REMARK  0 active torsions:
REMARK  status: ('A' for Active; 'I' for Inactive)
ROOT
ATOM      1  C   UNL d   1      -1.289  -4.528  -6.000  0.00  0.00     0.077 C 
ATOM      2  C1  UNL d   1      -2.732  -4.647  -5.608  0.00  0.00    -0.074 A 
ATOM      3  C2  UNL d   1      -3.190  -5.746  -4.874  0.00  0.00    -0.005 A 
ATOM      4  C3  UNL d   1      -4.533  -5.838  -4.509  0.00  0.00     0.006 A 
ATOM      5  C4  UNL d   1      -5.430  -4.834  -4.873  0.00  0.00    -0.005 A 
ATOM      6  C5  UNL d   1      -4.991  -3.727  -5.607  0.00  0.00    -0.074 A 
ATOM      7  C6  UNL d   1      -5.941  -2.635  -5.998  0.00  0.00     0.077 C 
ATOM      8  C7  UNL d   1      -3.639  -3.639  -5.964  0.00  0.00    -0.001 A 
ENDROOT
TORSDOF 0
ENDMDL
