MODEL 1
REMARK minimizedAffinity 7.65745544
REMARK minimizedRMSD -1
REMARK  0 active torsions:
REMARK  status: ('A' for Active; 'I' for Inactive)
ROOT
ATOM      1  C   UNL d   1      -1.418  -5.887  -6.000  0.00  0.00     0.077 C 
ATOM      2  C1  UNL d   1      -2.272  -4.899  -5.262  0.00  0.00    -0.074 A 
ATOM      3  C2  UNL d   1      -2.561  -5.071  -3.905  0.00  0.00    -0.005 A 
ATOM      4  C3  UNL d   1      -3.349  -4.139  -3.230  0.00  0.00     0.006 A 
ATOM      5  C4  UNL d   1      -3.856  -3.028  -3.905  0.00  0.00    -0.005 A 
ATOM      6  C5  UNL d   1      -3.577  -2.839  -5.262  0.00  0.00    -0.074 A 
ATOM      7  C6  UNL d   1      -4.106  -1.645  -6.000  0.00  0.00     0.077 C 
ATOM      8  C7  UNL d   1      -2.779  -3.776  -5.931  0.00  0.00    -0.001 A 
ENDROOT
TORSDOF 0
ENDMDL
