MODEL 1
REMARK minimizedAffinity -3.12303042
REMARK minimizedRMSD -1
REMARK  0 active torsions:
REMARK  status: ('A' for Active; 'I' for Inactive)
ROOT
ATOM      1  C   UNL d   1      -1.203  -3.913  -5.991  0.00  0.00     0.077 C 
ATOM      2  C1  UNL d   1      -2.645  -4.309  -5.875  0.00  0.00    -0.074 A 
ATOM      3  C2  UNL d   1      -3.035  -5.646  -5.997  0.00  0.00    -0.005 A 
ATOM      4  C3  UNL d   1      -4.379  -6.000  -5.876  0.00  0.00     0.006 A 
ATOM      5  C4  UNL d   1      -5.344  -5.022  -5.634  0.00  0.00    -0.005 A 
ATOM      6  C5  UNL d   1      -4.972  -3.680  -5.508  0.00  0.00    -0.074 A 
ATOM      7  C6  UNL d   1      -5.996  -2.617  -5.237  0.00  0.00     0.077 C 
ATOM      8  C7  UNL d   1      -3.619  -3.333  -5.623  0.00  0.00    -0.001 A 
ENDROOT
TORSDOF 0
ENDMDL
