MODEL 1
REMARK minimizedAffinity 2.78898525
REMARK minimizedRMSD -1
REMARK  0 active torsions:
REMARK  status: ('A' for Active; 'I' for Inactive)
ROOT
ATOM      1  C   UNL d   1      -0.135  -0.039   0.614  0.00  0.00     0.077 C 
ATOM      2  C1  UNL d   1      -0.678  -0.631   1.880  0.00  0.00    -0.074 A 
ATOM      3  C2  UNL d   1      -0.022  -1.690   2.517  0.00  0.00    -0.005 A 
ATOM      4  C3  UNL d   1      -0.534  -2.224   3.699  0.00  0.00     0.006 A 
ATOM      5  C4  UNL d   1      -1.705  -1.708   4.255  0.00  0.00    -0.005 A 
ATOM      6  C5  UNL d   1      -2.374  -0.649   3.633  0.00  0.00    -0.074 A 
ATOM      7  C6  UNL d   1      -3.628  -0.075   4.222  0.00  0.00     0.077 C 
ATOM      8  C7  UNL d   1      -1.850  -0.112   2.449  0.00  0.00    -0.001 A 
ENDROOT
TORSDOF 0
ENDMDL
