MODEL 1
REMARK minimizedAffinity -3.24325609
REMARK minimizedRMSD -1
REMARK  0 active torsions:
REMARK  status: ('A' for Active; 'I' for Inactive)
ROOT
ATOM      1  C   UNL d   1      -5.966  -2.198  -5.663  0.00  0.00     0.077 C 
ATOM      2  C1  UNL d   1      -5.272  -3.528  -5.661  0.00  0.00    -0.074 A 
ATOM      3  C2  UNL d   1      -5.996  -4.716  -5.519  0.00  0.00    -0.005 A 
ATOM      4  C3  UNL d   1      -5.337  -5.946  -5.528  0.00  0.00     0.006 A 
ATOM      5  C4  UNL d   1      -3.951  -6.000  -5.680  0.00  0.00    -0.005 A 
ATOM      6  C5  UNL d   1      -3.211  -4.822  -5.824  0.00  0.00    -0.074 A 
ATOM      7  C6  UNL d   1      -1.722  -4.862  -5.997  0.00  0.00     0.077 C 
ATOM      8  C7  UNL d   1      -3.881  -3.591  -5.820  0.00  0.00    -0.001 A 
ENDROOT
TORSDOF 0
ENDMDL
