MODEL 1
REMARK minimizedAffinity -3.37412405
REMARK minimizedRMSD -1
REMARK  0 active torsions:
REMARK  status: ('A' for Active; 'I' for Inactive)
ROOT
ATOM      1  C   UNL d   1      -5.815  -5.871  -5.878  0.00  0.00     0.077 C 
ATOM      2  C1  UNL d   1      -4.537  -5.135  -5.609  0.00  0.00    -0.074 A 
ATOM      3  C2  UNL d   1      -4.549  -3.857  -5.041  0.00  0.00    -0.005 A 
ATOM      4  C3  UNL d   1      -3.351  -3.189  -4.788  0.00  0.00     0.006 A 
ATOM      5  C4  UNL d   1      -2.131  -3.791  -5.099  0.00  0.00    -0.005 A 
ATOM      6  C5  UNL d   1      -2.099  -5.069  -5.666  0.00  0.00    -0.074 A 
ATOM      7  C6  UNL d   1      -0.796  -5.734  -5.997  0.00  0.00     0.077 C 
ATOM      8  C7  UNL d   1      -3.307  -5.737  -5.911  0.00  0.00    -0.001 A 
ENDROOT
TORSDOF 0
ENDMDL
