MODEL 1
REMARK minimizedAffinity -3.41865778
REMARK minimizedRMSD -1
REMARK  0 active torsions:
REMARK  status: ('A' for Active; 'I' for Inactive)
ROOT
ATOM      1  C   UNL d   1      -1.719  -4.512  -4.890  0.00  0.00     0.077 C 
ATOM      2  C1  UNL d   1      -3.210  -4.382  -4.990  0.00  0.00    -0.074 A 
ATOM      3  C2  UNL d   1      -3.935  -5.127  -5.925  0.00  0.00    -0.005 A 
ATOM      4  C3  UNL d   1      -5.323  -5.002  -6.000  0.00  0.00     0.006 A 
ATOM      5  C4  UNL d   1      -5.997  -4.134  -5.140  0.00  0.00    -0.005 A 
ATOM      6  C5  UNL d   1      -5.289  -3.383  -4.198  0.00  0.00    -0.074 A 
ATOM      7  C6  UNL d   1      -6.000  -2.453  -3.260  0.00  0.00     0.077 C 
ATOM      8  C7  UNL d   1      -3.896  -3.518  -4.124  0.00  0.00    -0.001 A 
ENDROOT
TORSDOF 0
ENDMDL
