MODEL 1
REMARK minimizedAffinity -5.37270021
REMARK minimizedRMSD -1
REMARK  2 active torsions:
REMARK  status: ('A' for Active; 'I' for Inactive)
REMARK    1  A    between atoms: C2'_3  and  C1'_4 
REMARK    2  A    between atoms: C1'_4  and  C1_5 
ROOT
ATOM      1  C1  I4B d   1      -0.815   0.482   0.571  0.00  0.00    -0.075 A 
ATOM      2  C2  I4B d   1       0.310  -0.110   1.090  0.00  0.00     0.003 A 
ATOM      3  C3  I4B d   1       1.115   0.586   2.024  0.00  0.00     0.002 A 
ATOM      4  C4  I4B d   1       0.789   1.881   2.371  0.00  0.00    -0.004 A 
ATOM      5  C5  I4B d   1      -0.364   2.471   1.862  0.00  0.00     0.002 A 
ATOM      6  C6  I4B d   1      -1.178   1.764   0.966  0.00  0.00     0.003 A 
ENDROOT
BRANCH   1   7
ATOM      7  C1' I4B d   1      -1.624  -0.268  -0.438  0.00  0.00     0.060 C 
BRANCH   7   8
ATOM      8  C2' I4B d   1      -0.685  -0.751  -1.525  0.00  0.00    -0.013 C 
ATOM      9  C4' I4B d   1      -1.215  -1.992  -2.193  0.00  0.00     0.013 C 
ATOM     10  C3' I4B d   1      -0.509   0.364  -2.513  0.00  0.00     0.013 C 
ENDBRANCH   7   8
ENDBRANCH   1   7
TORSDOF 2
ENDMDL
