MODEL 1
REMARK minimizedAffinity -4.35315895
REMARK minimizedRMSD -1
REMARK  2 active torsions:
REMARK  status: ('A' for Active; 'I' for Inactive)
REMARK    1  A    between atoms: C2'_3  and  C1'_4 
REMARK    2  A    between atoms: C1'_4  and  C1_5 
ROOT
ATOM      1  C1  I4B d   1       0.329  -0.330  -0.492  0.00  0.00    -0.075 A 
ATOM      2  C2  I4B d   1      -0.458   0.754  -0.794  0.00  0.00     0.003 A 
ATOM      3  C3  I4B d   1      -0.845   1.659   0.224  0.00  0.00     0.002 A 
ATOM      4  C4  I4B d   1      -0.468   1.416   1.529  0.00  0.00    -0.004 A 
ATOM      5  C5  I4B d   1       0.348   0.329   1.829  0.00  0.00     0.002 A 
ATOM      6  C6  I4B d   1       0.760  -0.543   0.811  0.00  0.00     0.003 A 
ENDROOT
BRANCH   1   7
ATOM      7  C1' I4B d   1       0.692  -1.283  -1.586  0.00  0.00     0.060 C 
BRANCH   7   8
ATOM      8  C2' I4B d   1       0.082  -2.630  -1.253  0.00  0.00    -0.013 C 
ATOM      9  C4' I4B d   1      -0.957  -3.024  -2.269  0.00  0.00     0.013 C 
ATOM     10  C3' I4B d   1       1.191  -3.638  -1.194  0.00  0.00     0.013 C 
ENDBRANCH   7   8
ENDBRANCH   1   7
TORSDOF 2
ENDMDL
