MODEL 1
REMARK minimizedAffinity -5.72830725
REMARK minimizedRMSD -1
REMARK  2 active torsions:
REMARK  status: ('A' for Active; 'I' for Inactive)
REMARK    1  A    between atoms: C2'_3  and  C1'_4 
REMARK    2  A    between atoms: C1'_4  and  C1_5 
ROOT
ATOM      1  C1  I4B d   1      -0.933   2.013   0.757  0.00  0.00    -0.075 A 
ATOM      2  C2  I4B d   1      -0.996   3.141  -0.024  0.00  0.00     0.003 A 
ATOM      3  C3  I4B d   1      -0.566   3.099  -1.373  0.00  0.00     0.002 A 
ATOM      4  C4  I4B d   1      -0.037   1.930  -1.881  0.00  0.00    -0.004 A 
ATOM      5  C5  I4B d   1       0.005   0.782  -1.095  0.00  0.00     0.002 A 
ATOM      6  C6  I4B d   1      -0.457   0.820   0.228  0.00  0.00     0.003 A 
ENDROOT
BRANCH   1   7
ATOM      7  C1' I4B d   1      -1.364   2.102   2.186  0.00  0.00     0.060 C 
BRANCH   7   8
ATOM      8  C2' I4B d   1      -0.192   1.688   3.054  0.00  0.00    -0.013 C 
ATOM      9  C4' I4B d   1       0.019   0.198   3.010  0.00  0.00     0.013 C 
ATOM     10  C3' I4B d   1       1.023   2.422   2.571  0.00  0.00     0.013 C 
ENDBRANCH   7   8
ENDBRANCH   1   7
TORSDOF 2
ENDMDL
