MODEL 1
REMARK minimizedAffinity -3.77602577
REMARK minimizedRMSD -1
REMARK  2 active torsions:
REMARK  status: ('A' for Active; 'I' for Inactive)
REMARK    1  A    between atoms: C2'_3  and  C1'_4 
REMARK    2  A    between atoms: C1'_4  and  C1_5 
ROOT
ATOM      1  C1  I4B d   1       0.094  -0.528   0.170  0.00  0.00    -0.075 A 
ATOM      2  C2  I4B d   1       0.981  -0.187   1.161  0.00  0.00     0.003 A 
ATOM      3  C3  I4B d   1       0.739   0.946   1.975  0.00  0.00     0.002 A 
ATOM      4  C4  I4B d   1      -0.368   1.733   1.733  0.00  0.00    -0.004 A 
ATOM      5  C5  I4B d   1      -1.278   1.373   0.744  0.00  0.00     0.002 A 
ATOM      6  C6  I4B d   1      -1.053   0.229  -0.035  0.00  0.00     0.003 A 
ENDROOT
BRANCH   1   7
ATOM      7  C1' I4B d   1       0.397  -1.711  -0.693  0.00  0.00     0.060 C 
BRANCH   7   8
ATOM      8  C2' I4B d   1      -0.849  -2.569  -0.763  0.00  0.00    -0.013 C 
ATOM      9  C4' I4B d   1      -1.204  -2.900  -2.189  0.00  0.00     0.013 C 
ATOM     10  C3' I4B d   1      -0.599  -3.814   0.035  0.00  0.00     0.013 C 
ENDBRANCH   7   8
ENDBRANCH   1   7
TORSDOF 2
ENDMDL
