MODEL 1
REMARK minimizedAffinity -3.78945255
REMARK minimizedRMSD -1
REMARK  2 active torsions:
REMARK  status: ('A' for Active; 'I' for Inactive)
REMARK    1  A    between atoms: C2'_3  and  C1'_4 
REMARK    2  A    between atoms: C1'_4  and  C1_5 
ROOT
ATOM      1  C1  I4B d   1      -0.320   0.984   0.770  0.00  0.00    -0.075 A 
ATOM      2  C2  I4B d   1      -0.703   1.480   1.992  0.00  0.00     0.003 A 
ATOM      3  C3  I4B d   1      -1.224   2.792   2.096  0.00  0.00     0.002 A 
ATOM      4  C4  I4B d   1      -1.298   3.586   0.970  0.00  0.00    -0.004 A 
ATOM      5  C5  I4B d   1      -0.930   3.074  -0.271  0.00  0.00     0.002 A 
ATOM      6  C6  I4B d   1      -0.450   1.760  -0.374  0.00  0.00     0.003 A 
ENDROOT
BRANCH   1   7
ATOM      7  C1' I4B d   1       0.257  -0.394   0.701  0.00  0.00     0.060 C 
BRANCH   7   8
ATOM      8  C2' I4B d   1       0.066  -0.910  -0.711  0.00  0.00    -0.013 C 
ATOM      9  C4' I4B d   1       1.124  -0.370  -1.636  0.00  0.00     0.013 C 
ATOM     10  C3' I4B d   1       0.099  -2.408  -0.666  0.00  0.00     0.013 C 
ENDBRANCH   7   8
ENDBRANCH   1   7
TORSDOF 2
ENDMDL
