MODEL 1
REMARK minimizedAffinity -2.7051096
REMARK minimizedRMSD -1
REMARK  2 active torsions:
REMARK  status: ('A' for Active; 'I' for Inactive)
REMARK    1  A    between atoms: C2'_3  and  C1'_4 
REMARK    2  A    between atoms: C1'_4  and  C1_5 
ROOT
ATOM      1  C1  I4B d   1       0.424   0.579  -0.113  0.00  0.00    -0.075 A 
ATOM      2  C2  I4B d   1       0.720  -0.233  -1.179  0.00  0.00     0.003 A 
ATOM      3  C3  I4B d   1       0.675   0.279  -2.499  0.00  0.00     0.002 A 
ATOM      4  C4  I4B d   1       0.282   1.585  -2.708  0.00  0.00    -0.004 A 
ATOM      5  C5  I4B d   1       0.004   2.413  -1.624  0.00  0.00     0.002 A 
ATOM      6  C6  I4B d   1       0.087   1.910  -0.317  0.00  0.00     0.003 A 
ENDROOT
BRANCH   1   7
ATOM      7  C1' I4B d   1       0.450  -0.003   1.265  0.00  0.00     0.060 C 
BRANCH   7   8
ATOM      8  C2' I4B d   1       1.459   0.776   2.082  0.00  0.00    -0.013 C 
ATOM      9  C4' I4B d   1       0.861   2.051   2.615  0.00  0.00     0.013 C 
ATOM     10  C3' I4B d   1       1.934  -0.107   3.197  0.00  0.00     0.013 C 
ENDBRANCH   7   8
ENDBRANCH   1   7
TORSDOF 2
ENDMDL
