MODEL 1
REMARK minimizedAffinity 6.55560255
REMARK minimizedRMSD -1
REMARK  2 active torsions:
REMARK  status: ('A' for Active; 'I' for Inactive)
REMARK    1  A    between atoms: C2'_3  and  C1'_4 
REMARK    2  A    between atoms: C1'_4  and  C1_5 
ROOT
ATOM      1  C1  I4B d   1       1.066  -0.817   0.941  0.00  0.00    -0.075 A 
ATOM      2  C2  I4B d   1       0.698   0.506   0.922  0.00  0.00     0.003 A 
ATOM      3  C3  I4B d   1       0.600   1.235   2.132  0.00  0.00     0.002 A 
ATOM      4  C4  I4B d   1       0.828   0.594   3.332  0.00  0.00    -0.004 A 
ATOM      5  C5  I4B d   1       1.223  -0.740   3.348  0.00  0.00     0.002 A 
ATOM      6  C6  I4B d   1       1.356  -1.447   2.144  0.00  0.00     0.003 A 
ENDROOT
BRANCH   1   7
ATOM      7  C1' I4B d   1       1.128  -1.566  -0.353  0.00  0.00     0.060 C 
BRANCH   7   8
ATOM      8  C2' I4B d   1       0.779  -3.013  -0.071  0.00  0.00    -0.013 C 
ATOM      9  C4' I4B d   1      -0.480  -3.420  -0.790  0.00  0.00     0.013 C 
ATOM     10  C3' I4B d   1       1.942  -3.860  -0.493  0.00  0.00     0.013 C 
ENDBRANCH   7   8
ENDBRANCH   1   7
TORSDOF 2
ENDMDL
