MODEL 1
REMARK minimizedAffinity -3.76039791
REMARK minimizedRMSD -1
REMARK  2 active torsions:
REMARK  status: ('A' for Active; 'I' for Inactive)
REMARK    1  A    between atoms: C2'_3  and  C1'_4 
REMARK    2  A    between atoms: C1'_4  and  C1_5 
ROOT
ATOM      1  C1  I4B d   1       0.765   1.089   0.664  0.00  0.00    -0.075 A 
ATOM      2  C2  I4B d   1       0.370   1.827   1.752  0.00  0.00     0.003 A 
ATOM      3  C3  I4B d   1       0.678   1.385   3.062  0.00  0.00     0.002 A 
ATOM      4  C4  I4B d   1       1.333   0.184   3.238  0.00  0.00    -0.004 A 
ATOM      5  C5  I4B d   1       1.753  -0.551   2.133  0.00  0.00     0.002 A 
ATOM      6  C6  I4B d   1       1.478  -0.090   0.837  0.00  0.00     0.003 A 
ENDROOT
BRANCH   1   7
ATOM      7  C1' I4B d   1       0.394   1.568  -0.704  0.00  0.00     0.060 C 
BRANCH   7   8
ATOM      8  C2' I4B d   1      -1.116   1.676  -0.768  0.00  0.00    -0.013 C 
ATOM      9  C4' I4B d   1      -1.575   2.086  -2.142  0.00  0.00     0.013 C 
ATOM     10  C3' I4B d   1      -1.691   0.347  -0.378  0.00  0.00     0.013 C 
ENDBRANCH   7   8
ENDBRANCH   1   7
TORSDOF 2
ENDMDL
