MODEL 1
REMARK minimizedAffinity 20.675766
REMARK minimizedRMSD -1
REMARK  3 active torsions:
REMARK  status: ('A' for Active; 'I' for Inactive)
REMARK    1  A    between atoms: C3'_2  and  C2'_3 
REMARK    2  A    between atoms: C2'_3  and  C1'_4 
REMARK    3  A    between atoms: C1'_4  and  C1_5 
ROOT
ATOM      1  C1  N4B d   1       2.961   1.429  -1.477  0.00  0.00    -0.075 A 
ATOM      2  C2  N4B d   1       4.243   1.821  -1.032  0.00  0.00     0.002 A 
ATOM      3  C3  N4B d   1       5.085   0.897  -0.464  0.00  0.00     0.002 A 
ATOM      4  C4  N4B d   1       4.662  -0.415  -0.313  0.00  0.00    -0.004 A 
ATOM      5  C5  N4B d   1       3.433  -0.792  -0.769  0.00  0.00     0.002 A 
ATOM      6  C6  N4B d   1       2.578   0.125  -1.346  0.00  0.00     0.002 A 
ENDROOT
BRANCH   1   7
ATOM      7  C1' N4B d   1       1.973   2.421  -2.027  0.00  0.00     0.057 C 
BRANCH   7   8
ATOM      8  C2' N4B d   1       2.326   3.814  -1.515  0.00  0.00     0.009 C 
BRANCH   8   9
ATOM      9  C3' N4B d   1       1.101   4.566  -1.023  0.00  0.00     0.004 C 
ATOM     10  C4' N4B d   1       1.058   4.691   0.471  0.00  0.00     0.003 C 
ENDBRANCH   8   9
ENDBRANCH   7   8
ENDBRANCH   1   7
TORSDOF 3
ENDMDL
