MODEL 1
REMARK minimizedAffinity 3.67888784
REMARK minimizedRMSD -1
REMARK  3 active torsions:
REMARK  status: ('A' for Active; 'I' for Inactive)
REMARK    1  A    between atoms: C3'_2  and  C2'_3 
REMARK    2  A    between atoms: C2'_3  and  C1'_4 
REMARK    3  A    between atoms: C1'_4  and  C1_5 
ROOT
ATOM      1  C1  N4B d   1      -4.772  -2.600   3.529  0.00  0.00    -0.075 A 
ATOM      2  C2  N4B d   1      -5.827  -3.018   2.690  0.00  0.00     0.002 A 
ATOM      3  C3  N4B d   1      -6.000  -4.353   2.417  0.00  0.00     0.002 A 
ATOM      4  C4  N4B d   1      -5.121  -5.282   2.954  0.00  0.00    -0.004 A 
ATOM      5  C5  N4B d   1      -4.120  -4.872   3.785  0.00  0.00     0.002 A 
ATOM      6  C6  N4B d   1      -3.937  -3.534   4.071  0.00  0.00     0.002 A 
ENDROOT
BRANCH   1   7
ATOM      7  C1' N4B d   1      -4.492  -1.145   3.788  0.00  0.00     0.057 C 
BRANCH   7   8
ATOM      8  C2' N4B d   1      -3.769  -0.552   2.581  0.00  0.00     0.009 C 
BRANCH   8   9
ATOM      9  C3' N4B d   1      -3.113   0.778   2.909  0.00  0.00     0.004 C 
ATOM     10  C4' N4B d   1      -1.704   0.870   2.405  0.00  0.00     0.003 C 
ENDBRANCH   8   9
ENDBRANCH   7   8
ENDBRANCH   1   7
TORSDOF 3
ENDMDL
