MODEL 1
REMARK minimizedAffinity 3.62238955
REMARK minimizedRMSD -1
REMARK  3 active torsions:
REMARK  status: ('A' for Active; 'I' for Inactive)
REMARK    1  A    between atoms: C3'_2  and  C2'_3 
REMARK    2  A    between atoms: C2'_3  and  C1'_4 
REMARK    3  A    between atoms: C1'_4  and  C1_5 
ROOT
ATOM      1  C1  N4B d   1       2.721  -3.925  -1.933  0.00  0.00    -0.075 A 
ATOM      2  C2  N4B d   1       2.720  -3.109  -3.085  0.00  0.00     0.002 A 
ATOM      3  C3  N4B d   1       2.785  -3.682  -4.332  0.00  0.00     0.002 A 
ATOM      4  C4  N4B d   1       2.871  -5.061  -4.449  0.00  0.00    -0.004 A 
ATOM      5  C5  N4B d   1       2.846  -5.844  -3.332  0.00  0.00     0.002 A 
ATOM      6  C6  N4B d   1       2.777  -5.282  -2.073  0.00  0.00     0.002 A 
ENDROOT
BRANCH   1   7
ATOM      7  C1' N4B d   1       2.738  -3.341  -0.546  0.00  0.00     0.057 C 
BRANCH   7   8
ATOM      8  C2' N4B d   1       3.626  -4.201   0.348  0.00  0.00     0.009 C 
BRANCH   8   9
ATOM      9  C3' N4B d   1       5.100  -4.021   0.027  0.00  0.00     0.004 C 
ATOM     10  C4' N4B d   1       5.732  -2.904   0.804  0.00  0.00     0.003 C 
ENDBRANCH   8   9
ENDBRANCH   7   8
ENDBRANCH   1   7
TORSDOF 3
ENDMDL
