MODEL 1
REMARK minimizedAffinity 1.16339839
REMARK minimizedRMSD -1
REMARK  3 active torsions:
REMARK  status: ('A' for Active; 'I' for Inactive)
REMARK    1  A    between atoms: C3'_2  and  C2'_3 
REMARK    2  A    between atoms: C2'_3  and  C1'_4 
REMARK    3  A    between atoms: C1'_4  and  C1_5 
ROOT
ATOM      1  C1  N4B d   1      -1.450   2.216   4.282  0.00  0.00    -0.075 A 
ATOM      2  C2  N4B d   1      -1.073   2.320   5.638  0.00  0.00     0.002 A 
ATOM      3  C3  N4B d   1       0.242   2.157   6.000  0.00  0.00     0.002 A 
ATOM      4  C4  N4B d   1       1.190   1.872   5.029  0.00  0.00    -0.004 A 
ATOM      5  C5  N4B d   1       0.822   1.798   3.717  0.00  0.00     0.002 A 
ATOM      6  C6  N4B d   1      -0.495   1.964   3.339  0.00  0.00     0.002 A 
ENDROOT
BRANCH   1   7
ATOM      7  C1' N4B d   1      -2.888   2.301   3.848  0.00  0.00     0.057 C 
BRANCH   7   8
ATOM      8  C2' N4B d   1      -3.788   1.951   5.029  0.00  0.00     0.009 C 
BRANCH   8   9
ATOM      9  C3' N4B d   1      -4.903   2.966   5.214  0.00  0.00     0.004 C 
ATOM     10  C4' N4B d   1      -4.470   4.168   6.000  0.00  0.00     0.003 C 
ENDBRANCH   8   9
ENDBRANCH   7   8
ENDBRANCH   1   7
TORSDOF 3
ENDMDL
