MODEL 1
REMARK minimizedAffinity 12.3948593
REMARK minimizedRMSD -1
REMARK  3 active torsions:
REMARK  status: ('A' for Active; 'I' for Inactive)
REMARK    1  A    between atoms: C3'_2  and  C2'_3 
REMARK    2  A    between atoms: C2'_3  and  C1'_4 
REMARK    3  A    between atoms: C1'_4  and  C1_5 
ROOT
ATOM      1  C1  N4B d   1      -0.821   1.781   4.176  0.00  0.00    -0.075 A 
ATOM      2  C2  N4B d   1      -1.899   1.914   3.273  0.00  0.00     0.002 A 
ATOM      3  C3  N4B d   1      -3.175   2.094   3.748  0.00  0.00     0.002 A 
ATOM      4  C4  N4B d   1      -3.399   2.126   5.117  0.00  0.00    -0.004 A 
ATOM      5  C5  N4B d   1      -2.349   2.022   5.982  0.00  0.00     0.002 A 
ATOM      6  C6  N4B d   1      -1.061   1.844   5.518  0.00  0.00     0.002 A 
ENDROOT
BRANCH   1   7
ATOM      7  C1' N4B d   1       0.579   1.496   3.705  0.00  0.00     0.057 C 
BRANCH   7   8
ATOM      8  C2' N4B d   1       0.518   0.767   2.366  0.00  0.00     0.009 C 
BRANCH   8   9
ATOM      9  C3' N4B d   1       1.757   1.020   1.525  0.00  0.00     0.004 C 
ATOM     10  C4' N4B d   1       1.794   0.185   0.280  0.00  0.00     0.003 C 
ENDBRANCH   8   9
ENDBRANCH   7   8
ENDBRANCH   1   7
TORSDOF 3
ENDMDL
