MODEL 1
REMARK minimizedAffinity 6.45593596
REMARK minimizedRMSD -1
REMARK  3 active torsions:
REMARK  status: ('A' for Active; 'I' for Inactive)
REMARK    1  A    between atoms: C3'_2  and  C2'_3 
REMARK    2  A    between atoms: C2'_3  and  C1'_4 
REMARK    3  A    between atoms: C1'_4  and  C1_5 
ROOT
ATOM      1  C1  N4B d   1      -1.414   1.390   4.084  0.00  0.00    -0.075 A 
ATOM      2  C2  N4B d   1      -1.174   1.792   5.417  0.00  0.00     0.002 A 
ATOM      3  C3  N4B d   1       0.044   1.541   6.000  0.00  0.00     0.002 A 
ATOM      4  C4  N4B d   1       1.026   0.876   5.280  0.00  0.00    -0.004 A 
ATOM      5  C5  N4B d   1       0.794   0.514   3.985  0.00  0.00     0.002 A 
ATOM      6  C6  N4B d   1      -0.424   0.763   3.385  0.00  0.00     0.002 A 
ENDROOT
BRANCH   1   7
ATOM      7  C1' N4B d   1      -2.759   1.566   3.432  0.00  0.00     0.057 C 
BRANCH   7   8
ATOM      8  C2' N4B d   1      -3.835   1.619   4.512  0.00  0.00     0.009 C 
BRANCH   8   9
ATOM      9  C3' N4B d   1      -4.486   2.989   4.599  0.00  0.00     0.004 C 
ATOM     10  C4' N4B d   1      -4.869   3.362   6.000  0.00  0.00     0.003 C 
ENDBRANCH   8   9
ENDBRANCH   7   8
ENDBRANCH   1   7
TORSDOF 3
ENDMDL
