MODEL 1
REMARK minimizedAffinity 14.4237928
REMARK minimizedRMSD -1
REMARK  3 active torsions:
REMARK  status: ('A' for Active; 'I' for Inactive)
REMARK    1  A    between atoms: C3'_2  and  C2'_3 
REMARK    2  A    between atoms: C2'_3  and  C1'_4 
REMARK    3  A    between atoms: C1'_4  and  C1_5 
ROOT
ATOM      1  C1  N4B d   1      -3.414  -0.325   3.423  0.00  0.00    -0.075 A 
ATOM      2  C2  N4B d   1      -3.763  -1.693   3.445  0.00  0.00     0.002 A 
ATOM      3  C3  N4B d   1      -3.947  -2.336   4.645  0.00  0.00     0.002 A 
ATOM      4  C4  N4B d   1      -3.770  -1.639   5.830  0.00  0.00    -0.004 A 
ATOM      5  C5  N4B d   1      -3.457  -0.311   5.801  0.00  0.00     0.002 A 
ATOM      6  C6  N4B d   1      -3.273   0.349   4.602  0.00  0.00     0.002 A 
ENDROOT
BRANCH   1   7
ATOM      7  C1' N4B d   1      -3.118   0.399   2.138  0.00  0.00     0.057 C 
BRANCH   7   8
ATOM      8  C2' N4B d   1      -1.850   1.230   2.312  0.00  0.00     0.009 C 
BRANCH   8   9
ATOM      9  C3' N4B d   1      -0.594   0.397   2.117  0.00  0.00     0.004 C 
ATOM     10  C4' N4B d   1       0.654   1.129   2.509  0.00  0.00     0.003 C 
ENDBRANCH   8   9
ENDBRANCH   7   8
ENDBRANCH   1   7
TORSDOF 3
ENDMDL
