MODEL 1
REMARK minimizedAffinity 17.4913311
REMARK minimizedRMSD -1
REMARK  3 active torsions:
REMARK  status: ('A' for Active; 'I' for Inactive)
REMARK    1  A    between atoms: C3'_2  and  C2'_3 
REMARK    2  A    between atoms: C2'_3  and  C1'_4 
REMARK    3  A    between atoms: C1'_4  and  C1_5 
ROOT
ATOM      1  C1  N4B d   1       2.078   0.151  -2.111  0.00  0.00    -0.075 A 
ATOM      2  C2  N4B d   1       2.748  -0.870  -1.402  0.00  0.00     0.002 A 
ATOM      3  C3  N4B d   1       3.801  -0.556  -0.578  0.00  0.00     0.002 A 
ATOM      4  C4  N4B d   1       4.211   0.763  -0.462  0.00  0.00    -0.004 A 
ATOM      5  C5  N4B d   1       3.542   1.746  -1.130  0.00  0.00     0.002 A 
ATOM      6  C6  N4B d   1       2.480   1.446  -1.959  0.00  0.00     0.002 A 
ENDROOT
BRANCH   1   7
ATOM      7  C1' N4B d   1       0.977  -0.154  -3.090  0.00  0.00     0.057 C 
BRANCH   7   8
ATOM      8  C2' N4B d   1       1.549  -0.149  -4.504  0.00  0.00     0.009 C 
BRANCH   8   9
ATOM      9  C3' N4B d   1       2.077  -1.515  -4.908  0.00  0.00     0.004 C 
ATOM     10  C4' N4B d   1       3.103  -1.442  -5.999  0.00  0.00     0.003 C 
ENDBRANCH   8   9
ENDBRANCH   7   8
ENDBRANCH   1   7
TORSDOF 3
ENDMDL
