MODEL 1
REMARK minimizedAffinity 17.7510471
REMARK minimizedRMSD -1
REMARK  3 active torsions:
REMARK  status: ('A' for Active; 'I' for Inactive)
REMARK    1  A    between atoms: C3'_2  and  C2'_3 
REMARK    2  A    between atoms: C2'_3  and  C1'_4 
REMARK    3  A    between atoms: C1'_4  and  C1_5 
ROOT
ATOM      1  C1  N4B d   1      -1.887   5.128  -4.245  0.00  0.00    -0.075 A 
ATOM      2  C2  N4B d   1      -2.082   3.741  -4.069  0.00  0.00     0.002 A 
ATOM      3  C3  N4B d   1      -2.979   3.067  -4.861  0.00  0.00     0.002 A 
ATOM      4  C4  N4B d   1      -3.704   3.761  -5.819  0.00  0.00    -0.004 A 
ATOM      5  C5  N4B d   1      -3.491   5.096  -6.000  0.00  0.00     0.002 A 
ATOM      6  C6  N4B d   1      -2.590   5.785  -5.214  0.00  0.00     0.002 A 
ENDROOT
BRANCH   1   7
ATOM      7  C1' N4B d   1      -0.981   5.924  -3.346  0.00  0.00     0.057 C 
BRANCH   7   8
ATOM      8  C2' N4B d   1      -0.079   4.967  -2.571  0.00  0.00     0.009 C 
BRANCH   8   9
ATOM      9  C3' N4B d   1       1.068   5.694  -1.890  0.00  0.00     0.004 C 
ATOM     10  C4' N4B d   1       1.098   5.470  -0.407  0.00  0.00     0.003 C 
ENDBRANCH   8   9
ENDBRANCH   7   8
ENDBRANCH   1   7
TORSDOF 3
ENDMDL
