MODEL 1
REMARK minimizedAffinity 12.5892191
REMARK minimizedRMSD -1
REMARK  3 active torsions:
REMARK  status: ('A' for Active; 'I' for Inactive)
REMARK    1  A    between atoms: C3'_2  and  C2'_3 
REMARK    2  A    between atoms: C2'_3  and  C1'_4 
REMARK    3  A    between atoms: C1'_4  and  C1_5 
ROOT
ATOM      1  C1  N4B d   1      -3.795   1.650   3.899  0.00  0.00    -0.075 A 
ATOM      2  C2  N4B d   1      -5.150   1.858   3.558  0.00  0.00     0.002 A 
ATOM      3  C3  N4B d   1      -5.994   2.479   4.446  0.00  0.00     0.002 A 
ATOM      4  C4  N4B d   1      -5.513   2.882   5.683  0.00  0.00    -0.004 A 
ATOM      5  C5  N4B d   1      -4.197   2.700   5.995  0.00  0.00     0.002 A 
ATOM      6  C6  N4B d   1      -3.336   2.081   5.111  0.00  0.00     0.002 A 
ENDROOT
BRANCH   1   7
ATOM      7  C1' N4B d   1      -2.855   0.899   2.997  0.00  0.00     0.057 C 
BRANCH   7   8
ATOM      8  C2' N4B d   1      -1.475   1.547   3.059  0.00  0.00     0.009 C 
BRANCH   8   9
ATOM      9  C3' N4B d   1      -0.382   0.531   3.340  0.00  0.00     0.004 C 
ATOM     10  C4' N4B d   1       0.660   1.046   4.287  0.00  0.00     0.003 C 
ENDBRANCH   8   9
ENDBRANCH   7   8
ENDBRANCH   1   7
TORSDOF 3
ENDMDL
