MODEL 1
REMARK minimizedAffinity 8.93300915
REMARK minimizedRMSD -1
REMARK  3 active torsions:
REMARK  status: ('A' for Active; 'I' for Inactive)
REMARK    1  A    between atoms: C3'_2  and  C2'_3 
REMARK    2  A    between atoms: C2'_3  and  C1'_4 
REMARK    3  A    between atoms: C1'_4  and  C1_5 
ROOT
ATOM      1  C1  N4B d   1      -0.857  -3.860  -3.363  0.00  0.00    -0.075 A 
ATOM      2  C2  N4B d   1      -2.083  -3.172  -3.227  0.00  0.00     0.002 A 
ATOM      3  C3  N4B d   1      -2.950  -3.098  -4.289  0.00  0.00     0.002 A 
ATOM      4  C4  N4B d   1      -2.607  -3.685  -5.497  0.00  0.00    -0.004 A 
ATOM      5  C5  N4B d   1      -1.432  -4.370  -5.613  0.00  0.00     0.002 A 
ATOM      6  C6  N4B d   1      -0.553  -4.456  -4.552  0.00  0.00     0.002 A 
ENDROOT
BRANCH   1   7
ATOM      7  C1' N4B d   1       0.162  -3.894  -2.257  0.00  0.00     0.057 C 
BRANCH   7   8
ATOM      8  C2' N4B d   1       1.014  -2.631  -2.322  0.00  0.00     0.009 C 
BRANCH   8   9
ATOM      9  C3' N4B d   1       1.555  -2.239  -0.957  0.00  0.00     0.004 C 
ATOM     10  C4' N4B d   1       2.652  -3.147  -0.485  0.00  0.00     0.003 C 
ENDBRANCH   8   9
ENDBRANCH   7   8
ENDBRANCH   1   7
TORSDOF 3
ENDMDL
