MODEL 1
REMARK minimizedAffinity 3.82324123
REMARK minimizedRMSD -1
REMARK  0 active torsions:
REMARK  status: ('A' for Active; 'I' for Inactive)
ROOT
ATOM      1  C   UNL d   1       1.400  -1.330  -0.936  0.00  0.00    -0.002 A 
ATOM      2  C1  UNL d   1       1.184  -0.700   0.282  0.00  0.00     0.010 A 
ATOM      3  C2  UNL d   1       1.930   0.423   0.643  0.00  0.00     0.041 A 
ATOM      4  C3  UNL d   1       2.906   0.908  -0.249  0.00  0.00    -0.075 A 
ATOM      5  S   UNL d   1       3.940   2.269  -0.019  0.00  0.00     0.015 SA
ATOM      6  C4  UNL d   1       4.692   2.047  -1.533  0.00  0.00     0.022 A 
ATOM      7  C5  UNL d   1       4.179   0.966  -2.210  0.00  0.00     0.026 A 
ATOM      8  C6  UNL d   1       3.141   0.292  -1.481  0.00  0.00    -0.082 A 
ATOM      9  C7  UNL d   1       2.368  -0.845  -1.818  0.00  0.00     0.045 A 
ENDROOT
TORSDOF 0
ENDMDL
