MODEL 1
REMARK minimizedAffinity 11.1285486
REMARK minimizedRMSD -1
REMARK  0 active torsions:
REMARK  status: ('A' for Active; 'I' for Inactive)
ROOT
ATOM      1  C   UNL d   1       1.805   0.902  -0.362  0.00  0.00    -0.002 A 
ATOM      2  C1  UNL d   1       2.720   0.060  -0.976  0.00  0.00     0.010 A 
ATOM      3  C2  UNL d   1       4.043   0.465  -1.166  0.00  0.00     0.041 A 
ATOM      4  C3  UNL d   1       4.434   1.744  -0.722  0.00  0.00    -0.075 A 
ATOM      5  S   UNL d   1       6.000   2.454  -0.847  0.00  0.00     0.015 SA
ATOM      6  C4  UNL d   1       5.491   3.892  -0.088  0.00  0.00     0.022 A 
ATOM      7  C5  UNL d   1       4.161   3.849   0.259  0.00  0.00     0.026 A 
ATOM      8  C6  UNL d   1       3.530   2.610  -0.100  0.00  0.00    -0.082 A 
ATOM      9  C7  UNL d   1       2.196   2.170   0.077  0.00  0.00     0.045 A 
ENDROOT
TORSDOF 0
ENDMDL
