MODEL 1
REMARK minimizedAffinity 9.0769434
REMARK minimizedRMSD -1
REMARK  0 active torsions:
REMARK  status: ('A' for Active; 'I' for Inactive)
ROOT
ATOM      1  C   UNL d   1       5.297   2.301  -1.794  0.00  0.00    -0.002 A 
ATOM      2  C1  UNL d   1       5.968   1.687  -0.746  0.00  0.00     0.010 A 
ATOM      3  C2  UNL d   1       5.340   0.703   0.020  0.00  0.00     0.041 A 
ATOM      4  C3  UNL d   1       4.015   0.340  -0.289  0.00  0.00    -0.075 A 
ATOM      5  S   UNL d   1       3.046  -0.840   0.511  0.00  0.00     0.015 SA
ATOM      6  C4  UNL d   1       1.718  -0.558  -0.521  0.00  0.00     0.022 A 
ATOM      7  C5  UNL d   1       1.990   0.410  -1.458  0.00  0.00     0.026 A 
ATOM      8  C6  UNL d   1       3.318   0.944  -1.341  0.00  0.00    -0.082 A 
ATOM      9  C7  UNL d   1       3.982   1.939  -2.098  0.00  0.00     0.045 A 
ENDROOT
TORSDOF 0
ENDMDL
