MODEL 1
REMARK minimizedAffinity 8.87122154
REMARK minimizedRMSD -1
REMARK  0 active torsions:
REMARK  status: ('A' for Active; 'I' for Inactive)
ROOT
ATOM      1  C   UNL d   1       1.813   1.999   0.527  0.00  0.00    -0.002 A 
ATOM      2  C1  UNL d   1       1.038   0.954   1.010  0.00  0.00     0.010 A 
ATOM      3  C2  UNL d   1       1.098  -0.309   0.416  0.00  0.00     0.041 A 
ATOM      4  C3  UNL d   1       1.960  -0.506  -0.680  0.00  0.00    -0.075 A 
ATOM      5  S   UNL d   1       2.199  -1.966  -1.566  0.00  0.00     0.015 SA
ATOM      6  C4  UNL d   1       3.336  -1.237  -2.605  0.00  0.00     0.022 A 
ATOM      7  C5  UNL d   1       3.540   0.087  -2.299  0.00  0.00     0.026 A 
ATOM      8  C6  UNL d   1       2.751   0.531  -1.184  0.00  0.00    -0.082 A 
ATOM      9  C7  UNL d   1       2.667   1.799  -0.561  0.00  0.00     0.045 A 
ENDROOT
TORSDOF 0
ENDMDL
