MODEL 1
REMARK minimizedAffinity 1.71598399
REMARK minimizedRMSD -1
REMARK  0 active torsions:
REMARK  status: ('A' for Active; 'I' for Inactive)
ROOT
ATOM      1  C   UNL d   1       1.448  -1.355  -0.660  0.00  0.00    -0.002 A 
ATOM      2  C1  UNL d   1       2.199  -1.970  -1.652  0.00  0.00     0.010 A 
ATOM      3  C2  UNL d   1       3.281  -1.309  -2.236  0.00  0.00     0.041 A 
ATOM      4  C3  UNL d   1       3.600  -0.007  -1.800  0.00  0.00    -0.075 A 
ATOM      5  S   UNL d   1       4.883   0.994  -2.370  0.00  0.00     0.015 SA
ATOM      6  C4  UNL d   1       4.464   2.261  -1.310  0.00  0.00     0.022 A 
ATOM      7  C5  UNL d   1       3.375   1.945  -0.533  0.00  0.00     0.026 A 
ATOM      8  C6  UNL d   1       2.860   0.632  -0.802  0.00  0.00    -0.082 A 
ATOM      9  C7  UNL d   1       1.767  -0.064  -0.231  0.00  0.00     0.045 A 
ENDROOT
TORSDOF 0
ENDMDL
