MODEL 1
REMARK minimizedAffinity 16.6123524
REMARK minimizedRMSD -1
REMARK  0 active torsions:
REMARK  status: ('A' for Active; 'I' for Inactive)
ROOT
ATOM      1  C2' OXE d   1      -0.635   2.969  -3.315  0.00  0.00     0.078 C 
ATOM      2  C1' OXE d   1      -3.436   3.119  -3.419  0.00  0.00     0.078 C 
ATOM      3  C1  OXE d   1      -2.821   2.033  -2.571  0.00  0.00    -0.078 A 
ATOM      4  C2  OXE d   1      -1.450   1.938  -2.563  0.00  0.00    -0.078 A 
ATOM      5  C3  OXE d   1      -0.830   0.990  -1.755  0.00  0.00     0.003 A 
ATOM      6  C4  OXE d   1      -1.591   0.034  -1.072  0.00  0.00    -0.002 A 
ATOM      7  C5  OXE d   1      -2.988   0.088  -1.098  0.00  0.00    -0.002 A 
ATOM      8  C6  OXE d   1      -3.618   1.105  -1.807  0.00  0.00     0.003 A 
ENDROOT
TORSDOF 0
ENDMDL
