MODEL 1
REMARK minimizedAffinity 8.76552868
REMARK minimizedRMSD -1
REMARK  0 active torsions:
REMARK  status: ('A' for Active; 'I' for Inactive)
ROOT
ATOM      1  C2' OXE d   1      -1.103   4.802   3.812  0.00  0.00     0.078 C 
ATOM      2  C1' OXE d   1      -2.605   5.730   5.994  0.00  0.00     0.078 C 
ATOM      3  C1  OXE d   1      -2.941   4.370   5.436  0.00  0.00    -0.078 A 
ATOM      4  C2  OXE d   1      -2.232   3.944   4.339  0.00  0.00    -0.078 A 
ATOM      5  C3  OXE d   1      -2.465   2.674   3.818  0.00  0.00     0.003 A 
ATOM      6  C4  OXE d   1      -3.519   1.890   4.305  0.00  0.00    -0.002 A 
ATOM      7  C5  OXE d   1      -4.279   2.323   5.397  0.00  0.00    -0.002 A 
ATOM      8  C6  OXE d   1      -3.976   3.539   6.000  0.00  0.00     0.003 A 
ENDROOT
TORSDOF 0
ENDMDL
