MODEL 1
REMARK minimizedAffinity 8.12250423
REMARK minimizedRMSD -1
REMARK  0 active torsions:
REMARK  status: ('A' for Active; 'I' for Inactive)
ROOT
ATOM      1  C2' OXE d   1      -1.876   2.296  -3.223  0.00  0.00     0.078 C 
ATOM      2  C1' OXE d   1      -3.183   1.302  -5.499  0.00  0.00     0.078 C 
ATOM      3  C1  OXE d   1      -3.354   2.764  -5.173  0.00  0.00    -0.078 A 
ATOM      4  C2  OXE d   1      -2.749   3.232  -4.031  0.00  0.00    -0.078 A 
ATOM      5  C3  OXE d   1      -2.829   4.585  -3.713  0.00  0.00     0.003 A 
ATOM      6  C4  OXE d   1      -3.647   5.441  -4.460  0.00  0.00    -0.002 A 
ATOM      7  C5  OXE d   1      -4.304   4.976  -5.604  0.00  0.00    -0.002 A 
ATOM      8  C6  OXE d   1      -4.134   3.653  -5.998  0.00  0.00     0.003 A 
ENDROOT
TORSDOF 0
ENDMDL
