MODEL 1
REMARK minimizedAffinity 15.4990501
REMARK minimizedRMSD -1
REMARK  0 active torsions:
REMARK  status: ('A' for Active; 'I' for Inactive)
ROOT
ATOM      1  C2' OXE d   1      -1.848  -1.152  -2.373  0.00  0.00     0.078 C 
ATOM      2  C1' OXE d   1      -2.221   1.630  -2.338  0.00  0.00     0.078 C 
ATOM      3  C1  OXE d   1      -2.779   0.831  -1.186  0.00  0.00    -0.078 A 
ATOM      4  C2  OXE d   1      -2.632  -0.535  -1.235  0.00  0.00    -0.078 A 
ATOM      5  C3  OXE d   1      -3.080  -1.315  -0.172  0.00  0.00     0.003 A 
ATOM      6  C4  OXE d   1      -3.813  -0.737   0.871  0.00  0.00    -0.002 A 
ATOM      7  C5  OXE d   1      -4.008   0.648   0.920  0.00  0.00    -0.002 A 
ATOM      8  C6  OXE d   1      -3.461   1.448  -0.077  0.00  0.00     0.003 A 
ENDROOT
TORSDOF 0
ENDMDL
