MODEL 1
REMARK minimizedAffinity 5.81340742
REMARK minimizedRMSD -1
REMARK  0 active torsions:
REMARK  status: ('A' for Active; 'I' for Inactive)
ROOT
ATOM      1  C2' OXE d   1       3.770   3.787   4.212  0.00  0.00     0.078 C 
ATOM      2  C1' OXE d   1       3.256   5.889   6.000  0.00  0.00     0.078 C 
ATOM      3  C1  OXE d   1       2.125   5.423   5.118  0.00  0.00    -0.078 A 
ATOM      4  C2  OXE d   1       2.398   4.425   4.213  0.00  0.00    -0.078 A 
ATOM      5  C3  OXE d   1       1.377   3.921   3.414  0.00  0.00     0.003 A 
ATOM      6  C4  OXE d   1       0.113   4.524   3.414  0.00  0.00    -0.002 A 
ATOM      7  C5  OXE d   1      -0.175   5.568   4.299  0.00  0.00    -0.002 A 
ATOM      8  C6  OXE d   1       0.805   6.000   5.186  0.00  0.00     0.003 A 
ENDROOT
TORSDOF 0
ENDMDL
