MODEL 1
REMARK minimizedAffinity 5.53744602
REMARK minimizedRMSD -1
REMARK  0 active torsions:
REMARK  status: ('A' for Active; 'I' for Inactive)
ROOT
ATOM      1  C2' OXE d   1       2.596  -2.710   0.385  0.00  0.00     0.078 C 
ATOM      2  C1' OXE d   1       0.706  -4.399   1.591  0.00  0.00     0.078 C 
ATOM      3  C1  OXE d   1       0.773  -2.968   2.063  0.00  0.00    -0.078 A 
ATOM      4  C2  OXE d   1       1.732  -2.161   1.501  0.00  0.00    -0.078 A 
ATOM      5  C3  OXE d   1       1.801  -0.818   1.861  0.00  0.00     0.003 A 
ATOM      6  C4  OXE d   1       1.005  -0.322   2.900  0.00  0.00    -0.002 A 
ATOM      7  C5  OXE d   1       0.049  -1.137   3.514  0.00  0.00    -0.002 A 
ATOM      8  C6  OXE d   1      -0.109  -2.449   3.079  0.00  0.00     0.003 A 
ENDROOT
TORSDOF 0
ENDMDL
