MODEL 1
REMARK minimizedAffinity 10.2893076
REMARK minimizedRMSD -1
REMARK  0 active torsions:
REMARK  status: ('A' for Active; 'I' for Inactive)
ROOT
ATOM      1  C2' OXE d   1       4.731  -3.290   0.956  0.00  0.00     0.078 C 
ATOM      2  C1' OXE d   1       2.830  -5.356   0.908  0.00  0.00     0.078 C 
ATOM      3  C1  OXE d   1       2.326  -3.939   1.018  0.00  0.00    -0.078 A 
ATOM      4  C2  OXE d   1       3.265  -2.937   1.088  0.00  0.00    -0.078 A 
ATOM      5  C3  OXE d   1       2.853  -1.608   1.134  0.00  0.00     0.003 A 
ATOM      6  C4  OXE d   1       1.496  -1.291   1.265  0.00  0.00    -0.002 A 
ATOM      7  C5  OXE d   1       0.525  -2.298   1.236  0.00  0.00    -0.002 A 
ATOM      8  C6  OXE d   1       0.920  -3.621   1.071  0.00  0.00     0.003 A 
ENDROOT
TORSDOF 0
ENDMDL
