MODEL 1
REMARK minimizedAffinity 13.6138153
REMARK minimizedRMSD -1
REMARK  0 active torsions:
REMARK  status: ('A' for Active; 'I' for Inactive)
ROOT
ATOM      1  C2' OXE d   1      -0.363   2.627  -3.663  0.00  0.00     0.078 C 
ATOM      2  C1' OXE d   1      -3.119   3.080  -3.378  0.00  0.00     0.078 C 
ATOM      3  C1  OXE d   1      -2.515   1.922  -2.625  0.00  0.00    -0.078 A 
ATOM      4  C2  OXE d   1      -1.174   1.679  -2.807  0.00  0.00    -0.078 A 
ATOM      5  C3  OXE d   1      -0.556   0.657  -2.093  0.00  0.00     0.003 A 
ATOM      6  C4  OXE d   1      -1.315  -0.221  -1.310  0.00  0.00    -0.002 A 
ATOM      7  C5  OXE d   1      -2.689  -0.016  -1.143  0.00  0.00    -0.002 A 
ATOM      8  C6  OXE d   1      -3.295   1.074  -1.758  0.00  0.00     0.003 A 
ENDROOT
TORSDOF 0
ENDMDL
