MODEL 1
REMARK minimizedAffinity 10.7708435
REMARK minimizedRMSD -1
REMARK  0 active torsions:
REMARK  status: ('A' for Active; 'I' for Inactive)
ROOT
ATOM      1  C2' OXE d   1      -0.492   2.617  -3.407  0.00  0.00     0.078 C 
ATOM      2  C1' OXE d   1      -3.234   3.216  -3.482  0.00  0.00     0.078 C 
ATOM      3  C1  OXE d   1      -2.809   1.951  -2.779  0.00  0.00    -0.078 A 
ATOM      4  C2  OXE d   1      -1.470   1.642  -2.788  0.00  0.00    -0.078 A 
ATOM      5  C3  OXE d   1      -1.019   0.515  -2.107  0.00  0.00     0.003 A 
ATOM      6  C4  OXE d   1      -1.931  -0.386  -1.545  0.00  0.00    -0.002 A 
ATOM      7  C5  OXE d   1      -3.302  -0.111  -1.560  0.00  0.00    -0.002 A 
ATOM      8  C6  OXE d   1      -3.753   1.072  -2.134  0.00  0.00     0.003 A 
ENDROOT
TORSDOF 0
ENDMDL
