MODEL 1
REMARK minimizedAffinity 12.987402
REMARK minimizedRMSD -1
REMARK  0 active torsions:
REMARK  status: ('A' for Active; 'I' for Inactive)
ROOT
ATOM      1  C2' OXE d   1       1.343  -0.132   2.445  0.00  0.00     0.078 C 
ATOM      2  C1' OXE d   1      -0.716  -1.984   1.990  0.00  0.00     0.078 C 
ATOM      3  C1  OXE d   1       0.636  -2.273   1.387  0.00  0.00    -0.078 A 
ATOM      4  C2  OXE d   1       1.625  -1.338   1.575  0.00  0.00    -0.078 A 
ATOM      5  C3  OXE d   1       2.905  -1.581   1.087  0.00  0.00     0.003 A 
ATOM      6  C4  OXE d   1       3.155  -2.694   0.275  0.00  0.00    -0.002 A 
ATOM      7  C5  OXE d   1       2.150  -3.638   0.037  0.00  0.00    -0.002 A 
ATOM      8  C6  OXE d   1       0.900  -3.465   0.619  0.00  0.00     0.003 A 
ENDROOT
TORSDOF 0
ENDMDL
