MODEL 1
REMARK minimizedAffinity 8.35178852
REMARK minimizedRMSD -1
REMARK  0 active torsions:
REMARK  status: ('A' for Active; 'I' for Inactive)
ROOT
ATOM      1  C2' OXE d   1       2.469  -4.246  -0.409  0.00  0.00     0.078 C 
ATOM      2  C1' OXE d   1       3.899  -2.165   0.817  0.00  0.00     0.078 C 
ATOM      3  C1  OXE d   1       2.424  -2.276   1.115  0.00  0.00    -0.078 A 
ATOM      4  C2  OXE d   1       1.723  -3.269   0.474  0.00  0.00    -0.078 A 
ATOM      5  C3  OXE d   1       0.372  -3.450   0.754  0.00  0.00     0.003 A 
ATOM      6  C4  OXE d   1      -0.313  -2.536   1.564  0.00  0.00    -0.002 A 
ATOM      7  C5  OXE d   1       0.374  -1.493   2.195  0.00  0.00    -0.002 A 
ATOM      8  C6  OXE d   1       1.748  -1.375   2.015  0.00  0.00     0.003 A 
ENDROOT
TORSDOF 0
ENDMDL
