MODEL 1
REMARK minimizedAffinity 3.66887403
REMARK minimizedRMSD -1
REMARK  0 active torsions:
REMARK  status: ('A' for Active; 'I' for Inactive)
ROOT
ATOM      1  C2' OXE d   1      -3.430   1.816  -5.730  0.00  0.00     0.078 C 
ATOM      2  C1' OXE d   1      -2.163   2.923  -3.483  0.00  0.00     0.078 C 
ATOM      3  C1  OXE d   1      -3.183   3.769  -4.203  0.00  0.00    -0.078 A 
ATOM      4  C2  OXE d   1      -3.764   3.236  -5.329  0.00  0.00    -0.078 A 
ATOM      5  C3  OXE d   1      -4.752   3.952  -6.000  0.00  0.00     0.003 A 
ATOM      6  C4  OXE d   1      -5.048   5.269  -5.628  0.00  0.00    -0.002 A 
ATOM      7  C5  OXE d   1      -4.439   5.845  -4.508  0.00  0.00    -0.002 A 
ATOM      8  C6  OXE d   1      -3.538   5.095  -3.761  0.00  0.00     0.003 A 
ENDROOT
TORSDOF 0
ENDMDL
