MODEL 1
REMARK minimizedAffinity 7.36424446
REMARK minimizedRMSD -1
REMARK  1 active torsions:
REMARK  status: ('A' for Active; 'I' for Inactive)
REMARK    1  A    between atoms: C3_4  and  O_7 
ROOT
ATOM      1  C   UNL d   1       0.727  -1.892   1.826  0.00  0.00    -0.033 A 
ATOM      2  C1  UNL d   1       1.669  -0.938   2.215  0.00  0.00     0.039 A 
ATOM      3  C2  UNL d   1       1.251   0.278   2.759  0.00  0.00    -0.080 A 
ATOM      4  C3  UNL d   1      -0.110   0.526   2.911  0.00  0.00     0.150 A 
ATOM      5  C4  UNL d   1      -1.055  -0.421   2.529  0.00  0.00    -0.007 A 
ATOM      6  C5  UNL d   1      -0.635  -1.634   1.985  0.00  0.00     0.039 A 
ENDROOT
BRANCH   4   7
ATOM      7  O   UNL d   1      -0.567   1.700   3.433  0.00  0.00    -0.526 OA
ATOM      8  H5  UNL d   1       0.197   2.269   3.624  0.00  0.00     0.418 HD
ENDBRANCH   4   7
TORSDOF 1
ENDMDL
