MODEL 1
REMARK minimizedAffinity 1.62210703
REMARK minimizedRMSD -1
REMARK  1 active torsions:
REMARK  status: ('A' for Active; 'I' for Inactive)
REMARK    1  A    between atoms: C3_4  and  O_7 
ROOT
ATOM      1  C   UNL d   1       1.311  -1.461   1.336  0.00  0.00    -0.033 A 
ATOM      2  C1  UNL d   1      -0.026  -1.727   1.638  0.00  0.00     0.039 A 
ATOM      3  C2  UNL d   1      -0.812  -0.751   2.254  0.00  0.00    -0.080 A 
ATOM      4  C3  UNL d   1      -0.250   0.485   2.562  0.00  0.00     0.150 A 
ATOM      5  C4  UNL d   1       1.081   0.758   2.260  0.00  0.00    -0.007 A 
ATOM      6  C5  UNL d   1       1.864  -0.218   1.646  0.00  0.00     0.039 A 
ENDROOT
BRANCH   4   7
ATOM      7  O   UNL d   1      -0.976   1.467   3.167  0.00  0.00    -0.526 OA
ATOM      8  H5  UNL d   1      -1.869   1.126   3.341  0.00  0.00     0.418 HD
ENDBRANCH   4   7
TORSDOF 1
ENDMDL
