MODEL 1
REMARK minimizedAffinity 4.05116558
REMARK minimizedRMSD -1
REMARK  1 active torsions:
REMARK  status: ('A' for Active; 'I' for Inactive)
REMARK    1  A    between atoms: C3_4  and  O_7 
ROOT
ATOM      1  C   UNL d   1      -3.768  -0.827  -0.763  0.00  0.00    -0.033 A 
ATOM      2  C1  UNL d   1      -3.637  -0.681   0.620  0.00  0.00     0.039 A 
ATOM      3  C2  UNL d   1      -2.455  -1.065   1.256  0.00  0.00    -0.080 A 
ATOM      4  C3  UNL d   1      -1.413  -1.593   0.499  0.00  0.00     0.150 A 
ATOM      5  C4  UNL d   1      -1.535  -1.738  -0.879  0.00  0.00    -0.007 A 
ATOM      6  C5  UNL d   1      -2.716  -1.354  -1.512  0.00  0.00     0.039 A 
ENDROOT
BRANCH   4   7
ATOM      7  O   UNL d   1      -0.242  -1.987   1.075  0.00  0.00    -0.526 OA
ATOM      8  H5  UNL d   1      -0.312  -1.855   2.035  0.00  0.00     0.418 HD
ENDBRANCH   4   7
TORSDOF 1
ENDMDL
