MODEL 1
REMARK minimizedAffinity -2.82399607
REMARK minimizedRMSD -1
REMARK  1 active torsions:
REMARK  status: ('A' for Active; 'I' for Inactive)
REMARK    1  A    between atoms: C3_4  and  O_7 
ROOT
ATOM      1  C   UNL d   1      -5.621   4.968   2.076  0.00  0.00    -0.033 A 
ATOM      2  C1  UNL d   1      -5.993   5.885   1.091  0.00  0.00     0.039 A 
ATOM      3  C2  UNL d   1      -5.239   6.000  -0.079  0.00  0.00    -0.080 A 
ATOM      4  C3  UNL d   1      -4.118   5.192  -0.252  0.00  0.00     0.150 A 
ATOM      5  C4  UNL d   1      -3.744   4.274   0.723  0.00  0.00    -0.007 A 
ATOM      6  C5  UNL d   1      -4.497   4.161   1.891  0.00  0.00     0.039 A 
ENDROOT
BRANCH   4   7
ATOM      7  O   UNL d   1      -3.349   5.272  -1.375  0.00  0.00    -0.526 OA
ATOM      8  H5  UNL d   1      -3.711   5.969  -1.947  0.00  0.00     0.418 HD
ENDBRANCH   4   7
TORSDOF 1
ENDMDL
