MODEL 1
REMARK minimizedAffinity 12.893754
REMARK minimizedRMSD -1
REMARK  1 active torsions:
REMARK  status: ('A' for Active; 'I' for Inactive)
REMARK    1  A    between atoms: C3_4  and  O_7 
ROOT
ATOM      1  C   UNL d   1      -2.711  -1.610   0.933  0.00  0.00    -0.033 A 
ATOM      2  C1  UNL d   1      -1.723  -2.517   0.545  0.00  0.00     0.039 A 
ATOM      3  C2  UNL d   1      -1.372  -2.635  -0.801  0.00  0.00    -0.080 A 
ATOM      4  C3  UNL d   1      -2.014  -1.842  -1.747  0.00  0.00     0.150 A 
ATOM      5  C4  UNL d   1      -2.996  -0.933  -1.367  0.00  0.00    -0.007 A 
ATOM      6  C5  UNL d   1      -3.346  -0.817  -0.023  0.00  0.00     0.039 A 
ENDROOT
BRANCH   4   7
ATOM      7  O   UNL d   1      -1.708  -1.925  -3.073  0.00  0.00    -0.526 OA
ATOM      8  H5  UNL d   1      -1.033  -2.615  -3.190  0.00  0.00     0.418 HD
ENDBRANCH   4   7
TORSDOF 1
ENDMDL
