MODEL 1
REMARK minimizedAffinity 7.57317591
REMARK minimizedRMSD -1
REMARK  1 active torsions:
REMARK  status: ('A' for Active; 'I' for Inactive)
REMARK    1  A    between atoms: C3_4  and  O_7 
ROOT
ATOM      1  C   UNL d   1       6.000   0.962  -4.519  0.00  0.00    -0.033 A 
ATOM      2  C1  UNL d   1       6.000  -0.394  -4.185  0.00  0.00     0.039 A 
ATOM      3  C2  UNL d   1       4.953  -0.928  -3.430  0.00  0.00    -0.080 A 
ATOM      4  C3  UNL d   1       3.914  -0.098  -3.018  0.00  0.00     0.150 A 
ATOM      5  C4  UNL d   1       3.906   1.252  -3.352  0.00  0.00    -0.007 A 
ATOM      6  C5  UNL d   1       4.952   1.785  -4.104  0.00  0.00     0.039 A 
ENDROOT
BRANCH   4   7
ATOM      7  O   UNL d   1       2.874  -0.573  -2.276  0.00  0.00    -0.526 OA
ATOM      8  H5  UNL d   1       3.029  -1.516  -2.098  0.00  0.00     0.418 HD
ENDBRANCH   4   7
TORSDOF 1
ENDMDL
