MODEL 1
REMARK minimizedAffinity 3.9880774
REMARK minimizedRMSD -1
REMARK  1 active torsions:
REMARK  status: ('A' for Active; 'I' for Inactive)
REMARK    1  A    between atoms: C3_4  and  O_7 
ROOT
ATOM      1  C   UNL d   1      -5.920   5.722  -4.898  0.00  0.00    -0.033 A 
ATOM      2  C1  UNL d   1      -4.778   6.000  -4.144  0.00  0.00     0.039 A 
ATOM      3  C2  UNL d   1      -3.714   5.096  -4.127  0.00  0.00    -0.080 A 
ATOM      4  C3  UNL d   1      -3.803   3.922  -4.869  0.00  0.00     0.150 A 
ATOM      5  C4  UNL d   1      -4.936   3.641  -5.626  0.00  0.00    -0.007 A 
ATOM      6  C5  UNL d   1      -5.998   4.543  -5.640  0.00  0.00     0.039 A 
ENDROOT
BRANCH   4   7
ATOM      7  O   UNL d   1      -2.791   3.008  -4.881  0.00  0.00    -0.526 OA
ATOM      8  H5  UNL d   1      -2.086   3.322  -4.290  0.00  0.00     0.418 HD
ENDBRANCH   4   7
TORSDOF 1
ENDMDL
