MODEL 1
REMARK minimizedAffinity 10.8931427
REMARK minimizedRMSD -1
REMARK  1 active torsions:
REMARK  status: ('A' for Active; 'I' for Inactive)
REMARK    1  A    between atoms: C3_4  and  O_7 
ROOT
ATOM      1  C   UNL d   1       5.228   2.320  -0.670  0.00  0.00    -0.033 A 
ATOM      2  C1  UNL d   1       5.997   3.365  -1.186  0.00  0.00     0.039 A 
ATOM      3  C2  UNL d   1       5.999   4.611  -0.555  0.00  0.00    -0.080 A 
ATOM      4  C3  UNL d   1       5.229   4.798   0.590  0.00  0.00     0.150 A 
ATOM      5  C4  UNL d   1       4.464   3.760   1.112  0.00  0.00    -0.007 A 
ATOM      6  C5  UNL d   1       4.463   2.517   0.480  0.00  0.00     0.039 A 
ENDROOT
BRANCH   4   7
ATOM      7  O   UNL d   1       5.195   5.997   1.237  0.00  0.00    -0.526 OA
ATOM      8  H5  UNL d   1       5.749   6.627   0.747  0.00  0.00     0.418 HD
ENDBRANCH   4   7
TORSDOF 1
ENDMDL
