MODEL 1
REMARK minimizedAffinity 6.87875795
REMARK minimizedRMSD -1
REMARK  1 active torsions:
REMARK  status: ('A' for Active; 'I' for Inactive)
REMARK    1  A    between atoms: C3_4  and  O_7 
ROOT
ATOM      1  C   UNL d   1      -6.000   4.988   1.958  0.00  0.00    -0.033 A 
ATOM      2  C1  UNL d   1      -5.580   5.998   1.089  0.00  0.00     0.039 A 
ATOM      3  C2  UNL d   1      -4.474   5.794   0.262  0.00  0.00    -0.080 A 
ATOM      4  C3  UNL d   1      -3.798   4.578   0.312  0.00  0.00     0.150 A 
ATOM      5  C4  UNL d   1      -4.213   3.567   1.172  0.00  0.00    -0.007 A 
ATOM      6  C5  UNL d   1      -5.317   3.772   1.998  0.00  0.00     0.039 A 
ENDROOT
BRANCH   4   7
ATOM      7  O   UNL d   1      -2.710   4.335  -0.472  0.00  0.00    -0.526 OA
ATOM      8  H5  UNL d   1      -2.522   5.133  -0.994  0.00  0.00     0.418 HD
ENDBRANCH   4   7
TORSDOF 1
ENDMDL
