MODEL 1
REMARK minimizedAffinity 9.76658726
REMARK minimizedRMSD -1
REMARK  1 active torsions:
REMARK  status: ('A' for Active; 'I' for Inactive)
REMARK    1  A    between atoms: C3_4  and  O_7 
ROOT
ATOM      1  C   UNL d   1       5.484   2.733  -0.811  0.00  0.00    -0.033 A 
ATOM      2  C1  UNL d   1       6.000   3.960  -1.233  0.00  0.00     0.039 A 
ATOM      3  C2  UNL d   1       5.940   5.071  -0.389  0.00  0.00    -0.080 A 
ATOM      4  C3  UNL d   1       5.364   4.942   0.871  0.00  0.00     0.150 A 
ATOM      5  C4  UNL d   1       4.852   3.722   1.299  0.00  0.00    -0.007 A 
ATOM      6  C5  UNL d   1       4.911   2.614   0.456  0.00  0.00     0.039 A 
ENDROOT
BRANCH   4   7
ATOM      7  O   UNL d   1       5.279   6.000   1.728  0.00  0.00    -0.526 OA
ATOM      8  H5  UNL d   1       5.647   6.783   1.286  0.00  0.00     0.418 HD
ENDBRANCH   4   7
TORSDOF 1
ENDMDL
