MODEL 1
REMARK minimizedAffinity 5.82833481
REMARK minimizedRMSD -1
REMARK  1 active torsions:
REMARK  status: ('A' for Active; 'I' for Inactive)
REMARK    1  A    between atoms: C3_4  and  O_7 
ROOT
ATOM      1  C   UNL d   1      -0.531  -0.878   0.082  0.00  0.00    -0.033 A 
ATOM      2  C1  UNL d   1      -1.395  -1.333  -0.916  0.00  0.00     0.039 A 
ATOM      3  C2  UNL d   1      -2.661  -1.816  -0.579  0.00  0.00    -0.080 A 
ATOM      4  C3  UNL d   1      -3.050  -1.837   0.758  0.00  0.00     0.150 A 
ATOM      5  C4  UNL d   1      -2.196  -1.382   1.757  0.00  0.00    -0.007 A 
ATOM      6  C5  UNL d   1      -0.932  -0.901   1.418  0.00  0.00     0.039 A 
ENDROOT
BRANCH   4   7
ATOM      7  O   UNL d   1      -4.274  -2.304   1.136  0.00  0.00    -0.526 OA
ATOM      8  H5  UNL d   1      -4.745  -2.612   0.343  0.00  0.00     0.418 HD
ENDBRANCH   4   7
TORSDOF 1
ENDMDL
