MODEL 1
REMARK minimizedAffinity 12.1540899
REMARK minimizedRMSD -1
REMARK  1 active torsions:
REMARK  status: ('A' for Active; 'I' for Inactive)
REMARK    1  A    between atoms: C3_4  and  O_7 
ROOT
ATOM      1  C   UNL d   1      -1.189  -2.070  -0.527  0.00  0.00    -0.033 A 
ATOM      2  C1  UNL d   1      -0.879  -3.223   0.197  0.00  0.00     0.039 A 
ATOM      3  C2  UNL d   1      -0.947  -3.214   1.591  0.00  0.00    -0.080 A 
ATOM      4  C3  UNL d   1      -1.327  -2.047   2.249  0.00  0.00     0.150 A 
ATOM      5  C4  UNL d   1      -1.640  -0.896   1.534  0.00  0.00    -0.007 A 
ATOM      6  C5  UNL d   1      -1.571  -0.907   0.142  0.00  0.00     0.039 A 
ENDROOT
BRANCH   4   7
ATOM      7  O   UNL d   1      -1.403  -1.988   3.609  0.00  0.00    -0.526 OA
ATOM      8  H5  UNL d   1      -1.131  -2.848   3.970  0.00  0.00     0.418 HD
ENDBRANCH   4   7
TORSDOF 1
ENDMDL
