MODEL 1
REMARK minimizedAffinity 5.87457561
REMARK minimizedRMSD -1
REMARK  1 active torsions:
REMARK  status: ('A' for Active; 'I' for Inactive)
REMARK    1  A    between atoms: C3_4  and  O_7 
ROOT
ATOM      1  C   UNL d   1       5.073   5.841   5.853  0.00  0.00    -0.033 A 
ATOM      2  C1  UNL d   1       5.808   4.656   5.793  0.00  0.00     0.039 A 
ATOM      3  C2  UNL d   1       5.154   3.423   5.839  0.00  0.00    -0.080 A 
ATOM      4  C3  UNL d   1       3.766   3.390   5.943  0.00  0.00     0.150 A 
ATOM      5  C4  UNL d   1       3.027   4.567   6.000  0.00  0.00    -0.007 A 
ATOM      6  C5  UNL d   1       3.682   5.797   5.955  0.00  0.00     0.039 A 
ENDROOT
BRANCH   4   7
ATOM      7  O   UNL d   1       3.084   2.211   5.996  0.00  0.00    -0.526 OA
ATOM      8  H5  UNL d   1       3.726   1.482   5.976  0.00  0.00     0.418 HD
ENDBRANCH   4   7
TORSDOF 1
ENDMDL
