MODEL 1
REMARK minimizedAffinity 9.09759998
REMARK minimizedRMSD -1
REMARK  1 active torsions:
REMARK  status: ('A' for Active; 'I' for Inactive)
REMARK    1  A    between atoms: C3_4  and  O_7 
ROOT
ATOM      1  C   UNL d   1      -2.232  -1.229   5.594  0.00  0.00    -0.033 A 
ATOM      2  C1  UNL d   1      -3.396  -1.985   5.442  0.00  0.00     0.039 A 
ATOM      3  C2  UNL d   1      -3.349  -3.375   5.566  0.00  0.00    -0.080 A 
ATOM      4  C3  UNL d   1      -2.134  -3.995   5.843  0.00  0.00     0.150 A 
ATOM      5  C4  UNL d   1      -0.972  -3.248   6.000  0.00  0.00    -0.007 A 
ATOM      6  C5  UNL d   1      -1.020  -1.860   5.874  0.00  0.00     0.039 A 
ENDROOT
BRANCH   4   7
ATOM      7  O   UNL d   1      -2.038  -5.349   5.969  0.00  0.00    -0.526 OA
ATOM      8  H5  UNL d   1      -2.915  -5.737   5.807  0.00  0.00     0.418 HD
ENDBRANCH   4   7
TORSDOF 1
ENDMDL
