MODEL 1
REMARK minimizedAffinity 3.5068543
REMARK minimizedRMSD -1
REMARK  1 active torsions:
REMARK  status: ('A' for Active; 'I' for Inactive)
REMARK    1  A    between atoms: C3_4  and  O_7 
ROOT
ATOM      1  C   UNL d   1      -1.471  -0.470   6.000  0.00  0.00    -0.033 A 
ATOM      2  C1  UNL d   1      -2.549   0.318   5.591  0.00  0.00     0.039 A 
ATOM      3  C2  UNL d   1      -3.738  -0.285   5.176  0.00  0.00    -0.080 A 
ATOM      4  C3  UNL d   1      -3.837  -1.673   5.176  0.00  0.00     0.150 A 
ATOM      5  C4  UNL d   1      -2.768  -2.464   5.586  0.00  0.00    -0.007 A 
ATOM      6  C5  UNL d   1      -1.581  -1.860   5.999  0.00  0.00     0.039 A 
ENDROOT
BRANCH   4   7
ATOM      7  O   UNL d   1      -4.976  -2.307   4.775  0.00  0.00    -0.526 OA
ATOM      8  H5  UNL d   1      -5.618  -1.635   4.493  0.00  0.00     0.418 HD
ENDBRANCH   4   7
TORSDOF 1
ENDMDL
