MODEL 1
REMARK minimizedAffinity 6.60912514
REMARK minimizedRMSD -1
REMARK  1 active torsions:
REMARK  status: ('A' for Active; 'I' for Inactive)
REMARK    1  A    between atoms: C3_4  and  O_7 
ROOT
ATOM      1  C   UNL d   1      -2.234  -3.653   5.998  0.00  0.00    -0.033 A 
ATOM      2  C1  UNL d   1      -1.058  -2.900   5.998  0.00  0.00     0.039 A 
ATOM      3  C2  UNL d   1      -1.120  -1.506   5.997  0.00  0.00    -0.080 A 
ATOM      4  C3  UNL d   1      -2.362  -0.877   5.997  0.00  0.00     0.150 A 
ATOM      5  C4  UNL d   1      -3.537  -1.620   6.000  0.00  0.00    -0.007 A 
ATOM      6  C5  UNL d   1      -3.473  -3.013   6.000  0.00  0.00     0.039 A 
ENDROOT
BRANCH   4   7
ATOM      7  O   UNL d   1      -2.472   0.482   5.991  0.00  0.00    -0.526 OA
ATOM      8  H5  UNL d   1      -1.579   0.863   5.960  0.00  0.00     0.418 HD
ENDBRANCH   4   7
TORSDOF 1
ENDMDL
