MODEL 1
REMARK minimizedAffinity -0.139319256
REMARK minimizedRMSD -1
REMARK  1 active torsions:
REMARK  status: ('A' for Active; 'I' for Inactive)
REMARK    1  A    between atoms: C3_4  and  O_7 
ROOT
ATOM      1  C   UNL d   1      -1.133  -5.999  -3.865  0.00  0.00    -0.033 A 
ATOM      2  C1  UNL d   1      -0.874  -5.999  -5.237  0.00  0.00     0.039 A 
ATOM      3  C2  UNL d   1       0.385  -5.624  -5.711  0.00  0.00    -0.080 A 
ATOM      4  C3  UNL d   1       1.374  -5.253  -4.805  0.00  0.00     0.150 A 
ATOM      5  C4  UNL d   1       1.124  -5.254  -3.436  0.00  0.00    -0.007 A 
ATOM      6  C5  UNL d   1      -0.134  -5.628  -2.965  0.00  0.00     0.039 A 
ENDROOT
BRANCH   4   7
ATOM      7  O   UNL d   1       2.616  -4.875  -5.221  0.00  0.00    -0.526 OA
ATOM      8  H5  UNL d   1       2.635  -4.895  -6.192  0.00  0.00     0.418 HD
ENDBRANCH   4   7
TORSDOF 1
ENDMDL
