MODEL 1
REMARK minimizedAffinity -0.180468082
REMARK minimizedRMSD -1
REMARK  1 active torsions:
REMARK  status: ('A' for Active; 'I' for Inactive)
REMARK    1  A    between atoms: C3_4  and  O_7 
ROOT
ATOM      1  C   UNL d   1      -1.235  -5.992  -3.440  0.00  0.00    -0.033 A 
ATOM      2  C1  UNL d   1      -1.284  -6.000  -4.836  0.00  0.00     0.039 A 
ATOM      3  C2  UNL d   1      -0.102  -6.000  -5.578  0.00  0.00    -0.080 A 
ATOM      4  C3  UNL d   1       1.122  -5.993  -4.914  0.00  0.00     0.150 A 
ATOM      5  C4  UNL d   1       1.179  -5.990  -3.524  0.00  0.00    -0.007 A 
ATOM      6  C5  UNL d   1      -0.003  -5.989  -2.785  0.00  0.00     0.039 A 
ENDROOT
BRANCH   4   7
ATOM      7  O   UNL d   1       2.303  -5.988  -5.596  0.00  0.00    -0.526 OA
ATOM      8  H5  UNL d   1       2.108  -5.962  -6.548  0.00  0.00     0.418 HD
ENDBRANCH   4   7
TORSDOF 1
ENDMDL
