MODEL 1
REMARK minimizedAffinity -0.774409592
REMARK minimizedRMSD -1
REMARK  1 active torsions:
REMARK  status: ('A' for Active; 'I' for Inactive)
REMARK    1  A    between atoms: C3_4  and  O_7 
ROOT
ATOM      1  C   UNL d   1       1.130  -5.835  -5.131  0.00  0.00    -0.033 A 
ATOM      2  C1  UNL d   1      -0.013  -5.944  -5.925  0.00  0.00     0.039 A 
ATOM      3  C2  UNL d   1      -1.275  -5.999  -5.331  0.00  0.00    -0.080 A 
ATOM      4  C3  UNL d   1      -1.381  -5.944  -3.944  0.00  0.00     0.150 A 
ATOM      5  C4  UNL d   1      -0.247  -5.831  -3.147  0.00  0.00    -0.007 A 
ATOM      6  C5  UNL d   1       1.013  -5.777  -3.742  0.00  0.00     0.039 A 
ENDROOT
BRANCH   4   7
ATOM      7  O   UNL d   1      -2.591  -5.999  -3.319  0.00  0.00    -0.526 OA
ATOM      8  H5  UNL d   1      -3.282  -6.105  -3.994  0.00  0.00     0.418 HD
ENDBRANCH   4   7
TORSDOF 1
ENDMDL
