MODEL 1
REMARK minimizedAffinity 0.66920805
REMARK minimizedRMSD -1
REMARK  1 active torsions:
REMARK  status: ('A' for Active; 'I' for Inactive)
REMARK    1  A    between atoms: C3_4  and  O_7 
ROOT
ATOM      1  C   UNL d   1      -1.379  -5.987  -2.812  0.00  0.00    -0.033 A 
ATOM      2  C1  UNL d   1      -1.880  -5.988  -4.115  0.00  0.00     0.039 A 
ATOM      3  C2  UNL d   1      -1.003  -5.992  -5.202  0.00  0.00    -0.080 A 
ATOM      4  C3  UNL d   1       0.370  -5.997  -4.972  0.00  0.00     0.150 A 
ATOM      5  C4  UNL d   1       0.876  -6.000  -3.676  0.00  0.00    -0.007 A 
ATOM      6  C5  UNL d   1      -0.002  -5.994  -2.592  0.00  0.00     0.039 A 
ENDROOT
BRANCH   4   7
ATOM      7  O   UNL d   1       1.265  -5.997  -6.000  0.00  0.00    -0.526 OA
ATOM      8  H5  UNL d   1       0.772  -5.965  -6.837  0.00  0.00     0.418 HD
ENDBRANCH   4   7
TORSDOF 1
ENDMDL
