MODEL 1
REMARK minimizedAffinity 4.68272924
REMARK minimizedRMSD -1
REMARK  1 active torsions:
REMARK  status: ('A' for Active; 'I' for Inactive)
REMARK    1  A    between atoms: C3_4  and  O_7 
ROOT
ATOM      1  C   UNL d   1      -0.962  -5.994  -3.848  0.00  0.00    -0.033 A 
ATOM      2  C1  UNL d   1       0.255  -5.987  -3.163  0.00  0.00     0.039 A 
ATOM      3  C2  UNL d   1       1.457  -5.987  -3.873  0.00  0.00    -0.080 A 
ATOM      4  C3  UNL d   1       1.430  -5.994  -5.264  0.00  0.00     0.150 A 
ATOM      5  C4  UNL d   1       0.221  -5.998  -5.953  0.00  0.00    -0.007 A 
ATOM      6  C5  UNL d   1      -0.979  -5.999  -5.243  0.00  0.00     0.039 A 
ENDROOT
BRANCH   4   7
ATOM      7  O   UNL d   1       2.577  -5.999  -6.000  0.00  0.00    -0.526 OA
ATOM      8  H5  UNL d   1       3.334  -6.025  -5.390  0.00  0.00     0.418 HD
ENDBRANCH   4   7
TORSDOF 1
ENDMDL
