MODEL 1
REMARK minimizedAffinity 0.558115184
REMARK minimizedRMSD -1
REMARK  1 active torsions:
REMARK  status: ('A' for Active; 'I' for Inactive)
REMARK    1  A    between atoms: C3_4  and  O_7 
ROOT
ATOM      1  C   UNL d   1      -2.092  -6.000  -3.004  0.00  0.00    -0.033 A 
ATOM      2  C1  UNL d   1      -1.986  -5.628  -4.346  0.00  0.00     0.039 A 
ATOM      3  C2  UNL d   1      -0.749  -5.252  -4.872  0.00  0.00    -0.080 A 
ATOM      4  C3  UNL d   1       0.373  -5.253  -4.048  0.00  0.00     0.150 A 
ATOM      5  C4  UNL d   1       0.275  -5.625  -2.711  0.00  0.00    -0.007 A 
ATOM      6  C5  UNL d   1      -0.961  -6.000  -2.187  0.00  0.00     0.039 A 
ENDROOT
BRANCH   4   7
ATOM      7  O   UNL d   1       1.601  -4.889  -4.515  0.00  0.00    -0.526 OA
ATOM      8  H5  UNL d   1       1.510  -4.629  -5.447  0.00  0.00     0.418 HD
ENDBRANCH   4   7
TORSDOF 1
ENDMDL
