MODEL 1
REMARK minimizedAffinity -1.20673513
REMARK minimizedRMSD -1
REMARK  1 active torsions:
REMARK  status: ('A' for Active; 'I' for Inactive)
REMARK    1  A    between atoms: C3_4  and  O_7 
ROOT
ATOM      1  C   UNL d   1      -1.931  -6.000  -3.987  0.00  0.00    -0.033 A 
ATOM      2  C1  UNL d   1      -0.795  -6.000  -3.175  0.00  0.00     0.039 A 
ATOM      3  C2  UNL d   1       0.445  -5.639  -3.707  0.00  0.00    -0.080 A 
ATOM      4  C3  UNL d   1       0.535  -5.279  -5.048  0.00  0.00     0.150 A 
ATOM      5  C4  UNL d   1      -0.594  -5.273  -5.862  0.00  0.00    -0.007 A 
ATOM      6  C5  UNL d   1      -1.831  -5.635  -5.330  0.00  0.00     0.039 A 
ENDROOT
BRANCH   4   7
ATOM      7  O   UNL d   1       1.724  -4.924  -5.613  0.00  0.00    -0.526 OA
ATOM      8  H5  UNL d   1       2.420  -5.002  -4.939  0.00  0.00     0.418 HD
ENDBRANCH   4   7
TORSDOF 1
ENDMDL
