MODEL 1
REMARK minimizedAffinity -2.16385818
REMARK minimizedRMSD -1
REMARK  1 active torsions:
REMARK  status: ('A' for Active; 'I' for Inactive)
REMARK    1  A    between atoms: C3_4  and  O_7 
ROOT
ATOM      1  C   UNL d   1      -0.024  -5.992  -3.336  0.00  0.00    -0.033 A 
ATOM      2  C1  UNL d   1      -0.600  -5.999  -2.064  0.00  0.00     0.039 A 
ATOM      3  C2  UNL d   1      -1.989  -6.000  -1.924  0.00  0.00    -0.080 A 
ATOM      4  C3  UNL d   1      -2.790  -5.994  -3.063  0.00  0.00     0.150 A 
ATOM      5  C4  UNL d   1      -2.223  -5.990  -4.333  0.00  0.00    -0.007 A 
ATOM      6  C5  UNL d   1      -0.836  -5.989  -4.471  0.00  0.00     0.039 A 
ENDROOT
BRANCH   4   7
ATOM      7  O   UNL d   1      -4.151  -5.989  -2.977  0.00  0.00    -0.526 OA
ATOM      8  H5  UNL d   1      -4.400  -5.963  -2.038  0.00  0.00     0.418 HD
ENDBRANCH   4   7
TORSDOF 1
ENDMDL
