MODEL 1
REMARK minimizedAffinity -3.33544946
REMARK minimizedRMSD -1
REMARK  1 active torsions:
REMARK  status: ('A' for Active; 'I' for Inactive)
REMARK    1  A    between atoms: C3_4  and  O_7 
ROOT
ATOM      1  C   UNL d   1      -2.184  -5.999  -3.822  0.00  0.00    -0.033 A 
ATOM      2  C1  UNL d   1      -1.463  -5.991  -2.627  0.00  0.00     0.039 A 
ATOM      3  C2  UNL d   1      -0.067  -5.988  -2.651  0.00  0.00    -0.080 A 
ATOM      4  C3  UNL d   1       0.594  -5.991  -3.876  0.00  0.00     0.150 A 
ATOM      5  C4  UNL d   1      -0.118  -5.995  -5.071  0.00  0.00    -0.007 A 
ATOM      6  C5  UNL d   1      -1.511  -6.000  -5.044  0.00  0.00     0.039 A 
ENDROOT
BRANCH   4   7
ATOM      7  O   UNL d   1       1.956  -5.993  -3.950  0.00  0.00    -0.526 OA
ATOM      8  H5  UNL d   1       2.313  -6.019  -3.047  0.00  0.00     0.418 HD
ENDBRANCH   4   7
TORSDOF 1
ENDMDL
