MODEL 1
REMARK minimizedAffinity -3.00084615
REMARK minimizedRMSD -1
REMARK  1 active torsions:
REMARK  status: ('A' for Active; 'I' for Inactive)
REMARK    1  A    between atoms: C3_4  and  O_7 
ROOT
ATOM      1  C   UNL d   1      -1.974  -5.986  -2.969  0.00  0.00    -0.033 A 
ATOM      2  C1  UNL d   1      -0.734  -5.997  -2.327  0.00  0.00     0.039 A 
ATOM      3  C2  UNL d   1       0.443  -6.000  -3.078  0.00  0.00    -0.080 A 
ATOM      4  C3  UNL d   1       0.367  -5.991  -4.468  0.00  0.00     0.150 A 
ATOM      5  C4  UNL d   1      -0.865  -5.976  -5.114  0.00  0.00    -0.007 A 
ATOM      6  C5  UNL d   1      -2.039  -5.974  -4.362  0.00  0.00     0.039 A 
ENDROOT
BRANCH   4   7
ATOM      7  O   UNL d   1       1.488  -5.999  -5.243  0.00  0.00    -0.526 OA
ATOM      8  H5  UNL d   1       2.265  -6.038  -4.660  0.00  0.00     0.418 HD
ENDBRANCH   4   7
TORSDOF 1
ENDMDL
