MODEL 1
REMARK minimizedAffinity 0.611628294
REMARK minimizedRMSD -1
REMARK  1 active torsions:
REMARK  status: ('A' for Active; 'I' for Inactive)
REMARK    1  A    between atoms: C3_4  and  O_7 
ROOT
ATOM      1  C   UNL d   1       1.157  -5.994  -4.344  0.00  0.00    -0.033 A 
ATOM      2  C1  UNL d   1       0.096  -6.000  -5.252  0.00  0.00     0.039 A 
ATOM      3  C2  UNL d   1      -1.221  -6.000  -4.789  0.00  0.00    -0.080 A 
ATOM      4  C3  UNL d   1      -1.463  -5.994  -3.418  0.00  0.00     0.150 A 
ATOM      5  C4  UNL d   1      -0.412  -5.985  -2.508  0.00  0.00    -0.007 A 
ATOM      6  C5  UNL d   1       0.903  -5.985  -2.972  0.00  0.00     0.039 A 
ENDROOT
BRANCH   4   7
ATOM      7  O   UNL d   1      -2.732  -5.999  -2.919  0.00  0.00    -0.526 OA
ATOM      8  H5  UNL d   1      -3.356  -6.034  -3.664  0.00  0.00     0.418 HD
ENDBRANCH   4   7
TORSDOF 1
ENDMDL
