MODEL 1
REMARK minimizedAffinity 2.14509487
REMARK minimizedRMSD -1
REMARK  1 active torsions:
REMARK  status: ('A' for Active; 'I' for Inactive)
REMARK    1  A    between atoms: C3_4  and  O_7 
ROOT
ATOM      1  C   UNL d   1       0.001  -5.985  -2.037  0.00  0.00    -0.033 A 
ATOM      2  C1  UNL d   1      -0.961  -5.988  -3.049  0.00  0.00     0.039 A 
ATOM      3  C2  UNL d   1      -0.567  -5.994  -4.388  0.00  0.00    -0.080 A 
ATOM      4  C3  UNL d   1       0.789  -5.998  -4.702  0.00  0.00     0.150 A 
ATOM      5  C4  UNL d   1       1.753  -6.000  -3.699  0.00  0.00    -0.007 A 
ATOM      6  C5  UNL d   1       1.358  -5.993  -2.362  0.00  0.00     0.039 A 
ENDROOT
BRANCH   4   7
ATOM      7  O   UNL d   1       1.221  -5.999  -5.995  0.00  0.00    -0.526 OA
ATOM      8  H5  UNL d   1       0.445  -5.969  -6.579  0.00  0.00     0.418 HD
ENDBRANCH   4   7
TORSDOF 1
ENDMDL
