MODEL 1
REMARK minimizedAffinity 3.87761188
REMARK minimizedRMSD -1
REMARK  1 active torsions:
REMARK  status: ('A' for Active; 'I' for Inactive)
REMARK    1  A    between atoms: C3_4  and  O_7 
ROOT
ATOM      1  C   UNL d   1       4.243   0.076  -0.411  0.00  0.00    -0.033 A 
ATOM      2  C1  UNL d   1       4.280  -0.167   0.963  0.00  0.00     0.039 A 
ATOM      3  C2  UNL d   1       3.109  -0.084   1.720  0.00  0.00    -0.080 A 
ATOM      4  C3  UNL d   1       1.911   0.242   1.091  0.00  0.00     0.150 A 
ATOM      5  C4  UNL d   1       1.867   0.482  -0.278  0.00  0.00    -0.007 A 
ATOM      6  C5  UNL d   1       3.037   0.399  -1.032  0.00  0.00     0.039 A 
ENDROOT
BRANCH   4   7
ATOM      7  O   UNL d   1       0.744   0.340   1.789  0.00  0.00    -0.526 OA
ATOM      8  H5  UNL d   1       0.932   0.177   2.728  0.00  0.00     0.418 HD
ENDBRANCH   4   7
TORSDOF 1
ENDMDL
