MODEL 1
REMARK minimizedAffinity -3.85108423
REMARK minimizedRMSD -1
REMARK  1 active torsions:
REMARK  status: ('A' for Active; 'I' for Inactive)
REMARK    1  A    between atoms: C3_4  and  O_7 
ROOT
ATOM      1  C   UNL d   1      -1.977  -5.551  -5.071  0.00  0.00    -0.033 A 
ATOM      2  C1  UNL d   1      -2.011  -5.999  -3.750  0.00  0.00     0.039 A 
ATOM      3  C2  UNL d   1      -0.845  -5.999  -2.980  0.00  0.00    -0.080 A 
ATOM      4  C3  UNL d   1       0.345  -5.546  -3.544  0.00  0.00     0.150 A 
ATOM      5  C4  UNL d   1       0.384  -5.094  -4.859  0.00  0.00    -0.007 A 
ATOM      6  C5  UNL d   1      -0.780  -5.096  -5.625  0.00  0.00     0.039 A 
ENDROOT
BRANCH   4   7
ATOM      7  O   UNL d   1       1.508  -5.531  -2.834  0.00  0.00    -0.526 OA
ATOM      8  H5  UNL d   1       1.335  -5.898  -1.951  0.00  0.00     0.418 HD
ENDBRANCH   4   7
TORSDOF 1
ENDMDL
