MODEL 1
REMARK minimizedAffinity 7.08953285
REMARK minimizedRMSD -1
REMARK  1 active torsions:
REMARK  status: ('A' for Active; 'I' for Inactive)
REMARK    1  A    between atoms: C3_4  and  O_7 
ROOT
ATOM      1  C   UNL d   1      -5.919  -5.989  -0.998  0.00  0.00    -0.033 A 
ATOM      2  C1  UNL d   1      -4.673  -5.997  -0.369  0.00  0.00     0.039 A 
ATOM      3  C2  UNL d   1      -3.504  -5.954  -1.131  0.00  0.00    -0.080 A 
ATOM      4  C3  UNL d   1      -3.595  -5.902  -2.519  0.00  0.00     0.150 A 
ATOM      5  C4  UNL d   1      -4.833  -5.889  -3.152  0.00  0.00    -0.007 A 
ATOM      6  C5  UNL d   1      -5.999  -5.933  -2.390  0.00  0.00     0.039 A 
ENDROOT
BRANCH   4   7
ATOM      7  O   UNL d   1      -2.482  -5.863  -3.305  0.00  0.00    -0.526 OA
ATOM      8  H5  UNL d   1      -1.698  -5.907  -2.732  0.00  0.00     0.418 HD
ENDBRANCH   4   7
TORSDOF 1
ENDMDL
