MODEL 1
REMARK minimizedAffinity 1.15302265
REMARK minimizedRMSD -1
REMARK  1 active torsions:
REMARK  status: ('A' for Active; 'I' for Inactive)
REMARK    1  A    between atoms: C1_2  and  C2_3 
ROOT
ATOM      1  C2  UNL d   1       0.294   2.814  -1.983  0.00  0.00    -0.073 A 
ATOM      2  C3  UNL d   1       0.574   4.185  -1.986  0.00  0.00    -0.002 A 
ATOM      3  C4  UNL d   1       0.629   4.891  -3.189  0.00  0.00     0.004 A 
ATOM      4  C5  UNL d   1       0.399   4.235  -4.398  0.00  0.00    -0.004 A 
ATOM      5  C6  UNL d   1       0.105   2.868  -4.415  0.00  0.00    -0.075 A 
ATOM      6  C7  UNL d   1      -0.143   2.148  -5.707  0.00  0.00     0.076 C 
ATOM      7  C8  UNL d   1       0.054   2.166  -3.203  0.00  0.00     0.001 A 
ENDROOT
BRANCH   1   8
ATOM      8  C1  UNL d   1       0.227   2.050  -0.686  0.00  0.00     0.053 C 
ATOM      9  C   UNL d   1      -1.179   1.551  -0.390  0.00  0.00     0.018 C 
ENDBRANCH   1   8
TORSDOF 1
ENDMDL
