MODEL 1
REMARK minimizedAffinity 7.67725992
REMARK minimizedRMSD -1
REMARK  1 active torsions:
REMARK  status: ('A' for Active; 'I' for Inactive)
REMARK    1  A    between atoms: C1_2  and  C2_3 
ROOT
ATOM      1  C2  UNL d   1       2.582   2.134  -0.851  0.00  0.00    -0.073 A 
ATOM      2  C3  UNL d   1       2.709   2.691  -2.129  0.00  0.00    -0.002 A 
ATOM      3  C4  UNL d   1       2.016   2.143  -3.209  0.00  0.00     0.004 A 
ATOM      4  C5  UNL d   1       1.185   1.039  -3.023  0.00  0.00    -0.004 A 
ATOM      5  C6  UNL d   1       1.035   0.475  -1.752  0.00  0.00    -0.075 A 
ATOM      6  C7  UNL d   1       0.146  -0.714  -1.535  0.00  0.00     0.076 C 
ATOM      7  C8  UNL d   1       1.736   1.029  -0.672  0.00  0.00     0.001 A 
ENDROOT
BRANCH   1   8
ATOM      8  C1  UNL d   1       3.323   2.725   0.320  0.00  0.00     0.053 C 
ATOM      9  C   UNL d   1       2.457   2.792   1.568  0.00  0.00     0.018 C 
ENDBRANCH   1   8
TORSDOF 1
ENDMDL
