MODEL 1
REMARK minimizedAffinity 8.15908527
REMARK minimizedRMSD -1
REMARK  1 active torsions:
REMARK  status: ('A' for Active; 'I' for Inactive)
REMARK    1  A    between atoms: C1_2  and  C2_3 
ROOT
ATOM      1  C2  UNL d   1       1.409   2.363  -2.443  0.00  0.00    -0.073 A 
ATOM      2  C3  UNL d   1       2.582   2.750  -1.785  0.00  0.00    -0.002 A 
ATOM      3  C4  UNL d   1       3.254   1.852  -0.956  0.00  0.00     0.004 A 
ATOM      4  C5  UNL d   1       2.767   0.557  -0.782  0.00  0.00    -0.004 A 
ATOM      5  C6  UNL d   1       1.603   0.147  -1.440  0.00  0.00    -0.075 A 
ATOM      6  C7  UNL d   1       1.063  -1.242  -1.261  0.00  0.00     0.076 C 
ATOM      7  C8  UNL d   1       0.931   1.056  -2.268  0.00  0.00     0.001 A 
ENDROOT
BRANCH   1   8
ATOM      8  C1  UNL d   1       0.682   3.327  -3.344  0.00  0.00     0.053 C 
ATOM      9  C   UNL d   1      -0.825   3.261  -3.153  0.00  0.00     0.018 C 
ENDBRANCH   1   8
TORSDOF 1
ENDMDL
