MODEL 1
REMARK minimizedAffinity 1.54234433
REMARK minimizedRMSD -1
REMARK  1 active torsions:
REMARK  status: ('A' for Active; 'I' for Inactive)
REMARK    1  A    between atoms: C1_2  and  C2_3 
ROOT
ATOM      1  C2  UNL d   1       2.630  -1.153   0.682  0.00  0.00    -0.073 A 
ATOM      2  C3  UNL d   1       3.892  -0.548   0.709  0.00  0.00    -0.002 A 
ATOM      3  C4  UNL d   1       4.401   0.069  -0.435  0.00  0.00     0.004 A 
ATOM      4  C5  UNL d   1       3.654   0.093  -1.612  0.00  0.00    -0.004 A 
ATOM      5  C6  UNL d   1       2.386  -0.497  -1.655  0.00  0.00    -0.075 A 
ATOM      6  C7  UNL d   1       1.570  -0.482  -2.914  0.00  0.00     0.076 C 
ATOM      7  C8  UNL d   1       1.882  -1.116  -0.503  0.00  0.00     0.001 A 
ENDROOT
BRANCH   1   8
ATOM      8  C1  UNL d   1       2.073  -1.815   1.916  0.00  0.00     0.053 C 
ATOM      9  C   UNL d   1       0.872  -1.066   2.471  0.00  0.00     0.018 C 
ENDBRANCH   1   8
TORSDOF 1
ENDMDL
