MODEL 1
REMARK minimizedAffinity -2.78524208
REMARK minimizedRMSD -1
REMARK  0 active torsions:
REMARK  status: ('A' for Active; 'I' for Inactive)
ROOT
ATOM      1  C   UNL d   1       3.147  -3.226  -0.278  0.00  0.00    -0.002 A 
ATOM      2  C1  UNL d   1       2.147  -4.174  -0.112  0.00  0.00     0.010 A 
ATOM      3  C2  UNL d   1       0.853  -3.787   0.242  0.00  0.00     0.041 A 
ATOM      4  C3  UNL d   1       0.578  -2.418   0.428  0.00  0.00    -0.075 A 
ATOM      5  S   UNL d   1      -0.933  -1.711   0.863  0.00  0.00     0.015 SA
ATOM      6  C4  UNL d   1      -0.287  -0.134   0.839  0.00  0.00     0.022 A 
ATOM      7  C5  UNL d   1       1.048  -0.128   0.509  0.00  0.00     0.026 A 
ATOM      8  C6  UNL d   1       1.568  -1.445   0.266  0.00  0.00    -0.082 A 
ATOM      9  C7  UNL d   1       2.870  -1.869  -0.093  0.00  0.00     0.045 A 
ENDROOT
TORSDOF 0
ENDMDL
