MODEL 1
REMARK minimizedAffinity -0.00111835683
REMARK minimizedRMSD -1
REMARK  0 active torsions:
REMARK  status: ('A' for Active; 'I' for Inactive)
ROOT
ATOM      1  C   UNL d   1       2.619  -1.848  -0.003  0.00  0.00    -0.002 A 
ATOM      2  C1  UNL d   1       1.753  -2.634   0.744  0.00  0.00     0.010 A 
ATOM      3  C2  UNL d   1       2.109  -3.935   1.106  0.00  0.00     0.041 A 
ATOM      4  C3  UNL d   1       3.362  -4.436   0.702  0.00  0.00    -0.075 A 
ATOM      5  S   UNL d   1       4.011  -6.000   1.030  0.00  0.00     0.015 SA
ATOM      6  C4  UNL d   1       5.453  -5.660   0.187  0.00  0.00     0.022 A 
ATOM      7  C5  UNL d   1       5.456  -4.390  -0.338  0.00  0.00     0.026 A 
ATOM      8  C6  UNL d   1       4.251  -3.663  -0.050  0.00  0.00    -0.082 A 
ATOM      9  C7  UNL d   1       3.861  -2.349  -0.402  0.00  0.00     0.045 A 
ENDROOT
TORSDOF 0
ENDMDL
