MODEL 1
REMARK minimizedAffinity -1.32562435
REMARK minimizedRMSD -1
REMARK  0 active torsions:
REMARK  status: ('A' for Active; 'I' for Inactive)
ROOT
ATOM      1  C   UNL d   1      -0.344  -0.989   1.087  0.00  0.00    -0.002 A 
ATOM      2  C1  UNL d   1       0.690  -0.065   1.150  0.00  0.00     0.010 A 
ATOM      3  C2  UNL d   1       1.974  -0.406   0.721  0.00  0.00     0.041 A 
ATOM      4  C3  UNL d   1       2.204  -1.702   0.221  0.00  0.00    -0.075 A 
ATOM      5  S   UNL d   1       3.695  -2.342  -0.362  0.00  0.00     0.015 SA
ATOM      6  C4  UNL d   1       2.995  -3.857  -0.709  0.00  0.00     0.022 A 
ATOM      7  C5  UNL d   1       1.658  -3.891  -0.394  0.00  0.00     0.026 A 
ATOM      8  C6  UNL d   1       1.179  -2.650   0.147  0.00  0.00    -0.082 A 
ATOM      9  C7  UNL d   1      -0.112  -2.275   0.590  0.00  0.00     0.045 A 
ENDROOT
TORSDOF 0
ENDMDL
