MODEL 1
REMARK minimizedAffinity -1.36222053
REMARK minimizedRMSD -1
REMARK  0 active torsions:
REMARK  status: ('A' for Active; 'I' for Inactive)
ROOT
ATOM      1  C   UNL d   1       3.346  -0.076   0.492  0.00  0.00    -0.002 A 
ATOM      2  C1  UNL d   1       3.678  -1.377   0.143  0.00  0.00     0.010 A 
ATOM      3  C2  UNL d   1       2.697  -2.369   0.082  0.00  0.00     0.041 A 
ATOM      4  C3  UNL d   1       1.363  -2.027   0.379  0.00  0.00    -0.075 A 
ATOM      5  S   UNL d   1      -0.006  -3.075   0.369  0.00  0.00     0.015 SA
ATOM      6  C4  UNL d   1      -1.064  -1.819   0.827  0.00  0.00     0.022 A 
ATOM      7  C5  UNL d   1      -0.405  -0.623   0.989  0.00  0.00     0.026 A 
ATOM      8  C6  UNL d   1       1.004  -0.723   0.733  0.00  0.00    -0.082 A 
ATOM      9  C7  UNL d   1       2.022   0.260   0.787  0.00  0.00     0.045 A 
ENDROOT
TORSDOF 0
ENDMDL
