MODEL 1
REMARK minimizedAffinity -0.168808341
REMARK minimizedRMSD -1
REMARK  0 active torsions:
REMARK  status: ('A' for Active; 'I' for Inactive)
ROOT
ATOM      1  C   UNL d   1       0.027  -2.279   0.445  0.00  0.00    -0.002 A 
ATOM      2  C1  UNL d   1       0.683  -1.089   0.728  0.00  0.00     0.010 A 
ATOM      3  C2  UNL d   1       2.076  -1.015   0.670  0.00  0.00     0.041 A 
ATOM      4  C3  UNL d   1       2.806  -2.167   0.318  0.00  0.00    -0.075 A 
ATOM      5  S   UNL d   1       4.519  -2.311   0.183  0.00  0.00     0.015 SA
ATOM      6  C4  UNL d   1       4.421  -3.955  -0.254  0.00  0.00     0.022 A 
ATOM      7  C5  UNL d   1       3.121  -4.400  -0.301  0.00  0.00     0.026 A 
ATOM      8  C6  UNL d   1       2.168  -3.377   0.028  0.00  0.00    -0.082 A 
ATOM      9  C7  UNL d   1       0.755  -3.420   0.096  0.00  0.00     0.045 A 
ENDROOT
TORSDOF 0
ENDMDL
