MODEL 1
REMARK minimizedAffinity 2.74280739
REMARK minimizedRMSD -1
REMARK  0 active torsions:
REMARK  status: ('A' for Active; 'I' for Inactive)
ROOT
ATOM      1  C   UNL d   1       4.019  -2.466   0.498  0.00  0.00    -0.002 A 
ATOM      2  C1  UNL d   1       3.885  -3.703  -0.116  0.00  0.00     0.010 A 
ATOM      3  C2  UNL d   1       2.625  -4.179  -0.487  0.00  0.00     0.041 A 
ATOM      4  C3  UNL d   1       1.493  -3.382  -0.229  0.00  0.00    -0.075 A 
ATOM      5  S   UNL d   1      -0.149  -3.759  -0.595  0.00  0.00     0.015 SA
ATOM      6  C4  UNL d   1      -0.710  -2.286   0.054  0.00  0.00     0.022 A 
ATOM      7  C5  UNL d   1       0.316  -1.514   0.543  0.00  0.00     0.026 A 
ATOM      8  C6  UNL d   1       1.603  -2.132   0.388  0.00  0.00    -0.082 A 
ATOM      9  C7  UNL d   1       2.894  -1.678   0.753  0.00  0.00     0.045 A 
ENDROOT
TORSDOF 0
ENDMDL
