MODEL 1
REMARK minimizedAffinity 3.30294943
REMARK minimizedRMSD -1
REMARK  0 active torsions:
REMARK  status: ('A' for Active; 'I' for Inactive)
ROOT
ATOM      1  C   UNL d   1      -0.855  -0.435   1.645  0.00  0.00    -0.002 A 
ATOM      2  C1  UNL d   1       0.432   0.007   1.917  0.00  0.00     0.010 A 
ATOM      3  C2  UNL d   1       1.529  -0.557   1.264  0.00  0.00     0.041 A 
ATOM      4  C3  UNL d   1       1.309  -1.581   0.322  0.00  0.00    -0.075 A 
ATOM      5  S   UNL d   1       2.501  -2.419  -0.601  0.00  0.00     0.015 SA
ATOM      6  C4  UNL d   1       1.330  -3.382  -1.378  0.00  0.00     0.022 A 
ATOM      7  C5  UNL d   1       0.056  -3.085  -0.956  0.00  0.00     0.026 A 
ATOM      8  C6  UNL d   1       0.023  -2.043   0.030  0.00  0.00    -0.082 A 
ATOM      9  C7  UNL d   1      -1.069  -1.451   0.710  0.00  0.00     0.045 A 
ENDROOT
TORSDOF 0
ENDMDL
