MODEL 1
REMARK minimizedAffinity 17.8612309
REMARK minimizedRMSD -1
REMARK  0 active torsions:
REMARK  status: ('A' for Active; 'I' for Inactive)
ROOT
ATOM      1  C   UNL d   1       5.075  -0.750  -0.631  0.00  0.00    -0.002 A 
ATOM      2  C1  UNL d   1       6.000  -0.820  -1.664  0.00  0.00     0.010 A 
ATOM      3  C2  UNL d   1       5.668  -0.375  -2.945  0.00  0.00     0.041 A 
ATOM      4  C3  UNL d   1       4.380   0.147  -3.173  0.00  0.00    -0.075 A 
ATOM      5  S   UNL d   1       3.751   0.752  -4.660  0.00  0.00     0.015 SA
ATOM      6  C4  UNL d   1       2.241   1.118  -3.960  0.00  0.00     0.022 A 
ATOM      7  C5  UNL d   1       2.200   0.793  -2.625  0.00  0.00     0.026 A 
ATOM      8  C6  UNL d   1       3.432   0.229  -2.149  0.00  0.00    -0.082 A 
ATOM      9  C7  UNL d   1       3.798  -0.231  -0.861  0.00  0.00     0.045 A 
ENDROOT
TORSDOF 0
ENDMDL
