MODEL 1
REMARK minimizedAffinity 2.25303578
REMARK minimizedRMSD -1
REMARK  0 active torsions:
REMARK  status: ('A' for Active; 'I' for Inactive)
ROOT
ATOM      1  C   UNL d   1      -0.515  -0.734   0.884  0.00  0.00    -0.002 A 
ATOM      2  C1  UNL d   1      -0.942  -2.044   0.715  0.00  0.00     0.010 A 
ATOM      3  C2  UNL d   1      -0.033  -3.049   0.380  0.00  0.00     0.041 A 
ATOM      4  C3  UNL d   1       1.325  -2.714   0.218  0.00  0.00    -0.075 A 
ATOM      5  S   UNL d   1       2.617  -3.779  -0.191  0.00  0.00     0.015 SA
ATOM      6  C4  UNL d   1       3.767  -2.522  -0.149  0.00  0.00     0.022 A 
ATOM      7  C5  UNL d   1       3.196  -1.312   0.167  0.00  0.00     0.026 A 
ATOM      8  C6  UNL d   1       1.779  -1.402   0.384  0.00  0.00    -0.082 A 
ATOM      9  C7  UNL d   1       0.833  -0.405   0.723  0.00  0.00     0.045 A 
ENDROOT
TORSDOF 0
ENDMDL
