MODEL 1
REMARK minimizedAffinity 4.46150351
REMARK minimizedRMSD -1
REMARK  0 active torsions:
REMARK  status: ('A' for Active; 'I' for Inactive)
ROOT
ATOM      1  C   UNL d   1       2.368  -1.936   0.160  0.00  0.00    -0.002 A 
ATOM      2  C1  UNL d   1       1.527  -3.037   0.249  0.00  0.00     0.010 A 
ATOM      3  C2  UNL d   1       2.049  -4.332   0.245  0.00  0.00     0.041 A 
ATOM      4  C3  UNL d   1       3.444  -4.504   0.151  0.00  0.00    -0.075 A 
ATOM      5  S   UNL d   1       4.308  -5.996   0.128  0.00  0.00     0.015 SA
ATOM      6  C4  UNL d   1       5.814  -5.207   0.001  0.00  0.00     0.022 A 
ATOM      7  C5  UNL d   1       5.679  -3.839  -0.026  0.00  0.00     0.026 A 
ATOM      8  C6  UNL d   1       4.311  -3.411   0.060  0.00  0.00    -0.082 A 
ATOM      9  C7  UNL d   1       3.751  -2.111   0.066  0.00  0.00     0.045 A 
ENDROOT
TORSDOF 0
ENDMDL
