MODEL 1
REMARK minimizedAffinity -0.942379534
REMARK minimizedRMSD -1
REMARK  0 active torsions:
REMARK  status: ('A' for Active; 'I' for Inactive)
ROOT
ATOM      1  C   UNL d   1      -0.103  -2.163   0.371  0.00  0.00    -0.002 A 
ATOM      2  C1  UNL d   1       0.579  -0.957   0.446  0.00  0.00     0.010 A 
ATOM      3  C2  UNL d   1       1.972  -0.923   0.360  0.00  0.00     0.041 A 
ATOM      4  C3  UNL d   1       2.675  -2.133   0.192  0.00  0.00    -0.075 A 
ATOM      5  S   UNL d   1       4.382  -2.333   0.060  0.00  0.00     0.015 SA
ATOM      6  C4  UNL d   1       4.246  -4.025  -0.101  0.00  0.00     0.022 A 
ATOM      7  C5  UNL d   1       2.937  -4.443  -0.057  0.00  0.00     0.026 A 
ATOM      8  C6  UNL d   1       2.010  -3.359   0.112  0.00  0.00    -0.082 A 
ATOM      9  C7  UNL d   1       0.597  -3.361   0.204  0.00  0.00     0.045 A 
ENDROOT
TORSDOF 0
ENDMDL
