MODEL 1
REMARK minimizedAffinity 7.34183502
REMARK minimizedRMSD -1
REMARK  0 active torsions:
REMARK  status: ('A' for Active; 'I' for Inactive)
ROOT
ATOM      1  C2' OXE d   1      -1.495  -1.225   0.096  0.00  0.00     0.078 C 
ATOM      2  C1' OXE d   1      -3.207   0.852   0.891  0.00  0.00     0.078 C 
ATOM      3  C1  OXE d   1      -1.744   1.174   0.719  0.00  0.00    -0.078 A 
ATOM      4  C2  OXE d   1      -0.905   0.141   0.375  0.00  0.00    -0.078 A 
ATOM      5  C3  OXE d   1       0.445   0.394   0.151  0.00  0.00     0.003 A 
ATOM      6  C4  OXE d   1       0.983   1.658   0.421  0.00  0.00    -0.002 A 
ATOM      7  C5  OXE d   1       0.154   2.715   0.811  0.00  0.00    -0.002 A 
ATOM      8  C6  OXE d   1      -1.216   2.500   0.923  0.00  0.00     0.003 A 
ENDROOT
TORSDOF 0
ENDMDL
