MODEL 1
REMARK minimizedAffinity 0.65354234
REMARK minimizedRMSD -1
REMARK  0 active torsions:
REMARK  status: ('A' for Active; 'I' for Inactive)
ROOT
ATOM      1  C2' OXE d   1      -0.006   1.091  -4.897  0.00  0.00     0.078 C 
ATOM      2  C1' OXE d   1       0.404   2.648  -2.598  0.00  0.00     0.078 C 
ATOM      3  C1  OXE d   1      -0.294   3.293  -3.768  0.00  0.00    -0.078 A 
ATOM      4  C2  OXE d   1      -0.449   2.538  -4.906  0.00  0.00    -0.078 A 
ATOM      5  C3  OXE d   1      -1.135   3.067  -5.996  0.00  0.00     0.003 A 
ATOM      6  C4  OXE d   1      -1.533   4.409  -6.000  0.00  0.00    -0.002 A 
ATOM      7  C5  OXE d   1      -1.349   5.208  -4.866  0.00  0.00    -0.002 A 
ATOM      8  C6  OXE d   1      -0.771   4.654  -3.729  0.00  0.00     0.003 A 
ENDROOT
TORSDOF 0
ENDMDL
