MODEL 1
REMARK minimizedAffinity 5.52155256
REMARK minimizedRMSD -1
REMARK  0 active torsions:
REMARK  status: ('A' for Active; 'I' for Inactive)
ROOT
ATOM      1  C2' OXE d   1      -0.156   2.588   0.053  0.00  0.00     0.078 C 
ATOM      2  C1' OXE d   1       1.723   3.974   1.612  0.00  0.00     0.078 C 
ATOM      3  C1  OXE d   1       0.382   3.668   2.232  0.00  0.00    -0.078 A 
ATOM      4  C2  OXE d   1      -0.547   3.031   1.446  0.00  0.00    -0.078 A 
ATOM      5  C3  OXE d   1      -1.780   2.677   1.987  0.00  0.00     0.003 A 
ATOM      6  C4  OXE d   1      -2.138   3.100   3.272  0.00  0.00    -0.002 A 
ATOM      7  C5  OXE d   1      -1.220   3.785   4.076  0.00  0.00    -0.002 A 
ATOM      8  C6  OXE d   1       0.056   4.039   3.587  0.00  0.00     0.003 A 
ENDROOT
TORSDOF 0
ENDMDL
