MODEL 1
REMARK minimizedAffinity 2.50360656
REMARK minimizedRMSD -1
REMARK  0 active torsions:
REMARK  status: ('A' for Active; 'I' for Inactive)
ROOT
ATOM      1  C2' OXE d   1      -1.513   2.672   3.999  0.00  0.00     0.078 C 
ATOM      2  C1' OXE d   1      -1.111   3.613   1.384  0.00  0.00     0.078 C 
ATOM      3  C1  OXE d   1      -1.722   2.244   1.554  0.00  0.00    -0.078 A 
ATOM      4  C2  OXE d   1      -1.872   1.773   2.836  0.00  0.00    -0.078 A 
ATOM      5  C3  OXE d   1      -2.481   0.539   3.050  0.00  0.00     0.003 A 
ATOM      6  C4  OXE d   1      -2.801  -0.291   1.968  0.00  0.00    -0.002 A 
ATOM      7  C5  OXE d   1      -2.619   0.154   0.654  0.00  0.00    -0.002 A 
ATOM      8  C6  OXE d   1      -2.122   1.433   0.430  0.00  0.00     0.003 A 
ENDROOT
TORSDOF 0
ENDMDL
