MODEL 1
REMARK minimizedAffinity -4.92575359
REMARK minimizedRMSD -1
REMARK  0 active torsions:
REMARK  status: ('A' for Active; 'I' for Inactive)
ROOT
ATOM      1  C2' OXE d   1      -0.533  -2.749   0.049  0.00  0.00     0.078 C 
ATOM      2  C1' OXE d   1      -0.710  -0.199   1.208  0.00  0.00     0.078 C 
ATOM      3  C1  OXE d   1       0.356  -0.425   0.164  0.00  0.00    -0.078 A 
ATOM      4  C2  OXE d   1       0.465  -1.689  -0.363  0.00  0.00    -0.078 A 
ATOM      5  C3  OXE d   1       1.395  -1.939  -1.369  0.00  0.00     0.003 A 
ATOM      6  C4  OXE d   1       2.322  -0.955  -1.737  0.00  0.00    -0.002 A 
ATOM      7  C5  OXE d   1       2.254   0.327  -1.183  0.00  0.00    -0.002 A 
ATOM      8  C6  OXE d   1       1.252   0.620  -0.264  0.00  0.00     0.003 A 
ENDROOT
TORSDOF 0
ENDMDL
