MODEL 1
REMARK minimizedAffinity 2.14298916
REMARK minimizedRMSD -1
REMARK  0 active torsions:
REMARK  status: ('A' for Active; 'I' for Inactive)
ROOT
ATOM      1  C2' OXE d   1       3.382  -3.143  -3.350  0.00  0.00     0.078 C 
ATOM      2  C1' OXE d   1       3.389  -5.909  -2.869  0.00  0.00     0.078 C 
ATOM      3  C1  OXE d   1       2.053  -5.219  -2.989  0.00  0.00    -0.078 A 
ATOM      4  C2  OXE d   1       2.059  -3.858  -3.178  0.00  0.00    -0.078 A 
ATOM      5  C3  OXE d   1       0.855  -3.181  -3.351  0.00  0.00     0.003 A 
ATOM      6  C4  OXE d   1      -0.364  -3.848  -3.180  0.00  0.00    -0.002 A 
ATOM      7  C5  OXE d   1      -0.392  -5.227  -2.948  0.00  0.00    -0.002 A 
ATOM      8  C6  OXE d   1       0.804  -5.933  -2.892  0.00  0.00     0.003 A 
ENDROOT
TORSDOF 0
ENDMDL
