MODEL 1
REMARK minimizedAffinity 1.50253224
REMARK minimizedRMSD -1
REMARK  0 active torsions:
REMARK  status: ('A' for Active; 'I' for Inactive)
ROOT
ATOM      1  C2' OXE d   1       2.457   0.898  -2.029  0.00  0.00     0.078 C 
ATOM      2  C1' OXE d   1       0.033   1.974  -2.950  0.00  0.00     0.078 C 
ATOM      3  C1  OXE d   1       0.027   1.264  -1.619  0.00  0.00    -0.078 A 
ATOM      4  C2  OXE d   1       1.208   0.700  -1.199  0.00  0.00    -0.078 A 
ATOM      5  C3  OXE d   1       1.271   0.081   0.047  0.00  0.00     0.003 A 
ATOM      6  C4  OXE d   1       0.108  -0.107   0.804  0.00  0.00    -0.002 A 
ATOM      7  C5  OXE d   1      -1.113   0.424   0.375  0.00  0.00    -0.002 A 
ATOM      8  C6  OXE d   1      -1.161   1.148  -0.811  0.00  0.00     0.003 A 
ENDROOT
TORSDOF 0
ENDMDL
