MODEL 1
REMARK minimizedAffinity 2.17829013
REMARK minimizedRMSD -1
REMARK  0 active torsions:
REMARK  status: ('A' for Active; 'I' for Inactive)
ROOT
ATOM      1  C2' OXE d   1       0.964   2.580  -5.068  0.00  0.00     0.078 C 
ATOM      2  C1' OXE d   1       2.471   1.705  -2.868  0.00  0.00     0.078 C 
ATOM      3  C1  OXE d   1       3.169   2.542  -3.910  0.00  0.00    -0.078 A 
ATOM      4  C2  OXE d   1       2.436   2.927  -5.006  0.00  0.00    -0.078 A 
ATOM      5  C3  OXE d   1       3.016   3.747  -5.971  0.00  0.00     0.003 A 
ATOM      6  C4  OXE d   1       4.381   4.055  -5.911  0.00  0.00    -0.002 A 
ATOM      7  C5  OXE d   1       5.155   3.640  -4.823  0.00  0.00    -0.002 A 
ATOM      8  C6  OXE d   1       4.556   2.921  -3.794  0.00  0.00     0.003 A 
ENDROOT
TORSDOF 0
ENDMDL
