MODEL 1
REMARK minimizedAffinity -1.80542004
REMARK minimizedRMSD -1
REMARK  0 active torsions:
REMARK  status: ('A' for Active; 'I' for Inactive)
ROOT
ATOM      1  C2' OXE d   1      -3.850   5.935  -5.377  0.00  0.00     0.078 C 
ATOM      2  C1' OXE d   1      -4.892   3.379  -5.887  0.00  0.00     0.078 C 
ATOM      3  C1  OXE d   1      -3.392   3.528  -5.829  0.00  0.00    -0.078 A 
ATOM      4  C2  OXE d   1      -2.890   4.791  -5.626  0.00  0.00    -0.078 A 
ATOM      5  C3  OXE d   1      -1.516   4.976  -5.509  0.00  0.00     0.003 A 
ATOM      6  C4  OXE d   1      -0.635   3.915  -5.750  0.00  0.00    -0.002 A 
ATOM      7  C5  OXE d   1      -1.124   2.628  -5.998  0.00  0.00    -0.002 A 
ATOM      8  C6  OXE d   1      -2.498   2.410  -5.999  0.00  0.00     0.003 A 
ENDROOT
TORSDOF 0
ENDMDL
