MODEL 1
REMARK minimizedAffinity -0.0253678244
REMARK minimizedRMSD -1
REMARK  0 active torsions:
REMARK  status: ('A' for Active; 'I' for Inactive)
ROOT
ATOM      1  C2' OXE d   1      -0.825  -1.060  -0.115  0.00  0.00     0.078 C 
ATOM      2  C1' OXE d   1      -2.393   1.094   0.768  0.00  0.00     0.078 C 
ATOM      3  C1  OXE d   1      -0.895   1.216   0.894  0.00  0.00    -0.078 A 
ATOM      4  C2  OXE d   1      -0.137   0.138   0.502  0.00  0.00    -0.078 A 
ATOM      5  C3  OXE d   1       1.251   0.219   0.546  0.00  0.00     0.003 A 
ATOM      6  C4  OXE d   1       1.879   1.327   1.128  0.00  0.00    -0.002 A 
ATOM      7  C5  OXE d   1       1.125   2.419   1.570  0.00  0.00    -0.002 A 
ATOM      8  C6  OXE d   1      -0.258   2.398   1.421  0.00  0.00     0.003 A 
ENDROOT
TORSDOF 0
ENDMDL
