MODEL 1
REMARK minimizedAffinity 1.37251353
REMARK minimizedRMSD -1
REMARK  0 active torsions:
REMARK  status: ('A' for Active; 'I' for Inactive)
ROOT
ATOM      1  C2' OXE d   1       1.516  -0.351   0.503  0.00  0.00     0.078 C 
ATOM      2  C1' OXE d   1       1.709   2.171   1.720  0.00  0.00     0.078 C 
ATOM      3  C1  OXE d   1       0.340   1.695   1.302  0.00  0.00    -0.078 A 
ATOM      4  C2  OXE d   1       0.261   0.480   0.665  0.00  0.00    -0.078 A 
ATOM      5  C3  OXE d   1      -0.983  -0.031   0.307  0.00  0.00     0.003 A 
ATOM      6  C4  OXE d   1      -2.137   0.748   0.450  0.00  0.00    -0.002 A 
ATOM      7  C5  OXE d   1      -2.074   2.005   1.061  0.00  0.00    -0.002 A 
ATOM      8  C6  OXE d   1      -0.852   2.474   1.529  0.00  0.00     0.003 A 
ENDROOT
TORSDOF 0
ENDMDL
