MODEL 1
REMARK minimizedAffinity 2.26777911
REMARK minimizedRMSD -1
REMARK  0 active torsions:
REMARK  status: ('A' for Active; 'I' for Inactive)
ROOT
ATOM      1  C2' OXE d   1      -0.612  -1.603   0.746  0.00  0.00     0.078 C 
ATOM      2  C1' OXE d   1       1.530   0.181   0.421  0.00  0.00     0.078 C 
ATOM      3  C1  OXE d   1       0.202   0.748   0.857  0.00  0.00    -0.078 A 
ATOM      4  C2  OXE d   1      -0.852  -0.126   0.968  0.00  0.00    -0.078 A 
ATOM      5  C3  OXE d   1      -2.086   0.336   1.419  0.00  0.00     0.003 A 
ATOM      6  C4  OXE d   1      -2.302   1.706   1.613  0.00  0.00    -0.002 A 
ATOM      7  C5  OXE d   1      -1.252   2.618   1.467  0.00  0.00    -0.002 A 
ATOM      8  C6  OXE d   1       0.014   2.152   1.131  0.00  0.00     0.003 A 
ENDROOT
TORSDOF 0
ENDMDL
