MODEL 1
REMARK minimizedAffinity 2.7323451
REMARK minimizedRMSD -1
REMARK  0 active torsions:
REMARK  status: ('A' for Active; 'I' for Inactive)
ROOT
ATOM      1  C2' OXE d   1       2.066  -0.374   0.443  0.00  0.00     0.078 C 
ATOM      2  C1' OXE d   1       2.446   2.184   1.536  0.00  0.00     0.078 C 
ATOM      3  C1  OXE d   1       1.049   1.798   1.119  0.00  0.00    -0.078 A 
ATOM      4  C2  OXE d   1       0.880   0.562   0.542  0.00  0.00    -0.078 A 
ATOM      5  C3  OXE d   1      -0.397   0.134   0.189  0.00  0.00     0.003 A 
ATOM      6  C4  OXE d   1      -1.486   1.010   0.275  0.00  0.00    -0.002 A 
ATOM      7  C5  OXE d   1      -1.329   2.287   0.823  0.00  0.00    -0.002 A 
ATOM      8  C6  OXE d   1      -0.079   2.680   1.288  0.00  0.00     0.003 A 
ENDROOT
TORSDOF 0
ENDMDL
