MODEL 1
REMARK minimizedAffinity 1.0521934
REMARK minimizedRMSD -1
REMARK  0 active torsions:
REMARK  status: ('A' for Active; 'I' for Inactive)
ROOT
ATOM      1  C2' OXE d   1      -0.753  -1.141   0.547  0.00  0.00     0.078 C 
ATOM      2  C1' OXE d   1      -2.660   0.909   0.748  0.00  0.00     0.078 C 
ATOM      3  C1  OXE d   1      -1.219   1.260   1.021  0.00  0.00    -0.078 A 
ATOM      4  C2  OXE d   1      -0.299   0.241   0.966  0.00  0.00    -0.078 A 
ATOM      5  C3  OXE d   1       1.052   0.520   1.156  0.00  0.00     0.003 A 
ATOM      6  C4  OXE d   1       1.462   1.799   1.553  0.00  0.00    -0.002 A 
ATOM      7  C5  OXE d   1       0.535   2.842   1.654  0.00  0.00    -0.002 A 
ATOM      8  C6  OXE d   1      -0.800   2.600   1.351  0.00  0.00     0.003 A 
ENDROOT
TORSDOF 0
ENDMDL
