MODEL 1
REMARK minimizedAffinity 0.207113668
REMARK minimizedRMSD -1
REMARK  0 active torsions:
REMARK  status: ('A' for Active; 'I' for Inactive)
ROOT
ATOM      1  C2' OXE d   1      -0.383   3.248   0.829  0.00  0.00     0.078 C 
ATOM      2  C1' OXE d   1       1.733   1.403   0.801  0.00  0.00     0.078 C 
ATOM      3  C1  OXE d   1       0.326   0.860   0.855  0.00  0.00    -0.078 A 
ATOM      4  C2  OXE d   1      -0.701   1.770   0.916  0.00  0.00    -0.078 A 
ATOM      5  C3  OXE d   1      -2.019   1.323   0.912  0.00  0.00     0.003 A 
ATOM      6  C4  OXE d   1      -2.304  -0.045   1.002  0.00  0.00    -0.002 A 
ATOM      7  C5  OXE d   1      -1.271  -0.988   0.981  0.00  0.00    -0.002 A 
ATOM      8  C6  OXE d   1       0.045  -0.554   0.865  0.00  0.00     0.003 A 
ENDROOT
TORSDOF 0
ENDMDL
