MODEL 1
REMARK minimizedAffinity 3.84460139
REMARK minimizedRMSD -1
REMARK  0 active torsions:
REMARK  status: ('A' for Active; 'I' for Inactive)
ROOT
ATOM      1  C2' OXE d   1       1.714   0.289   0.890  0.00  0.00     0.078 C 
ATOM      2  C1' OXE d   1       1.666   2.571   2.524  0.00  0.00     0.078 C 
ATOM      3  C1  OXE d   1       0.368   2.129   1.894  0.00  0.00    -0.078 A 
ATOM      4  C2  OXE d   1       0.410   1.039   1.059  0.00  0.00    -0.078 A 
ATOM      5  C3  OXE d   1      -0.768   0.556   0.496  0.00  0.00     0.003 A 
ATOM      6  C4  OXE d   1      -1.968   1.261   0.649  0.00  0.00    -0.002 A 
ATOM      7  C5  OXE d   1      -2.024   2.397   1.464  0.00  0.00    -0.002 A 
ATOM      8  C6  OXE d   1      -0.877   2.819   2.126  0.00  0.00     0.003 A 
ENDROOT
TORSDOF 0
ENDMDL
