MODEL 1
REMARK minimizedAffinity 3.68282986
REMARK minimizedRMSD -1
REMARK  0 active torsions:
REMARK  status: ('A' for Active; 'I' for Inactive)
ROOT
ATOM      1  C2' OXE d   1      -0.887  -1.723   0.304  0.00  0.00     0.078 C 
ATOM      2  C1' OXE d   1       1.431  -0.139   0.278  0.00  0.00     0.078 C 
ATOM      3  C1  OXE d   1       0.135   0.517   0.686  0.00  0.00    -0.078 A 
ATOM      4  C2  OXE d   1      -1.002  -0.254   0.650  0.00  0.00    -0.078 A 
ATOM      5  C3  OXE d   1      -2.215   0.287   1.069  0.00  0.00     0.003 A 
ATOM      6  C4  OXE d   1      -2.315   1.649   1.378  0.00  0.00    -0.002 A 
ATOM      7  C5  OXE d   1      -1.176   2.461   1.382  0.00  0.00    -0.002 A 
ATOM      8  C6  OXE d   1       0.061   1.902   1.080  0.00  0.00     0.003 A 
ENDROOT
TORSDOF 0
ENDMDL
