MODEL 1
REMARK minimizedAffinity -0.0292076655
REMARK minimizedRMSD -1
REMARK  0 active torsions:
REMARK  status: ('A' for Active; 'I' for Inactive)
ROOT
ATOM      1  C2' OXE d   1      -2.290   2.998  -5.961  0.00  0.00     0.078 C 
ATOM      2  C1' OXE d   1      -2.155   5.802  -5.998  0.00  0.00     0.078 C 
ATOM      3  C1  OXE d   1      -3.521   5.164  -5.967  0.00  0.00    -0.078 A 
ATOM      4  C2  OXE d   1      -3.579   3.791  -5.996  0.00  0.00    -0.078 A 
ATOM      5  C3  OXE d   1      -4.812   3.151  -5.914  0.00  0.00     0.003 A 
ATOM      6  C4  OXE d   1      -5.999   3.892  -5.957  0.00  0.00    -0.002 A 
ATOM      7  C5  OXE d   1      -5.963   5.290  -5.968  0.00  0.00    -0.002 A 
ATOM      8  C6  OXE d   1      -4.735   5.941  -5.930  0.00  0.00     0.003 A 
ENDROOT
TORSDOF 0
ENDMDL
