MODEL 1
REMARK minimizedAffinity 4.04314327
REMARK minimizedRMSD -1
REMARK  2 active torsions:
REMARK  status: ('A' for Active; 'I' for Inactive)
REMARK    1  A    between atoms: C1_2  and  C2_3 
REMARK    2  A    between atoms: C2_3  and  C3_4 
ROOT
ATOM      1  C3  UNL d   1      -1.228  -0.128   0.665  0.00  0.00    -0.075 A 
ATOM      2  C4  UNL d   1      -2.039   0.751  -0.068  0.00  0.00     0.002 A 
ATOM      3  C5  UNL d   1      -2.018   2.121   0.195  0.00  0.00     0.002 A 
ATOM      4  C6  UNL d   1      -1.196   2.628   1.199  0.00  0.00    -0.004 A 
ATOM      5  C7  UNL d   1      -0.399   1.762   1.945  0.00  0.00     0.002 A 
ATOM      6  C8  UNL d   1      -0.414   0.391   1.680  0.00  0.00     0.002 A 
ENDROOT
BRANCH   1   7
ATOM      7  C2  UNL d   1      -1.223  -1.608   0.365  0.00  0.00     0.056 C 
BRANCH   7   8
ATOM      8  C1  UNL d   1      -1.308  -1.942  -1.129  0.00  0.00     0.007 C 
ATOM      9  C   UNL d   1      -2.107  -3.206  -1.417  0.00  0.00     0.009 C 
ENDBRANCH   7   8
ENDBRANCH   1   7
TORSDOF 2
ENDMDL
