MODEL 1
REMARK minimizedAffinity -3.76544738
REMARK minimizedRMSD -1
REMARK  2 active torsions:
REMARK  status: ('A' for Active; 'I' for Inactive)
REMARK    1  A    between atoms: C1_2  and  C2_3 
REMARK    2  A    between atoms: C2_3  and  C3_4 
ROOT
ATOM      1  C3  UNL d   1      -0.209  -0.288   0.244  0.00  0.00    -0.075 A 
ATOM      2  C4  UNL d   1      -1.290   0.604   0.307  0.00  0.00     0.002 A 
ATOM      3  C5  UNL d   1      -1.099   1.921   0.726  0.00  0.00     0.002 A 
ATOM      4  C6  UNL d   1       0.171   2.360   1.096  0.00  0.00    -0.004 A 
ATOM      5  C7  UNL d   1       1.249   1.478   1.053  0.00  0.00     0.002 A 
ATOM      6  C8  UNL d   1       1.061   0.161   0.630  0.00  0.00     0.002 A 
ENDROOT
BRANCH   1   7
ATOM      7  C2  UNL d   1      -0.404  -1.706  -0.236  0.00  0.00     0.056 C 
BRANCH   7   8
ATOM      8  C1  UNL d   1      -0.392  -1.855  -1.761  0.00  0.00     0.007 C 
ATOM      9  C   UNL d   1      -0.900  -3.210  -2.236  0.00  0.00     0.009 C 
ENDBRANCH   7   8
ENDBRANCH   1   7
TORSDOF 2
ENDMDL
