MODEL 1
REMARK minimizedAffinity -3.07309532
REMARK minimizedRMSD -1
REMARK  2 active torsions:
REMARK  status: ('A' for Active; 'I' for Inactive)
REMARK    1  A    between atoms: C1_2  and  C2_3 
REMARK    2  A    between atoms: C2_3  and  C3_4 
ROOT
ATOM      1  C3  UNL d   1      -0.146   1.570   0.579  0.00  0.00    -0.075 A 
ATOM      2  C4  UNL d   1       0.912   0.706   0.260  0.00  0.00     0.002 A 
ATOM      3  C5  UNL d   1       2.207   1.200   0.102  0.00  0.00     0.002 A 
ATOM      4  C6  UNL d   1       2.459   2.562   0.251  0.00  0.00    -0.004 A 
ATOM      5  C7  UNL d   1       1.413   3.432   0.551  0.00  0.00     0.002 A 
ATOM      6  C8  UNL d   1       0.117   2.940   0.714  0.00  0.00     0.002 A 
ENDROOT
BRANCH   1   7
ATOM      7  C2  UNL d   1      -1.544   1.037   0.780  0.00  0.00     0.056 C 
BRANCH   7   8
ATOM      8  C1  UNL d   1      -1.601  -0.301   1.524  0.00  0.00     0.007 C 
ATOM      9  C   UNL d   1      -2.869  -0.476   2.349  0.00  0.00     0.009 C 
ENDBRANCH   7   8
ENDBRANCH   1   7
TORSDOF 2
ENDMDL
