MODEL 1
REMARK minimizedAffinity -4.82253504
REMARK minimizedRMSD -1
REMARK  2 active torsions:
REMARK  status: ('A' for Active; 'I' for Inactive)
REMARK    1  A    between atoms: C1_2  and  C2_3 
REMARK    2  A    between atoms: C2_3  and  C3_4 
ROOT
ATOM      1  C3  UNL d   1       0.020  -1.892  -0.334  0.00  0.00    -0.075 A 
ATOM      2  C4  UNL d   1       0.293  -1.649  -1.688  0.00  0.00     0.002 A 
ATOM      3  C5  UNL d   1      -0.141  -2.542  -2.669  0.00  0.00     0.002 A 
ATOM      4  C6  UNL d   1      -0.843  -3.690  -2.309  0.00  0.00    -0.004 A 
ATOM      5  C7  UNL d   1      -1.105  -3.949  -0.965  0.00  0.00     0.002 A 
ATOM      6  C8  UNL d   1      -0.676  -3.056   0.018  0.00  0.00     0.002 A 
ENDROOT
BRANCH   1   7
ATOM      7  C2  UNL d   1       0.461  -0.915   0.730  0.00  0.00     0.056 C 
BRANCH   7   8
ATOM      8  C1  UNL d   1       1.692  -0.087   0.345  0.00  0.00     0.007 C 
ATOM      9  C   UNL d   1       3.004  -0.831   0.551  0.00  0.00     0.009 C 
ENDBRANCH   7   8
ENDBRANCH   1   7
TORSDOF 2
ENDMDL
