MODEL 1
REMARK minimizedAffinity -4.4832201
REMARK minimizedRMSD -1
REMARK  2 active torsions:
REMARK  status: ('A' for Active; 'I' for Inactive)
REMARK    1  A    between atoms: C1_2  and  C2_3 
REMARK    2  A    between atoms: C2_3  and  C3_4 
ROOT
ATOM      1  C3  UNL d   1       0.380  -0.297   0.401  0.00  0.00    -0.075 A 
ATOM      2  C4  UNL d   1       1.405   0.608   0.713  0.00  0.00     0.002 A 
ATOM      3  C5  UNL d   1       1.129   1.968   0.858  0.00  0.00     0.002 A 
ATOM      4  C6  UNL d   1      -0.170   2.440   0.683  0.00  0.00    -0.004 A 
ATOM      5  C7  UNL d   1      -1.193   1.552   0.357  0.00  0.00     0.002 A 
ATOM      6  C8  UNL d   1      -0.920   0.191   0.216  0.00  0.00     0.002 A 
ENDROOT
BRANCH   1   7
ATOM      7  C2  UNL d   1       0.667  -1.774   0.272  0.00  0.00     0.056 C 
BRANCH   7   8
ATOM      8  C1  UNL d   1      -0.479  -2.581  -0.348  0.00  0.00     0.007 C 
ATOM      9  C   UNL d   1      -0.101  -3.245  -1.665  0.00  0.00     0.009 C 
ENDBRANCH   7   8
ENDBRANCH   1   7
TORSDOF 2
ENDMDL
