MODEL 1
REMARK minimizedAffinity -4.138762
REMARK minimizedRMSD -1
REMARK  2 active torsions:
REMARK  status: ('A' for Active; 'I' for Inactive)
REMARK    1  A    between atoms: C1_2  and  C2_3 
REMARK    2  A    between atoms: C2_3  and  C3_4 
ROOT
ATOM      1  C3  UNL d   1      -0.123   1.251   0.675  0.00  0.00    -0.075 A 
ATOM      2  C4  UNL d   1      -1.196   0.355   0.782  0.00  0.00     0.002 A 
ATOM      3  C5  UNL d   1      -0.973  -1.022   0.770  0.00  0.00     0.002 A 
ATOM      4  C6  UNL d   1       0.322  -1.520   0.641  0.00  0.00    -0.004 A 
ATOM      5  C7  UNL d   1       1.394  -0.639   0.517  0.00  0.00     0.002 A 
ATOM      6  C8  UNL d   1       1.174   0.739   0.533  0.00  0.00     0.002 A 
ENDROOT
BRANCH   1   7
ATOM      7  C2  UNL d   1      -0.354   2.743   0.717  0.00  0.00     0.056 C 
BRANCH   7   8
ATOM      8  C1  UNL d   1       0.815   3.539   1.306  0.00  0.00     0.007 C 
ATOM      9  C   UNL d   1       1.365   4.592   0.352  0.00  0.00     0.009 C 
ENDBRANCH   7   8
ENDBRANCH   1   7
TORSDOF 2
ENDMDL
