MODEL 1
REMARK minimizedAffinity -3.5272882
REMARK minimizedRMSD -1
REMARK  2 active torsions:
REMARK  status: ('A' for Active; 'I' for Inactive)
REMARK    1  A    between atoms: C1_2  and  C2_3 
REMARK    2  A    between atoms: C2_3  and  C3_4 
ROOT
ATOM      1  C3  UNL d   1       0.004  -0.973   0.091  0.00  0.00    -0.075 A 
ATOM      2  C4  UNL d   1      -0.832   0.142   0.250  0.00  0.00     0.002 A 
ATOM      3  C5  UNL d   1      -0.300   1.380   0.613  0.00  0.00     0.002 A 
ATOM      4  C6  UNL d   1       1.069   1.516   0.832  0.00  0.00    -0.004 A 
ATOM      5  C7  UNL d   1       1.906   0.411   0.694  0.00  0.00     0.002 A 
ATOM      6  C8  UNL d   1       1.377  -0.827   0.326  0.00  0.00     0.002 A 
ENDROOT
BRANCH   1   7
ATOM      7  C2  UNL d   1      -0.562  -2.308  -0.331  0.00  0.00     0.056 C 
BRANCH   7   8
ATOM      8  C1  UNL d   1      -0.261  -2.681  -1.786  0.00  0.00     0.007 C 
ATOM      9  C   UNL d   1      -1.020  -3.913  -2.260  0.00  0.00     0.009 C 
ENDBRANCH   7   8
ENDBRANCH   1   7
TORSDOF 2
ENDMDL
