MODEL 1
REMARK minimizedAffinity -5.03358078
REMARK minimizedRMSD -1
REMARK  2 active torsions:
REMARK  status: ('A' for Active; 'I' for Inactive)
REMARK    1  A    between atoms: C1_2  and  C2_3 
REMARK    2  A    between atoms: C2_3  and  C3_4 
ROOT
ATOM      1  C3  UNL d   1       1.013   0.922  -0.599  0.00  0.00    -0.075 A 
ATOM      2  C4  UNL d   1       0.055   1.945  -0.626  0.00  0.00     0.002 A 
ATOM      3  C5  UNL d   1       0.364   3.217  -0.142  0.00  0.00     0.002 A 
ATOM      4  C6  UNL d   1       1.628   3.478   0.382  0.00  0.00    -0.004 A 
ATOM      5  C7  UNL d   1       2.582   2.464   0.429  0.00  0.00     0.002 A 
ATOM      6  C8  UNL d   1       2.277   1.192  -0.058  0.00  0.00     0.002 A 
ENDROOT
BRANCH   1   7
ATOM      7  C2  UNL d   1       0.695  -0.449  -1.148  0.00  0.00     0.056 C 
BRANCH   7   8
ATOM      8  C1  UNL d   1       1.553  -0.854  -2.351  0.00  0.00     0.007 C 
ATOM      9  C   UNL d   1       1.096  -2.150  -3.006  0.00  0.00     0.009 C 
ENDBRANCH   7   8
ENDBRANCH   1   7
TORSDOF 2
ENDMDL
