MODEL 1
REMARK minimizedAffinity -6.31995726
REMARK minimizedRMSD -1
REMARK  2 active torsions:
REMARK  status: ('A' for Active; 'I' for Inactive)
REMARK    1  A    between atoms: C1_2  and  C2_3 
REMARK    2  A    between atoms: C2_3  and  C3_4 
ROOT
ATOM      1  C3  UNL d   1       0.467   1.094   0.420  0.00  0.00    -0.075 A 
ATOM      2  C4  UNL d   1       1.840   1.011   0.149  0.00  0.00     0.002 A 
ATOM      3  C5  UNL d   1       2.457  -0.230  -0.013  0.00  0.00     0.002 A 
ATOM      4  C6  UNL d   1       1.712  -1.402   0.105  0.00  0.00    -0.004 A 
ATOM      5  C7  UNL d   1       0.351  -1.332   0.392  0.00  0.00     0.002 A 
ATOM      6  C8  UNL d   1      -0.270  -0.092   0.549  0.00  0.00     0.002 A 
ENDROOT
BRANCH   1   7
ATOM      7  C2  UNL d   1      -0.212   2.434   0.567  0.00  0.00     0.056 C 
BRANCH   7   8
ATOM      8  C1  UNL d   1       0.173   3.450  -0.514  0.00  0.00     0.007 C 
ATOM      9  C   UNL d   1       1.269   4.410  -0.072  0.00  0.00     0.009 C 
ENDBRANCH   7   8
ENDBRANCH   1   7
TORSDOF 2
ENDMDL
