MODEL 1
REMARK minimizedAffinity 0.493165314
REMARK minimizedRMSD -1
REMARK  2 active torsions:
REMARK  status: ('A' for Active; 'I' for Inactive)
REMARK    1  A    between atoms: C1_2  and  C2_3 
REMARK    2  A    between atoms: C2_3  and  C3_4 
ROOT
ATOM      1  C3  UNL d   1      -0.119  -2.334  -0.713  0.00  0.00    -0.075 A 
ATOM      2  C4  UNL d   1       0.753  -2.613  -1.775  0.00  0.00     0.002 A 
ATOM      3  C5  UNL d   1       0.300  -3.301  -2.902  0.00  0.00     0.002 A 
ATOM      4  C6  UNL d   1      -1.024  -3.726  -2.976  0.00  0.00    -0.004 A 
ATOM      5  C7  UNL d   1      -1.895  -3.470  -1.920  0.00  0.00     0.002 A 
ATOM      6  C8  UNL d   1      -1.446  -2.778  -0.793  0.00  0.00     0.002 A 
ENDROOT
BRANCH   1   7
ATOM      7  C2  UNL d   1       0.357  -1.565   0.496  0.00  0.00     0.056 C 
BRANCH   7   8
ATOM      8  C1  UNL d   1       1.450  -0.536   0.189  0.00  0.00     0.007 C 
ATOM      9  C   UNL d   1       2.858  -1.108   0.288  0.00  0.00     0.009 C 
ENDBRANCH   7   8
ENDBRANCH   1   7
TORSDOF 2
ENDMDL
