MODEL 1
REMARK minimizedAffinity -4.06190538
REMARK minimizedRMSD -1
REMARK  2 active torsions:
REMARK  status: ('A' for Active; 'I' for Inactive)
REMARK    1  A    between atoms: C1_2  and  C2_3 
REMARK    2  A    between atoms: C2_3  and  C3_4 
ROOT
ATOM      1  C3  UNL d   1      -0.015   0.143   0.326  0.00  0.00    -0.075 A 
ATOM      2  C4  UNL d   1      -0.740   1.340   0.422  0.00  0.00     0.002 A 
ATOM      3  C5  UNL d   1      -0.090   2.571   0.331  0.00  0.00     0.002 A 
ATOM      4  C6  UNL d   1       1.291   2.622   0.154  0.00  0.00    -0.004 A 
ATOM      5  C7  UNL d   1       2.023   1.439   0.074  0.00  0.00     0.002 A 
ATOM      6  C8  UNL d   1       1.374   0.206   0.160  0.00  0.00     0.002 A 
ENDROOT
BRANCH   1   7
ATOM      7  C2  UNL d   1      -0.717  -1.192   0.394  0.00  0.00     0.056 C 
BRANCH   7   8
ATOM      8  C1  UNL d   1      -0.346  -2.150  -0.743  0.00  0.00     0.007 C 
ATOM      9  C   UNL d   1      -1.486  -3.077  -1.142  0.00  0.00     0.009 C 
ENDBRANCH   7   8
ENDBRANCH   1   7
TORSDOF 2
ENDMDL
