MODEL 1
REMARK minimizedAffinity 2.7627387
REMARK minimizedRMSD -1
REMARK  0 active torsions:
REMARK  status: ('A' for Active; 'I' for Inactive)
ROOT
ATOM      1  C   UNL d   1      -1.018   3.271   1.921  0.00  0.00     0.020 A 
ATOM      2  C1  UNL d   1      -0.955   3.317   0.529  0.00  0.00     0.020 A 
ATOM      3  C2  UNL d   1      -0.327   2.289  -0.176  0.00  0.00     0.034 A 
ATOM      4  C3  UNL d   1       0.240   1.209   0.511  0.00  0.00     0.017 A 
ATOM      5  C4  UNL d   1       0.176   1.163   1.908  0.00  0.00     0.017 A 
ATOM      6  C5  UNL d   1      -0.454   2.195   2.609  0.00  0.00     0.034 A 
ATOM      7 Cl   UNL d   1       0.852  -0.137   2.825  0.00  0.00    -0.070 Cl
ATOM      8 Cl1  UNL d   1       1.001  -0.029  -0.426  0.00  0.00    -0.070 Cl
ENDROOT
TORSDOF 0
ENDMDL
