MODEL 1
REMARK minimizedAffinity 6.52627563
REMARK minimizedRMSD -1
REMARK  0 active torsions:
REMARK  status: ('A' for Active; 'I' for Inactive)
ROOT
ATOM      1  C   UNL d   1      -1.171   4.126  -1.850  0.00  0.00     0.020 A 
ATOM      2  C1  UNL d   1      -1.675   4.617  -0.646  0.00  0.00     0.020 A 
ATOM      3  C2  UNL d   1      -1.532   3.871   0.526  0.00  0.00     0.034 A 
ATOM      4  C3  UNL d   1      -0.884   2.631   0.497  0.00  0.00     0.017 A 
ATOM      5  C4  UNL d   1      -0.378   2.139  -0.712  0.00  0.00     0.017 A 
ATOM      6  C5  UNL d   1      -0.524   2.890  -1.883  0.00  0.00     0.034 A 
ATOM      7 Cl   UNL d   1       0.433   0.618  -0.827  0.00  0.00    -0.070 Cl
ATOM      8 Cl1  UNL d   1      -0.742   1.763   1.984  0.00  0.00    -0.070 Cl
ENDROOT
TORSDOF 0
ENDMDL
