MODEL 1
REMARK minimizedAffinity 6.07043839
REMARK minimizedRMSD -1
REMARK  0 active torsions:
REMARK  status: ('A' for Active; 'I' for Inactive)
ROOT
ATOM      1  C   UNL d   1      -0.673   2.571  -1.820  0.00  0.00     0.020 A 
ATOM      2  C1  UNL d   1      -0.017   1.543  -1.144  0.00  0.00     0.020 A 
ATOM      3  C2  UNL d   1       0.023   1.541   0.252  0.00  0.00     0.034 A 
ATOM      4  C3  UNL d   1      -0.593   2.568   0.976  0.00  0.00     0.017 A 
ATOM      5  C4  UNL d   1      -1.251   3.599   0.296  0.00  0.00     0.017 A 
ATOM      6  C5  UNL d   1      -1.289   3.597  -1.102  0.00  0.00     0.034 A 
ATOM      7 Cl   UNL d   1      -2.035   4.900   1.121  0.00  0.00    -0.070 Cl
ATOM      8 Cl1  UNL d   1      -0.504   2.501   2.700  0.00  0.00    -0.070 Cl
ENDROOT
TORSDOF 0
ENDMDL
