MODEL 1
REMARK minimizedAffinity 5.53843212
REMARK minimizedRMSD -1
REMARK  0 active torsions:
REMARK  status: ('A' for Active; 'I' for Inactive)
ROOT
ATOM      1  C   UNL d   1      -0.584   1.269   1.279  0.00  0.00     0.020 A 
ATOM      2  C1  UNL d   1      -0.416   1.217   2.663  0.00  0.00     0.020 A 
ATOM      3  C2  UNL d   1       0.537   0.361   3.218  0.00  0.00     0.034 A 
ATOM      4  C3  UNL d   1       1.325  -0.448   2.391  0.00  0.00     0.017 A 
ATOM      5  C4  UNL d   1       1.155  -0.395   1.003  0.00  0.00     0.017 A 
ATOM      6  C5  UNL d   1       0.200   0.464   0.451  0.00  0.00     0.034 A 
ATOM      7 Cl   UNL d   1       2.090  -1.362  -0.083  0.00  0.00    -0.070 Cl
ATOM      8 Cl1  UNL d   1       2.484  -1.483   3.146  0.00  0.00    -0.070 Cl
ENDROOT
TORSDOF 0
ENDMDL
