MODEL 1
REMARK minimizedAffinity 4.07695389
REMARK minimizedRMSD -1
REMARK  0 active torsions:
REMARK  status: ('A' for Active; 'I' for Inactive)
ROOT
ATOM      1  C   UNL d   1       4.503  -6.000  -0.066  0.00  0.00     0.020 A 
ATOM      2  C1  UNL d   1       3.473  -5.159   0.355  0.00  0.00     0.020 A 
ATOM      3  C2  UNL d   1       3.093  -4.071  -0.434  0.00  0.00     0.034 A 
ATOM      4  C3  UNL d   1       3.743  -3.822  -1.648  0.00  0.00     0.017 A 
ATOM      5  C4  UNL d   1       4.775  -4.667  -2.070  0.00  0.00     0.017 A 
ATOM      6  C5  UNL d   1       5.152  -5.754  -1.276  0.00  0.00     0.034 A 
ATOM      7 Cl   UNL d   1       5.623  -4.423  -3.557  0.00  0.00    -0.070 Cl
ATOM      8 Cl1  UNL d   1       3.220  -2.459  -2.573  0.00  0.00    -0.070 Cl
ENDROOT
TORSDOF 0
ENDMDL
