MODEL 1
REMARK minimizedAffinity 3.45836592
REMARK minimizedRMSD -1
REMARK  0 active torsions:
REMARK  status: ('A' for Active; 'I' for Inactive)
ROOT
ATOM      1  C   UNL d   1      -0.043  -0.474   2.188  0.00  0.00     0.020 A 
ATOM      2  C1  UNL d   1      -0.164   0.824   2.684  0.00  0.00     0.020 A 
ATOM      3  C2  UNL d   1       0.072   1.916   1.847  0.00  0.00     0.034 A 
ATOM      4  C3  UNL d   1       0.429   1.713   0.509  0.00  0.00     0.017 A 
ATOM      5  C4  UNL d   1       0.550   0.410   0.012  0.00  0.00     0.017 A 
ATOM      6  C5  UNL d   1       0.313  -0.680   0.855  0.00  0.00     0.034 A 
ATOM      7 Cl   UNL d   1       0.988   0.080  -1.627  0.00  0.00    -0.070 Cl
ATOM      8 Cl1  UNL d   1       0.706   3.110  -0.470  0.00  0.00    -0.070 Cl
ENDROOT
TORSDOF 0
ENDMDL
