MODEL 1
REMARK minimizedAffinity -0.0954869017
REMARK minimizedRMSD -1
REMARK  1 active torsions:
REMARK  status: ('A' for Active; 'I' for Inactive)
REMARK    1  A    between atoms: C1_2  and  C2_3 
ROOT
ATOM      1  C2  UNL d   1       0.250  -0.550   1.253  0.00  0.00    -0.076 A 
ATOM      2  C3  UNL d   1       1.250  -0.417   2.231  0.00  0.00     0.004 A 
ATOM      3  C4  UNL d   1       2.188   0.613   2.162  0.00  0.00    -0.003 A 
ATOM      4  C5  UNL d   1       2.139   1.526   1.114  0.00  0.00     0.000 A 
ATOM      5  C6  UNL d   1       1.143   1.418   0.145  0.00  0.00     0.000 A 
ATOM      6  C7  UNL d   1       0.180   0.396   0.208  0.00  0.00    -0.073 A 
ATOM      7  C8  UNL d   1      -0.869   0.324  -0.868  0.00  0.00     0.078 C 
ENDROOT
BRANCH   1   8
ATOM      8  C1  UNL d   1      -0.723  -1.703   1.364  0.00  0.00     0.053 C 
ATOM      9  C   UNL d   1      -0.177  -2.846   2.206  0.00  0.00     0.018 C 
ENDBRANCH   1   8
TORSDOF 1
ENDMDL
