MODEL 1
REMARK minimizedAffinity -2.84959221
REMARK minimizedRMSD -1
REMARK  1 active torsions:
REMARK  status: ('A' for Active; 'I' for Inactive)
REMARK    1  A    between atoms: C1_2  and  C2_3 
ROOT
ATOM      1  C2  UNL d   1       0.769  -0.377   1.226  0.00  0.00    -0.076 A 
ATOM      2  C3  UNL d   1       2.069   0.130   1.397  0.00  0.00     0.004 A 
ATOM      3  C4  UNL d   1       2.484   1.282   0.731  0.00  0.00    -0.003 A 
ATOM      4  C5  UNL d   1       1.605   1.946  -0.117  0.00  0.00     0.000 A 
ATOM      5  C6  UNL d   1       0.306   1.468  -0.285  0.00  0.00     0.000 A 
ATOM      6  C7  UNL d   1      -0.133   0.317   0.392  0.00  0.00    -0.073 A 
ATOM      7  C8  UNL d   1      -1.543  -0.157   0.169  0.00  0.00     0.078 C 
ENDROOT
BRANCH   1   8
ATOM      8  C1  UNL d   1       0.384  -1.645   1.953  0.00  0.00     0.053 C 
ATOM      9  C   UNL d   1       1.383  -2.022   3.037  0.00  0.00     0.018 C 
ENDBRANCH   1   8
TORSDOF 1
ENDMDL
