MODEL 1
REMARK minimizedAffinity -1.88254261
REMARK minimizedRMSD -1
REMARK  1 active torsions:
REMARK  status: ('A' for Active; 'I' for Inactive)
REMARK    1  A    between atoms: C1_2  and  C2_3 
ROOT
ATOM      1  C2  UNL d   1      -0.712   0.033  -0.612  0.00  0.00    -0.076 A 
ATOM      2  C3  UNL d   1       0.493   0.184  -1.321  0.00  0.00     0.004 A 
ATOM      3  C4  UNL d   1       1.723   0.084  -0.674  0.00  0.00    -0.003 A 
ATOM      4  C5  UNL d   1       1.770  -0.168   0.692  0.00  0.00     0.000 A 
ATOM      5  C6  UNL d   1       0.585  -0.338   1.408  0.00  0.00     0.000 A 
ATOM      6  C7  UNL d   1      -0.664  -0.257   0.768  0.00  0.00    -0.073 A 
ATOM      7  C8  UNL d   1      -1.910  -0.442   1.591  0.00  0.00     0.078 C 
ENDROOT
BRANCH   1   8
ATOM      8  C1  UNL d   1      -2.017   0.178  -1.362  0.00  0.00     0.053 C 
ATOM      9  C   UNL d   1      -2.083  -0.711  -2.593  0.00  0.00     0.018 C 
ENDBRANCH   1   8
TORSDOF 1
ENDMDL
