MODEL 1
REMARK minimizedAffinity 13.3348217
REMARK minimizedRMSD -1
REMARK  0 active torsions:
REMARK  status: ('A' for Active; 'I' for Inactive)
ROOT
ATOM      1  C   UNL d   1      -1.145  -0.694  -0.438  0.00  0.00    -0.002 A 
ATOM      2  C1  UNL d   1      -0.263  -1.538  -1.097  0.00  0.00     0.010 A 
ATOM      3  C2  UNL d   1       1.008  -1.785  -0.575  0.00  0.00     0.041 A 
ATOM      4  C3  UNL d   1       1.380  -1.165   0.634  0.00  0.00    -0.075 A 
ATOM      5  S   UNL d   1       2.885  -1.321   1.462  0.00  0.00     0.015 SA
ATOM      6  C4  UNL d   1       2.391  -0.272   2.711  0.00  0.00     0.022 A 
ATOM      7  C5  UNL d   1       1.113   0.195   2.517  0.00  0.00     0.026 A 
ATOM      8  C6  UNL d   1       0.509  -0.312   1.317  0.00  0.00    -0.082 A 
ATOM      9  C7  UNL d   1      -0.772  -0.081   0.761  0.00  0.00     0.045 A 
ENDROOT
TORSDOF 0
ENDMDL
