MODEL 1
REMARK minimizedAffinity 4.18531132
REMARK minimizedRMSD -1
REMARK  0 active torsions:
REMARK  status: ('A' for Active; 'I' for Inactive)
ROOT
ATOM      1  C   UNL d   1       1.520  -1.992   3.828  0.00  0.00    -0.002 A 
ATOM      2  C1  UNL d   1       2.122  -1.347   2.757  0.00  0.00     0.010 A 
ATOM      3  C2  UNL d   1       3.508  -1.180   2.716  0.00  0.00     0.041 A 
ATOM      4  C3  UNL d   1       4.286  -1.678   3.780  0.00  0.00    -0.075 A 
ATOM      5  S   UNL d   1       6.000  -1.589   3.945  0.00  0.00     0.015 SA
ATOM      6  C4  UNL d   1       5.973  -2.405   5.441  0.00  0.00     0.022 A 
ATOM      7  C5  UNL d   1       4.696  -2.745   5.820  0.00  0.00     0.026 A 
ATOM      8  C6  UNL d   1       3.703  -2.331   4.869  0.00  0.00    -0.082 A 
ATOM      9  C7  UNL d   1       2.296  -2.485   4.881  0.00  0.00     0.045 A 
ENDROOT
TORSDOF 0
ENDMDL
