MODEL 1
REMARK minimizedAffinity 5.55178785
REMARK minimizedRMSD -1
REMARK  0 active torsions:
REMARK  status: ('A' for Active; 'I' for Inactive)
ROOT
ATOM      1  C   UNL d   1       2.271  -0.707   2.089  0.00  0.00    -0.002 A 
ATOM      2  C1  UNL d   1       1.558  -1.498   2.979  0.00  0.00     0.010 A 
ATOM      3  C2  UNL d   1       2.206  -2.136   4.038  0.00  0.00     0.041 A 
ATOM      4  C3  UNL d   1       3.596  -1.963   4.191  0.00  0.00    -0.075 A 
ATOM      5  S   UNL d   1       4.601  -2.646   5.414  0.00  0.00     0.015 SA
ATOM      6  C4  UNL d   1       6.000  -1.904   4.784  0.00  0.00     0.022 A 
ATOM      7  C5  UNL d   1       5.726  -1.150   3.668  0.00  0.00     0.026 A 
ATOM      8  C6  UNL d   1       4.336  -1.171   3.307  0.00  0.00    -0.082 A 
ATOM      9  C7  UNL d   1       3.650  -0.538   2.243  0.00  0.00     0.045 A 
ENDROOT
TORSDOF 0
ENDMDL
