MODEL 1
REMARK minimizedAffinity -5.86544847
REMARK minimizedRMSD -1
REMARK  3 active torsions:
REMARK  status: ('A' for Active; 'I' for Inactive)
REMARK    1  A    between atoms: C3'_2  and  C2'_3 
REMARK    2  A    between atoms: C2'_3  and  C1'_4 
REMARK    3  A    between atoms: C1'_4  and  C1_5 
ROOT
ATOM      1  C1  N4B d   1      -0.092   0.079   0.378  0.00  0.00    -0.075 A 
ATOM      2  C2  N4B d   1      -1.348   0.481   0.882  0.00  0.00     0.002 A 
ATOM      3  C3  N4B d   1      -1.674   1.815   0.930  0.00  0.00     0.002 A 
ATOM      4  C4  N4B d   1      -0.757   2.761   0.499  0.00  0.00    -0.004 A 
ATOM      5  C5  N4B d   1       0.444   2.363  -0.011  0.00  0.00     0.002 A 
ATOM      6  C6  N4B d   1       0.784   1.026  -0.069  0.00  0.00     0.002 A 
ENDROOT
BRANCH   1   7
ATOM      7  C1' N4B d   1       0.343  -1.361   0.385  0.00  0.00     0.057 C 
BRANCH   7   8
ATOM      8  C2' N4B d   1       0.068  -1.974  -0.985  0.00  0.00     0.009 C 
BRANCH   8   9
ATOM      9  C3' N4B d   1      -0.780  -3.230  -0.886  0.00  0.00     0.004 C 
ATOM     10  C4' N4B d   1      -1.391  -3.624  -2.198  0.00  0.00     0.003 C 
ENDBRANCH   8   9
ENDBRANCH   7   8
ENDBRANCH   1   7
TORSDOF 3
ENDMDL
