MODEL 1
REMARK minimizedAffinity -5.58549261
REMARK minimizedRMSD -1
REMARK  3 active torsions:
REMARK  status: ('A' for Active; 'I' for Inactive)
REMARK    1  A    between atoms: C3'_2  and  C2'_3 
REMARK    2  A    between atoms: C2'_3  and  C1'_4 
REMARK    3  A    between atoms: C1'_4  and  C1_5 
ROOT
ATOM      1  C1  N4B d   1       0.048  -0.383   0.013  0.00  0.00    -0.075 A 
ATOM      2  C2  N4B d   1       0.954   0.643  -0.334  0.00  0.00     0.002 A 
ATOM      3  C3  N4B d   1       0.585   1.959  -0.197  0.00  0.00     0.002 A 
ATOM      4  C4  N4B d   1      -0.684   2.271   0.265  0.00  0.00    -0.004 A 
ATOM      5  C5  N4B d   1      -1.544   1.274   0.623  0.00  0.00     0.002 A 
ATOM      6  C6  N4B d   1      -1.185  -0.053   0.494  0.00  0.00     0.002 A 
ENDROOT
BRANCH   1   7
ATOM      7  C1' N4B d   1       0.375  -1.836  -0.200  0.00  0.00     0.057 C 
BRANCH   7   8
ATOM      8  C2' N4B d   1       0.368  -2.137  -1.696  0.00  0.00     0.009 C 
BRANCH   8   9
ATOM      9  C3' N4B d   1      -0.768  -3.068  -2.083  0.00  0.00     0.004 C 
ATOM     10  C4' N4B d   1      -1.373  -3.768  -0.903  0.00  0.00     0.003 C 
ENDBRANCH   8   9
ENDBRANCH   7   8
ENDBRANCH   1   7
TORSDOF 3
ENDMDL
