MODEL 1
REMARK minimizedAffinity -3.96967506
REMARK minimizedRMSD -1
REMARK  3 active torsions:
REMARK  status: ('A' for Active; 'I' for Inactive)
REMARK    1  A    between atoms: C3'_2  and  C2'_3 
REMARK    2  A    between atoms: C2'_3  and  C1'_4 
REMARK    3  A    between atoms: C1'_4  and  C1_5 
ROOT
ATOM      1  C1  N4B d   1      -0.532  -0.697   0.024  0.00  0.00    -0.075 A 
ATOM      2  C2  N4B d   1      -1.893  -0.523   0.361  0.00  0.00     0.002 A 
ATOM      3  C3  N4B d   1      -2.367   0.726   0.679  0.00  0.00     0.002 A 
ATOM      4  C4  N4B d   1      -1.499   1.807   0.686  0.00  0.00    -0.004 A 
ATOM      5  C5  N4B d   1      -0.192   1.635   0.335  0.00  0.00     0.002 A 
ATOM      6  C6  N4B d   1       0.298   0.386   0.009  0.00  0.00     0.002 A 
ENDROOT
BRANCH   1   7
ATOM      7  C1' N4B d   1       0.051  -2.057  -0.247  0.00  0.00     0.057 C 
BRANCH   7   8
ATOM      8  C2' N4B d   1      -1.047  -2.977  -0.773  0.00  0.00     0.009 C 
BRANCH   8   9
ATOM      9  C3' N4B d   1      -1.018  -3.089  -2.287  0.00  0.00     0.004 C 
ATOM     10  C4' N4B d   1       0.375  -3.078  -2.844  0.00  0.00     0.003 C 
ENDBRANCH   8   9
ENDBRANCH   7   8
ENDBRANCH   1   7
TORSDOF 3
ENDMDL
