MODEL 1
REMARK minimizedAffinity -6.19155073
REMARK minimizedRMSD -1
REMARK  3 active torsions:
REMARK  status: ('A' for Active; 'I' for Inactive)
REMARK    1  A    between atoms: C3'_2  and  C2'_3 
REMARK    2  A    between atoms: C2'_3  and  C1'_4 
REMARK    3  A    between atoms: C1'_4  and  C1_5 
ROOT
ATOM      1  C1  N4B d   1      -0.314   1.022   0.263  0.00  0.00    -0.075 A 
ATOM      2  C2  N4B d   1      -0.974   2.224   0.603  0.00  0.00     0.002 A 
ATOM      3  C3  N4B d   1      -0.311   3.423   0.504  0.00  0.00     0.002 A 
ATOM      4  C4  N4B d   1       1.011   3.443   0.088  0.00  0.00    -0.004 A 
ATOM      5  C5  N4B d   1       1.634   2.281  -0.263  0.00  0.00     0.002 A 
ATOM      6  C6  N4B d   1       0.978   1.069  -0.173  0.00  0.00     0.002 A 
ENDROOT
BRANCH   1   7
ATOM      7  C1' N4B d   1      -0.970  -0.320   0.436  0.00  0.00     0.057 C 
BRANCH   7   8
ATOM      8  C2' N4B d   1       0.003  -1.413   0.003  0.00  0.00     0.009 C 
BRANCH   8   9
ATOM      9  C3' N4B d   1      -0.651  -2.421  -0.925  0.00  0.00     0.004 C 
ATOM     10  C4' N4B d   1       0.043  -2.526  -2.251  0.00  0.00     0.003 C 
ENDBRANCH   8   9
ENDBRANCH   7   8
ENDBRANCH   1   7
TORSDOF 3
ENDMDL
