MODEL 1
REMARK minimizedAffinity -3.83900023
REMARK minimizedRMSD -1
REMARK  3 active torsions:
REMARK  status: ('A' for Active; 'I' for Inactive)
REMARK    1  A    between atoms: C3'_2  and  C2'_3 
REMARK    2  A    between atoms: C2'_3  and  C1'_4 
REMARK    3  A    between atoms: C1'_4  and  C1_5 
ROOT
ATOM      1  C1  N4B d   1      -0.221   0.461   0.296  0.00  0.00    -0.075 A 
ATOM      2  C2  N4B d   1      -0.118   1.672   1.016  0.00  0.00     0.002 A 
ATOM      3  C3  N4B d   1       0.406   2.788   0.411  0.00  0.00     0.002 A 
ATOM      4  C4  N4B d   1       0.850   2.712  -0.901  0.00  0.00    -0.004 A 
ATOM      5  C5  N4B d   1       0.724   1.546  -1.597  0.00  0.00     0.002 A 
ATOM      6  C6  N4B d   1       0.195   0.417  -1.003  0.00  0.00     0.002 A 
ENDROOT
BRANCH   1   7
ATOM      7  C1' N4B d   1      -0.708  -0.807   0.941  0.00  0.00     0.057 C 
BRANCH   7   8
ATOM      8  C2' N4B d   1      -0.234  -2.002   0.119  0.00  0.00     0.009 C 
BRANCH   8   9
ATOM      9  C3' N4B d   1      -1.379  -2.934  -0.241  0.00  0.00     0.004 C 
ATOM     10  C4' N4B d   1      -1.133  -3.691  -1.512  0.00  0.00     0.003 C 
ENDBRANCH   8   9
ENDBRANCH   7   8
ENDBRANCH   1   7
TORSDOF 3
ENDMDL
