MODEL 1
REMARK minimizedAffinity -4.69750929
REMARK minimizedRMSD -1
REMARK  3 active torsions:
REMARK  status: ('A' for Active; 'I' for Inactive)
REMARK    1  A    between atoms: C3'_2  and  C2'_3 
REMARK    2  A    between atoms: C2'_3  and  C1'_4 
REMARK    3  A    between atoms: C1'_4  and  C1_5 
ROOT
ATOM      1  C1  N4B d   1      -0.379   0.343  -0.327  0.00  0.00    -0.075 A 
ATOM      2  C2  N4B d   1      -1.319   1.325   0.057  0.00  0.00     0.002 A 
ATOM      3  C3  N4B d   1      -0.910   2.617   0.279  0.00  0.00     0.002 A 
ATOM      4  C4  N4B d   1       0.430   2.945   0.142  0.00  0.00    -0.004 A 
ATOM      5  C5  N4B d   1       1.327   1.997  -0.254  0.00  0.00     0.002 A 
ATOM      6  C6  N4B d   1       0.930   0.695  -0.484  0.00  0.00     0.002 A 
ENDROOT
BRANCH   1   7
ATOM      7  C1' N4B d   1      -0.764  -1.101  -0.497  0.00  0.00     0.057 C 
BRANCH   7   8
ATOM      8  C2' N4B d   1      -1.549  -1.261  -1.795  0.00  0.00     0.009 C 
BRANCH   8   9
ATOM      9  C3' N4B d   1      -1.133  -2.505  -2.562  0.00  0.00     0.004 C 
ATOM     10  C4' N4B d   1      -1.472  -3.773  -1.838  0.00  0.00     0.003 C 
ENDBRANCH   8   9
ENDBRANCH   7   8
ENDBRANCH   1   7
TORSDOF 3
ENDMDL
