MODEL 1
REMARK minimizedAffinity 3.10909939
REMARK minimizedRMSD -1
REMARK  2 active torsions:
REMARK  status: ('A' for Active; 'I' for Inactive)
REMARK    1  A    between atoms: C1_2  and  C2_3 
REMARK    2  A    between atoms: C2_3  and  C3_4 
ROOT
ATOM      1  C3  UNL d   1      -4.990  -4.707  -4.271  0.00  0.00    -0.075 A 
ATOM      2  C4  UNL d   1      -3.916  -3.823  -4.090  0.00  0.00     0.002 A 
ATOM      3  C5  UNL d   1      -3.856  -2.625  -4.802  0.00  0.00     0.002 A 
ATOM      4  C6  UNL d   1      -4.862  -2.300  -5.710  0.00  0.00    -0.004 A 
ATOM      5  C7  UNL d   1      -5.925  -3.178  -5.910  0.00  0.00     0.002 A 
ATOM      6  C8  UNL d   1      -5.990  -4.375  -5.195  0.00  0.00     0.002 A 
ENDROOT
BRANCH   1   7
ATOM      7  C2  UNL d   1      -5.075  -5.991  -3.482  0.00  0.00     0.056 C 
BRANCH   7   8
ATOM      8  C1  UNL d   1      -4.223  -5.999  -2.209  0.00  0.00     0.007 C 
ATOM      9  C   UNL d   1      -4.866  -5.248  -1.051  0.00  0.00     0.009 C 
ENDBRANCH   7   8
ENDBRANCH   1   7
TORSDOF 2
ENDMDL
