MODEL 1
REMARK minimizedAffinity 2.37418485
REMARK minimizedRMSD -1
REMARK  2 active torsions:
REMARK  status: ('A' for Active; 'I' for Inactive)
REMARK    1  A    between atoms: C1_2  and  C2_3 
REMARK    2  A    between atoms: C2_3  and  C3_4 
ROOT
ATOM      1  C3  UNL d   1      -5.481  -5.283  -3.420  0.00  0.00    -0.075 A 
ATOM      2  C4  UNL d   1      -5.673  -6.000  -4.610  0.00  0.00     0.002 A 
ATOM      3  C5  UNL d   1      -5.926  -5.330  -5.808  0.00  0.00     0.002 A 
ATOM      4  C6  UNL d   1      -6.000  -3.939  -5.830  0.00  0.00    -0.004 A 
ATOM      5  C7  UNL d   1      -5.827  -3.218  -4.651  0.00  0.00     0.002 A 
ATOM      6  C8  UNL d   1      -5.569  -3.885  -3.452  0.00  0.00     0.002 A 
ENDROOT
BRANCH   1   7
ATOM      7  C2  UNL d   1      -5.177  -6.000  -2.127  0.00  0.00     0.056 C 
BRANCH   7   8
ATOM      8  C1  UNL d   1      -3.817  -5.641  -1.519  0.00  0.00     0.007 C 
ATOM      9  C   UNL d   1      -2.644  -5.998  -2.421  0.00  0.00     0.009 C 
ENDBRANCH   7   8
ENDBRANCH   1   7
TORSDOF 2
ENDMDL
