MODEL 1
REMARK minimizedAffinity 4.97226381
REMARK minimizedRMSD -1
REMARK  2 active torsions:
REMARK  status: ('A' for Active; 'I' for Inactive)
REMARK    1  A    between atoms: C1_2  and  C2_3 
REMARK    2  A    between atoms: C2_3  and  C3_4 
ROOT
ATOM      1  C3  UNL d   1      -2.662  -0.092   2.317  0.00  0.00    -0.075 A 
ATOM      2  C4  UNL d   1      -2.260   0.627   1.181  0.00  0.00     0.002 A 
ATOM      3  C5  UNL d   1      -0.962   0.500   0.686  0.00  0.00     0.002 A 
ATOM      4  C6  UNL d   1      -0.048  -0.337   1.323  0.00  0.00    -0.004 A 
ATOM      5  C7  UNL d   1      -0.432  -1.043   2.461  0.00  0.00     0.002 A 
ATOM      6  C8  UNL d   1      -1.731  -0.921   2.957  0.00  0.00     0.002 A 
ENDROOT
BRANCH   1   7
ATOM      7  C2  UNL d   1      -4.074   0.018   2.840  0.00  0.00     0.056 C 
BRANCH   7   8
ATOM      8  C1  UNL d   1      -5.032  -1.036   2.276  0.00  0.00     0.007 C 
ATOM      9  C   UNL d   1      -5.981  -1.606   3.322  0.00  0.00     0.009 C 
ENDBRANCH   7   8
ENDBRANCH   1   7
TORSDOF 2
ENDMDL
