MODEL 1
REMARK minimizedAffinity 7.60805225
REMARK minimizedRMSD -1
REMARK  2 active torsions:
REMARK  status: ('A' for Active; 'I' for Inactive)
REMARK    1  A    between atoms: C1_2  and  C2_3 
REMARK    2  A    between atoms: C2_3  and  C3_4 
ROOT
ATOM      1  C3  UNL d   1      -4.164  -3.749  -3.835  0.00  0.00    -0.075 A 
ATOM      2  C4  UNL d   1      -4.174  -5.067  -3.358  0.00  0.00     0.002 A 
ATOM      3  C5  UNL d   1      -5.079  -5.999  -3.869  0.00  0.00     0.002 A 
ATOM      4  C6  UNL d   1      -5.990  -5.622  -4.853  0.00  0.00    -0.004 A 
ATOM      5  C7  UNL d   1      -6.000  -4.310  -5.323  0.00  0.00     0.002 A 
ATOM      6  C8  UNL d   1      -5.093  -3.377  -4.817  0.00  0.00     0.002 A 
ENDROOT
BRANCH   1   7
ATOM      7  C2  UNL d   1      -3.168  -2.744  -3.307  0.00  0.00     0.056 C 
BRANCH   7   8
ATOM      8  C1  UNL d   1      -2.166  -2.249  -4.356  0.00  0.00     0.007 C 
ATOM      9  C   UNL d   1      -0.781  -1.979  -3.783  0.00  0.00     0.009 C 
ENDBRANCH   7   8
ENDBRANCH   1   7
TORSDOF 2
ENDMDL
