MODEL 1
REMARK minimizedAffinity 8.35186863
REMARK minimizedRMSD -1
REMARK  2 active torsions:
REMARK  status: ('A' for Active; 'I' for Inactive)
REMARK    1  A    between atoms: C1_2  and  C2_3 
REMARK    2  A    between atoms: C2_3  and  C3_4 
ROOT
ATOM      1  C3  UNL d   1      -3.118  -0.421   3.268  0.00  0.00    -0.075 A 
ATOM      2  C4  UNL d   1      -2.628   0.280   2.156  0.00  0.00     0.002 A 
ATOM      3  C5  UNL d   1      -1.276   0.217   1.819  0.00  0.00     0.002 A 
ATOM      4  C6  UNL d   1      -0.396  -0.537   2.593  0.00  0.00    -0.004 A 
ATOM      5  C7  UNL d   1      -0.869  -1.224   3.709  0.00  0.00     0.002 A 
ATOM      6  C8  UNL d   1      -2.222  -1.167   4.046  0.00  0.00     0.002 A 
ENDROOT
BRANCH   1   7
ATOM      7  C2  UNL d   1      -4.586  -0.381   3.620  0.00  0.00     0.056 C 
BRANCH   7   8
ATOM      8  C1  UNL d   1      -5.358  -1.644   3.222  0.00  0.00     0.007 C 
ATOM      9  C   UNL d   1      -5.981  -1.553   1.835  0.00  0.00     0.009 C 
ENDBRANCH   7   8
ENDBRANCH   1   7
TORSDOF 2
ENDMDL
