MODEL 1
REMARK minimizedAffinity 4.79608774
REMARK minimizedRMSD -1
REMARK  2 active torsions:
REMARK  status: ('A' for Active; 'I' for Inactive)
REMARK    1  A    between atoms: C1_2  and  C2_3 
REMARK    2  A    between atoms: C2_3  and  C3_4 
ROOT
ATOM      1  C3  UNL d   1      -3.373  -0.350   2.624  0.00  0.00    -0.075 A 
ATOM      2  C4  UNL d   1      -3.974  -0.023   3.849  0.00  0.00     0.002 A 
ATOM      3  C5  UNL d   1      -5.276  -0.437   4.132  0.00  0.00     0.002 A 
ATOM      4  C6  UNL d   1      -5.996  -1.171   3.192  0.00  0.00    -0.004 A 
ATOM      5  C7  UNL d   1      -5.416  -1.487   1.966  0.00  0.00     0.002 A 
ATOM      6  C8  UNL d   1      -4.111  -1.078   1.682  0.00  0.00     0.002 A 
ENDROOT
BRANCH   1   7
ATOM      7  C2  UNL d   1      -1.954   0.069   2.323  0.00  0.00     0.056 C 
BRANCH   7   8
ATOM      8  C1  UNL d   1      -0.958  -1.094   2.269  0.00  0.00     0.007 C 
ATOM      9  C   UNL d   1      -0.373  -1.447   3.630  0.00  0.00     0.009 C 
ENDBRANCH   7   8
ENDBRANCH   1   7
TORSDOF 2
ENDMDL
