MODEL 1
REMARK minimizedAffinity 1.97469842
REMARK minimizedRMSD -1
REMARK  2 active torsions:
REMARK  status: ('A' for Active; 'I' for Inactive)
REMARK    1  A    between atoms: C1_2  and  C2_3 
REMARK    2  A    between atoms: C2_3  and  C3_4 
ROOT
ATOM      1  C3  UNL d   1      -4.838  -4.844  -3.434  0.00  0.00    -0.075 A 
ATOM      2  C4  UNL d   1      -5.442  -5.975  -4.003  0.00  0.00     0.002 A 
ATOM      3  C5  UNL d   1      -5.999  -5.912  -5.281  0.00  0.00     0.002 A 
ATOM      4  C6  UNL d   1      -5.969  -4.720  -6.000  0.00  0.00    -0.004 A 
ATOM      5  C7  UNL d   1      -5.386  -3.586  -5.437  0.00  0.00     0.002 A 
ATOM      6  C8  UNL d   1      -4.824  -3.647  -4.161  0.00  0.00     0.002 A 
ENDROOT
BRANCH   1   7
ATOM      7  C2  UNL d   1      -4.207  -4.913  -2.064  0.00  0.00     0.056 C 
BRANCH   7   8
ATOM      8  C1  UNL d   1      -3.067  -5.931  -1.952  0.00  0.00     0.007 C 
ATOM      9  C   UNL d   1      -1.706  -5.287  -1.726  0.00  0.00     0.009 C 
ENDBRANCH   7   8
ENDBRANCH   1   7
TORSDOF 2
ENDMDL
