MODEL 1
REMARK minimizedAffinity 5.78118515
REMARK minimizedRMSD -1
REMARK  2 active torsions:
REMARK  status: ('A' for Active; 'I' for Inactive)
REMARK    1  A    between atoms: C1_2  and  C2_3 
REMARK    2  A    between atoms: C2_3  and  C3_4 
ROOT
ATOM      1  C3  UNL d   1      -2.925   2.549   3.479  0.00  0.00    -0.075 A 
ATOM      2  C4  UNL d   1      -3.878   1.543   3.259  0.00  0.00     0.002 A 
ATOM      3  C5  UNL d   1      -3.523   0.363   2.605  0.00  0.00     0.002 A 
ATOM      4  C6  UNL d   1      -2.218   0.178   2.154  0.00  0.00    -0.004 A 
ATOM      5  C7  UNL d   1      -1.268   1.177   2.352  0.00  0.00     0.002 A 
ATOM      6  C8  UNL d   1      -1.619   2.357   3.010  0.00  0.00     0.002 A 
ENDROOT
BRANCH   1   7
ATOM      7  C2  UNL d   1      -3.295   3.816   4.213  0.00  0.00     0.056 C 
BRANCH   7   8
ATOM      8  C1  UNL d   1      -2.743   3.894   5.640  0.00  0.00     0.007 C 
ATOM      9  C   UNL d   1      -2.196   5.270   5.997  0.00  0.00     0.009 C 
ENDBRANCH   7   8
ENDBRANCH   1   7
TORSDOF 2
ENDMDL
