MODEL 1
REMARK minimizedAffinity 9.90422153
REMARK minimizedRMSD -1
REMARK  2 active torsions:
REMARK  status: ('A' for Active; 'I' for Inactive)
REMARK    1  A    between atoms: C1_2  and  C2_3 
REMARK    2  A    between atoms: C2_3  and  C3_4 
ROOT
ATOM      1  C3  UNL d   1      -3.589  -0.008   3.235  0.00  0.00    -0.075 A 
ATOM      2  C4  UNL d   1      -3.279   0.764   2.106  0.00  0.00     0.002 A 
ATOM      3  C5  UNL d   1      -1.984   0.772   1.587  0.00  0.00     0.002 A 
ATOM      4  C6  UNL d   1      -0.982   0.018   2.194  0.00  0.00    -0.004 A 
ATOM      5  C7  UNL d   1      -1.275  -0.740   3.326  0.00  0.00     0.002 A 
ATOM      6  C8  UNL d   1      -2.571  -0.753   3.845  0.00  0.00     0.002 A 
ENDROOT
BRANCH   1   7
ATOM      7  C2  UNL d   1      -4.995  -0.044   3.784  0.00  0.00     0.056 C 
BRANCH   7   8
ATOM      8  C1  UNL d   1      -6.000  -0.765   2.879  0.00  0.00     0.007 C 
ATOM      9  C   UNL d   1      -5.998  -2.276   3.064  0.00  0.00     0.009 C 
ENDBRANCH   7   8
ENDBRANCH   1   7
TORSDOF 2
ENDMDL
