MODEL 1
REMARK minimizedAffinity 1.50269186
REMARK minimizedRMSD -1
REMARK  2 active torsions:
REMARK  status: ('A' for Active; 'I' for Inactive)
REMARK    1  A    between atoms: C1_2  and  C2_3 
REMARK    2  A    between atoms: C2_3  and  C3_4 
ROOT
ATOM      1  C3  UNL d   1      -3.736  -3.924  -3.431  0.00  0.00    -0.075 A 
ATOM      2  C4  UNL d   1      -3.518  -5.051  -2.625  0.00  0.00     0.002 A 
ATOM      3  C5  UNL d   1      -4.525  -5.999  -2.444  0.00  0.00     0.002 A 
ATOM      4  C6  UNL d   1      -5.765  -5.828  -3.057  0.00  0.00    -0.004 A 
ATOM      5  C7  UNL d   1      -5.999  -4.704  -3.846  0.00  0.00     0.002 A 
ATOM      6  C8  UNL d   1      -4.991  -3.756  -4.032  0.00  0.00     0.002 A 
ENDROOT
BRANCH   1   7
ATOM      7  C2  UNL d   1      -2.640  -2.910  -3.655  0.00  0.00     0.056 C 
BRANCH   7   8
ATOM      8  C1  UNL d   1      -1.430  -3.458  -4.418  0.00  0.00     0.007 C 
ATOM      9  C   UNL d   1      -0.154  -3.475  -3.587  0.00  0.00     0.009 C 
ENDBRANCH   7   8
ENDBRANCH   1   7
TORSDOF 2
ENDMDL
