MODEL 1
REMARK minimizedAffinity 0.204760045
REMARK minimizedRMSD -1
REMARK  2 active torsions:
REMARK  status: ('A' for Active; 'I' for Inactive)
REMARK    1  A    between atoms: C1_2  and  C2_3 
REMARK    2  A    between atoms: C2_3  and  C3_4 
ROOT
ATOM      1  C3  UNL d   1       2.130  -1.133  -1.771  0.00  0.00    -0.075 A 
ATOM      2  C4  UNL d   1       2.504  -2.131  -0.860  0.00  0.00     0.002 A 
ATOM      3  C5  UNL d   1       2.062  -3.443  -1.025  0.00  0.00     0.002 A 
ATOM      4  C6  UNL d   1       1.233  -3.772  -2.096  0.00  0.00    -0.004 A 
ATOM      5  C7  UNL d   1       0.842  -2.785  -2.998  0.00  0.00     0.002 A 
ATOM      6  C8  UNL d   1       1.287  -1.472  -2.837  0.00  0.00     0.002 A 
ENDROOT
BRANCH   1   7
ATOM      7  C2  UNL d   1       2.630   0.284  -1.614  0.00  0.00     0.056 C 
BRANCH   7   8
ATOM      8  C1  UNL d   1       2.219   1.221  -2.754  0.00  0.00     0.007 C 
ATOM      9  C   UNL d   1       2.027   2.664  -2.307  0.00  0.00     0.009 C 
ENDBRANCH   7   8
ENDBRANCH   1   7
TORSDOF 2
ENDMDL
