MODEL 1
REMARK minimizedAffinity 5.89129734
REMARK minimizedRMSD -1
REMARK  2 active torsions:
REMARK  status: ('A' for Active; 'I' for Inactive)
REMARK    1  A    between atoms: C1_2  and  C2_3 
REMARK    2  A    between atoms: C2_3  and  C3_4 
ROOT
ATOM      1  C3  UNL d   1       1.229  -3.333  -2.678  0.00  0.00    -0.075 A 
ATOM      2  C4  UNL d   1       1.942  -3.573  -1.494  0.00  0.00     0.002 A 
ATOM      3  C5  UNL d   1       2.680  -2.553  -0.893  0.00  0.00     0.002 A 
ATOM      4  C6  UNL d   1       2.723  -1.286  -1.470  0.00  0.00    -0.004 A 
ATOM      5  C7  UNL d   1       2.032  -1.041  -2.655  0.00  0.00     0.002 A 
ATOM      6  C8  UNL d   1       1.289  -2.058  -3.257  0.00  0.00     0.002 A 
ENDROOT
BRANCH   1   7
ATOM      7  C2  UNL d   1       0.404  -4.424  -3.318  0.00  0.00     0.056 C 
BRANCH   7   8
ATOM      8  C1  UNL d   1       0.365  -5.729  -2.515  0.00  0.00     0.007 C 
ATOM      9  C   UNL d   1      -0.990  -6.000  -1.875  0.00  0.00     0.009 C 
ENDBRANCH   7   8
ENDBRANCH   1   7
TORSDOF 2
ENDMDL
