MODEL 1
REMARK minimizedAffinity 8.03774548
REMARK minimizedRMSD -1
REMARK  2 active torsions:
REMARK  status: ('A' for Active; 'I' for Inactive)
REMARK    1  A    between atoms: C1_2  and  C2_3 
REMARK    2  A    between atoms: C2_3  and  C3_4 
ROOT
ATOM      1  C3  UNL d   1      -2.719   0.189   2.850  0.00  0.00    -0.075 A 
ATOM      2  C4  UNL d   1      -1.681  -0.678   3.220  0.00  0.00     0.002 A 
ATOM      3  C5  UNL d   1      -0.371  -0.431   2.809  0.00  0.00     0.002 A 
ATOM      4  C6  UNL d   1      -0.084   0.677   2.015  0.00  0.00    -0.004 A 
ATOM      5  C7  UNL d   1      -1.110   1.536   1.628  0.00  0.00     0.002 A 
ATOM      6  C8  UNL d   1      -2.421   1.294   2.041  0.00  0.00     0.002 A 
ENDROOT
BRANCH   1   7
ATOM      7  C2  UNL d   1      -4.134  -0.056   3.316  0.00  0.00     0.056 C 
BRANCH   7   8
ATOM      8  C1  UNL d   1      -4.996  -0.831   2.314  0.00  0.00     0.007 C 
ATOM      9  C   UNL d   1      -6.000  -1.763   2.979  0.00  0.00     0.009 C 
ENDBRANCH   7   8
ENDBRANCH   1   7
TORSDOF 2
ENDMDL
