MODEL 1
REMARK minimizedAffinity 4.73418713
REMARK minimizedRMSD -1
REMARK  1 active torsions:
REMARK  status: ('A' for Active; 'I' for Inactive)
REMARK    1  A    between atoms: N_2  and  C1_3 
ROOT
ATOM      1  C1  UNL d   1      -1.857  -2.759  -2.243  0.00  0.00     0.143 A 
ATOM      2  C2  UNL d   1      -1.656  -1.806  -1.239  0.00  0.00    -0.057 A 
ATOM      3  C3  UNL d   1      -0.813  -2.063  -0.151  0.00  0.00     0.033 A 
ATOM      4  C4  UNL d   1      -0.176  -3.294  -0.033  0.00  0.00    -0.042 A 
ATOM      5  C5  UNL d   1      -0.380  -4.265  -1.007  0.00  0.00     0.033 A 
ATOM      6  C6  UNL d   1      -1.218  -4.000  -2.094  0.00  0.00    -0.057 A 
ENDROOT
BRANCH   1   7
ATOM      7  N   UNL d   1      -2.759  -2.600  -3.298  0.00  0.00    -0.732 N 
ATOM      8  C   UNL d   1      -2.305  -2.653  -4.671  0.00  0.00     0.284 C 
ATOM      9  H3  UNL d   1      -3.639  -3.082  -3.132  0.00  0.00     0.395 HD
ENDBRANCH   1   7
TORSDOF 1
ENDMDL
