MODEL 1
REMARK minimizedAffinity 0.438004076
REMARK minimizedRMSD -1
REMARK  1 active torsions:
REMARK  status: ('A' for Active; 'I' for Inactive)
REMARK    1  A    between atoms: N_2  and  C1_3 
ROOT
ATOM      1  C1  UNL d   1      -1.617  -2.946  -3.405  0.00  0.00     0.143 A 
ATOM      2  C2  UNL d   1      -1.139  -2.293  -4.547  0.00  0.00    -0.057 A 
ATOM      3  C3  UNL d   1      -1.666  -2.568  -5.814  0.00  0.00     0.033 A 
ATOM      4  C4  UNL d   1      -2.663  -3.525  -5.967  0.00  0.00    -0.042 A 
ATOM      5  C5  UNL d   1      -3.136  -4.204  -4.850  0.00  0.00     0.033 A 
ATOM      6  C6  UNL d   1      -2.611  -3.921  -3.586  0.00  0.00    -0.057 A 
ENDROOT
BRANCH   1   7
ATOM      7  N   UNL d   1      -1.067  -2.788  -2.131  0.00  0.00    -0.732 N 
ATOM      8  C   UNL d   1      -1.460  -1.677  -1.291  0.00  0.00     0.284 C 
ATOM      9  H3  UNL d   1      -0.975  -3.672  -1.635  0.00  0.00     0.395 HD
ENDBRANCH   1   7
TORSDOF 1
ENDMDL
