MODEL 1
REMARK minimizedAffinity 6.33981562
REMARK minimizedRMSD -1
REMARK  1 active torsions:
REMARK  status: ('A' for Active; 'I' for Inactive)
REMARK    1  A    between atoms: N_2  and  C1_3 
ROOT
ATOM      1  C1  UNL d   1      -2.051  -3.133  -2.097  0.00  0.00     0.143 A 
ATOM      2  C2  UNL d   1      -2.477  -2.013  -1.375  0.00  0.00    -0.057 A 
ATOM      3  C3  UNL d   1      -1.911  -1.690  -0.135  0.00  0.00     0.033 A 
ATOM      4  C4  UNL d   1      -0.926  -2.501   0.419  0.00  0.00    -0.042 A 
ATOM      5  C5  UNL d   1      -0.505  -3.634  -0.270  0.00  0.00     0.033 A 
ATOM      6  C6  UNL d   1      -1.070  -3.947  -1.510  0.00  0.00    -0.057 A 
ENDROOT
BRANCH   1   7
ATOM      7  N   UNL d   1      -2.644  -3.562  -3.287  0.00  0.00    -0.732 N 
ATOM      8  C   UNL d   1      -2.125  -3.128  -4.567  0.00  0.00     0.284 C 
ATOM      9  H3  UNL d   1      -2.909  -4.544  -3.258  0.00  0.00     0.395 HD
ENDBRANCH   1   7
TORSDOF 1
ENDMDL
