MODEL 1
REMARK minimizedAffinity 2.51983953
REMARK minimizedRMSD -1
REMARK  1 active torsions:
REMARK  status: ('A' for Active; 'I' for Inactive)
REMARK    1  A    between atoms: N_2  and  C1_3 
ROOT
ATOM      1  C1  UNL d   1      -1.344  -2.594  -2.102  0.00  0.00     0.143 A 
ATOM      2  C2  UNL d   1      -0.291  -3.397  -1.651  0.00  0.00    -0.057 A 
ATOM      3  C3  UNL d   1       0.128  -3.363  -0.315  0.00  0.00     0.033 A 
ATOM      4  C4  UNL d   1      -0.482  -2.499   0.589  0.00  0.00    -0.042 A 
ATOM      5  C5  UNL d   1      -1.513  -1.673   0.157  0.00  0.00     0.033 A 
ATOM      6  C6  UNL d   1      -1.932  -1.717  -1.177  0.00  0.00    -0.057 A 
ENDROOT
BRANCH   1   7
ATOM      7  N   UNL d   1      -1.741  -2.511  -3.439  0.00  0.00    -0.732 N 
ATOM      8  C   UNL d   1      -2.173  -3.692  -4.154  0.00  0.00     0.284 C 
ATOM      9  H3  UNL d   1      -2.302  -1.683  -3.627  0.00  0.00     0.395 HD
ENDBRANCH   1   7
TORSDOF 1
ENDMDL
