MODEL 1
REMARK minimizedAffinity 2.86181855
REMARK minimizedRMSD -1
REMARK  1 active torsions:
REMARK  status: ('A' for Active; 'I' for Inactive)
REMARK    1  A    between atoms: N_2  and  C1_3 
ROOT
ATOM      1  C1  UNL d   1       3.839   0.976   1.115  0.00  0.00     0.143 A 
ATOM      2  C2  UNL d   1       2.756   1.832   1.340  0.00  0.00    -0.057 A 
ATOM      3  C3  UNL d   1       2.427   2.842   0.428  0.00  0.00     0.033 A 
ATOM      4  C4  UNL d   1       3.195   3.032  -0.715  0.00  0.00    -0.042 A 
ATOM      5  C5  UNL d   1       4.291   2.209  -0.948  0.00  0.00     0.033 A 
ATOM      6  C6  UNL d   1       4.611   1.198  -0.037  0.00  0.00    -0.057 A 
ENDROOT
BRANCH   1   7
ATOM      7  N   UNL d   1       4.276   0.017   2.031  0.00  0.00    -0.732 N 
ATOM      8  C   UNL d   1       5.412   0.281   2.889  0.00  0.00     0.284 C 
ATOM      9  H3  UNL d   1       3.505  -0.456   2.497  0.00  0.00     0.395 HD
ENDBRANCH   1   7
TORSDOF 1
ENDMDL
