MODEL 1
REMARK minimizedAffinity 7.07989264
REMARK minimizedRMSD -1
REMARK  1 active torsions:
REMARK  status: ('A' for Active; 'I' for Inactive)
REMARK    1  A    between atoms: N_2  and  C1_3 
ROOT
ATOM      1  C1  UNL d   1      -1.764  -2.873  -3.540  0.00  0.00     0.143 A 
ATOM      2  C2  UNL d   1      -3.017  -3.492  -3.582  0.00  0.00    -0.057 A 
ATOM      3  C3  UNL d   1      -3.606  -3.859  -4.798  0.00  0.00     0.033 A 
ATOM      4  C4  UNL d   1      -2.961  -3.585  -6.000  0.00  0.00    -0.042 A 
ATOM      5  C5  UNL d   1      -1.725  -2.948  -5.983  0.00  0.00     0.033 A 
ATOM      6  C6  UNL d   1      -1.140  -2.590  -4.765  0.00  0.00    -0.057 A 
ENDROOT
BRANCH   1   7
ATOM      7  N   UNL d   1      -1.171  -2.395  -2.368  0.00  0.00    -0.732 N 
ATOM      8  C   UNL d   1      -1.983  -1.860  -1.297  0.00  0.00     0.284 C 
ATOM      9  H3  UNL d   1      -0.403  -2.984  -2.054  0.00  0.00     0.395 HD
ENDBRANCH   1   7
TORSDOF 1
ENDMDL
