MODEL 1
REMARK minimizedAffinity 8.22415733
REMARK minimizedRMSD -1
REMARK  1 active torsions:
REMARK  status: ('A' for Active; 'I' for Inactive)
REMARK    1  A    between atoms: N_2  and  C1_3 
ROOT
ATOM      1  C1  UNL d   1      -1.060  -2.418   1.566  0.00  0.00     0.143 A 
ATOM      2  C2  UNL d   1      -0.034  -2.924   0.761  0.00  0.00    -0.057 A 
ATOM      3  C3  UNL d   1      -0.079  -2.802  -0.634  0.00  0.00     0.033 A 
ATOM      4  C4  UNL d   1      -1.169  -2.196  -1.250  0.00  0.00    -0.042 A 
ATOM      5  C5  UNL d   1      -2.212  -1.709  -0.470  0.00  0.00     0.033 A 
ATOM      6  C6  UNL d   1      -2.158  -1.827   0.922  0.00  0.00    -0.057 A 
ENDROOT
BRANCH   1   7
ATOM      7  N   UNL d   1      -1.120  -2.595   2.951  0.00  0.00    -0.732 N 
ATOM      8  C   UNL d   1      -1.454  -3.885   3.515  0.00  0.00     0.284 C 
ATOM      9  H3  UNL d   1      -0.370  -2.109   3.437  0.00  0.00     0.395 HD
ENDBRANCH   1   7
TORSDOF 1
ENDMDL
