MODEL 1
REMARK minimizedAffinity 1.22095144
REMARK minimizedRMSD -1
REMARK  1 active torsions:
REMARK  status: ('A' for Active; 'I' for Inactive)
REMARK    1  A    between atoms: N_2  and  C1_3 
ROOT
ATOM      1  C1  UNL d   1       5.182  -0.870  -5.266  0.00  0.00     0.143 A 
ATOM      2  C2  UNL d   1       5.411  -2.006  -4.482  0.00  0.00    -0.057 A 
ATOM      3  C3  UNL d   1       4.505  -3.073  -4.468  0.00  0.00     0.033 A 
ATOM      4  C4  UNL d   1       3.335  -3.010  -5.217  0.00  0.00    -0.042 A 
ATOM      5  C5  UNL d   1       3.074  -1.880  -5.984  0.00  0.00     0.033 A 
ATOM      6  C6  UNL d   1       3.987  -0.821  -6.000  0.00  0.00    -0.057 A 
ENDROOT
BRANCH   1   7
ATOM      7  N   UNL d   1       5.996   0.265  -5.246  0.00  0.00    -0.732 N 
ATOM      8  C   UNL d   1       5.999   1.151  -4.102  0.00  0.00     0.284 C 
ATOM      9  H3  UNL d   1       6.919   0.088  -5.637  0.00  0.00     0.395 HD
ENDBRANCH   1   7
TORSDOF 1
ENDMDL
