MODEL 1
REMARK minimizedAffinity 4.39029551
REMARK minimizedRMSD -1
REMARK  1 active torsions:
REMARK  status: ('A' for Active; 'I' for Inactive)
REMARK    1  A    between atoms: N_2  and  C1_3 
ROOT
ATOM      1  C1  UNL d   1      -1.722  -2.989  -3.675  0.00  0.00     0.143 A 
ATOM      2  C2  UNL d   1      -1.001  -3.261  -4.843  0.00  0.00    -0.057 A 
ATOM      3  C3  UNL d   1      -1.640  -3.723  -6.000  0.00  0.00     0.033 A 
ATOM      4  C4  UNL d   1      -3.012  -3.950  -6.000  0.00  0.00    -0.042 A 
ATOM      5  C5  UNL d   1      -3.745  -3.711  -4.843  0.00  0.00     0.033 A 
ATOM      6  C6  UNL d   1      -3.102  -3.243  -3.693  0.00  0.00    -0.057 A 
ENDROOT
BRANCH   1   7
ATOM      7  N   UNL d   1      -1.130  -2.622  -2.464  0.00  0.00    -0.732 N 
ATOM      8  C   UNL d   1      -1.880  -1.880  -1.472  0.00  0.00     0.284 C 
ATOM      9  H3  UNL d   1      -0.546  -3.359  -2.077  0.00  0.00     0.395 HD
ENDBRANCH   1   7
TORSDOF 1
ENDMDL
