MODEL 1
REMARK minimizedAffinity 5.49984455
REMARK minimizedRMSD -1
REMARK  1 active torsions:
REMARK  status: ('A' for Active; 'I' for Inactive)
REMARK    1  A    between atoms: N_2  and  C1_3 
ROOT
ATOM      1  C1  UNL d   1      -2.031  -3.286  -3.370  0.00  0.00     0.143 A 
ATOM      2  C2  UNL d   1      -3.293  -3.844  -3.597  0.00  0.00    -0.057 A 
ATOM      3  C3  UNL d   1      -3.771  -4.056  -4.896  0.00  0.00     0.033 A 
ATOM      4  C4  UNL d   1      -3.002  -3.685  -5.995  0.00  0.00    -0.042 A 
ATOM      5  C5  UNL d   1      -1.754  -3.106  -5.793  0.00  0.00     0.033 A 
ATOM      6  C6  UNL d   1      -1.281  -2.903  -4.493  0.00  0.00    -0.057 A 
ENDROOT
BRANCH   1   7
ATOM      7  N   UNL d   1      -1.541  -2.960  -2.103  0.00  0.00    -0.732 N 
ATOM      8  C   UNL d   1      -2.042  -1.801  -1.395  0.00  0.00     0.284 C 
ATOM      9  H3  UNL d   1      -1.406  -3.780  -1.516  0.00  0.00     0.395 HD
ENDBRANCH   1   7
TORSDOF 1
ENDMDL
