MODEL 1
REMARK minimizedAffinity 2.60645938
REMARK minimizedRMSD -1
REMARK  1 active torsions:
REMARK  status: ('A' for Active; 'I' for Inactive)
REMARK    1  A    between atoms: N_2  and  C1_3 
ROOT
ATOM      1  C1  UNL d   1      -1.444  -2.562  -3.498  0.00  0.00     0.143 A 
ATOM      2  C2  UNL d   1      -2.105  -3.794  -3.532  0.00  0.00    -0.057 A 
ATOM      3  C3  UNL d   1      -2.343  -4.456  -4.743  0.00  0.00     0.033 A 
ATOM      4  C4  UNL d   1      -1.948  -3.882  -5.946  0.00  0.00    -0.042 A 
ATOM      5  C5  UNL d   1      -1.310  -2.646  -5.938  0.00  0.00     0.033 A 
ATOM      6  C6  UNL d   1      -1.070  -1.993  -4.725  0.00  0.00    -0.057 A 
ENDROOT
BRANCH   1   7
ATOM      7  N   UNL d   1      -1.265  -1.807  -2.336  0.00  0.00    -0.732 N 
ATOM      8  C   UNL d   1      -0.605  -2.377  -1.181  0.00  0.00     0.284 C 
ATOM      9  H3  UNL d   1      -0.998  -0.845  -2.534  0.00  0.00     0.395 HD
ENDBRANCH   1   7
TORSDOF 1
ENDMDL
