MODEL 1
REMARK minimizedAffinity 1.48768461
REMARK minimizedRMSD -1
REMARK  0 active torsions:
REMARK  status: ('A' for Active; 'I' for Inactive)
ROOT
ATOM      1  O1  BZF d   1      -0.739   0.503  -0.731  0.00  0.00    -0.204 OA
ATOM      2  C2  BZF d   1      -1.644  -0.514  -0.966  0.00  0.00     0.174 A 
ATOM      3  C3  BZF d   1      -2.170  -0.963   0.192  0.00  0.00    -0.012 A 
ATOM      4  C3A BZF d   1      -1.623  -0.116   1.207  0.00  0.00    -0.107 A 
ATOM      5  C4  BZF d   1      -1.780  -0.054   2.562  0.00  0.00     0.055 A 
ATOM      6  C5  BZF d   1      -1.046   0.844   3.271  0.00  0.00    -0.016 A 
ATOM      7  C6  BZF d   1      -0.145   1.690   2.659  0.00  0.00     0.022 A 
ATOM      8  C7  BZF d   1       0.041   1.669   1.317  0.00  0.00     0.029 A 
ATOM      9  C7A BZF d   1      -0.723   0.785   0.594  0.00  0.00     0.058 A 
ENDROOT
TORSDOF 0
ENDMDL
