MODEL 1
REMARK minimizedAffinity -4.23400307
REMARK minimizedRMSD -1
REMARK  0 active torsions:
REMARK  status: ('A' for Active; 'I' for Inactive)
ROOT
ATOM      1  O1  BZF d   1      -2.089   0.575   1.815  0.00  0.00    -0.204 OA
ATOM      2  C2  BZF d   1      -2.027  -0.316   0.761  0.00  0.00     0.174 A 
ATOM      3  C3  BZF d   1      -0.799  -0.316   0.205  0.00  0.00    -0.012 A 
ATOM      4  C3A BZF d   1      -0.019   0.567   1.016  0.00  0.00    -0.107 A 
ATOM      5  C4  BZF d   1       1.286   0.969   0.980  0.00  0.00     0.055 A 
ATOM      6  C5  BZF d   1       1.716   1.898   1.874  0.00  0.00    -0.016 A 
ATOM      7  C6  BZF d   1       0.869   2.449   2.812  0.00  0.00     0.022 A 
ATOM      8  C7  BZF d   1      -0.432   2.079   2.890  0.00  0.00     0.029 A 
ATOM      9  C7A BZF d   1      -0.862   1.116   2.010  0.00  0.00     0.058 A 
ENDROOT
TORSDOF 0
ENDMDL
