MODEL 1
REMARK minimizedAffinity 1.31594431
REMARK minimizedRMSD -1
REMARK  0 active torsions:
REMARK  status: ('A' for Active; 'I' for Inactive)
ROOT
ATOM      1  O1  BZF d   1       0.242  -0.899  -0.010  0.00  0.00    -0.204 OA
ATOM      2  C2  BZF d   1      -1.085  -0.664   0.294  0.00  0.00     0.174 A 
ATOM      3  C3  BZF d   1      -1.280   0.632   0.614  0.00  0.00    -0.012 A 
ATOM      4  C3A BZF d   1      -0.012   1.264   0.413  0.00  0.00    -0.107 A 
ATOM      5  C4  BZF d   1       0.428   2.550   0.550  0.00  0.00     0.055 A 
ATOM      6  C5  BZF d   1       1.743   2.822   0.346  0.00  0.00    -0.016 A 
ATOM      7  C6  BZF d   1       2.646   1.835   0.010  0.00  0.00     0.022 A 
ATOM      8  C7  BZF d   1       2.256   0.546  -0.141  0.00  0.00     0.029 A 
ATOM      9  C7A BZF d   1       0.921   0.272   0.032  0.00  0.00     0.058 A 
ENDROOT
TORSDOF 0
ENDMDL
