MODEL 1
REMARK minimizedAffinity -1.89237058
REMARK minimizedRMSD -1
REMARK  0 active torsions:
REMARK  status: ('A' for Active; 'I' for Inactive)
ROOT
ATOM      1  O1  BZF d   1       1.706  -0.282   2.489  0.00  0.00    -0.204 OA
ATOM      2  C2  BZF d   1       2.651  -0.736   1.590  0.00  0.00     0.174 A 
ATOM      3  C3  BZF d   1       2.099  -0.938   0.376  0.00  0.00    -0.012 A 
ATOM      4  C3A BZF d   1       0.743  -0.500   0.503  0.00  0.00    -0.107 A 
ATOM      5  C4  BZF d   1      -0.308  -0.436  -0.367  0.00  0.00     0.055 A 
ATOM      6  C5  BZF d   1      -1.520  -0.027   0.090  0.00  0.00    -0.016 A 
ATOM      7  C6  BZF d   1      -1.719   0.319   1.411  0.00  0.00     0.022 A 
ATOM      8  C7  BZF d   1      -0.706   0.276   2.310  0.00  0.00     0.029 A 
ATOM      9  C7A BZF d   1       0.528  -0.105   1.843  0.00  0.00     0.058 A 
ENDROOT
TORSDOF 0
ENDMDL
