MODEL 1
REMARK minimizedAffinity -2.70205498
REMARK minimizedRMSD -1
REMARK  0 active torsions:
REMARK  status: ('A' for Active; 'I' for Inactive)
ROOT
ATOM      1  O1  BZF d   1      -0.136  -0.740  -0.807  0.00  0.00    -0.204 OA
ATOM      2  C2  BZF d   1      -1.479  -0.604  -1.097  0.00  0.00     0.174 A 
ATOM      3  C3  BZF d   1      -2.163  -0.184  -0.014  0.00  0.00    -0.012 A 
ATOM      4  C3A BZF d   1      -1.172   0.041   0.993  0.00  0.00    -0.107 A 
ATOM      5  C4  BZF d   1      -1.228   0.480   2.285  0.00  0.00     0.055 A 
ATOM      6  C5  BZF d   1      -0.086   0.518   3.020  0.00  0.00    -0.016 A 
ATOM      7  C6  BZF d   1       1.127   0.118   2.498  0.00  0.00     0.022 A 
ATOM      8  C7  BZF d   1       1.234  -0.320   1.220  0.00  0.00     0.029 A 
ATOM      9  C7A BZF d   1       0.087  -0.328   0.464  0.00  0.00     0.058 A 
ENDROOT
TORSDOF 0
ENDMDL
