MODEL 1
REMARK minimizedAffinity -1.26417053
REMARK minimizedRMSD -1
REMARK  0 active torsions:
REMARK  status: ('A' for Active; 'I' for Inactive)
ROOT
ATOM      1  O1  BZF d   1      -0.331  -2.497   4.598  0.00  0.00    -0.204 OA
ATOM      2  C2  BZF d   1      -1.706  -2.523   4.732  0.00  0.00     0.174 A 
ATOM      3  C3  BZF d   1      -2.229  -1.297   4.530  0.00  0.00    -0.012 A 
ATOM      4  C3A BZF d   1      -1.121  -0.470   4.162  0.00  0.00    -0.107 A 
ATOM      5  C4  BZF d   1      -1.005   0.848   3.822  0.00  0.00     0.055 A 
ATOM      6  C5  BZF d   1       0.231   1.363   3.589  0.00  0.00    -0.016 A 
ATOM      7  C6  BZF d   1       1.370   0.592   3.691  0.00  0.00     0.022 A 
ATOM      8  C7  BZF d   1       1.305  -0.721   4.021  0.00  0.00     0.029 A 
ATOM      9  C7A BZF d   1       0.055  -1.253   4.225  0.00  0.00     0.058 A 
ENDROOT
TORSDOF 0
ENDMDL
