MODEL 1
REMARK minimizedAffinity -0.991184711
REMARK minimizedRMSD -1
REMARK  1 active torsions:
REMARK  status: ('A' for Active; 'I' for Inactive)
REMARK    1  A    between atoms: C1_2  and  C2_3 
ROOT
ATOM      1  C2  UNL d   1      -1.532  -5.329  -1.924  0.00  0.00    -0.073 A 
ATOM      2  C3  UNL d   1      -2.118  -5.670  -3.148  0.00  0.00    -0.002 A 
ATOM      3  C4  UNL d   1      -1.319  -5.999  -4.244  0.00  0.00     0.004 A 
ATOM      4  C5  UNL d   1       0.070  -5.998  -4.126  0.00  0.00    -0.004 A 
ATOM      5  C6  UNL d   1       0.674  -5.672  -2.907  0.00  0.00    -0.075 A 
ATOM      6  C7  UNL d   1       2.168  -5.664  -2.764  0.00  0.00     0.076 C 
ATOM      7  C8  UNL d   1      -0.134  -5.340  -1.812  0.00  0.00     0.001 A 
ENDROOT
BRANCH   1   8
ATOM      8  C1  UNL d   1      -2.390  -4.980  -0.736  0.00  0.00     0.053 C 
ATOM      9  C   UNL d   1      -3.333  -3.825  -1.034  0.00  0.00     0.018 C 
ENDBRANCH   1   8
TORSDOF 1
ENDMDL
