MODEL 1
REMARK minimizedAffinity 3.43682814
REMARK minimizedRMSD -1
REMARK  1 active torsions:
REMARK  status: ('A' for Active; 'I' for Inactive)
REMARK    1  A    between atoms: C1_2  and  C2_3 
ROOT
ATOM      1  C2  UNL d   1      -2.255   1.775   0.667  0.00  0.00    -0.073 A 
ATOM      2  C3  UNL d   1      -2.186   0.392   0.868  0.00  0.00    -0.002 A 
ATOM      3  C4  UNL d   1      -3.344  -0.342   1.126  0.00  0.00     0.004 A 
ATOM      4  C5  UNL d   1      -4.583   0.296   1.178  0.00  0.00    -0.004 A 
ATOM      5  C6  UNL d   1      -4.675   1.676   0.968  0.00  0.00    -0.075 A 
ATOM      6  C7  UNL d   1      -5.999   2.378   1.022  0.00  0.00     0.076 C 
ATOM      7  C8  UNL d   1      -3.507   2.407   0.712  0.00  0.00     0.001 A 
ENDROOT
BRANCH   1   8
ATOM      8  C1  UNL d   1      -1.008   2.571   0.381  0.00  0.00     0.053 C 
ATOM      9  C   UNL d   1       0.251   1.825   0.795  0.00  0.00     0.018 C 
ENDBRANCH   1   8
TORSDOF 1
ENDMDL
