MODEL 1
REMARK minimizedAffinity 8.94708538
REMARK minimizedRMSD -1
REMARK  1 active torsions:
REMARK  status: ('A' for Active; 'I' for Inactive)
REMARK    1  A    between atoms: C1_2  and  C2_3 
ROOT
ATOM      1  C2  UNL d   1      -1.677   1.986   0.249  0.00  0.00    -0.073 A 
ATOM      2  C3  UNL d   1      -0.342   2.110  -0.153  0.00  0.00    -0.002 A 
ATOM      3  C4  UNL d   1       0.670   1.458   0.552  0.00  0.00     0.004 A 
ATOM      4  C5  UNL d   1       0.358   0.671   1.661  0.00  0.00    -0.004 A 
ATOM      5  C6  UNL d   1      -0.971   0.524   2.071  0.00  0.00    -0.075 A 
ATOM      6  C7  UNL d   1      -1.323  -0.317   3.262  0.00  0.00     0.076 C 
ATOM      7  C8  UNL d   1      -1.981   1.185   1.359  0.00  0.00     0.001 A 
ENDROOT
BRANCH   1   8
ATOM      8  C1  UNL d   1      -2.774   2.683  -0.513  0.00  0.00     0.053 C 
ATOM      9  C   UNL d   1      -4.077   2.720   0.269  0.00  0.00     0.018 C 
ENDBRANCH   1   8
TORSDOF 1
ENDMDL
