MODEL 1
REMARK minimizedAffinity -3.76571798
REMARK minimizedRMSD -1
REMARK  1 active torsions:
REMARK  status: ('A' for Active; 'I' for Inactive)
REMARK    1  A    between atoms: C1_2  and  C2_3 
ROOT
ATOM      1  C2  UNL d   1      -3.827   1.613   0.580  0.00  0.00    -0.073 A 
ATOM      2  C3  UNL d   1      -3.325   2.741  -0.079  0.00  0.00    -0.002 A 
ATOM      3  C4  UNL d   1      -1.961   2.848  -0.354  0.00  0.00     0.004 A 
ATOM      4  C5  UNL d   1      -1.087   1.826   0.019  0.00  0.00    -0.004 A 
ATOM      5  C6  UNL d   1      -1.572   0.686   0.668  0.00  0.00    -0.075 A 
ATOM      6  C7  UNL d   1      -0.646  -0.421   1.078  0.00  0.00     0.076 C 
ATOM      7  C8  UNL d   1      -2.943   0.588   0.943  0.00  0.00     0.001 A 
ENDROOT
BRANCH   1   8
ATOM      8  C1  UNL d   1      -5.300   1.491   0.873  0.00  0.00     0.053 C 
ATOM      9  C   UNL d   1      -5.981   2.849   0.949  0.00  0.00     0.018 C 
ENDBRANCH   1   8
TORSDOF 1
ENDMDL
