MODEL 1
REMARK minimizedAffinity 2.10354209
REMARK minimizedRMSD -1
REMARK  1 active torsions:
REMARK  status: ('A' for Active; 'I' for Inactive)
REMARK    1  A    between atoms: C1_2  and  C2_3 
ROOT
ATOM      1  C2  UNL d   1      -0.998   1.711  -0.079  0.00  0.00    -0.073 A 
ATOM      2  C3  UNL d   1       0.364   1.765  -0.394  0.00  0.00    -0.002 A 
ATOM      3  C4  UNL d   1       1.286   1.012   0.334  0.00  0.00     0.004 A 
ATOM      4  C5  UNL d   1       0.856   0.194   1.379  0.00  0.00    -0.004 A 
ATOM      5  C6  UNL d   1      -0.503   0.118   1.701  0.00  0.00    -0.075 A 
ATOM      6  C7  UNL d   1      -0.981  -0.755   2.824  0.00  0.00     0.076 C 
ATOM      7  C8  UNL d   1      -1.422   0.879   0.967  0.00  0.00     0.001 A 
ENDROOT
BRANCH   1   8
ATOM      8  C1  UNL d   1      -1.999   2.517  -0.867  0.00  0.00     0.053 C 
ATOM      9  C   UNL d   1      -3.190   2.933  -0.019  0.00  0.00     0.018 C 
ENDBRANCH   1   8
TORSDOF 1
ENDMDL
