MODEL 1
REMARK minimizedAffinity -1.26381934
REMARK minimizedRMSD -1
REMARK  1 active torsions:
REMARK  status: ('A' for Active; 'I' for Inactive)
REMARK    1  A    between atoms: C1_2  and  C2_3 
ROOT
ATOM      1  C2  UNL d   1      -2.690   1.768   0.639  0.00  0.00    -0.073 A 
ATOM      2  C3  UNL d   1      -2.801   0.670   1.500  0.00  0.00    -0.002 A 
ATOM      3  C4  UNL d   1      -1.698  -0.150   1.742  0.00  0.00     0.004 A 
ATOM      4  C5  UNL d   1      -0.473   0.123   1.133  0.00  0.00    -0.004 A 
ATOM      5  C6  UNL d   1      -0.339   1.222   0.278  0.00  0.00    -0.075 A 
ATOM      6  C7  UNL d   1       0.971   1.528  -0.387  0.00  0.00     0.076 C 
ATOM      7  C8  UNL d   1      -1.452   2.040   0.038  0.00  0.00     0.001 A 
ENDROOT
BRANCH   1   8
ATOM      8  C1  UNL d   1      -3.876   2.660   0.380  0.00  0.00     0.053 C 
ATOM      9  C   UNL d   1      -5.141   2.132   1.038  0.00  0.00     0.018 C 
ENDBRANCH   1   8
TORSDOF 1
ENDMDL
