MODEL 1
REMARK minimizedAffinity -3.4413197
REMARK minimizedRMSD -1
REMARK  1 active torsions:
REMARK  status: ('A' for Active; 'I' for Inactive)
REMARK    1  A    between atoms: C1_2  and  C2_3 
ROOT
ATOM      1  C2  UNL d   1      -2.833   1.298   0.270  0.00  0.00    -0.073 A 
ATOM      2  C3  UNL d   1      -2.105   0.271   0.882  0.00  0.00    -0.002 A 
ATOM      3  C4  UNL d   1      -0.710   0.295   0.875  0.00  0.00     0.004 A 
ATOM      4  C5  UNL d   1      -0.029   1.347   0.263  0.00  0.00    -0.004 A 
ATOM      5  C6  UNL d   1      -0.739   2.388  -0.344  0.00  0.00    -0.075 A 
ATOM      6  C7  UNL d   1      -0.021   3.526  -1.008  0.00  0.00     0.076 C 
ATOM      7  C8  UNL d   1      -2.140   2.356  -0.334  0.00  0.00     0.001 A 
ENDROOT
BRANCH   1   8
ATOM      8  C1  UNL d   1      -4.340   1.280   0.281  0.00  0.00     0.053 C 
ATOM      9  C   UNL d   1      -4.922   2.591   0.784  0.00  0.00     0.018 C 
ENDBRANCH   1   8
TORSDOF 1
ENDMDL
