MODEL 1
REMARK minimizedAffinity -2.47322297
REMARK minimizedRMSD -1
REMARK  1 active torsions:
REMARK  status: ('A' for Active; 'I' for Inactive)
REMARK    1  A    between atoms: C1_2  and  C2_3 
ROOT
ATOM      1  C2  UNL d   1      -3.275   1.618   0.417  0.00  0.00    -0.073 A 
ATOM      2  C3  UNL d   1      -3.242   0.408   1.119  0.00  0.00    -0.002 A 
ATOM      3  C4  UNL d   1      -2.059  -0.329   1.197  0.00  0.00     0.004 A 
ATOM      4  C5  UNL d   1      -0.898   0.139   0.582  0.00  0.00    -0.004 A 
ATOM      5  C6  UNL d   1      -0.909   1.353  -0.114  0.00  0.00    -0.075 A 
ATOM      6  C7  UNL d   1       0.331   1.869  -0.783  0.00  0.00     0.076 C 
ATOM      7  C8  UNL d   1      -2.101   2.085  -0.190  0.00  0.00     0.001 A 
ENDROOT
BRANCH   1   8
ATOM      8  C1  UNL d   1      -4.548   2.420   0.335  0.00  0.00     0.053 C 
ATOM      9  C   UNL d   1      -5.739   1.659   0.896  0.00  0.00     0.018 C 
ENDBRANCH   1   8
TORSDOF 1
ENDMDL
