MODEL 1
REMARK minimizedAffinity -1.75385189
REMARK minimizedRMSD -1
REMARK  0 active torsions:
REMARK  status: ('A' for Active; 'I' for Inactive)
ROOT
ATOM      1  C   UNL d   1       1.798   1.337  -1.733  0.00  0.00    -0.002 A 
ATOM      2  C1  UNL d   1       2.200   0.032  -1.977  0.00  0.00     0.010 A 
ATOM      3  C2  UNL d   1       1.676  -1.024  -1.229  0.00  0.00     0.041 A 
ATOM      4  C3  UNL d   1       0.730  -0.744  -0.224  0.00  0.00    -0.075 A 
ATOM      5  S   UNL d   1      -0.048  -1.877   0.817  0.00  0.00     0.015 SA
ATOM      6  C4  UNL d   1      -0.933  -0.656   1.609  0.00  0.00     0.022 A 
ATOM      7  C5  UNL d   1      -0.654   0.593   1.105  0.00  0.00     0.026 A 
ATOM      8  C6  UNL d   1       0.309   0.562   0.040  0.00  0.00    -0.082 A 
ATOM      9  C7  UNL d   1       0.859   1.612  -0.735  0.00  0.00     0.045 A 
ENDROOT
TORSDOF 0
ENDMDL
