MODEL 1
REMARK minimizedAffinity -4.02438593
REMARK minimizedRMSD -1
REMARK  0 active torsions:
REMARK  status: ('A' for Active; 'I' for Inactive)
ROOT
ATOM      1  C   UNL d   1       1.808   0.710  -2.563  0.00  0.00    -0.002 A 
ATOM      2  C1  UNL d   1       1.263  -0.535  -2.844  0.00  0.00     0.010 A 
ATOM      3  C2  UNL d   1       0.567  -1.243  -1.862  0.00  0.00     0.041 A 
ATOM      4  C3  UNL d   1       0.427  -0.673  -0.582  0.00  0.00    -0.075 A 
ATOM      5  S   UNL d   1      -0.385  -1.357   0.777  0.00  0.00     0.015 SA
ATOM      6  C4  UNL d   1      -0.027  -0.013   1.762  0.00  0.00     0.022 A 
ATOM      7  C5  UNL d   1       0.693   0.944   1.087  0.00  0.00     0.026 A 
ATOM      8  C6  UNL d   1       0.966   0.579  -0.275  0.00  0.00    -0.082 A 
ATOM      9  C7  UNL d   1       1.667   1.272  -1.292  0.00  0.00     0.045 A 
ENDROOT
TORSDOF 0
ENDMDL
