MODEL 1
REMARK minimizedAffinity -2.09878635
REMARK minimizedRMSD -1
REMARK  0 active torsions:
REMARK  status: ('A' for Active; 'I' for Inactive)
ROOT
ATOM      1  C   UNL d   1       1.535   1.192  -0.752  0.00  0.00    -0.002 A 
ATOM      2  C1  UNL d   1       0.457   1.856  -1.319  0.00  0.00     0.010 A 
ATOM      3  C2  UNL d   1      -0.831   1.684  -0.810  0.00  0.00     0.041 A 
ATOM      4  C3  UNL d   1      -1.020   0.827   0.292  0.00  0.00    -0.075 A 
ATOM      5  S   UNL d   1      -2.507   0.464   1.084  0.00  0.00     0.015 SA
ATOM      6  C4  UNL d   1      -1.747  -0.581   2.196  0.00  0.00     0.022 A 
ATOM      7  C5  UNL d   1      -0.391  -0.663   1.982  0.00  0.00     0.026 A 
ATOM      8  C6  UNL d   1       0.050   0.147   0.881  0.00  0.00    -0.082 A 
ATOM      9  C7  UNL d   1       1.344   0.342   0.341  0.00  0.00     0.045 A 
ENDROOT
TORSDOF 0
ENDMDL
