MODEL 1
REMARK minimizedAffinity -1.88066673
REMARK minimizedRMSD -1
REMARK  0 active torsions:
REMARK  status: ('A' for Active; 'I' for Inactive)
ROOT
ATOM      1  C   UNL d   1       2.139   0.795  -1.698  0.00  0.00    -0.002 A 
ATOM      2  C1  UNL d   1       1.492   1.905  -1.175  0.00  0.00     0.010 A 
ATOM      3  C2  UNL d   1       0.436   1.752  -0.274  0.00  0.00     0.041 A 
ATOM      4  C3  UNL d   1       0.039   0.453   0.097  0.00  0.00    -0.075 A 
ATOM      5  S   UNL d   1      -1.228   0.023   1.185  0.00  0.00     0.015 SA
ATOM      6  C4  UNL d   1      -0.938  -1.644   0.982  0.00  0.00     0.022 A 
ATOM      7  C5  UNL d   1       0.096  -1.885   0.109  0.00  0.00     0.026 A 
ATOM      8  C6  UNL d   1       0.676  -0.681  -0.415  0.00  0.00    -0.082 A 
ATOM      9  C7  UNL d   1       1.743  -0.493  -1.327  0.00  0.00     0.045 A 
ENDROOT
TORSDOF 0
ENDMDL
