MODEL 1
REMARK minimizedAffinity -1.90662301
REMARK minimizedRMSD -1
REMARK  0 active torsions:
REMARK  status: ('A' for Active; 'I' for Inactive)
ROOT
ATOM      1  C   UNL d   1       2.269   0.935  -2.283  0.00  0.00    -0.002 A 
ATOM      2  C1  UNL d   1       1.721   1.991  -1.568  0.00  0.00     0.010 A 
ATOM      3  C2  UNL d   1       0.908   1.751  -0.459  0.00  0.00     0.041 A 
ATOM      4  C3  UNL d   1       0.654   0.420  -0.075  0.00  0.00    -0.075 A 
ATOM      5  S   UNL d   1      -0.311  -0.114   1.251  0.00  0.00     0.015 SA
ATOM      6  C4  UNL d   1      -0.017  -1.756   0.900  0.00  0.00     0.022 A 
ATOM      7  C5  UNL d   1       0.795  -1.911  -0.198  0.00  0.00     0.026 A 
ATOM      8  C6  UNL d   1       1.196  -0.660  -0.778  0.00  0.00    -0.082 A 
ATOM      9  C7  UNL d   1       2.015  -0.384  -1.899  0.00  0.00     0.045 A 
ENDROOT
TORSDOF 0
ENDMDL
