MODEL 1
REMARK minimizedAffinity -2.76553702
REMARK minimizedRMSD -1
REMARK  0 active torsions:
REMARK  status: ('A' for Active; 'I' for Inactive)
ROOT
ATOM      1  C   UNL d   1       1.589   0.983  -2.020  0.00  0.00    -0.002 A 
ATOM      2  C1  UNL d   1       2.255  -0.226  -1.876  0.00  0.00     0.010 A 
ATOM      3  C2  UNL d   1       1.885  -1.126  -0.875  0.00  0.00     0.041 A 
ATOM      4  C3  UNL d   1       0.823  -0.788  -0.013  0.00  0.00    -0.075 A 
ATOM      5  S   UNL d   1       0.196  -1.734   1.284  0.00  0.00     0.015 SA
ATOM      6  C4  UNL d   1      -0.971  -0.557   1.678  0.00  0.00     0.022 A 
ATOM      7  C5  UNL d   1      -0.898   0.539   0.850  0.00  0.00     0.026 A 
ATOM      8  C6  UNL d   1       0.137   0.423  -0.138  0.00  0.00    -0.082 A 
ATOM      9  C7  UNL d   1       0.536   1.315  -1.163  0.00  0.00     0.045 A 
ENDROOT
TORSDOF 0
ENDMDL
