MODEL 1
REMARK minimizedAffinity -0.191405848
REMARK minimizedRMSD -1
REMARK  0 active torsions:
REMARK  status: ('A' for Active; 'I' for Inactive)
ROOT
ATOM      1  C   UNL d   1       0.779  -0.438  -0.032  0.00  0.00    -0.002 A 
ATOM      2  C1  UNL d   1      -0.024  -0.306  -1.156  0.00  0.00     0.010 A 
ATOM      3  C2  UNL d   1      -1.346   0.126  -1.037  0.00  0.00     0.041 A 
ATOM      4  C3  UNL d   1      -1.852   0.428   0.243  0.00  0.00    -0.075 A 
ATOM      5  S   UNL d   1      -3.441   0.975   0.630  0.00  0.00     0.015 SA
ATOM      6  C4  UNL d   1      -3.090   1.046   2.297  0.00  0.00     0.022 A 
ATOM      7  C5  UNL d   1      -1.798   0.665   2.569  0.00  0.00     0.026 A 
ATOM      8  C6  UNL d   1      -1.063   0.303   1.389  0.00  0.00    -0.082 A 
ATOM      9  C7  UNL d   1       0.274  -0.138   1.236  0.00  0.00     0.045 A 
ENDROOT
TORSDOF 0
ENDMDL
