MODEL 1
REMARK minimizedAffinity -2.44457626
REMARK minimizedRMSD -1
REMARK  0 active torsions:
REMARK  status: ('A' for Active; 'I' for Inactive)
ROOT
ATOM      1  C   UNL d   1      -3.976  -0.042   1.631  0.00  0.00    -0.002 A 
ATOM      2  C1  UNL d   1      -3.228   0.523   2.654  0.00  0.00     0.010 A 
ATOM      3  C2  UNL d   1      -1.854   0.721   2.502  0.00  0.00     0.041 A 
ATOM      4  C3  UNL d   1      -1.240   0.340   1.293  0.00  0.00    -0.075 A 
ATOM      5  S   UNL d   1       0.428   0.488   0.882  0.00  0.00     0.015 SA
ATOM      6  C4  UNL d   1       0.186  -0.195  -0.661  0.00  0.00     0.022 A 
ATOM      7  C5  UNL d   1      -1.129  -0.534  -0.874  0.00  0.00     0.026 A 
ATOM      8  C6  UNL d   1      -1.973  -0.231   0.248  0.00  0.00    -0.082 A 
ATOM      9  C7  UNL d   1      -3.364  -0.420   0.433  0.00  0.00     0.045 A 
ENDROOT
TORSDOF 0
ENDMDL
