MODEL 1
REMARK minimizedAffinity -6.4199295
REMARK minimizedRMSD -1
REMARK  3 active torsions:
REMARK  status: ('A' for Active; 'I' for Inactive)
REMARK    1  A    between atoms: C3'_2  and  C2'_3 
REMARK    2  A    between atoms: C2'_3  and  C1'_4 
REMARK    3  A    between atoms: C1'_4  and  C1_5 
ROOT
ATOM      1  C1  N4B d   1      -0.052   0.270  -0.039  0.00  0.00    -0.075 A 
ATOM      2  C2  N4B d   1       1.051   0.863  -0.692  0.00  0.00     0.002 A 
ATOM      3  C3  N4B d   1       1.177   2.231  -0.720  0.00  0.00     0.002 A 
ATOM      4  C4  N4B d   1       0.208   3.021  -0.122  0.00  0.00    -0.004 A 
ATOM      5  C5  N4B d   1      -0.841   2.440   0.528  0.00  0.00     0.002 A 
ATOM      6  C6  N4B d   1      -0.978   1.067   0.568  0.00  0.00     0.002 A 
ENDROOT
BRANCH   1   7
ATOM      7  C1' N4B d   1      -0.278  -1.217  -0.056  0.00  0.00     0.057 C 
BRANCH   7   8
ATOM      8  C2' N4B d   1       0.034  -1.756  -1.449  0.00  0.00     0.009 C 
BRANCH   8   9
ATOM      9  C3' N4B d   1      -1.088  -2.628  -1.985  0.00  0.00     0.004 C 
ATOM     10  C4' N4B d   1      -1.352  -3.829  -1.126  0.00  0.00     0.003 C 
ENDBRANCH   8   9
ENDBRANCH   7   8
ENDBRANCH   1   7
TORSDOF 3
ENDMDL
