MODEL 1
REMARK minimizedAffinity -5.6802206
REMARK minimizedRMSD -1
REMARK  3 active torsions:
REMARK  status: ('A' for Active; 'I' for Inactive)
REMARK    1  A    between atoms: C3'_2  and  C2'_3 
REMARK    2  A    between atoms: C2'_3  and  C1'_4 
REMARK    3  A    between atoms: C1'_4  and  C1_5 
ROOT
ATOM      1  C1  N4B d   1       0.009   1.075  -0.001  0.00  0.00    -0.075 A 
ATOM      2  C2  N4B d   1      -0.460   2.400   0.139  0.00  0.00     0.002 A 
ATOM      3  C3  N4B d   1       0.432   3.429   0.320  0.00  0.00     0.002 A 
ATOM      4  C4  N4B d   1       1.790   3.155   0.385  0.00  0.00    -0.004 A 
ATOM      5  C5  N4B d   1       2.236   1.876   0.224  0.00  0.00     0.002 A 
ATOM      6  C6  N4B d   1       1.351   0.833   0.036  0.00  0.00     0.002 A 
ENDROOT
BRANCH   1   7
ATOM      7  C1' N4B d   1      -0.933  -0.092  -0.116  0.00  0.00     0.057 C 
BRANCH   7   8
ATOM      8  C2' N4B d   1      -0.198  -1.268  -0.752  0.00  0.00     0.009 C 
BRANCH   8   9
ATOM      9  C3' N4B d   1      -1.120  -2.450  -0.996  0.00  0.00     0.004 C 
ATOM     10  C4' N4B d   1      -0.811  -3.173  -2.273  0.00  0.00     0.003 C 
ENDBRANCH   8   9
ENDBRANCH   7   8
ENDBRANCH   1   7
TORSDOF 3
ENDMDL
