MODEL 1
REMARK minimizedAffinity -2.07495308
REMARK minimizedRMSD -1
REMARK  3 active torsions:
REMARK  status: ('A' for Active; 'I' for Inactive)
REMARK    1  A    between atoms: C3'_2  and  C2'_3 
REMARK    2  A    between atoms: C2'_3  and  C1'_4 
REMARK    3  A    between atoms: C1'_4  and  C1_5 
ROOT
ATOM      1  C1  N4B d   1      -0.676  -0.119   0.152  0.00  0.00    -0.075 A 
ATOM      2  C2  N4B d   1      -1.550   0.963   0.397  0.00  0.00     0.002 A 
ATOM      3  C3  N4B d   1      -1.076   2.251   0.356  0.00  0.00     0.002 A 
ATOM      4  C4  N4B d   1       0.266   2.480   0.091  0.00  0.00    -0.004 A 
ATOM      5  C5  N4B d   1       1.098   1.431  -0.170  0.00  0.00     0.002 A 
ATOM      6  C6  N4B d   1       0.635   0.131  -0.136  0.00  0.00     0.002 A 
ENDROOT
BRANCH   1   7
ATOM      7  C1' N4B d   1      -1.129  -1.548   0.271  0.00  0.00     0.057 C 
BRANCH   7   8
ATOM      8  C2' N4B d   1      -1.129  -2.190  -1.113  0.00  0.00     0.009 C 
BRANCH   8   9
ATOM      9  C3' N4B d   1      -1.512  -3.659  -1.058  0.00  0.00     0.004 C 
ATOM     10  C4' N4B d   1      -2.850  -3.888  -0.419  0.00  0.00     0.003 C 
ENDBRANCH   8   9
ENDBRANCH   7   8
ENDBRANCH   1   7
TORSDOF 3
ENDMDL
