MODEL 1
REMARK minimizedAffinity -2.42885542
REMARK minimizedRMSD -1
REMARK  3 active torsions:
REMARK  status: ('A' for Active; 'I' for Inactive)
REMARK    1  A    between atoms: C3'_2  and  C2'_3 
REMARK    2  A    between atoms: C2'_3  and  C1'_4 
REMARK    3  A    between atoms: C1'_4  and  C1_5 
ROOT
ATOM      1  C1  N4B d   1      -0.303   0.008   0.329  0.00  0.00    -0.075 A 
ATOM      2  C2  N4B d   1       0.765   0.667  -0.319  0.00  0.00     0.002 A 
ATOM      3  C3  N4B d   1       0.767   2.036  -0.421  0.00  0.00     0.002 A 
ATOM      4  C4  N4B d   1      -0.293   2.764   0.099  0.00  0.00    -0.004 A 
ATOM      5  C5  N4B d   1      -1.308   2.122   0.746  0.00  0.00     0.002 A 
ATOM      6  C6  N4B d   1      -1.321   0.747   0.859  0.00  0.00     0.002 A 
ENDROOT
BRANCH   1   7
ATOM      7  C1' N4B d   1      -0.391  -1.492   0.390  0.00  0.00     0.057 C 
BRANCH   7   8
ATOM      8  C2' N4B d   1      -1.643  -1.950  -0.351  0.00  0.00     0.009 C 
BRANCH   8   9
ATOM      9  C3' N4B d   1      -1.520  -3.382  -0.844  0.00  0.00     0.004 C 
ATOM     10  C4' N4B d   1      -1.258  -3.467  -2.319  0.00  0.00     0.003 C 
ENDBRANCH   8   9
ENDBRANCH   7   8
ENDBRANCH   1   7
TORSDOF 3
ENDMDL
