MODEL 1
REMARK minimizedAffinity -4.86212254
REMARK minimizedRMSD -1
REMARK  3 active torsions:
REMARK  status: ('A' for Active; 'I' for Inactive)
REMARK    1  A    between atoms: C3'_2  and  C2'_3 
REMARK    2  A    between atoms: C2'_3  and  C1'_4 
REMARK    3  A    between atoms: C1'_4  and  C1_5 
ROOT
ATOM      1  C1  N4B d   1      -0.082   0.431   0.017  0.00  0.00    -0.075 A 
ATOM      2  C2  N4B d   1      -1.246   1.181   0.293  0.00  0.00     0.002 A 
ATOM      3  C3  N4B d   1      -1.175   2.549   0.386  0.00  0.00     0.002 A 
ATOM      4  C4  N4B d   1       0.047   3.185   0.226  0.00  0.00    -0.004 A 
ATOM      5  C5  N4B d   1       1.162   2.455  -0.066  0.00  0.00     0.002 A 
ATOM      6  C6  N4B d   1       1.105   1.079  -0.167  0.00  0.00     0.002 A 
ENDROOT
BRANCH   1   7
ATOM      7  C1' N4B d   1      -0.095  -1.073  -0.010  0.00  0.00     0.057 C 
BRANCH   7   8
ATOM      8  C2' N4B d   1      -0.243  -1.548  -1.452  0.00  0.00     0.009 C 
BRANCH   8   9
ATOM      9  C3' N4B d   1      -0.887  -2.921  -1.535  0.00  0.00     0.004 C 
ATOM     10  C4' N4B d   1      -1.249  -3.309  -2.938  0.00  0.00     0.003 C 
ENDBRANCH   8   9
ENDBRANCH   7   8
ENDBRANCH   1   7
TORSDOF 3
ENDMDL
