MODEL 1
REMARK minimizedAffinity -5.48523188
REMARK minimizedRMSD -1
REMARK  3 active torsions:
REMARK  status: ('A' for Active; 'I' for Inactive)
REMARK    1  A    between atoms: C3'_2  and  C2'_3 
REMARK    2  A    between atoms: C2'_3  and  C1'_4 
REMARK    3  A    between atoms: C1'_4  and  C1_5 
ROOT
ATOM      1  C1  N4B d   1       0.260   0.995   0.005  0.00  0.00    -0.075 A 
ATOM      2  C2  N4B d   1       1.614   0.974   0.404  0.00  0.00     0.002 A 
ATOM      3  C3  N4B d   1       2.224   2.131   0.824  0.00  0.00     0.002 A 
ATOM      4  C4  N4B d   1       1.508   3.318   0.836  0.00  0.00    -0.004 A 
ATOM      5  C5  N4B d   1       0.193   3.325   0.473  0.00  0.00     0.002 A 
ATOM      6  C6  N4B d   1      -0.434   2.169   0.053  0.00  0.00     0.002 A 
ENDROOT
BRANCH   1   7
ATOM      7  C1' N4B d   1      -0.426  -0.227  -0.544  0.00  0.00     0.057 C 
BRANCH   7   8
ATOM      8  C2' N4B d   1       0.297  -1.474  -0.042  0.00  0.00     0.009 C 
BRANCH   8   9
ATOM      9  C3' N4B d   1      -0.321  -2.748  -0.591  0.00  0.00     0.004 C 
ATOM     10  C4' N4B d   1      -0.332  -2.789  -2.090  0.00  0.00     0.003 C 
ENDBRANCH   8   9
ENDBRANCH   7   8
ENDBRANCH   1   7
TORSDOF 3
ENDMDL
