MODEL 1
REMARK minimizedAffinity -2.03959346
REMARK minimizedRMSD -1
REMARK  3 active torsions:
REMARK  status: ('A' for Active; 'I' for Inactive)
REMARK    1  A    between atoms: C3'_2  and  C2'_3 
REMARK    2  A    between atoms: C2'_3  and  C1'_4 
REMARK    3  A    between atoms: C1'_4  and  C1_5 
ROOT
ATOM      1  C1  N4B d   1       0.030   0.507  -0.873  0.00  0.00    -0.075 A 
ATOM      2  C2  N4B d   1       0.344   1.858  -1.137  0.00  0.00     0.002 A 
ATOM      3  C3  N4B d   1      -0.017   2.835  -0.242  0.00  0.00     0.002 A 
ATOM      4  C4  N4B d   1      -0.706   2.488   0.910  0.00  0.00    -0.004 A 
ATOM      5  C5  N4B d   1      -0.983   1.178   1.171  0.00  0.00     0.002 A 
ATOM      6  C6  N4B d   1      -0.623   0.185   0.282  0.00  0.00     0.002 A 
ENDROOT
BRANCH   1   7
ATOM      7  C1' N4B d   1       0.328  -0.586  -1.862  0.00  0.00     0.057 C 
BRANCH   7   8
ATOM      8  C2' N4B d   1      -0.057  -1.931  -1.254  0.00  0.00     0.009 C 
BRANCH   8   9
ATOM      9  C3' N4B d   1      -0.725  -2.843  -2.269  0.00  0.00     0.004 C 
ATOM     10  C4' N4B d   1      -2.019  -3.416  -1.772  0.00  0.00     0.003 C 
ENDBRANCH   8   9
ENDBRANCH   7   8
ENDBRANCH   1   7
TORSDOF 3
ENDMDL
