MODEL 1
REMARK minimizedAffinity -3.87243223
REMARK minimizedRMSD -1
REMARK  3 active torsions:
REMARK  status: ('A' for Active; 'I' for Inactive)
REMARK    1  A    between atoms: C3'_2  and  C2'_3 
REMARK    2  A    between atoms: C2'_3  and  C1'_4 
REMARK    3  A    between atoms: C1'_4  and  C1_5 
ROOT
ATOM      1  C1  N4B d   1      -0.166  -1.713  -0.430  0.00  0.00    -0.075 A 
ATOM      2  C2  N4B d   1      -1.237  -2.578  -0.117  0.00  0.00     0.002 A 
ATOM      3  C3  N4B d   1      -1.486  -3.675  -0.905  0.00  0.00     0.002 A 
ATOM      4  C4  N4B d   1      -0.693  -3.915  -2.017  0.00  0.00    -0.004 A 
ATOM      5  C5  N4B d   1       0.355  -3.088  -2.298  0.00  0.00     0.002 A 
ATOM      6  C6  N4B d   1       0.620  -1.985  -1.513  0.00  0.00     0.002 A 
ENDROOT
BRANCH   1   7
ATOM      7  C1' N4B d   1       0.093  -0.454   0.352  0.00  0.00     0.057 C 
BRANCH   7   8
ATOM      8  C2' N4B d   1      -1.214   0.320   0.501  0.00  0.00     0.009 C 
BRANCH   8   9
ATOM      9  C3' N4B d   1      -1.013   1.815   0.319  0.00  0.00     0.004 C 
ATOM     10  C4' N4B d   1       0.182   2.335   1.062  0.00  0.00     0.003 C 
ENDBRANCH   8   9
ENDBRANCH   7   8
ENDBRANCH   1   7
TORSDOF 3
ENDMDL
