MODEL 1
REMARK minimizedAffinity -4.40937042
REMARK minimizedRMSD -1
REMARK  3 active torsions:
REMARK  status: ('A' for Active; 'I' for Inactive)
REMARK    1  A    between atoms: C3'_2  and  C2'_3 
REMARK    2  A    between atoms: C2'_3  and  C1'_4 
REMARK    3  A    between atoms: C1'_4  and  C1_5 
ROOT
ATOM      1  C1  N4B d   1       0.016   0.225  -0.081  0.00  0.00    -0.075 A 
ATOM      2  C2  N4B d   1      -1.201   0.639   0.504  0.00  0.00     0.002 A 
ATOM      3  C3  N4B d   1      -1.455   1.977   0.686  0.00  0.00     0.002 A 
ATOM      4  C4  N4B d   1      -0.503   2.913   0.310  0.00  0.00    -0.004 A 
ATOM      5  C5  N4B d   1       0.659   2.506  -0.277  0.00  0.00     0.002 A 
ATOM      6  C6  N4B d   1       0.926   1.165  -0.470  0.00  0.00     0.002 A 
ENDROOT
BRANCH   1   7
ATOM      7  C1' N4B d   1       0.374  -1.229  -0.222  0.00  0.00     0.057 C 
BRANCH   7   8
ATOM      8  C2' N4B d   1      -0.819  -1.986  -0.798  0.00  0.00     0.009 C 
BRANCH   8   9
ATOM      9  C3' N4B d   1      -0.477  -3.431  -1.114  0.00  0.00     0.004 C 
ATOM     10  C4' N4B d   1       0.272  -3.583  -2.405  0.00  0.00     0.003 C 
ENDBRANCH   8   9
ENDBRANCH   7   8
ENDBRANCH   1   7
TORSDOF 3
ENDMDL
