MODEL 1
REMARK minimizedAffinity 6.92454243
REMARK minimizedRMSD -1
REMARK  1 active torsions:
REMARK  status: ('A' for Active; 'I' for Inactive)
REMARK    1  A    between atoms: C3_4  and  O_7 
ROOT
ATOM      1  C   UNL d   1       2.546  -2.651   3.317  0.00  0.00    -0.033 A 
ATOM      2  C1  UNL d   1       2.967  -2.279   2.038  0.00  0.00     0.039 A 
ATOM      3  C2  UNL d   1       4.118  -2.847   1.488  0.00  0.00    -0.080 A 
ATOM      4  C3  UNL d   1       4.837  -3.783   2.224  0.00  0.00     0.150 A 
ATOM      5  C4  UNL d   1       4.422  -4.161   3.497  0.00  0.00    -0.007 A 
ATOM      6  C5  UNL d   1       3.273  -3.593   4.045  0.00  0.00     0.039 A 
ENDROOT
BRANCH   4   7
ATOM      7  O   UNL d   1       5.969  -4.361   1.731  0.00  0.00    -0.526 OA
ATOM      8  H5  UNL d   1       6.151  -3.983   0.854  0.00  0.00     0.418 HD
ENDBRANCH   4   7
TORSDOF 1
ENDMDL
