MODEL 1
REMARK minimizedAffinity 1.37186182
REMARK minimizedRMSD -1
REMARK  1 active torsions:
REMARK  status: ('A' for Active; 'I' for Inactive)
REMARK    1  A    between atoms: C3_4  and  O_7 
ROOT
ATOM      1  C   UNL d   1       4.520  -1.503  -5.063  0.00  0.00    -0.033 A 
ATOM      2  C1  UNL d   1       5.390  -2.065  -6.000  0.00  0.00     0.039 A 
ATOM      3  C2  UNL d   1       5.624  -3.441  -5.999  0.00  0.00    -0.080 A 
ATOM      4  C3  UNL d   1       4.984  -4.243  -5.059  0.00  0.00     0.150 A 
ATOM      5  C4  UNL d   1       4.114  -3.690  -4.125  0.00  0.00    -0.007 A 
ATOM      6  C5  UNL d   1       3.882  -2.316  -4.126  0.00  0.00     0.039 A 
ENDROOT
BRANCH   4   7
ATOM      7  O   UNL d   1       5.185  -5.591  -5.016  0.00  0.00    -0.526 OA
ATOM      8  H5  UNL d   1       5.832  -5.827  -5.702  0.00  0.00     0.418 HD
ENDBRANCH   4   7
TORSDOF 1
ENDMDL
