MODEL 1
REMARK minimizedAffinity -0.178938329
REMARK minimizedRMSD -1
REMARK  1 active torsions:
REMARK  status: ('A' for Active; 'I' for Inactive)
REMARK    1  A    between atoms: C3_4  and  O_7 
ROOT
ATOM      1  C   UNL d   1       0.958  -5.045  -1.118  0.00  0.00    -0.033 A 
ATOM      2  C1  UNL d   1       1.562  -5.977  -0.271  0.00  0.00     0.039 A 
ATOM      3  C2  UNL d   1       2.608  -5.586   0.567  0.00  0.00    -0.080 A 
ATOM      4  C3  UNL d   1       3.040  -4.263   0.550  0.00  0.00     0.150 A 
ATOM      5  C4  UNL d   1       2.441  -3.328  -0.289  0.00  0.00    -0.007 A 
ATOM      6  C5  UNL d   1       1.397  -3.720  -1.126  0.00  0.00     0.039 A 
ENDROOT
BRANCH   4   7
ATOM      7  O   UNL d   1       4.061  -3.836   1.346  0.00  0.00    -0.526 OA
ATOM      8  H5  UNL d   1       4.397  -4.596   1.850  0.00  0.00     0.418 HD
ENDBRANCH   4   7
TORSDOF 1
ENDMDL
