MODEL 1
REMARK minimizedAffinity 6.27808857
REMARK minimizedRMSD -1
REMARK  1 active torsions:
REMARK  status: ('A' for Active; 'I' for Inactive)
REMARK    1  A    between atoms: C3_4  and  O_7 
ROOT
ATOM      1  C   UNL d   1      -2.582   0.904  -3.171  0.00  0.00    -0.033 A 
ATOM      2  C1  UNL d   1      -3.442   1.678  -2.389  0.00  0.00     0.039 A 
ATOM      3  C2  UNL d   1      -2.975   2.273  -1.215  0.00  0.00    -0.080 A 
ATOM      4  C3  UNL d   1      -1.649   2.088  -0.835  0.00  0.00     0.150 A 
ATOM      5  C4  UNL d   1      -0.786   1.321  -1.611  0.00  0.00    -0.007 A 
ATOM      6  C5  UNL d   1      -1.253   0.727  -2.783  0.00  0.00     0.039 A 
ENDROOT
BRANCH   4   7
ATOM      7  O   UNL d   1      -1.150   2.644   0.305  0.00  0.00    -0.526 OA
ATOM      8  H5  UNL d   1      -1.867   3.122   0.754  0.00  0.00     0.418 HD
ENDBRANCH   4   7
TORSDOF 1
ENDMDL
