MODEL 1
REMARK minimizedAffinity 4.2533474
REMARK minimizedRMSD -1
REMARK  1 active torsions:
REMARK  status: ('A' for Active; 'I' for Inactive)
REMARK    1  A    between atoms: C3_4  and  O_7 
ROOT
ATOM      1  C   UNL d   1       6.000  -3.921  -5.996  0.00  0.00    -0.033 A 
ATOM      2  C1  UNL d   1       4.995  -3.210  -5.338  0.00  0.00     0.039 A 
ATOM      3  C2  UNL d   1       3.968  -3.893  -4.684  0.00  0.00    -0.080 A 
ATOM      4  C3  UNL d   1       3.958  -5.285  -4.694  0.00  0.00     0.150 A 
ATOM      5  C4  UNL d   1       4.959  -6.000  -5.344  0.00  0.00    -0.007 A 
ATOM      6  C5  UNL d   1       5.983  -5.316  -5.998  0.00  0.00     0.039 A 
ENDROOT
BRANCH   4   7
ATOM      7  O   UNL d   1       2.974  -5.995  -4.073  0.00  0.00    -0.526 OA
ATOM      8  H5  UNL d   1       2.337  -5.369  -3.691  0.00  0.00     0.418 HD
ENDBRANCH   4   7
TORSDOF 1
ENDMDL
