MODEL 1
REMARK minimizedAffinity 6.39042187
REMARK minimizedRMSD -1
REMARK  1 active torsions:
REMARK  status: ('A' for Active; 'I' for Inactive)
REMARK    1  A    between atoms: C3_4  and  O_7 
ROOT
ATOM      1  C   UNL d   1       2.884  -2.641   2.954  0.00  0.00    -0.033 A 
ATOM      2  C1  UNL d   1       3.370  -3.755   3.641  0.00  0.00     0.039 A 
ATOM      3  C2  UNL d   1       4.420  -4.504   3.107  0.00  0.00    -0.080 A 
ATOM      4  C3  UNL d   1       4.976  -4.128   1.887  0.00  0.00     0.150 A 
ATOM      5  C4  UNL d   1       4.500  -3.017   1.200  0.00  0.00    -0.007 A 
ATOM      6  C5  UNL d   1       3.451  -2.271   1.734  0.00  0.00     0.039 A 
ENDROOT
BRANCH   4   7
ATOM      7  O   UNL d   1       6.000  -4.830   1.324  0.00  0.00    -0.526 OA
ATOM      8  H5  UNL d   1       6.205  -5.588   1.897  0.00  0.00     0.418 HD
ENDBRANCH   4   7
TORSDOF 1
ENDMDL
