MODEL 1
REMARK minimizedAffinity 1.9010483
REMARK minimizedRMSD -1
REMARK  1 active torsions:
REMARK  status: ('A' for Active; 'I' for Inactive)
REMARK    1  A    between atoms: C3_4  and  O_7 
ROOT
ATOM      1  C   UNL d   1      -6.000  -4.357  -4.039  0.00  0.00    -0.033 A 
ATOM      2  C1  UNL d   1      -5.998  -3.224  -3.223  0.00  0.00     0.039 A 
ATOM      3  C2  UNL d   1      -5.993  -1.950  -3.795  0.00  0.00    -0.080 A 
ATOM      4  C3  UNL d   1      -5.990  -1.824  -5.182  0.00  0.00     0.150 A 
ATOM      5  C4  UNL d   1      -5.995  -2.948  -6.000  0.00  0.00    -0.007 A 
ATOM      6  C5  UNL d   1      -6.000  -4.219  -5.427  0.00  0.00     0.039 A 
ENDROOT
BRANCH   4   7
ATOM      7  O   UNL d   1      -5.979  -0.602  -5.786  0.00  0.00    -0.526 OA
ATOM      8  H5  UNL d   1      -5.947   0.082  -5.096  0.00  0.00     0.418 HD
ENDBRANCH   4   7
TORSDOF 1
ENDMDL
