MODEL 1
REMARK minimizedAffinity 5.32680988
REMARK minimizedRMSD -1
REMARK  0 active torsions:
REMARK  status: ('A' for Active; 'I' for Inactive)
ROOT
ATOM      1  C   UNL d   1      -2.055   1.187  -3.780  0.00  0.00     0.020 A 
ATOM      2  C1  UNL d   1      -1.501  -0.092  -3.758  0.00  0.00     0.020 A 
ATOM      3  C2  UNL d   1      -0.129  -0.255  -3.558  0.00  0.00     0.034 A 
ATOM      4  C3  UNL d   1       0.694   0.863  -3.380  0.00  0.00     0.017 A 
ATOM      5  C4  UNL d   1       0.137   2.146  -3.402  0.00  0.00     0.017 A 
ATOM      6  C5  UNL d   1      -1.238   2.304  -3.602  0.00  0.00     0.034 A 
ATOM      7 Cl   UNL d   1       1.089   3.573  -3.189  0.00  0.00    -0.070 Cl
ATOM      8 Cl1  UNL d   1       2.383   0.587  -3.137  0.00  0.00    -0.070 Cl
ENDROOT
TORSDOF 0
ENDMDL
