MODEL 1
REMARK minimizedAffinity 8.82727909
REMARK minimizedRMSD -1
REMARK  0 active torsions:
REMARK  status: ('A' for Active; 'I' for Inactive)
ROOT
ATOM      1  C   UNL d   1      -1.042  -5.738   0.910  0.00  0.00     0.020 A 
ATOM      2  C1  UNL d   1      -0.889  -5.920   2.284  0.00  0.00     0.020 A 
ATOM      3  C2  UNL d   1       0.389  -5.998   2.841  0.00  0.00     0.034 A 
ATOM      4  C3  UNL d   1       1.520  -5.894   2.023  0.00  0.00     0.017 A 
ATOM      5  C4  UNL d   1       1.366  -5.712   0.644  0.00  0.00     0.017 A 
ATOM      6  C5  UNL d   1       0.084  -5.634   0.092  0.00  0.00     0.034 A 
ATOM      7 Cl   UNL d   1       2.715  -5.575  -0.429  0.00  0.00    -0.070 Cl
ATOM      8 Cl1  UNL d   1       3.070  -5.999   2.779  0.00  0.00    -0.070 Cl
ENDROOT
TORSDOF 0
ENDMDL
