MODEL 1
REMARK minimizedAffinity 6.22809887
REMARK minimizedRMSD -1
REMARK  0 active torsions:
REMARK  status: ('A' for Active; 'I' for Inactive)
ROOT
ATOM      1  C   UNL d   1       3.762   1.104  -3.440  0.00  0.00     0.020 A 
ATOM      2  C1  UNL d   1       2.907   1.219  -2.345  0.00  0.00     0.020 A 
ATOM      3  C2  UNL d   1       1.942   2.228  -2.315  0.00  0.00     0.034 A 
ATOM      4  C3  UNL d   1       1.830   3.126  -3.383  0.00  0.00     0.017 A 
ATOM      5  C4  UNL d   1       2.689   3.010  -4.482  0.00  0.00     0.017 A 
ATOM      6  C5  UNL d   1       3.653   1.998  -4.506  0.00  0.00     0.034 A 
ATOM      7 Cl   UNL d   1       2.611   4.081  -5.836  0.00  0.00    -0.070 Cl
ATOM      8 Cl1  UNL d   1       0.614   4.350  -3.279  0.00  0.00    -0.070 Cl
ENDROOT
TORSDOF 0
ENDMDL
