MODEL 1
REMARK minimizedAffinity 9.04030991
REMARK minimizedRMSD -1
REMARK  0 active torsions:
REMARK  status: ('A' for Active; 'I' for Inactive)
ROOT
ATOM      1  C   UNL d   1      -1.688  -5.998   2.536  0.00  0.00     0.020 A 
ATOM      2  C1  UNL d   1      -1.904  -5.998   1.158  0.00  0.00     0.020 A 
ATOM      3  C2  UNL d   1      -0.817  -5.999   0.282  0.00  0.00     0.034 A 
ATOM      4  C3  UNL d   1       0.491  -5.999   0.781  0.00  0.00     0.017 A 
ATOM      5  C4  UNL d   1       0.706  -5.999   2.164  0.00  0.00     0.017 A 
ATOM      6  C5  UNL d   1      -0.386  -5.998   3.038  0.00  0.00     0.034 A 
ATOM      7 Cl   UNL d   1       2.290  -5.999   2.856  0.00  0.00    -0.070 Cl
ATOM      8 Cl1  UNL d   1       1.787  -6.000  -0.361  0.00  0.00    -0.070 Cl
ENDROOT
TORSDOF 0
ENDMDL
