MODEL 1
REMARK minimizedAffinity 5.44056129
REMARK minimizedRMSD -1
REMARK  0 active torsions:
REMARK  status: ('A' for Active; 'I' for Inactive)
ROOT
ATOM      1  C   UNL d   1       0.441   6.000  -5.095  0.00  0.00     0.020 A 
ATOM      2  C1  UNL d   1       1.487   5.822  -6.000  0.00  0.00     0.020 A 
ATOM      3  C2  UNL d   1       2.285   4.678  -5.928  0.00  0.00     0.034 A 
ATOM      4  C3  UNL d   1       2.038   3.707  -4.950  0.00  0.00     0.017 A 
ATOM      5  C4  UNL d   1       0.988   3.887  -4.043  0.00  0.00     0.017 A 
ATOM      6  C5  UNL d   1       0.192   5.034  -4.119  0.00  0.00     0.034 A 
ATOM      7 Cl   UNL d   1       0.622   2.734  -2.809  0.00  0.00    -0.070 Cl
ATOM      8 Cl1  UNL d   1       3.064   2.317  -4.921  0.00  0.00    -0.070 Cl
ENDROOT
TORSDOF 0
ENDMDL
