MODEL 1
REMARK minimizedAffinity 8.26072216
REMARK minimizedRMSD -1
REMARK  0 active torsions:
REMARK  status: ('A' for Active; 'I' for Inactive)
ROOT
ATOM      1  C   UNL d   1      -2.111  -4.696   0.950  0.00  0.00     0.020 A 
ATOM      2  C1  UNL d   1      -1.320  -5.750   0.495  0.00  0.00     0.020 A 
ATOM      3  C2  UNL d   1      -0.081  -6.000   1.088  0.00  0.00     0.034 A 
ATOM      4  C3  UNL d   1       0.371  -5.194   2.140  0.00  0.00     0.017 A 
ATOM      5  C4  UNL d   1      -0.424  -4.136   2.596  0.00  0.00     0.017 A 
ATOM      6  C5  UNL d   1      -1.664  -3.891   1.998  0.00  0.00     0.034 A 
ATOM      7 Cl   UNL d   1       0.066  -3.099   3.889  0.00  0.00    -0.070 Cl
ATOM      8 Cl1  UNL d   1       1.913  -5.561   2.828  0.00  0.00    -0.070 Cl
ENDROOT
TORSDOF 0
ENDMDL
