MODEL 1
REMARK minimizedAffinity 13.1301479
REMARK minimizedRMSD -1
REMARK  0 active torsions:
REMARK  status: ('A' for Active; 'I' for Inactive)
ROOT
ATOM      1  C   UNL d   1      -2.459   0.402  -2.397  0.00  0.00     0.020 A 
ATOM      2  C1  UNL d   1      -2.778   1.283  -3.429  0.00  0.00     0.020 A 
ATOM      3  C2  UNL d   1      -1.948   2.374  -3.697  0.00  0.00     0.034 A 
ATOM      4  C3  UNL d   1      -0.796   2.586  -2.932  0.00  0.00     0.017 A 
ATOM      5  C4  UNL d   1      -0.477   1.701  -1.896  0.00  0.00     0.017 A 
ATOM      6  C5  UNL d   1      -1.311   0.610  -1.632  0.00  0.00     0.034 A 
ATOM      7 Cl   UNL d   1       0.928   1.898  -0.909  0.00  0.00    -0.070 Cl
ATOM      8 Cl1  UNL d   1       0.184   3.956  -3.319  0.00  0.00    -0.070 Cl
ENDROOT
TORSDOF 0
ENDMDL
