MODEL 1
REMARK minimizedAffinity 8.68988419
REMARK minimizedRMSD -1
REMARK  0 active torsions:
REMARK  status: ('A' for Active; 'I' for Inactive)
ROOT
ATOM      1  C   UNL d   1      -2.477   1.874  -5.416  0.00  0.00     0.020 A 
ATOM      2  C1  UNL d   1      -2.597   1.817  -4.028  0.00  0.00     0.020 A 
ATOM      3  C2  UNL d   1      -1.503   2.135  -3.219  0.00  0.00     0.034 A 
ATOM      4  C3  UNL d   1      -0.285   2.511  -3.798  0.00  0.00     0.017 A 
ATOM      5  C4  UNL d   1      -0.167   2.568  -5.192  0.00  0.00     0.017 A 
ATOM      6  C5  UNL d   1      -1.265   2.249  -5.996  0.00  0.00     0.034 A 
ATOM      7 Cl   UNL d   1       1.303   3.023  -5.979  0.00  0.00    -0.070 Cl
ATOM      8 Cl1  UNL d   1       1.025   2.891  -2.738  0.00  0.00    -0.070 Cl
ENDROOT
TORSDOF 0
ENDMDL
