MODEL 1
REMARK minimizedAffinity 4.42816544
REMARK minimizedRMSD -1
REMARK  0 active torsions:
REMARK  status: ('A' for Active; 'I' for Inactive)
ROOT
ATOM      1  C   UNL d   1      -4.340  -0.784  -0.147  0.00  0.00     0.020 A 
ATOM      2  C1  UNL d   1      -4.402  -0.037   1.029  0.00  0.00     0.020 A 
ATOM      3  C2  UNL d   1      -3.415   0.913   1.305  0.00  0.00     0.034 A 
ATOM      4  C3  UNL d   1      -2.364   1.117   0.404  0.00  0.00     0.017 A 
ATOM      5  C4  UNL d   1      -2.303   0.366  -0.776  0.00  0.00     0.017 A 
ATOM      6  C5  UNL d   1      -3.293  -0.583  -1.047  0.00  0.00     0.034 A 
ATOM      7 Cl   UNL d   1      -1.036   0.562  -1.935  0.00  0.00    -0.070 Cl
ATOM      8 Cl1  UNL d   1      -1.179   2.308   0.809  0.00  0.00    -0.070 Cl
ENDROOT
TORSDOF 0
ENDMDL
