MODEL 1
REMARK minimizedAffinity 12.2600336
REMARK minimizedRMSD -1
REMARK  0 active torsions:
REMARK  status: ('A' for Active; 'I' for Inactive)
ROOT
ATOM      1  C   UNL d   1       2.521  -1.252  -3.375  0.00  0.00     0.020 A 
ATOM      2  C1  UNL d   1       3.590  -0.791  -2.608  0.00  0.00     0.020 A 
ATOM      3  C2  UNL d   1       3.378   0.176  -1.624  0.00  0.00     0.034 A 
ATOM      4  C3  UNL d   1       2.094   0.687  -1.405  0.00  0.00     0.017 A 
ATOM      5  C4  UNL d   1       1.021   0.225  -2.175  0.00  0.00     0.017 A 
ATOM      6  C5  UNL d   1       1.239  -0.745  -3.159  0.00  0.00     0.034 A 
ATOM      7 Cl   UNL d   1      -0.592   0.807  -1.962  0.00  0.00    -0.070 Cl
ATOM      8 Cl1  UNL d   1       1.904   1.882  -0.171  0.00  0.00    -0.070 Cl
ENDROOT
TORSDOF 0
ENDMDL
