MODEL 1
REMARK minimizedAffinity 2.09595585
REMARK minimizedRMSD -1
REMARK  0 active torsions:
REMARK  status: ('A' for Active; 'I' for Inactive)
ROOT
ATOM      1  C   UNL d   1      -1.985   1.076  -5.260  0.00  0.00     0.020 A 
ATOM      2  C1  UNL d   1      -2.957   0.446  -4.483  0.00  0.00     0.020 A 
ATOM      3  C2  UNL d   1      -2.776   0.323  -3.104  0.00  0.00     0.034 A 
ATOM      4  C3  UNL d   1      -1.621   0.831  -2.497  0.00  0.00     0.017 A 
ATOM      5  C4  UNL d   1      -0.647   1.464  -3.278  0.00  0.00     0.017 A 
ATOM      6  C5  UNL d   1      -0.833   1.584  -4.659  0.00  0.00     0.034 A 
ATOM      7 Cl   UNL d   1       0.803   2.116  -2.601  0.00  0.00    -0.070 Cl
ATOM      8 Cl1  UNL d   1      -1.464   0.644  -0.787  0.00  0.00    -0.070 Cl
ENDROOT
TORSDOF 0
ENDMDL
