MODEL 1
REMARK minimizedAffinity 4.47274399
REMARK minimizedRMSD -1
REMARK  0 active torsions:
REMARK  status: ('A' for Active; 'I' for Inactive)
ROOT
ATOM      1  C   UNL d   1       0.041   1.752  -0.781  0.00  0.00     0.020 A 
ATOM      2  C1  UNL d   1      -0.388   1.066   0.355  0.00  0.00     0.020 A 
ATOM      3  C2  UNL d   1      -1.561   0.310   0.312  0.00  0.00     0.034 A 
ATOM      4  C3  UNL d   1      -2.310   0.238  -0.869  0.00  0.00     0.017 A 
ATOM      5  C4  UNL d   1      -1.879   0.927  -2.008  0.00  0.00     0.017 A 
ATOM      6  C5  UNL d   1      -0.703   1.683  -1.960  0.00  0.00     0.034 A 
ATOM      7 Cl   UNL d   1      -2.749   0.887  -3.501  0.00  0.00    -0.070 Cl
ATOM      8 Cl1  UNL d   1      -3.750  -0.716  -0.850  0.00  0.00    -0.070 Cl
ENDROOT
TORSDOF 0
ENDMDL
