MODEL 1
REMARK minimizedAffinity 10.7081747
REMARK minimizedRMSD -1
REMARK  0 active torsions:
REMARK  status: ('A' for Active; 'I' for Inactive)
ROOT
ATOM      1  C   UNL d   1      -5.964   0.177   4.801  0.00  0.00     0.020 A 
ATOM      2  C1  UNL d   1      -5.982   0.946   5.965  0.00  0.00     0.020 A 
ATOM      3  C2  UNL d   1      -5.328   2.179   5.997  0.00  0.00     0.034 A 
ATOM      4  C3  UNL d   1      -4.653   2.648   4.864  0.00  0.00     0.017 A 
ATOM      5  C4  UNL d   1      -4.635   1.876   3.697  0.00  0.00     0.017 A 
ATOM      6  C5  UNL d   1      -5.292   0.641   3.670  0.00  0.00     0.034 A 
ATOM      7 Cl   UNL d   1      -3.824   2.387   2.259  0.00  0.00    -0.070 Cl
ATOM      8 Cl1  UNL d   1      -3.866   4.182   4.975  0.00  0.00    -0.070 Cl
ENDROOT
TORSDOF 0
ENDMDL
