MODEL 1
REMARK minimizedAffinity 10.8766222
REMARK minimizedRMSD -1
REMARK  0 active torsions:
REMARK  status: ('A' for Active; 'I' for Inactive)
ROOT
ATOM      1  C   UNL d   1      -1.986  -5.975   1.122  0.00  0.00     0.020 A 
ATOM      2  C1  UNL d   1      -1.936  -5.992   2.515  0.00  0.00     0.020 A 
ATOM      3  C2  UNL d   1      -0.702  -5.999   3.170  0.00  0.00     0.034 A 
ATOM      4  C3  UNL d   1       0.486  -5.990   2.431  0.00  0.00     0.017 A 
ATOM      5  C4  UNL d   1       0.435  -5.973   1.032  0.00  0.00     0.017 A 
ATOM      6  C5  UNL d   1      -0.803  -5.965   0.382  0.00  0.00     0.034 A 
ATOM      7 Cl   UNL d   1       1.859  -5.961   0.053  0.00  0.00    -0.070 Cl
ATOM      8 Cl1  UNL d   1       1.976  -6.000   3.306  0.00  0.00    -0.070 Cl
ENDROOT
TORSDOF 0
ENDMDL
