MODEL 1
REMARK minimizedAffinity 7.48268843
REMARK minimizedRMSD -1
REMARK  0 active torsions:
REMARK  status: ('A' for Active; 'I' for Inactive)
ROOT
ATOM      1  C   UNL d   1       3.157  -0.534  -2.984  0.00  0.00     0.020 A 
ATOM      2  C1  UNL d   1       3.818  -0.162  -4.155  0.00  0.00     0.020 A 
ATOM      3  C2  UNL d   1       3.491   1.038  -4.790  0.00  0.00     0.034 A 
ATOM      4  C3  UNL d   1       2.501   1.870  -4.256  0.00  0.00     0.017 A 
ATOM      5  C4  UNL d   1       1.839   1.497  -3.081  0.00  0.00     0.017 A 
ATOM      6  C5  UNL d   1       2.170   0.294  -2.449  0.00  0.00     0.034 A 
ATOM      7 Cl   UNL d   1       0.607   2.472  -2.361  0.00  0.00    -0.070 Cl
ATOM      8 Cl1  UNL d   1       2.149   3.340  -5.094  0.00  0.00    -0.070 Cl
ENDROOT
TORSDOF 0
ENDMDL
