MODEL 1
REMARK minimizedAffinity 16.9573727
REMARK minimizedRMSD -1
REMARK  0 active torsions:
REMARK  status: ('A' for Active; 'I' for Inactive)
ROOT
ATOM      1  C   UNL d   1       2.472  -1.955  -3.451  0.00  0.00     0.020 A 
ATOM      2  C1  UNL d   1       3.276  -1.812  -4.581  0.00  0.00     0.020 A 
ATOM      3  C2  UNL d   1       3.978  -0.623  -4.792  0.00  0.00     0.034 A 
ATOM      4  C3  UNL d   1       3.877   0.427  -3.873  0.00  0.00     0.017 A 
ATOM      5  C4  UNL d   1       3.069   0.283  -2.739  0.00  0.00     0.017 A 
ATOM      6  C5  UNL d   1       2.369  -0.910  -2.532  0.00  0.00     0.034 A 
ATOM      7 Cl   UNL d   1       2.894   1.534  -1.560  0.00  0.00    -0.070 Cl
ATOM      8 Cl1  UNL d   1       4.773   1.869  -4.197  0.00  0.00    -0.070 Cl
ENDROOT
TORSDOF 0
ENDMDL
