MODEL 1
REMARK minimizedAffinity 10.9036655
REMARK minimizedRMSD -1
REMARK  1 active torsions:
REMARK  status: ('A' for Active; 'I' for Inactive)
REMARK    1  A    between atoms: C1_2  and  C2_3 
ROOT
ATOM      1  C2  UNL d   1       0.038  -4.332   2.989  0.00  0.00    -0.081 A 
ATOM      2  C3  UNL d   1       0.358  -3.470   1.933  0.00  0.00     0.006 A 
ATOM      3  C4  UNL d   1       0.060  -2.108   2.016  0.00  0.00     0.002 A 
ATOM      4  C5  UNL d   1      -0.555  -1.584   3.159  0.00  0.00    -0.080 A 
ATOM      5  C6  UNL d   1      -0.853  -0.118   3.273  0.00  0.00     0.076 C 
ATOM      6  C7  UNL d   1      -0.890  -2.448   4.206  0.00  0.00     0.002 A 
ATOM      7  C8  UNL d   1      -0.593  -3.810   4.124  0.00  0.00     0.006 A 
ENDROOT
BRANCH   1   8
ATOM      8  C1  UNL d   1       0.417  -5.790   2.930  0.00  0.00     0.054 C 
ATOM      9  C   UNL d   1       1.881  -5.997   3.292  0.00  0.00     0.018 C 
ENDBRANCH   1   8
TORSDOF 1
ENDMDL
