MODEL 1
REMARK minimizedAffinity 6.62552071
REMARK minimizedRMSD -1
REMARK  1 active torsions:
REMARK  status: ('A' for Active; 'I' for Inactive)
REMARK    1  A    between atoms: C1_2  and  C2_3 
ROOT
ATOM      1  C2  UNL d   1       0.716  -1.696   2.574  0.00  0.00    -0.081 A 
ATOM      2  C3  UNL d   1       1.372  -1.008   3.602  0.00  0.00     0.006 A 
ATOM      3  C4  UNL d   1       0.657  -0.538   4.707  0.00  0.00     0.002 A 
ATOM      4  C5  UNL d   1      -0.721  -0.754   4.805  0.00  0.00    -0.080 A 
ATOM      5  C6  UNL d   1      -1.495  -0.281   6.000  0.00  0.00     0.076 C 
ATOM      6  C7  UNL d   1      -1.379  -1.426   3.769  0.00  0.00     0.002 A 
ATOM      7  C8  UNL d   1      -0.666  -1.896   2.665  0.00  0.00     0.006 A 
ENDROOT
BRANCH   1   8
ATOM      8  C1  UNL d   1       1.494  -2.261   1.413  0.00  0.00     0.054 C 
ATOM      9  C   UNL d   1       1.738  -3.754   1.584  0.00  0.00     0.018 C 
ENDBRANCH   1   8
TORSDOF 1
ENDMDL
