MODEL 1
REMARK minimizedAffinity 20.1389236
REMARK minimizedRMSD -1
REMARK  1 active torsions:
REMARK  status: ('A' for Active; 'I' for Inactive)
REMARK    1  A    between atoms: C1_2  and  C2_3 
ROOT
ATOM      1  C2  UNL d   1      -3.152  -4.090   2.228  0.00  0.00    -0.081 A 
ATOM      2  C3  UNL d   1      -2.711  -5.379   1.903  0.00  0.00     0.006 A 
ATOM      3  C4  UNL d   1      -3.135  -5.997   0.724  0.00  0.00     0.002 A 
ATOM      4  C5  UNL d   1      -3.998  -5.333  -0.154  0.00  0.00    -0.080 A 
ATOM      5  C6  UNL d   1      -4.437  -5.972  -1.438  0.00  0.00     0.076 C 
ATOM      6  C7  UNL d   1      -4.452  -4.052   0.178  0.00  0.00     0.002 A 
ATOM      7  C8  UNL d   1      -4.030  -3.435   1.358  0.00  0.00     0.006 A 
ENDROOT
BRANCH   1   8
ATOM      8  C1  UNL d   1      -2.646  -3.397   3.467  0.00  0.00     0.054 C 
ATOM      9  C   UNL d   1      -1.336  -2.669   3.198  0.00  0.00     0.018 C 
ENDBRANCH   1   8
TORSDOF 1
ENDMDL
