MODEL 1
REMARK minimizedAffinity 5.00883198
REMARK minimizedRMSD -1
REMARK  1 active torsions:
REMARK  status: ('A' for Active; 'I' for Inactive)
REMARK    1  A    between atoms: C1_2  and  C2_3 
ROOT
ATOM      1  C2  UNL d   1       0.437  -1.899   2.021  0.00  0.00    -0.081 A 
ATOM      2  C3  UNL d   1       0.750  -0.604   2.455  0.00  0.00     0.006 A 
ATOM      3  C4  UNL d   1       0.387  -0.179   3.735  0.00  0.00     0.002 A 
ATOM      4  C5  UNL d   1      -0.287  -1.042   4.605  0.00  0.00    -0.080 A 
ATOM      5  C6  UNL d   1      -0.656  -0.608   5.993  0.00  0.00     0.076 C 
ATOM      6  C7  UNL d   1      -0.615  -2.329   4.166  0.00  0.00     0.002 A 
ATOM      7  C8  UNL d   1      -0.254  -2.755   2.886  0.00  0.00     0.006 A 
ENDROOT
BRANCH   1   8
ATOM      8  C1  UNL d   1       0.884  -2.382   0.665  0.00  0.00     0.054 C 
ATOM      9  C   UNL d   1       1.682  -3.673   0.774  0.00  0.00     0.018 C 
ENDBRANCH   1   8
TORSDOF 1
ENDMDL
