MODEL 1
REMARK minimizedAffinity 13.2912111
REMARK minimizedRMSD -1
REMARK  1 active torsions:
REMARK  status: ('A' for Active; 'I' for Inactive)
REMARK    1  A    between atoms: C1_2  and  C2_3 
ROOT
ATOM      1  C2  UNL d   1       0.322  -0.370   4.206  0.00  0.00    -0.081 A 
ATOM      2  C3  UNL d   1       1.208   0.066   5.199  0.00  0.00     0.006 A 
ATOM      3  C4  UNL d   1       2.503   0.470   4.866  0.00  0.00     0.002 A 
ATOM      4  C5  UNL d   1       2.932   0.451   3.535  0.00  0.00    -0.080 A 
ATOM      5  C6  UNL d   1       4.310   0.910   3.160  0.00  0.00     0.076 C 
ATOM      6  C7  UNL d   1       2.053  -0.002   2.544  0.00  0.00     0.002 A 
ATOM      7  C8  UNL d   1       0.758  -0.406   2.876  0.00  0.00     0.006 A 
ENDROOT
BRANCH   1   8
ATOM      8  C1  UNL d   1      -1.096  -0.744   4.553  0.00  0.00     0.054 C 
ATOM      9  C   UNL d   1      -1.421  -0.398   5.999  0.00  0.00     0.018 C 
ENDBRANCH   1   8
TORSDOF 1
ENDMDL
