MODEL 1
REMARK minimizedAffinity 10.2663336
REMARK minimizedRMSD -1
REMARK  1 active torsions:
REMARK  status: ('A' for Active; 'I' for Inactive)
REMARK    1  A    between atoms: C1_2  and  C2_3 
ROOT
ATOM      1  C2  UNL d   1      -1.244  -2.584   3.379  0.00  0.00    -0.081 A 
ATOM      2  C3  UNL d   1      -0.861  -1.423   4.063  0.00  0.00     0.006 A 
ATOM      3  C4  UNL d   1       0.216  -0.657   3.611  0.00  0.00     0.002 A 
ATOM      4  C5  UNL d   1       0.923  -1.034   2.464  0.00  0.00    -0.080 A 
ATOM      5  C6  UNL d   1       2.062  -0.205   1.951  0.00  0.00     0.076 C 
ATOM      6  C7  UNL d   1       0.552  -2.203   1.791  0.00  0.00     0.002 A 
ATOM      7  C8  UNL d   1      -0.524  -2.970   2.243  0.00  0.00     0.006 A 
ENDROOT
BRANCH   1   8
ATOM      8  C1  UNL d   1      -2.445  -3.376   3.827  0.00  0.00     0.054 C 
ATOM      9  C   UNL d   1      -3.528  -3.391   2.758  0.00  0.00     0.018 C 
ENDBRANCH   1   8
TORSDOF 1
ENDMDL
