MODEL 1
REMARK minimizedAffinity 5.16316366
REMARK minimizedRMSD -1
REMARK  1 active torsions:
REMARK  status: ('A' for Active; 'I' for Inactive)
REMARK    1  A    between atoms: C1_2  and  C2_3 
ROOT
ATOM      1  C2  UNL d   1      -4.873  -5.293   0.914  0.00  0.00    -0.081 A 
ATOM      2  C3  UNL d   1      -4.130  -6.000   1.867  0.00  0.00     0.006 A 
ATOM      3  C4  UNL d   1      -3.644  -5.355   3.007  0.00  0.00     0.002 A 
ATOM      4  C5  UNL d   1      -3.899  -3.996   3.216  0.00  0.00    -0.080 A 
ATOM      5  C6  UNL d   1      -3.409  -3.299   4.451  0.00  0.00     0.076 C 
ATOM      6  C7  UNL d   1      -4.626  -3.285   2.256  0.00  0.00     0.002 A 
ATOM      7  C8  UNL d   1      -5.112  -3.929   1.115  0.00  0.00     0.006 A 
ENDROOT
BRANCH   1   8
ATOM      8  C1  UNL d   1      -5.453  -6.000  -0.284  0.00  0.00     0.054 C 
ATOM      9  C   UNL d   1      -4.478  -5.999  -1.453  0.00  0.00     0.018 C 
ENDBRANCH   1   8
TORSDOF 1
ENDMDL
