MODEL 1
REMARK minimizedAffinity 11.925065
REMARK minimizedRMSD -1
REMARK  1 active torsions:
REMARK  status: ('A' for Active; 'I' for Inactive)
REMARK    1  A    between atoms: C1_2  and  C2_3 
ROOT
ATOM      1  C2  UNL d   1       2.418  -1.320   1.694  0.00  0.00    -0.081 A 
ATOM      2  C3  UNL d   1       2.231  -2.699   1.536  0.00  0.00     0.006 A 
ATOM      3  C4  UNL d   1       0.943  -3.240   1.509  0.00  0.00     0.002 A 
ATOM      4  C5  UNL d   1      -0.178  -2.412   1.632  0.00  0.00    -0.080 A 
ATOM      5  C6  UNL d   1      -1.566  -2.976   1.574  0.00  0.00     0.076 C 
ATOM      6  C7  UNL d   1       0.010  -1.037   1.807  0.00  0.00     0.002 A 
ATOM      7  C8  UNL d   1       1.297  -0.495   1.835  0.00  0.00     0.006 A 
ENDROOT
BRANCH   1   8
ATOM      8  C1  UNL d   1       3.803  -0.726   1.659  0.00  0.00     0.054 C 
ATOM      9  C   UNL d   1       3.935   0.429   2.641  0.00  0.00     0.018 C 
ENDBRANCH   1   8
TORSDOF 1
ENDMDL
