MODEL 1
REMARK minimizedAffinity 22.3120556
REMARK minimizedRMSD -1
REMARK  1 active torsions:
REMARK  status: ('A' for Active; 'I' for Inactive)
REMARK    1  A    between atoms: C1_2  and  C2_3 
ROOT
ATOM      1  C2  UNL d   1       1.710  -2.321   1.561  0.00  0.00    -0.081 A 
ATOM      2  C3  UNL d   1       2.940  -2.246   0.896  0.00  0.00     0.006 A 
ATOM      3  C4  UNL d   1       3.796  -1.163   1.110  0.00  0.00     0.002 A 
ATOM      4  C5  UNL d   1       3.440  -0.142   1.998  0.00  0.00    -0.080 A 
ATOM      5  C6  UNL d   1       4.363   1.011   2.260  0.00  0.00     0.076 C 
ATOM      6  C7  UNL d   1       2.204  -0.208   2.650  0.00  0.00     0.002 A 
ATOM      7  C8  UNL d   1       1.347  -1.291   2.436  0.00  0.00     0.006 A 
ENDROOT
BRANCH   1   8
ATOM      8  C1  UNL d   1       0.814  -3.520   1.382  0.00  0.00     0.054 C 
ATOM      9  C   UNL d   1       1.326  -4.717   2.169  0.00  0.00     0.018 C 
ENDBRANCH   1   8
TORSDOF 1
ENDMDL
