MODEL 1
REMARK minimizedAffinity 20.0819569
REMARK minimizedRMSD -1
REMARK  1 active torsions:
REMARK  status: ('A' for Active; 'I' for Inactive)
REMARK    1  A    between atoms: C1_2  and  C2_3 
ROOT
ATOM      1  C2  UNL d   1      -2.630   3.703  -3.538  0.00  0.00    -0.081 A 
ATOM      2  C3  UNL d   1      -3.389   2.681  -2.953  0.00  0.00     0.006 A 
ATOM      3  C4  UNL d   1      -4.148   2.930  -1.808  0.00  0.00     0.002 A 
ATOM      4  C5  UNL d   1      -4.168   4.205  -1.233  0.00  0.00    -0.080 A 
ATOM      5  C6  UNL d   1      -5.003   4.494  -0.020  0.00  0.00     0.076 C 
ATOM      6  C7  UNL d   1      -3.396   5.222  -1.807  0.00  0.00     0.002 A 
ATOM      7  C8  UNL d   1      -2.636   4.973  -2.952  0.00  0.00     0.006 A 
ENDROOT
BRANCH   1   8
ATOM      8  C1  UNL d   1      -1.862   3.454  -4.811  0.00  0.00     0.054 C 
ATOM      9  C   UNL d   1      -2.525   4.134  -6.000  0.00  0.00     0.018 C 
ENDBRANCH   1   8
TORSDOF 1
ENDMDL
