MODEL 1
REMARK minimizedAffinity 16.6143341
REMARK minimizedRMSD -1
REMARK  1 active torsions:
REMARK  status: ('A' for Active; 'I' for Inactive)
REMARK    1  A    between atoms: C1_2  and  C2_3 
ROOT
ATOM      1  C2  UNL d   1      -2.128   4.207  -3.302  0.00  0.00    -0.081 A 
ATOM      2  C3  UNL d   1      -2.793   3.036  -2.917  0.00  0.00     0.006 A 
ATOM      3  C4  UNL d   1      -3.776   3.074  -1.925  0.00  0.00     0.002 A 
ATOM      4  C5  UNL d   1      -4.116   4.283  -1.309  0.00  0.00    -0.080 A 
ATOM      5  C6  UNL d   1      -5.191   4.343  -0.264  0.00  0.00     0.076 C 
ATOM      6  C7  UNL d   1      -3.440   5.450  -1.681  0.00  0.00     0.002 A 
ATOM      7  C8  UNL d   1      -2.456   5.412  -2.672  0.00  0.00     0.006 A 
ENDROOT
BRANCH   1   8
ATOM      8  C1  UNL d   1      -1.113   4.180  -4.417  0.00  0.00     0.054 C 
ATOM      9  C   UNL d   1      -1.742   4.571  -5.747  0.00  0.00     0.018 C 
ENDBRANCH   1   8
TORSDOF 1
ENDMDL
