MODEL 1
REMARK minimizedAffinity 18.8497086
REMARK minimizedRMSD -1
REMARK  1 active torsions:
REMARK  status: ('A' for Active; 'I' for Inactive)
REMARK    1  A    between atoms: C1_2  and  C2_3 
ROOT
ATOM      1  C2  UNL d   1      -2.449   2.821  -3.682  0.00  0.00    -0.081 A 
ATOM      2  C3  UNL d   1      -2.017   3.933  -2.948  0.00  0.00     0.006 A 
ATOM      3  C4  UNL d   1      -1.143   3.774  -1.870  0.00  0.00     0.002 A 
ATOM      4  C5  UNL d   1      -0.681   2.502  -1.512  0.00  0.00    -0.080 A 
ATOM      5  C6  UNL d   1       0.281   2.321  -0.376  0.00  0.00     0.076 C 
ATOM      6  C7  UNL d   1      -1.126   1.390  -2.234  0.00  0.00     0.002 A 
ATOM      7  C8  UNL d   1      -2.000   1.548  -3.312  0.00  0.00     0.006 A 
ENDROOT
BRANCH   1   8
ATOM      8  C1  UNL d   1      -3.340   2.996  -4.885  0.00  0.00     0.054 C 
ATOM      9  C   UNL d   1      -2.623   3.744  -6.000  0.00  0.00     0.018 C 
ENDBRANCH   1   8
TORSDOF 1
ENDMDL
