MODEL 1
REMARK minimizedAffinity -2.39982271
REMARK minimizedRMSD -1
REMARK  2 active torsions:
REMARK  status: ('A' for Active; 'I' for Inactive)
REMARK    1  A    between atoms: C2'_3  and  C1'_4 
REMARK    2  A    between atoms: C1'_4  and  C1_5 
ROOT
ATOM      1  C1  I4B d   1       0.852  -1.227   0.459  0.00  0.00    -0.075 A 
ATOM      2  C2  I4B d   1       0.291  -2.313   1.085  0.00  0.00     0.003 A 
ATOM      3  C3  I4B d   1       0.961  -2.938   2.164  0.00  0.00     0.002 A 
ATOM      4  C4  I4B d   1       2.204  -2.481   2.549  0.00  0.00    -0.004 A 
ATOM      5  C5  I4B d   1       2.761  -1.367   1.928  0.00  0.00     0.002 A 
ATOM      6  C6  I4B d   1       2.076  -0.728   0.885  0.00  0.00     0.003 A 
ENDROOT
BRANCH   1   7
ATOM      7  C1' I4B d   1       0.132  -0.611  -0.698  0.00  0.00     0.060 C 
BRANCH   7   8
ATOM      8  C2' I4B d   1      -0.826   0.428  -0.152  0.00  0.00    -0.013 C 
ATOM      9  C4' I4B d   1      -0.125   1.736   0.101  0.00  0.00     0.013 C 
ATOM     10  C3' I4B d   1      -1.942   0.593  -1.141  0.00  0.00     0.013 C 
ENDBRANCH   7   8
ENDBRANCH   1   7
TORSDOF 2
ENDMDL
