MODEL 1
REMARK minimizedAffinity -5.64844799
REMARK minimizedRMSD -1
REMARK  2 active torsions:
REMARK  status: ('A' for Active; 'I' for Inactive)
REMARK    1  A    between atoms: C2'_3  and  C1'_4 
REMARK    2  A    between atoms: C1'_4  and  C1_5 
ROOT
ATOM      1  C1  I4B d   1       0.036  -0.045   0.335  0.00  0.00    -0.075 A 
ATOM      2  C2  I4B d   1       0.763  -0.980   1.029  0.00  0.00     0.003 A 
ATOM      3  C3  I4B d   1       2.151  -0.792   1.236  0.00  0.00     0.002 A 
ATOM      4  C4  I4B d   1       2.777   0.311   0.693  0.00  0.00    -0.004 A 
ATOM      5  C5  I4B d   1       2.034   1.269   0.009  0.00  0.00     0.002 A 
ATOM      6  C6  I4B d   1       0.652   1.097  -0.161  0.00  0.00     0.003 A 
ENDROOT
BRANCH   1   7
ATOM      7  C1' I4B d   1      -1.422  -0.291   0.105  0.00  0.00     0.060 C 
BRANCH   7   8
ATOM      8  C2' I4B d   1      -1.767   0.212  -1.282  0.00  0.00    -0.013 C 
ATOM      9  C4' I4B d   1      -1.772  -0.913  -2.284  0.00  0.00     0.013 C 
ATOM     10  C3' I4B d   1      -3.109   0.879  -1.211  0.00  0.00     0.013 C 
ENDBRANCH   7   8
ENDBRANCH   1   7
TORSDOF 2
ENDMDL
