MODEL 1
REMARK minimizedAffinity -5.41114187
REMARK minimizedRMSD -1
REMARK  2 active torsions:
REMARK  status: ('A' for Active; 'I' for Inactive)
REMARK    1  A    between atoms: C2'_3  and  C1'_4 
REMARK    2  A    between atoms: C1'_4  and  C1_5 
ROOT
ATOM      1  C1  I4B d   1       0.111  -0.724   0.633  0.00  0.00    -0.075 A 
ATOM      2  C2  I4B d   1       0.439  -1.880   1.296  0.00  0.00     0.003 A 
ATOM      3  C3  I4B d   1       1.787  -2.147   1.639  0.00  0.00     0.002 A 
ATOM      4  C4  I4B d   1       2.774  -1.261   1.258  0.00  0.00    -0.004 A 
ATOM      5  C5  I4B d   1       2.436  -0.078   0.605  0.00  0.00     0.002 A 
ATOM      6  C6  I4B d   1       1.095   0.198   0.302  0.00  0.00     0.003 A 
ENDROOT
BRANCH   1   7
ATOM      7  C1' I4B d   1      -1.318  -0.490   0.257  0.00  0.00     0.060 C 
BRANCH   7   8
ATOM      8  C2' I4B d   1      -1.421  -0.558  -1.253  0.00  0.00    -0.013 C 
ATOM      9  C4' I4B d   1      -2.068  -1.842  -1.699  0.00  0.00     0.013 C 
ATOM     10  C3' I4B d   1      -2.204   0.634  -1.717  0.00  0.00     0.013 C 
ENDBRANCH   7   8
ENDBRANCH   1   7
TORSDOF 2
ENDMDL
