MODEL 1
REMARK minimizedAffinity -4.37010241
REMARK minimizedRMSD -1
REMARK  2 active torsions:
REMARK  status: ('A' for Active; 'I' for Inactive)
REMARK    1  A    between atoms: C2'_3  and  C1'_4 
REMARK    2  A    between atoms: C1'_4  and  C1_5 
ROOT
ATOM      1  C1  I4B d   1       0.870   0.410   0.474  0.00  0.00    -0.075 A 
ATOM      2  C2  I4B d   1       1.441   1.299   1.350  0.00  0.00     0.003 A 
ATOM      3  C3  I4B d   1       2.785   1.130   1.762  0.00  0.00     0.002 A 
ATOM      4  C4  I4B d   1       3.500   0.038   1.316  0.00  0.00    -0.004 A 
ATOM      5  C5  I4B d   1       2.927  -0.850   0.410  0.00  0.00     0.002 A 
ATOM      6  C6  I4B d   1       1.608  -0.656  -0.024  0.00  0.00     0.003 A 
ENDROOT
BRANCH   1   7
ATOM      7  C1' I4B d   1      -0.562   0.600   0.085  0.00  0.00     0.060 C 
BRANCH   7   8
ATOM      8  C2' I4B d   1      -1.158  -0.767  -0.183  0.00  0.00    -0.013 C 
ATOM      9  C4' I4B d   1      -1.652  -1.406   1.088  0.00  0.00     0.013 C 
ATOM     10  C3' I4B d   1      -2.272  -0.600  -1.173  0.00  0.00     0.013 C 
ENDBRANCH   7   8
ENDBRANCH   1   7
TORSDOF 2
ENDMDL
