MODEL 1
REMARK minimizedAffinity -1.37754726
REMARK minimizedRMSD -1
REMARK  2 active torsions:
REMARK  status: ('A' for Active; 'I' for Inactive)
REMARK    1  A    between atoms: C2'_3  and  C1'_4 
REMARK    2  A    between atoms: C1'_4  and  C1_5 
ROOT
ATOM      1  C1  I4B d   1       0.888   0.401   0.645  0.00  0.00    -0.075 A 
ATOM      2  C2  I4B d   1       1.812   0.895   1.532  0.00  0.00     0.003 A 
ATOM      3  C3  I4B d   1       3.026   0.202   1.757  0.00  0.00     0.002 A 
ATOM      4  C4  I4B d   1       3.252  -0.999   1.116  0.00  0.00    -0.004 A 
ATOM      5  C5  I4B d   1       2.324  -1.487   0.200  0.00  0.00     0.002 A 
ATOM      6  C6  I4B d   1       1.140  -0.776  -0.047  0.00  0.00     0.003 A 
ENDROOT
BRANCH   1   7
ATOM      7  C1' I4B d   1      -0.398   1.141   0.456  0.00  0.00     0.060 C 
BRANCH   7   8
ATOM      8  C2' I4B d   1      -1.528   0.133   0.499  0.00  0.00    -0.013 C 
ATOM      9  C4' I4B d   1      -1.917  -0.310  -0.887  0.00  0.00     0.013 C 
ATOM     10  C3' I4B d   1      -1.079  -1.030   1.333  0.00  0.00     0.013 C 
ENDBRANCH   7   8
ENDBRANCH   1   7
TORSDOF 2
ENDMDL
