MODEL 1
REMARK minimizedAffinity 8.49672031
REMARK minimizedRMSD -1
REMARK  1 active torsions:
REMARK  status: ('A' for Active; 'I' for Inactive)
REMARK    1  A    between atoms: C1_2  and  C2_3 
ROOT
ATOM      1  C2  UNL d   1      -1.069  -4.042  -5.947  0.00  0.00    -0.076 A 
ATOM      2  C3  UNL d   1      -1.272  -5.433  -5.997  0.00  0.00     0.004 A 
ATOM      3  C4  UNL d   1      -2.558  -5.970  -5.996  0.00  0.00    -0.003 A 
ATOM      4  C5  UNL d   1      -3.662  -5.127  -5.946  0.00  0.00     0.000 A 
ATOM      5  C6  UNL d   1      -3.479  -3.745  -5.914  0.00  0.00     0.000 A 
ATOM      6  C7  UNL d   1      -2.190  -3.185  -5.930  0.00  0.00    -0.073 A 
ATOM      7  C8  UNL d   1      -2.052  -1.688  -5.888  0.00  0.00     0.078 C 
ENDROOT
BRANCH   1   8
ATOM      8  C1  UNL d   1       0.349  -3.518  -5.923  0.00  0.00     0.053 C 
ATOM      9  C   UNL d   1       1.383  -4.631  -5.983  0.00  0.00     0.018 C 
ENDBRANCH   1   8
TORSDOF 1
ENDMDL
