MODEL 1
REMARK minimizedAffinity 11.0955601
REMARK minimizedRMSD -1
REMARK  1 active torsions:
REMARK  status: ('A' for Active; 'I' for Inactive)
REMARK    1  A    between atoms: C1_2  and  C2_3 
ROOT
ATOM      1  C2  UNL d   1      -3.884   0.313   3.296  0.00  0.00    -0.076 A 
ATOM      2  C3  UNL d   1      -3.266  -0.949   3.340  0.00  0.00     0.004 A 
ATOM      3  C4  UNL d   1      -3.994  -2.093   3.664  0.00  0.00    -0.003 A 
ATOM      4  C5  UNL d   1      -5.351  -1.993   3.948  0.00  0.00     0.000 A 
ATOM      5  C6  UNL d   1      -5.984  -0.751   3.893  0.00  0.00     0.000 A 
ATOM      6  C7  UNL d   1      -5.268   0.409   3.552  0.00  0.00    -0.073 A 
ATOM      7  C8  UNL d   1      -6.000   1.723   3.513  0.00  0.00     0.078 C 
ENDROOT
BRANCH   1   8
ATOM      8  C1  UNL d   1      -3.038   1.522   2.965  0.00  0.00     0.053 C 
ATOM      9  C   UNL d   1      -1.566   1.307   3.280  0.00  0.00     0.018 C 
ENDBRANCH   1   8
TORSDOF 1
ENDMDL
