MODEL 1
REMARK minimizedAffinity 7.31567192
REMARK minimizedRMSD -1
REMARK  1 active torsions:
REMARK  status: ('A' for Active; 'I' for Inactive)
REMARK    1  A    between atoms: C1_2  and  C2_3 
ROOT
ATOM      1  C2  UNL d   1       4.687  -3.831  -0.735  0.00  0.00    -0.076 A 
ATOM      2  C3  UNL d   1       3.515  -4.292  -0.112  0.00  0.00     0.004 A 
ATOM      3  C4  UNL d   1       2.465  -3.421   0.176  0.00  0.00    -0.003 A 
ATOM      4  C5  UNL d   1       2.570  -2.075  -0.156  0.00  0.00     0.000 A 
ATOM      5  C6  UNL d   1       3.719  -1.604  -0.791  0.00  0.00     0.000 A 
ATOM      6  C7  UNL d   1       4.780  -2.472  -1.102  0.00  0.00    -0.073 A 
ATOM      7  C8  UNL d   1       5.998  -1.908  -1.782  0.00  0.00     0.078 C 
ENDROOT
BRANCH   1   8
ATOM      8  C1  UNL d   1       5.804  -4.817  -0.997  0.00  0.00     0.053 C 
ATOM      9  C   UNL d   1       5.979  -5.814   0.138  0.00  0.00     0.018 C 
ENDBRANCH   1   8
TORSDOF 1
ENDMDL
