MODEL 1
REMARK minimizedAffinity 14.1958742
REMARK minimizedRMSD -1
REMARK  1 active torsions:
REMARK  status: ('A' for Active; 'I' for Inactive)
REMARK    1  A    between atoms: C1_2  and  C2_3 
ROOT
ATOM      1  C2  UNL d   1      -3.612  -3.520  -5.713  0.00  0.00    -0.076 A 
ATOM      2  C3  UNL d   1      -2.220  -3.590  -5.526  0.00  0.00     0.004 A 
ATOM      3  C4  UNL d   1      -1.579  -4.816  -5.365  0.00  0.00    -0.003 A 
ATOM      4  C5  UNL d   1      -2.318  -5.994  -5.389  0.00  0.00     0.000 A 
ATOM      5  C6  UNL d   1      -3.697  -5.945  -5.592  0.00  0.00     0.000 A 
ATOM      6  C7  UNL d   1      -4.357  -4.717  -5.772  0.00  0.00    -0.073 A 
ATOM      7  C8  UNL d   1      -5.847  -4.723  -5.981  0.00  0.00     0.078 C 
ENDROOT
BRANCH   1   8
ATOM      8  C1  UNL d   1      -4.256  -2.160  -5.855  0.00  0.00     0.053 C 
ATOM      9  C   UNL d   1      -3.238  -1.031  -5.868  0.00  0.00     0.018 C 
ENDBRANCH   1   8
TORSDOF 1
ENDMDL
