MODEL 1
REMARK minimizedAffinity 5.2696209
REMARK minimizedRMSD -1
REMARK  1 active torsions:
REMARK  status: ('A' for Active; 'I' for Inactive)
REMARK    1  A    between atoms: C1_2  and  C2_3 
ROOT
ATOM      1  C2  UNL d   1       3.131  -4.019  -0.380  0.00  0.00    -0.076 A 
ATOM      2  C3  UNL d   1       4.531  -4.038  -0.250  0.00  0.00     0.004 A 
ATOM      3  C4  UNL d   1       5.309  -4.914  -1.005  0.00  0.00    -0.003 A 
ATOM      4  C5  UNL d   1       4.700  -5.785  -1.902  0.00  0.00     0.000 A 
ATOM      5  C6  UNL d   1       3.314  -5.767  -2.056  0.00  0.00     0.000 A 
ATOM      6  C7  UNL d   1       2.516  -4.879  -1.315  0.00  0.00    -0.073 A 
ATOM      7  C8  UNL d   1       1.026  -4.907  -1.517  0.00  0.00     0.078 C 
ENDROOT
BRANCH   1   8
ATOM      8  C1  UNL d   1       2.337  -3.066   0.485  0.00  0.00     0.053 C 
ATOM      9  C   UNL d   1       1.872  -3.707   1.783  0.00  0.00     0.018 C 
ENDBRANCH   1   8
TORSDOF 1
ENDMDL
