MODEL 1
REMARK minimizedAffinity 7.11624718
REMARK minimizedRMSD -1
REMARK  0 active torsions:
REMARK  status: ('A' for Active; 'I' for Inactive)
ROOT
ATOM      1  C   UNL d   1      -0.915   4.212  -0.277  0.00  0.00     0.023 A 
ATOM      2  C1  UNL d   1      -0.932   3.653  -1.556  0.00  0.00     0.003 A 
ATOM      3  C2  UNL d   1      -0.135   2.544  -1.845  0.00  0.00     0.048 A 
ATOM      4  C3  UNL d   1       0.676   1.997  -0.851  0.00  0.00     0.023 A 
ATOM      5  C4  UNL d   1       0.695   2.551   0.430  0.00  0.00     0.048 A 
ATOM      6  C5  UNL d   1      -0.102   3.661   0.714  0.00  0.00     0.003 A 
ATOM      7  I   UNL d   1       1.862   0.345  -1.279  0.00  0.00    -0.146 I 
ENDROOT
TORSDOF 0
ENDMDL
