MODEL 1
REMARK minimizedAffinity 3.53780532
REMARK minimizedRMSD -1
REMARK  0 active torsions:
REMARK  status: ('A' for Active; 'I' for Inactive)
ROOT
ATOM      1  C   UNL d   1      -5.997   1.409  -3.844  0.00  0.00     0.023 A 
ATOM      2  C1  UNL d   1      -4.934   1.718  -4.692  0.00  0.00     0.003 A 
ATOM      3  C2  UNL d   1      -3.870   2.494  -4.227  0.00  0.00     0.048 A 
ATOM      4  C3  UNL d   1      -3.877   2.958  -2.912  0.00  0.00     0.023 A 
ATOM      5  C4  UNL d   1      -4.939   2.651  -2.059  0.00  0.00     0.048 A 
ATOM      6  C5  UNL d   1      -6.000   1.875  -2.530  0.00  0.00     0.003 A 
ATOM      7  I   UNL d   1      -2.295   4.113  -2.216  0.00  0.00    -0.146 I 
ENDROOT
TORSDOF 0
ENDMDL
