MODEL 1
REMARK minimizedAffinity 1.10431492
REMARK minimizedRMSD -1
REMARK  0 active torsions:
REMARK  status: ('A' for Active; 'I' for Inactive)
ROOT
ATOM      1  C   UNL d   1      -4.166   3.762  -5.983  0.00  0.00     0.023 A 
ATOM      2  C1  UNL d   1      -5.471   4.104  -5.632  0.00  0.00     0.003 A 
ATOM      3  C2  UNL d   1      -6.000   3.685  -4.409  0.00  0.00     0.048 A 
ATOM      4  C3  UNL d   1      -5.216   2.924  -3.542  0.00  0.00     0.023 A 
ATOM      5  C4  UNL d   1      -3.909   2.580  -3.889  0.00  0.00     0.048 A 
ATOM      6  C5  UNL d   1      -3.385   3.000  -5.113  0.00  0.00     0.003 A 
ATOM      7  I   UNL d   1      -6.000   2.299  -1.721  0.00  0.00    -0.146 I 
ENDROOT
TORSDOF 0
ENDMDL
