MODEL 1
REMARK minimizedAffinity 5.38591337
REMARK minimizedRMSD -1
REMARK  0 active torsions:
REMARK  status: ('A' for Active; 'I' for Inactive)
ROOT
ATOM      1  C   UNL d   1      -0.847   6.000  -2.342  0.00  0.00     0.023 A 
ATOM      2  C1  UNL d   1       0.468   5.847  -1.901  0.00  0.00     0.003 A 
ATOM      3  C2  UNL d   1       0.805   4.784  -1.060  0.00  0.00     0.048 A 
ATOM      4  C3  UNL d   1      -0.178   3.877  -0.664  0.00  0.00     0.023 A 
ATOM      5  C4  UNL d   1      -1.495   4.026  -1.103  0.00  0.00     0.048 A 
ATOM      6  C5  UNL d   1      -1.827   5.090  -1.943  0.00  0.00     0.003 A 
ATOM      7  I   UNL d   1       0.321   2.295   0.587  0.00  0.00    -0.146 I 
ENDROOT
TORSDOF 0
ENDMDL
