MODEL 1
REMARK minimizedAffinity 2.26031113
REMARK minimizedRMSD -1
REMARK  0 active torsions:
REMARK  status: ('A' for Active; 'I' for Inactive)
ROOT
ATOM      1  C   UNL d   1      -0.986   3.000   0.150  0.00  0.00     0.023 A 
ATOM      2  C1  UNL d   1      -1.673   3.877  -0.688  0.00  0.00     0.003 A 
ATOM      3  C2  UNL d   1      -0.966   4.739  -1.529  0.00  0.00     0.048 A 
ATOM      4  C3  UNL d   1       0.428   4.718  -1.528  0.00  0.00     0.023 A 
ATOM      5  C4  UNL d   1       1.120   3.841  -0.691  0.00  0.00     0.048 A 
ATOM      6  C5  UNL d   1       0.409   2.981   0.149  0.00  0.00     0.003 A 
ATOM      7  I   UNL d   1       1.482   6.000  -2.779  0.00  0.00    -0.146 I 
ENDROOT
TORSDOF 0
ENDMDL
