MODEL 1
REMARK minimizedAffinity 5.10906982
REMARK minimizedRMSD -1
REMARK  0 active torsions:
REMARK  status: ('A' for Active; 'I' for Inactive)
ROOT
ATOM      1  C   UNL d   1      -4.570   4.527  -3.939  0.00  0.00     0.023 A 
ATOM      2  C1  UNL d   1      -3.982   3.276  -4.123  0.00  0.00     0.003 A 
ATOM      3  C2  UNL d   1      -4.390   2.190  -3.346  0.00  0.00     0.048 A 
ATOM      4  C3  UNL d   1      -5.389   2.361  -2.388  0.00  0.00     0.023 A 
ATOM      5  C4  UNL d   1      -5.981   3.611  -2.201  0.00  0.00     0.048 A 
ATOM      6  C5  UNL d   1      -5.569   4.695  -2.979  0.00  0.00     0.003 A 
ATOM      7  I   UNL d   1      -5.999   0.746  -1.231  0.00  0.00    -0.146 I 
ENDROOT
TORSDOF 0
ENDMDL
