MODEL 1
REMARK minimizedAffinity 7.70398283
REMARK minimizedRMSD -1
REMARK  0 active torsions:
REMARK  status: ('A' for Active; 'I' for Inactive)
ROOT
ATOM      1  C   UNL d   1      -0.220   5.119  -0.376  0.00  0.00     0.023 A 
ATOM      2  C1  UNL d   1       1.134   4.796  -0.467  0.00  0.00     0.003 A 
ATOM      3  C2  UNL d   1       1.650   3.732   0.275  0.00  0.00     0.048 A 
ATOM      4  C3  UNL d   1       0.807   2.994   1.105  0.00  0.00     0.023 A 
ATOM      5  C4  UNL d   1      -0.549   3.314   1.199  0.00  0.00     0.048 A 
ATOM      6  C5  UNL d   1      -1.060   4.379   0.456  0.00  0.00     0.003 A 
ATOM      7  I   UNL d   1       1.573   1.410   2.210  0.00  0.00    -0.146 I 
ENDROOT
TORSDOF 0
ENDMDL
