MODEL 1
REMARK minimizedAffinity 2.67306018
REMARK minimizedRMSD -1
REMARK  0 active torsions:
REMARK  status: ('A' for Active; 'I' for Inactive)
ROOT
ATOM      1  C   UNL d   1      -4.162   4.243  -5.909  0.00  0.00     0.023 A 
ATOM      2  C1  UNL d   1      -5.469   3.762  -5.984  0.00  0.00     0.003 A 
ATOM      3  C2  UNL d   1      -5.993   2.996  -4.941  0.00  0.00     0.048 A 
ATOM      4  C3  UNL d   1      -5.206   2.717  -3.824  0.00  0.00     0.023 A 
ATOM      5  C4  UNL d   1      -3.898   3.198  -3.744  0.00  0.00     0.048 A 
ATOM      6  C5  UNL d   1      -3.377   3.962  -4.790  0.00  0.00     0.003 A 
ATOM      7  I   UNL d   1      -5.984   1.578  -2.270  0.00  0.00    -0.146 I 
ENDROOT
TORSDOF 0
ENDMDL
