MODEL 1
REMARK minimizedAffinity -3.03799582
REMARK minimizedRMSD -1
REMARK  0 active torsions:
REMARK  status: ('A' for Active; 'I' for Inactive)
ROOT
ATOM      1  C   UNL d   1       0.408  -2.060   1.944  0.00  0.00     0.124 A 
ATOM      2  C1  UNL d   1       0.980  -1.990   0.682  0.00  0.00     0.062 A 
ATOM      3  C2  UNL d   1       0.568  -1.013  -0.220  0.00  0.00     0.162 A 
ATOM      4  C3  UNL d   1      -0.420  -0.096   0.139  0.00  0.00    -0.034 A 
ATOM      5  C4  UNL d   1      -0.991  -0.173   1.410  0.00  0.00     0.162 A 
ATOM      6  C5  UNL d   1      -0.577  -1.152   2.307  0.00  0.00     0.062 A 
ATOM      7  F   UNL d   1      -1.130  -1.218   3.527  0.00  0.00    -0.097 F 
ATOM      8  F1  UNL d   1      -1.944   0.692   1.787  0.00  0.00    -0.096 F 
ATOM      9  I   UNL d   1      -1.038   1.367  -1.206  0.00  0.00    -0.060 I 
ATOM     10  F2  UNL d   1       1.138  -0.968  -1.433  0.00  0.00    -0.096 F 
ATOM     11  F3  UNL d   1       1.931  -2.867   0.328  0.00  0.00    -0.097 F 
ATOM     12  F4  UNL d   1       0.805  -3.002   2.809  0.00  0.00    -0.092 F 
ENDROOT
TORSDOF 0
ENDMDL
