MODEL 1
REMARK minimizedAffinity -4.66506529
REMARK minimizedRMSD -1
REMARK  0 active torsions:
REMARK  status: ('A' for Active; 'I' for Inactive)
ROOT
ATOM      1  C   UNL d   1       1.115  -2.463   1.988  0.00  0.00     0.124 A 
ATOM      2  C1  UNL d   1      -0.172  -2.096   2.355  0.00  0.00     0.062 A 
ATOM      3  C2  UNL d   1      -0.810  -1.039   1.712  0.00  0.00     0.162 A 
ATOM      4  C3  UNL d   1      -0.161  -0.342   0.692  0.00  0.00    -0.034 A 
ATOM      5  C4  UNL d   1       1.134  -0.716   0.329  0.00  0.00     0.162 A 
ATOM      6  C5  UNL d   1       1.767  -1.772   0.976  0.00  0.00     0.062 A 
ATOM      7  F   UNL d   1       3.011  -2.125   0.619  0.00  0.00    -0.097 F 
ATOM      8  F1  UNL d   1       1.787  -0.067  -0.646  0.00  0.00    -0.096 F 
ATOM      9  I   UNL d   1      -1.111   1.239  -0.273  0.00  0.00    -0.060 I 
ATOM     10  F2  UNL d   1      -2.054  -0.707   2.087  0.00  0.00    -0.096 F 
ATOM     11  F3  UNL d   1      -0.803  -2.761   3.334  0.00  0.00    -0.097 F 
ATOM     12  F4  UNL d   1       1.727  -3.479   2.610  0.00  0.00    -0.092 F 
ENDROOT
TORSDOF 0
ENDMDL
