MODEL 1
REMARK minimizedAffinity -3.42617035
REMARK minimizedRMSD -1
REMARK  0 active torsions:
REMARK  status: ('A' for Active; 'I' for Inactive)
ROOT
ATOM      1  C   UNL d   1       1.421  -2.529   1.637  0.00  0.00     0.124 A 
ATOM      2  C1  UNL d   1       0.104  -2.363   2.044  0.00  0.00     0.062 A 
ATOM      3  C2  UNL d   1      -0.655  -1.308   1.546  0.00  0.00     0.162 A 
ATOM      4  C3  UNL d   1      -0.099  -0.411   0.634  0.00  0.00    -0.034 A 
ATOM      5  C4  UNL d   1       1.225  -0.584   0.230  0.00  0.00     0.162 A 
ATOM      6  C5  UNL d   1       1.980  -1.640   0.731  0.00  0.00     0.062 A 
ATOM      7  F   UNL d   1       3.252  -1.798   0.336  0.00  0.00    -0.097 F 
ATOM      8  F1  UNL d   1       1.791   0.261  -0.646  0.00  0.00    -0.096 F 
ATOM      9  I   UNL d   1      -1.231   1.168  -0.113  0.00  0.00    -0.060 I 
ATOM     10  F2  UNL d   1      -1.924  -1.172   1.958  0.00  0.00    -0.096 F 
ATOM     11  F3  UNL d   1      -0.438  -3.221   2.921  0.00  0.00    -0.097 F 
ATOM     12  F4  UNL d   1       2.149  -3.545   2.118  0.00  0.00    -0.092 F 
ENDROOT
TORSDOF 0
ENDMDL
