MODEL 1
REMARK minimizedAffinity -2.46158957
REMARK minimizedRMSD -1
REMARK  0 active torsions:
REMARK  status: ('A' for Active; 'I' for Inactive)
ROOT
ATOM      1  C   UNL d   1       0.055  -2.128   2.098  0.00  0.00     0.124 A 
ATOM      2  C1  UNL d   1       0.773  -1.955   0.923  0.00  0.00     0.062 A 
ATOM      3  C2  UNL d   1       0.420  -0.949   0.028  0.00  0.00     0.162 A 
ATOM      4  C3  UNL d   1      -0.658  -0.108   0.304  0.00  0.00    -0.034 A 
ATOM      5  C4  UNL d   1      -1.376  -0.288   1.488  0.00  0.00     0.162 A 
ATOM      6  C5  UNL d   1      -1.019  -1.295   2.379  0.00  0.00     0.062 A 
ATOM      7  F   UNL d   1      -1.714  -1.460   3.514  0.00  0.00    -0.097 F 
ATOM      8  F1  UNL d   1      -2.418   0.503   1.785  0.00  0.00    -0.096 F 
ATOM      9  I   UNL d   1      -1.190   1.397  -1.031  0.00  0.00    -0.060 I 
ATOM     10  F2  UNL d   1       1.132  -0.805  -1.100  0.00  0.00    -0.096 F 
ATOM     11  F3  UNL d   1       1.811  -2.759   0.648  0.00  0.00    -0.097 F 
ATOM     12  F4  UNL d   1       0.397  -3.097   2.957  0.00  0.00    -0.092 F 
ENDROOT
TORSDOF 0
ENDMDL
