MODEL 1
REMARK minimizedAffinity -3.75188351
REMARK minimizedRMSD -1
REMARK  0 active torsions:
REMARK  status: ('A' for Active; 'I' for Inactive)
ROOT
ATOM      1  C   UNL d   1       0.454  -1.799   1.846  0.00  0.00     0.124 A 
ATOM      2  C1  UNL d   1      -0.591  -0.972   2.236  0.00  0.00     0.062 A 
ATOM      3  C2  UNL d   1      -1.086  -0.011   1.360  0.00  0.00     0.162 A 
ATOM      4  C3  UNL d   1      -0.538   0.129   0.085  0.00  0.00    -0.034 A 
ATOM      5  C4  UNL d   1       0.513  -0.705  -0.299  0.00  0.00     0.162 A 
ATOM      6  C5  UNL d   1       1.005  -1.665   0.580  0.00  0.00     0.062 A 
ATOM      7  F   UNL d   1       2.014  -2.463   0.202  0.00  0.00    -0.097 F 
ATOM      8  F1  UNL d   1       1.064  -0.598  -1.518  0.00  0.00    -0.096 F 
ATOM      9  I   UNL d   1      -1.276   1.566  -1.228  0.00  0.00    -0.060 I 
ATOM     10  F2  UNL d   1      -2.096   0.775   1.763  0.00  0.00    -0.096 F 
ATOM     11  F3  UNL d   1      -1.125  -1.099   3.459  0.00  0.00    -0.097 F 
ATOM     12  F4  UNL d   1       0.929  -2.723   2.691  0.00  0.00    -0.092 F 
ENDROOT
TORSDOF 0
ENDMDL
