MODEL 1
REMARK minimizedAffinity -4.31345844
REMARK minimizedRMSD -1
REMARK  0 active torsions:
REMARK  status: ('A' for Active; 'I' for Inactive)
ROOT
ATOM      1  C   UNL d   1       0.111  -2.392   2.026  0.00  0.00     0.124 A 
ATOM      2  C1  UNL d   1       0.818  -2.279   0.837  0.00  0.00     0.062 A 
ATOM      3  C2  UNL d   1       0.586  -1.204  -0.015  0.00  0.00     0.162 A 
ATOM      4  C3  UNL d   1      -0.357  -0.231   0.319  0.00  0.00    -0.034 A 
ATOM      5  C4  UNL d   1      -1.064  -0.352   1.517  0.00  0.00     0.162 A 
ATOM      6  C5  UNL d   1      -0.828  -1.429   2.365  0.00  0.00     0.062 A 
ATOM      7  F   UNL d   1      -1.512  -1.537   3.514  0.00  0.00    -0.097 F 
ATOM      8  F1  UNL d   1      -1.977   0.565   1.869  0.00  0.00    -0.096 F 
ATOM      9  I   UNL d   1      -0.707   1.379  -0.953  0.00  0.00    -0.060 I 
ATOM     10  F2  UNL d   1       1.283  -1.120  -1.158  0.00  0.00    -0.096 F 
ATOM     11  F3  UNL d   1       1.726  -3.209   0.507  0.00  0.00    -0.097 F 
ATOM     12  F4  UNL d   1       0.336  -3.429   2.844  0.00  0.00    -0.092 F 
ENDROOT
TORSDOF 0
ENDMDL
