MODEL 1
REMARK minimizedAffinity -1.17553163
REMARK minimizedRMSD -1
REMARK  0 active torsions:
REMARK  status: ('A' for Active; 'I' for Inactive)
ROOT
ATOM      1  C   UNL d   1       2.140  -1.106  -0.097  0.00  0.00     0.124 A 
ATOM      2  C1  UNL d   1       1.865   0.242  -0.276  0.00  0.00     0.062 A 
ATOM      3  C2  UNL d   1       0.654   0.773   0.158  0.00  0.00     0.162 A 
ATOM      4  C3  UNL d   1      -0.292  -0.045   0.777  0.00  0.00    -0.034 A 
ATOM      5  C4  UNL d   1      -0.008  -1.400   0.953  0.00  0.00     0.162 A 
ATOM      6  C5  UNL d   1       1.204  -1.926   0.518  0.00  0.00     0.062 A 
ATOM      7  F   UNL d   1       1.468  -3.229   0.692  0.00  0.00    -0.097 F 
ATOM      8  F1  UNL d   1      -0.895  -2.215   1.544  0.00  0.00    -0.096 F 
ATOM      9  I   UNL d   1      -2.104   0.745   1.427  0.00  0.00    -0.060 I 
ATOM     10  F2  UNL d   1       0.414   2.080  -0.029  0.00  0.00    -0.096 F 
ATOM     11  F3  UNL d   1       2.768   1.036  -0.870  0.00  0.00    -0.097 F 
ATOM     12  F4  UNL d   1       3.306  -1.615  -0.516  0.00  0.00    -0.092 F 
ENDROOT
TORSDOF 0
ENDMDL
