MODEL 1
REMARK minimizedAffinity -5.03741169
REMARK minimizedRMSD -1
REMARK  0 active torsions:
REMARK  status: ('A' for Active; 'I' for Inactive)
ROOT
ATOM      1  C   UNL d   1       1.533  -0.466  -0.832  0.00  0.00     0.124 A 
ATOM      2  C1  UNL d   1       1.749  -1.620  -0.091  0.00  0.00     0.062 A 
ATOM      3  C2  UNL d   1       0.913  -1.931   0.978  0.00  0.00     0.162 A 
ATOM      4  C3  UNL d   1      -0.147  -1.088   1.311  0.00  0.00    -0.034 A 
ATOM      5  C4  UNL d   1      -0.357   0.071   0.562  0.00  0.00     0.162 A 
ATOM      6  C5  UNL d   1       0.481   0.378  -0.505  0.00  0.00     0.062 A 
ATOM      7  F   UNL d   1       0.272   1.493  -1.220  0.00  0.00    -0.097 F 
ATOM      8  F1  UNL d   1      -1.366   0.904   0.855  0.00  0.00    -0.096 F 
ATOM      9  I   UNL d   1      -1.399  -1.550   2.909  0.00  0.00    -0.060 I 
ATOM     10  F2  UNL d   1       1.145  -3.053   1.676  0.00  0.00    -0.096 F 
ATOM     11  F3  UNL d   1       2.765  -2.436  -0.404  0.00  0.00    -0.097 F 
ATOM     12  F4  UNL d   1       2.339  -0.168  -1.859  0.00  0.00    -0.092 F 
ENDROOT
TORSDOF 0
ENDMDL
