MODEL 1
REMARK minimizedAffinity -1.73073733
REMARK minimizedRMSD -1
REMARK  0 active torsions:
REMARK  status: ('A' for Active; 'I' for Inactive)
ROOT
ATOM      1  C   UNL d   1      -0.425  -2.081   1.862  0.00  0.00     0.124 A 
ATOM      2  C1  UNL d   1       0.236  -1.996   0.644  0.00  0.00     0.062 A 
ATOM      3  C2  UNL d   1       0.079  -0.871  -0.160  0.00  0.00     0.162 A 
ATOM      4  C3  UNL d   1      -0.742   0.179   0.251  0.00  0.00    -0.034 A 
ATOM      5  C4  UNL d   1      -1.404   0.086   1.477  0.00  0.00     0.162 A 
ATOM      6  C5  UNL d   1      -1.244  -1.041   2.277  0.00  0.00     0.062 A 
ATOM      7  F   UNL d   1      -1.883  -1.121   3.453  0.00  0.00    -0.097 F 
ATOM      8  F1  UNL d   1      -2.200   1.077   1.903  0.00  0.00    -0.096 F 
ATOM      9  I   UNL d   1      -0.979   1.863  -0.949  0.00  0.00    -0.060 I 
ATOM     10  F2  UNL d   1       0.729  -0.816  -1.332  0.00  0.00    -0.096 F 
ATOM     11  F3  UNL d   1       1.027  -3.001   0.240  0.00  0.00    -0.097 F 
ATOM     12  F4  UNL d   1      -0.273  -3.165   2.633  0.00  0.00    -0.092 F 
ENDROOT
TORSDOF 0
ENDMDL
