MODEL 1
REMARK minimizedAffinity -2.78811622
REMARK minimizedRMSD -1
REMARK  0 active torsions:
REMARK  status: ('A' for Active; 'I' for Inactive)
ROOT
ATOM      1  C   UNL d   1       0.210  -2.138   2.212  0.00  0.00     0.124 A 
ATOM      2  C1  UNL d   1       0.798  -2.021   0.960  0.00  0.00     0.062 A 
ATOM      3  C2  UNL d   1       0.399  -1.010   0.091  0.00  0.00     0.162 A 
ATOM      4  C3  UNL d   1      -0.593  -0.106   0.471  0.00  0.00    -0.034 A 
ATOM      5  C4  UNL d   1      -1.181  -0.230   1.731  0.00  0.00     0.162 A 
ATOM      6  C5  UNL d   1      -0.778  -1.243   2.596  0.00  0.00     0.062 A 
ATOM      7  F   UNL d   1      -1.347  -1.354   3.805  0.00  0.00    -0.097 F 
ATOM      8  F1  UNL d   1      -2.137   0.622   2.129  0.00  0.00    -0.096 F 
ATOM      9  I   UNL d   1      -1.193   1.408  -0.826  0.00  0.00    -0.060 I 
ATOM     10  F2  UNL d   1       0.984  -0.921  -1.113  0.00  0.00    -0.096 F 
ATOM     11  F3  UNL d   1       1.752  -2.885   0.585  0.00  0.00    -0.097 F 
ATOM     12  F4  UNL d   1       0.595  -3.113   3.045  0.00  0.00    -0.092 F 
ENDROOT
TORSDOF 0
ENDMDL
