MODEL 1
REMARK minimizedAffinity -5.77869368
REMARK minimizedRMSD -1
REMARK  0 active torsions:
REMARK  status: ('A' for Active; 'I' for Inactive)
ROOT
ATOM      1  C   UNL d   1       0.540  -2.414   1.887  0.00  0.00     0.124 A 
ATOM      2  C1  UNL d   1      -0.421  -1.518   2.333  0.00  0.00     0.062 A 
ATOM      3  C2  UNL d   1      -0.740  -0.397   1.572  0.00  0.00     0.162 A 
ATOM      4  C3  UNL d   1      -0.097  -0.166   0.356  0.00  0.00    -0.034 A 
ATOM      5  C4  UNL d   1       0.870  -1.071  -0.085  0.00  0.00     0.162 A 
ATOM      6  C5  UNL d   1       1.185  -2.190   0.679  0.00  0.00     0.062 A 
ATOM      7  F   UNL d   1       2.114  -3.055   0.246  0.00  0.00    -0.097 F 
ATOM      8  F1  UNL d   1       1.508  -0.880  -1.250  0.00  0.00    -0.096 F 
ATOM      9  I   UNL d   1      -0.570   1.509  -0.785  0.00  0.00    -0.060 I 
ATOM     10  F2  UNL d   1      -1.673   0.452   2.027  0.00  0.00    -0.096 F 
ATOM     11  F3  UNL d   1      -1.045  -1.732   3.501  0.00  0.00    -0.097 F 
ATOM     12  F4  UNL d   1       0.845  -3.492   2.622  0.00  0.00    -0.092 F 
ENDROOT
TORSDOF 0
ENDMDL
