MODEL 1
REMARK minimizedAffinity -3.93522549
REMARK minimizedRMSD -1
REMARK  0 active torsions:
REMARK  status: ('A' for Active; 'I' for Inactive)
ROOT
ATOM      1  C   UNL d   1       0.948  -2.115   2.051  0.00  0.00     0.124 A 
ATOM      2  C1  UNL d   1      -0.304  -1.583   2.325  0.00  0.00     0.062 A 
ATOM      3  C2  UNL d   1      -0.831  -0.580   1.517  0.00  0.00     0.162 A 
ATOM      4  C3  UNL d   1      -0.105  -0.102   0.426  0.00  0.00    -0.034 A 
ATOM      5  C4  UNL d   1       1.154  -0.641   0.157  0.00  0.00     0.162 A 
ATOM      6  C5  UNL d   1       1.676  -1.643   0.967  0.00  0.00     0.062 A 
ATOM      7  F   UNL d   1       2.886  -2.156   0.700  0.00  0.00    -0.097 F 
ATOM      8  F1  UNL d   1       1.878  -0.204  -0.885  0.00  0.00    -0.096 F 
ATOM      9  I   UNL d   1      -0.889   1.399  -0.785  0.00  0.00    -0.060 I 
ATOM     10  F2  UNL d   1      -2.043  -0.084   1.806  0.00  0.00    -0.096 F 
ATOM     11  F3  UNL d   1      -1.008  -2.036   3.372  0.00  0.00    -0.097 F 
ATOM     12  F4  UNL d   1       1.453  -3.080   2.830  0.00  0.00    -0.092 F 
ENDROOT
TORSDOF 0
ENDMDL
