MODEL 1
REMARK minimizedAffinity -4.4332428
REMARK minimizedRMSD -1
REMARK  0 active torsions:
REMARK  status: ('A' for Active; 'I' for Inactive)
ROOT
ATOM      1  C   UNL d   1       0.881  -2.221   1.827  0.00  0.00     0.124 A 
ATOM      2  C1  UNL d   1       1.481  -1.662   0.707  0.00  0.00     0.062 A 
ATOM      3  C2  UNL d   1       0.947  -0.515   0.126  0.00  0.00     0.162 A 
ATOM      4  C3  UNL d   1      -0.193   0.081   0.665  0.00  0.00    -0.034 A 
ATOM      5  C4  UNL d   1      -0.791  -0.487   1.791  0.00  0.00     0.162 A 
ATOM      6  C5  UNL d   1      -0.254  -1.634   2.367  0.00  0.00     0.062 A 
ATOM      7  F   UNL d   1      -0.835  -2.172   3.449  0.00  0.00    -0.097 F 
ATOM      8  F1  UNL d   1      -1.888   0.061   2.335  0.00  0.00    -0.096 F 
ATOM      9  I   UNL d   1      -0.993   1.797  -0.200  0.00  0.00    -0.060 I 
ATOM     10  F2  UNL d   1       1.547   0.003  -0.956  0.00  0.00    -0.096 F 
ATOM     11  F3  UNL d   1       2.577  -2.229   0.182  0.00  0.00    -0.097 F 
ATOM     12  F4  UNL d   1       1.396  -3.326   2.383  0.00  0.00    -0.092 F 
ENDROOT
TORSDOF 0
ENDMDL
