MODEL 1
REMARK minimizedAffinity -4.78126812
REMARK minimizedRMSD -1
REMARK  0 active torsions:
REMARK  status: ('A' for Active; 'I' for Inactive)
ROOT
ATOM      1  C   UNL d   1       0.658  -2.176   1.530  0.00  0.00     0.124 A 
ATOM      2  C1  UNL d   1       1.337  -1.802   0.378  0.00  0.00     0.062 A 
ATOM      3  C2  UNL d   1       0.874  -0.740  -0.393  0.00  0.00     0.162 A 
ATOM      4  C3  UNL d   1      -0.273  -0.042  -0.014  0.00  0.00    -0.034 A 
ATOM      5  C4  UNL d   1      -0.951  -0.425   1.145  0.00  0.00     0.162 A 
ATOM      6  C5  UNL d   1      -0.484  -1.487   1.912  0.00  0.00     0.062 A 
ATOM      7  F   UNL d   1      -1.141  -1.847   3.024  0.00  0.00    -0.097 F 
ATOM      8  F1  UNL d   1      -2.057   0.224   1.538  0.00  0.00    -0.096 F 
ATOM      9  I   UNL d   1      -0.968   1.547  -1.165  0.00  0.00    -0.060 I 
ATOM     10  F2  UNL d   1       1.550  -0.400  -1.501  0.00  0.00    -0.096 F 
ATOM     11  F3  UNL d   1       2.440  -2.466   0.006  0.00  0.00    -0.097 F 
ATOM     12  F4  UNL d   1       1.105  -3.199   2.270  0.00  0.00    -0.092 F 
ENDROOT
TORSDOF 0
ENDMDL
