MODEL 1
REMARK minimizedAffinity -2.46633744
REMARK minimizedRMSD -1
REMARK  0 active torsions:
REMARK  status: ('A' for Active; 'I' for Inactive)
ROOT
ATOM      1  C   UNL d   1       0.723  -2.705   2.107  0.00  0.00     0.124 A 
ATOM      2  C1  UNL d   1      -0.426  -2.054   2.536  0.00  0.00     0.062 A 
ATOM      3  C2  UNL d   1      -0.937  -0.984   1.808  0.00  0.00     0.162 A 
ATOM      4  C3  UNL d   1      -0.301  -0.557   0.642  0.00  0.00    -0.034 A 
ATOM      5  C4  UNL d   1       0.854  -1.216   0.217  0.00  0.00     0.162 A 
ATOM      6  C5  UNL d   1       1.361  -2.285   0.948  0.00  0.00     0.062 A 
ATOM      7  F   UNL d   1       2.471  -2.913   0.532  0.00  0.00    -0.097 F 
ATOM      8  F1  UNL d   1       1.491  -0.832  -0.899  0.00  0.00    -0.096 F 
ATOM      9  I   UNL d   1      -1.063   1.043  -0.449  0.00  0.00    -0.060 I 
ATOM     10  F2  UNL d   1      -2.048  -0.373   2.246  0.00  0.00    -0.096 F 
ATOM     11  F3  UNL d   1      -1.044  -2.457   3.655  0.00  0.00    -0.097 F 
ATOM     12  F4  UNL d   1       1.213  -3.734   2.810  0.00  0.00    -0.092 F 
ENDROOT
TORSDOF 0
ENDMDL
