MODEL 1
REMARK minimizedAffinity -3.60204315
REMARK minimizedRMSD -1
REMARK  0 active torsions:
REMARK  status: ('A' for Active; 'I' for Inactive)
ROOT
ATOM      1  C   UNL d   1       1.057  -2.516   1.887  0.00  0.00     0.124 A 
ATOM      2  C1  UNL d   1      -0.132  -1.954   2.330  0.00  0.00     0.062 A 
ATOM      3  C2  UNL d   1      -0.685  -0.867   1.660  0.00  0.00     0.162 A 
ATOM      4  C3  UNL d   1      -0.049  -0.334   0.538  0.00  0.00    -0.034 A 
ATOM      5  C4  UNL d   1       1.147  -0.904   0.099  0.00  0.00     0.162 A 
ATOM      6  C5  UNL d   1       1.696  -1.990   0.772  0.00  0.00     0.062 A 
ATOM      7  F   UNL d   1       2.845  -2.532   0.343  0.00  0.00    -0.097 F 
ATOM      8  F1  UNL d   1       1.784  -0.417  -0.976  0.00  0.00    -0.096 F 
ATOM      9  I   UNL d   1      -0.873   1.292  -0.467  0.00  0.00    -0.060 I 
ATOM     10  F2  UNL d   1      -1.835  -0.344   2.110  0.00  0.00    -0.096 F 
ATOM     11  F3  UNL d   1      -0.750  -2.459   3.407  0.00  0.00    -0.097 F 
ATOM     12  F4  UNL d   1       1.588  -3.561   2.534  0.00  0.00    -0.092 F 
ENDROOT
TORSDOF 0
ENDMDL
