MODEL 1
REMARK minimizedAffinity 5.46888733
REMARK minimizedRMSD -1
REMARK  0 active torsions:
REMARK  status: ('A' for Active; 'I' for Inactive)
ROOT
ATOM      1  C4' PXY d   1       1.533  -1.219   4.070  0.00  0.00     0.077 C 
ATOM      2  C1' PXY d   1      -3.051   0.335   0.910  0.00  0.00     0.077 C 
ATOM      3  C1  PXY d   1      -1.855  -0.069   1.749  0.00  0.00    -0.082 A 
ATOM      4  C2  PXY d   1      -0.646  -0.056   1.214  0.00  0.00     0.003 A 
ATOM      5  C3  PXY d   1       0.443  -0.450   1.949  0.00  0.00     0.003 A 
ATOM      6  C4  PXY d   1       0.298  -0.810   3.262  0.00  0.00    -0.082 A 
ATOM      7  C5  PXY d   1      -0.932  -0.815   3.819  0.00  0.00     0.003 A 
ATOM      8  C6  PXY d   1      -2.029  -0.452   3.044  0.00  0.00     0.003 A 
ENDROOT
TORSDOF 0
ENDMDL
