MODEL 1
REMARK minimizedAffinity 7.28805208
REMARK minimizedRMSD -1
REMARK  0 active torsions:
REMARK  status: ('A' for Active; 'I' for Inactive)
ROOT
ATOM      1  C4' PXY d   1       0.373  -1.060   3.773  0.00  0.00     0.077 C 
ATOM      2  C1' PXY d   1      -3.447   0.618  -0.228  0.00  0.00     0.077 C 
ATOM      3  C1  PXY d   1      -2.437   0.173   0.812  0.00  0.00    -0.082 A 
ATOM      4  C2  PXY d   1      -2.839  -0.084   2.046  0.00  0.00     0.003 A 
ATOM      5  C3  PXY d   1      -1.935  -0.456   3.007  0.00  0.00     0.003 A 
ATOM      6  C4  PXY d   1      -0.613  -0.618   2.688  0.00  0.00    -0.082 A 
ATOM      7  C5  PXY d   1      -0.197  -0.368   1.429  0.00  0.00     0.003 A 
ATOM      8  C6  PXY d   1      -1.124   0.048   0.478  0.00  0.00     0.003 A 
ENDROOT
TORSDOF 0
ENDMDL
