MODEL 1
REMARK minimizedAffinity 2.47478652
REMARK minimizedRMSD -1
REMARK  0 active torsions:
REMARK  status: ('A' for Active; 'I' for Inactive)
ROOT
ATOM      1  C4' PXY d   1       1.322  -1.257   3.547  0.00  0.00     0.077 C 
ATOM      2  C1' PXY d   1      -2.864   0.677   0.061  0.00  0.00     0.077 C 
ATOM      3  C1  PXY d   1      -1.760   0.166   0.965  0.00  0.00    -0.082 A 
ATOM      4  C2  PXY d   1      -2.043  -0.189   2.208  0.00  0.00     0.003 A 
ATOM      5  C3  PXY d   1      -1.050  -0.623   3.048  0.00  0.00     0.003 A 
ATOM      6  C4  PXY d   1       0.236  -0.745   2.596  0.00  0.00    -0.082 A 
ATOM      7  C5  PXY d   1       0.531  -0.395   1.326  0.00  0.00     0.003 A 
ATOM      8  C6  PXY d   1      -0.483   0.082   0.501  0.00  0.00     0.003 A 
ENDROOT
TORSDOF 0
ENDMDL
