MODEL 1
REMARK minimizedAffinity -5.24520636
REMARK minimizedRMSD -1
REMARK  0 active torsions:
REMARK  status: ('A' for Active; 'I' for Inactive)
ROOT
ATOM      1  C4' PXY d   1      -0.978   1.731   6.000  0.00  0.00     0.077 C 
ATOM      2  C1' PXY d   1       0.147  -0.365   0.731  0.00  0.00     0.077 C 
ATOM      3  C1  PXY d   1      -0.154   0.195   2.107  0.00  0.00    -0.082 A 
ATOM      4  C2  PXY d   1       0.589  -0.170   3.139  0.00  0.00     0.003 A 
ATOM      5  C3  PXY d   1       0.311   0.301   4.396  0.00  0.00     0.003 A 
ATOM      6  C4  PXY d   1      -0.705   1.198   4.590  0.00  0.00    -0.082 A 
ATOM      7  C5  PXY d   1      -1.461   1.585   3.541  0.00  0.00     0.003 A 
ATOM      8  C6  PXY d   1      -1.189   1.062   2.280  0.00  0.00     0.003 A 
ENDROOT
TORSDOF 0
ENDMDL
