MODEL 1
REMARK minimizedAffinity 8.76055813
REMARK minimizedRMSD -1
REMARK  0 active torsions:
REMARK  status: ('A' for Active; 'I' for Inactive)
ROOT
ATOM      1  C4' PXY d   1      -3.883  -1.718   3.322  0.00  0.00     0.077 C 
ATOM      2  C1' PXY d   1      -1.777   0.950  -1.354  0.00  0.00     0.077 C 
ATOM      3  C1  PXY d   1      -2.320   0.256  -0.120  0.00  0.00    -0.082 A 
ATOM      4  C2  PXY d   1      -2.970  -0.889  -0.247  0.00  0.00     0.003 A 
ATOM      5  C3  PXY d   1      -3.496  -1.514   0.855  0.00  0.00     0.003 A 
ATOM      6  C4  PXY d   1      -3.309  -0.987   2.105  0.00  0.00    -0.082 A 
ATOM      7  C5  PXY d   1      -2.638   0.176   2.243  0.00  0.00     0.003 A 
ATOM      8  C6  PXY d   1      -2.148   0.815   1.108  0.00  0.00     0.003 A 
ENDROOT
TORSDOF 0
ENDMDL
