MODEL 1
REMARK minimizedAffinity 6.57016563
REMARK minimizedRMSD -1
REMARK  0 active torsions:
REMARK  status: ('A' for Active; 'I' for Inactive)
ROOT
ATOM      1  C4' PXY d   1      -0.823  -0.969  -2.001  0.00  0.00     0.077 C 
ATOM      2  C1' PXY d   1       3.107   2.803  -0.067  0.00  0.00     0.077 C 
ATOM      3  C1  PXY d   1       2.078   1.806  -0.563  0.00  0.00    -0.082 A 
ATOM      4  C2  PXY d   1       1.871   1.672  -1.863  0.00  0.00     0.003 A 
ATOM      5  C3  PXY d   1       0.921   0.799  -2.328  0.00  0.00     0.003 A 
ATOM      6  C4  PXY d   1       0.213   0.017  -1.455  0.00  0.00    -0.082 A 
ATOM      7  C5  PXY d   1       0.426   0.140  -0.128  0.00  0.00     0.003 A 
ATOM      8  C6  PXY d   1       1.365   1.062   0.326  0.00  0.00     0.003 A 
ENDROOT
TORSDOF 0
ENDMDL
