MODEL 1
REMARK minimizedAffinity 6.13199186
REMARK minimizedRMSD -1
REMARK  0 active torsions:
REMARK  status: ('A' for Active; 'I' for Inactive)
ROOT
ATOM      1  C4' PXY d   1       2.336   1.262   0.538  0.00  0.00     0.077 C 
ATOM      2  C1' PXY d   1      -3.052  -0.722  -0.126  0.00  0.00     0.077 C 
ATOM      3  C1  PXY d   1      -1.634  -0.214   0.048  0.00  0.00    -0.082 A 
ATOM      4  C2  PXY d   1      -1.429   0.989   0.560  0.00  0.00     0.003 A 
ATOM      5  C3  PXY d   1      -0.155   1.477   0.695  0.00  0.00     0.003 A 
ATOM      6  C4  PXY d   1       0.923   0.705   0.353  0.00  0.00    -0.082 A 
ATOM      7  C5  PXY d   1       0.722  -0.528  -0.160  0.00  0.00     0.003 A 
ATOM      8  C6  PXY d   1      -0.581  -0.989  -0.328  0.00  0.00     0.003 A 
ENDROOT
TORSDOF 0
ENDMDL
