MODEL 1
REMARK minimizedAffinity 8.34285259
REMARK minimizedRMSD -1
REMARK  0 active torsions:
REMARK  status: ('A' for Active; 'I' for Inactive)
ROOT
ATOM      1  C4' PXY d   1       1.162  -0.860   3.972  0.00  0.00     0.077 C 
ATOM      2  C1' PXY d   1      -2.702   0.656  -0.052  0.00  0.00     0.077 C 
ATOM      3  C1  PXY d   1      -1.682   0.252   0.994  0.00  0.00    -0.082 A 
ATOM      4  C2  PXY d   1      -2.040   0.188   2.266  0.00  0.00     0.003 A 
ATOM      5  C3  PXY d   1      -1.122  -0.144   3.229  0.00  0.00     0.003 A 
ATOM      6  C4  PXY d   1       0.163  -0.466   2.880  0.00  0.00    -0.082 A 
ATOM      7  C5  PXY d   1       0.533  -0.413   1.583  0.00  0.00     0.003 A 
ATOM      8  C6  PXY d   1      -0.404  -0.033   0.626  0.00  0.00     0.003 A 
ENDROOT
TORSDOF 0
ENDMDL
