MODEL 1
REMARK minimizedAffinity 0.598636091
REMARK minimizedRMSD -1
REMARK  0 active torsions:
REMARK  status: ('A' for Active; 'I' for Inactive)
ROOT
ATOM      1  C4' PXY d   1       0.449  -1.615   4.694  0.00  0.00     0.077 C 
ATOM      2  C1' PXY d   1      -1.748   0.136  -0.358  0.00  0.00     0.077 C 
ATOM      3  C1  PXY d   1      -1.180  -0.316   0.973  0.00  0.00    -0.082 A 
ATOM      4  C2  PXY d   1       0.056  -0.784   1.032  0.00  0.00     0.003 A 
ATOM      5  C3  PXY d   1       0.574  -1.226   2.222  0.00  0.00     0.003 A 
ATOM      6  C4  PXY d   1      -0.162  -1.139   3.373  0.00  0.00    -0.082 A 
ATOM      7  C5  PXY d   1      -1.420  -0.653   3.323  0.00  0.00     0.003 A 
ATOM      8  C6  PXY d   1      -1.942  -0.247   2.098  0.00  0.00     0.003 A 
ENDROOT
TORSDOF 0
ENDMDL
