MODEL 1
REMARK minimizedAffinity -1.79302704
REMARK minimizedRMSD -1
REMARK  0 active torsions:
REMARK  status: ('A' for Active; 'I' for Inactive)
ROOT
ATOM      1  C4' PXY d   1       0.387  -1.170   4.080  0.00  0.00     0.077 C 
ATOM      2  C1' PXY d   1      -2.529   0.532  -0.611  0.00  0.00     0.077 C 
ATOM      3  C1  PXY d   1      -1.772   0.094   0.626  0.00  0.00    -0.082 A 
ATOM      4  C2  PXY d   1      -0.543  -0.382   0.507  0.00  0.00     0.003 A 
ATOM      5  C3  PXY d   1       0.145  -0.813   1.612  0.00  0.00     0.003 A 
ATOM      6  C4  PXY d   1      -0.411  -0.706   2.859  0.00  0.00    -0.082 A 
ATOM      7  C5  PXY d   1      -1.661  -0.212   2.990  0.00  0.00     0.003 A 
ATOM      8  C6  PXY d   1      -2.357   0.182   1.851  0.00  0.00     0.003 A 
ENDROOT
TORSDOF 0
ENDMDL
