MODEL 1
REMARK minimizedAffinity 8.86904335
REMARK minimizedRMSD -1
REMARK  0 active torsions:
REMARK  status: ('A' for Active; 'I' for Inactive)
ROOT
ATOM      1  C4' PXY d   1      -3.911  -1.172  -1.429  0.00  0.00     0.077 C 
ATOM      2  C1' PXY d   1       0.979   0.130   1.366  0.00  0.00     0.077 C 
ATOM      3  C1  PXY d   1      -0.297  -0.213   0.622  0.00  0.00    -0.082 A 
ATOM      4  C2  PXY d   1      -1.460   0.207   1.091  0.00  0.00     0.003 A 
ATOM      5  C3  PXY d   1      -2.626  -0.121   0.448  0.00  0.00     0.003 A 
ATOM      6  C4  PXY d   1      -2.597  -0.841  -0.716  0.00  0.00    -0.082 A 
ATOM      7  C5  PXY d   1      -1.413  -1.264  -1.206  0.00  0.00     0.003 A 
ATOM      8  C6  PXY d   1      -0.244  -0.956  -0.517  0.00  0.00     0.003 A 
ENDROOT
TORSDOF 0
ENDMDL
