MODEL 1
REMARK minimizedAffinity 3.12787294
REMARK minimizedRMSD -1
REMARK  0 active torsions:
REMARK  status: ('A' for Active; 'I' for Inactive)
ROOT
ATOM      1  C1  BNZ d   1      -4.004   5.999   5.009  0.00  0.00     0.000 A 
ATOM      2  C2  BNZ d   1      -4.072   5.098   3.980  0.00  0.00     0.000 A 
ATOM      3  C3  BNZ d   1      -5.083   4.179   3.921  0.00  0.00     0.000 A 
ATOM      4  C4  BNZ d   1      -5.999   4.136   4.909  0.00  0.00     0.000 A 
ATOM      5  C5  BNZ d   1      -5.938   5.032   5.958  0.00  0.00     0.000 A 
ATOM      6  C6  BNZ d   1      -4.942   5.981   5.994  0.00  0.00     0.000 A 
ENDROOT
TORSDOF 0
ENDMDL
