MODEL 1
REMARK minimizedAffinity -1.12363791
REMARK minimizedRMSD -1
REMARK  0 active torsions:
REMARK  status: ('A' for Active; 'I' for Inactive)
ROOT
ATOM      1  C1  BNZ d   1      -4.041   4.927   4.097  0.00  0.00     0.000 A 
ATOM      2  C2  BNZ d   1      -4.974   3.928   4.176  0.00  0.00     0.000 A 
ATOM      3  C3  BNZ d   1      -5.966   3.969   5.116  0.00  0.00     0.000 A 
ATOM      4  C4  BNZ d   1      -6.000   4.987   6.000  0.00  0.00     0.000 A 
ATOM      5  C5  BNZ d   1      -5.060   5.997   5.939  0.00  0.00     0.000 A 
ATOM      6  C6  BNZ d   1      -4.087   5.973   4.967  0.00  0.00     0.000 A 
ENDROOT
TORSDOF 0
ENDMDL
