MODEL 1
REMARK minimizedAffinity 6.29876852
REMARK minimizedRMSD -1
REMARK  0 active torsions:
REMARK  status: ('A' for Active; 'I' for Inactive)
ROOT
ATOM      1  C1  BNZ d   1       2.585  -0.749   0.042  0.00  0.00     0.000 A 
ATOM      2  C2  BNZ d   1       2.232   0.454  -0.507  0.00  0.00     0.000 A 
ATOM      3  C3  BNZ d   1       3.135   1.476  -0.594  0.00  0.00     0.000 A 
ATOM      4  C4  BNZ d   1       4.377   1.307  -0.096  0.00  0.00     0.000 A 
ATOM      5  C5  BNZ d   1       4.746   0.103   0.469  0.00  0.00     0.000 A 
ATOM      6  C6  BNZ d   1       3.846  -0.937   0.519  0.00  0.00     0.000 A 
ENDROOT
TORSDOF 0
ENDMDL
