MODEL 1
REMARK minimizedAffinity 3.60470343
REMARK minimizedRMSD -1
REMARK  0 active torsions:
REMARK  status: ('A' for Active; 'I' for Inactive)
ROOT
ATOM      1  C1  BNZ d   1      -5.974   5.957   2.762  0.00  0.00     0.000 A 
ATOM      2  C2  BNZ d   1      -5.985   5.997   4.130  0.00  0.00     0.000 A 
ATOM      3  C3  BNZ d   1      -5.976   4.844   4.864  0.00  0.00     0.000 A 
ATOM      4  C4  BNZ d   1      -5.996   3.654   4.229  0.00  0.00     0.000 A 
ATOM      5  C5  BNZ d   1      -5.994   3.597   2.850  0.00  0.00     0.000 A 
ATOM      6  C6  BNZ d   1      -5.965   4.760   2.114  0.00  0.00     0.000 A 
ENDROOT
TORSDOF 0
ENDMDL
