MODEL 1
REMARK minimizedAffinity 0.555254936
REMARK minimizedRMSD -1
REMARK  0 active torsions:
REMARK  status: ('A' for Active; 'I' for Inactive)
ROOT
ATOM      1  C1  BNZ d   1      -5.970   3.778   3.849  0.00  0.00     0.000 A 
ATOM      2  C2  BNZ d   1      -5.943   3.683   5.215  0.00  0.00     0.000 A 
ATOM      3  C3  BNZ d   1      -5.558   4.746   5.983  0.00  0.00     0.000 A 
ATOM      4  C4  BNZ d   1      -5.161   5.888   5.384  0.00  0.00     0.000 A 
ATOM      5  C5  BNZ d   1      -5.173   5.996   4.008  0.00  0.00     0.000 A 
ATOM      6  C6  BNZ d   1      -5.599   4.937   3.239  0.00  0.00     0.000 A 
ENDROOT
TORSDOF 0
ENDMDL
