MODEL 1
REMARK minimizedAffinity 5.83661604
REMARK minimizedRMSD -1
REMARK  0 active torsions:
REMARK  status: ('A' for Active; 'I' for Inactive)
ROOT
ATOM      1  C1  BNZ d   1      -4.039   1.463   0.550  0.00  0.00     0.000 A 
ATOM      2  C2  BNZ d   1      -5.305   1.162   0.125  0.00  0.00     0.000 A 
ATOM      3  C3  BNZ d   1      -5.506   0.421  -1.006  0.00  0.00     0.000 A 
ATOM      4  C4  BNZ d   1      -4.443   0.016  -1.731  0.00  0.00     0.000 A 
ATOM      5  C5  BNZ d   1      -3.160   0.320  -1.321  0.00  0.00     0.000 A 
ATOM      6  C6  BNZ d   1      -2.961   1.033  -0.161  0.00  0.00     0.000 A 
ENDROOT
TORSDOF 0
ENDMDL
