MODEL 1
REMARK minimizedAffinity 9.00505352
REMARK minimizedRMSD -1
REMARK  0 active torsions:
REMARK  status: ('A' for Active; 'I' for Inactive)
ROOT
ATOM      1  C1  BNZ d   1       2.532   5.301   3.779  0.00  0.00     0.000 A 
ATOM      2  C2  BNZ d   1       3.895   5.263   3.653  0.00  0.00     0.000 A 
ATOM      3  C3  BNZ d   1       4.580   4.090   3.805  0.00  0.00     0.000 A 
ATOM      4  C4  BNZ d   1       3.906   2.965   4.122  0.00  0.00     0.000 A 
ATOM      5  C5  BNZ d   1       2.533   2.989   4.262  0.00  0.00     0.000 A 
ATOM      6  C6  BNZ d   1       1.843   4.164   4.069  0.00  0.00     0.000 A 
ENDROOT
TORSDOF 0
ENDMDL
