MODEL 1
REMARK minimizedAffinity 6.5461092
REMARK minimizedRMSD -1
REMARK  0 active torsions:
REMARK  status: ('A' for Active; 'I' for Inactive)
ROOT
ATOM      1  C1  BNZ d   1      -4.882   4.380   3.562  0.00  0.00     0.000 A 
ATOM      2  C2  BNZ d   1      -3.753   5.012   4.010  0.00  0.00     0.000 A 
ATOM      3  C3  BNZ d   1      -3.727   5.611   5.239  0.00  0.00     0.000 A 
ATOM      4  C4  BNZ d   1      -4.840   5.611   6.000  0.00  0.00     0.000 A 
ATOM      5  C5  BNZ d   1      -5.989   4.986   5.558  0.00  0.00     0.000 A 
ATOM      6  C6  BNZ d   1      -6.000   4.351   4.338  0.00  0.00     0.000 A 
ENDROOT
TORSDOF 0
ENDMDL
