MODEL 1
REMARK minimizedAffinity -1.09521604
REMARK minimizedRMSD -1
REMARK  0 active torsions:
REMARK  status: ('A' for Active; 'I' for Inactive)
ROOT
ATOM      1  C1  BNZ d   1       3.081   2.922   3.616  0.00  0.00     0.000 A 
ATOM      2  C2  BNZ d   1       2.539   2.508   4.804  0.00  0.00     0.000 A 
ATOM      3  C3  BNZ d   1       3.116   2.851   5.994  0.00  0.00     0.000 A 
ATOM      4  C4  BNZ d   1       4.255   3.573   5.995  0.00  0.00     0.000 A 
ATOM      5  C5  BNZ d   1       4.819   3.990   4.805  0.00  0.00     0.000 A 
ATOM      6  C6  BNZ d   1       4.214   3.675   3.610  0.00  0.00     0.000 A 
ENDROOT
TORSDOF 0
ENDMDL
