MODEL 1
REMARK minimizedAffinity 8.76147842
REMARK minimizedRMSD -1
REMARK  2 active torsions:
REMARK  status: ('A' for Active; 'I' for Inactive)
REMARK    1  A    between atoms: C2'_3  and  C1'_4 
REMARK    2  A    between atoms: C1'_4  and  C1_5 
ROOT
ATOM      1  C1  I4B d   1      -1.602  -0.190   2.774  0.00  0.00    -0.075 A 
ATOM      2  C2  I4B d   1      -2.794  -0.863   2.879  0.00  0.00     0.003 A 
ATOM      3  C3  I4B d   1      -2.906  -1.983   3.738  0.00  0.00     0.002 A 
ATOM      4  C4  I4B d   1      -1.796  -2.424   4.429  0.00  0.00    -0.004 A 
ATOM      5  C5  I4B d   1      -0.595  -1.726   4.339  0.00  0.00     0.002 A 
ATOM      6  C6  I4B d   1      -0.500  -0.595   3.515  0.00  0.00     0.003 A 
ENDROOT
BRANCH   1   7
ATOM      7  C1' I4B d   1      -1.509   0.969   1.832  0.00  0.00     0.060 C 
BRANCH   7   8
ATOM      8  C2' I4B d   1      -1.180   0.427   0.456  0.00  0.00    -0.013 C 
ATOM      9  C4' I4B d   1       0.177  -0.226   0.437  0.00  0.00     0.013 C 
ATOM     10  C3' I4B d   1      -2.255  -0.546   0.072  0.00  0.00     0.013 C 
ENDBRANCH   7   8
ENDBRANCH   1   7
TORSDOF 2
ENDMDL
