MODEL 1
REMARK minimizedAffinity 5.62756729
REMARK minimizedRMSD -1
REMARK  2 active torsions:
REMARK  status: ('A' for Active; 'I' for Inactive)
REMARK    1  A    between atoms: C2'_3  and  C1'_4 
REMARK    2  A    between atoms: C1'_4  and  C1_5 
ROOT
ATOM      1  C1  I4B d   1      -0.350  -0.218   0.632  0.00  0.00    -0.075 A 
ATOM      2  C2  I4B d   1      -1.121   0.183   1.694  0.00  0.00     0.003 A 
ATOM      3  C3  I4B d   1      -2.529   0.257   1.566  0.00  0.00     0.002 A 
ATOM      4  C4  I4B d   1      -3.116  -0.029   0.351  0.00  0.00    -0.004 A 
ATOM      5  C5  I4B d   1      -2.336  -0.458  -0.719  0.00  0.00     0.002 A 
ATOM      6  C6  I4B d   1      -0.945  -0.566  -0.574  0.00  0.00     0.003 A 
ENDROOT
BRANCH   1   7
ATOM      7  C1' I4B d   1       1.137  -0.253   0.792  0.00  0.00     0.060 C 
BRANCH   7   8
ATOM      8  C2' I4B d   1       1.693   1.057   0.273  0.00  0.00    -0.013 C 
ATOM      9  C4' I4B d   1       2.576   1.719   1.298  0.00  0.00     0.013 C 
ATOM     10  C3' I4B d   1       2.450   0.770  -0.990  0.00  0.00     0.013 C 
ENDBRANCH   7   8
ENDBRANCH   1   7
TORSDOF 2
ENDMDL
