MODEL 1
REMARK minimizedAffinity 1.44264412
REMARK minimizedRMSD -1
REMARK  2 active torsions:
REMARK  status: ('A' for Active; 'I' for Inactive)
REMARK    1  A    between atoms: C2'_3  and  C1'_4 
REMARK    2  A    between atoms: C1'_4  and  C1_5 
ROOT
ATOM      1  C1  I4B d   1      -1.223   0.381   1.590  0.00  0.00    -0.075 A 
ATOM      2  C2  I4B d   1      -2.305   0.484   0.752  0.00  0.00     0.003 A 
ATOM      3  C3  I4B d   1      -2.150   0.277  -0.641  0.00  0.00     0.002 A 
ATOM      4  C4  I4B d   1      -0.896   0.020  -1.154  0.00  0.00    -0.004 A 
ATOM      5  C5  I4B d   1       0.196  -0.107  -0.300  0.00  0.00     0.002 A 
ATOM      6  C6  I4B d   1       0.030   0.062   1.082  0.00  0.00     0.003 A 
ENDROOT
BRANCH   1   7
ATOM      7  C1' I4B d   1      -1.415   0.638   3.051  0.00  0.00     0.060 C 
BRANCH   7   8
ATOM      8  C2' I4B d   1      -1.120  -0.648   3.795  0.00  0.00    -0.013 C 
ATOM      9  C4' I4B d   1      -2.157  -1.699   3.500  0.00  0.00     0.013 C 
ATOM     10  C3' I4B d   1       0.249  -1.111   3.393  0.00  0.00     0.013 C 
ENDBRANCH   7   8
ENDBRANCH   1   7
TORSDOF 2
ENDMDL
