MODEL 1
REMARK minimizedAffinity 11.2247591
REMARK minimizedRMSD -1
REMARK  2 active torsions:
REMARK  status: ('A' for Active; 'I' for Inactive)
REMARK    1  A    between atoms: C2'_3  and  C1'_4 
REMARK    2  A    between atoms: C1'_4  and  C1_5 
ROOT
ATOM      1  C1  I4B d   1      -1.546  -0.112   1.916  0.00  0.00    -0.075 A 
ATOM      2  C2  I4B d   1      -2.633  -0.638   2.569  0.00  0.00     0.003 A 
ATOM      3  C3  I4B d   1      -2.449  -1.531   3.652  0.00  0.00     0.002 A 
ATOM      4  C4  I4B d   1      -1.172  -1.908   4.014  0.00  0.00    -0.004 A 
ATOM      5  C5  I4B d   1      -0.071  -1.356   3.365  0.00  0.00     0.002 A 
ATOM      6  C6  I4B d   1      -0.258  -0.443   2.318  0.00  0.00     0.003 A 
ENDROOT
BRANCH   1   7
ATOM      7  C1' I4B d   1      -1.777   0.802   0.755  0.00  0.00     0.060 C 
BRANCH   7   8
ATOM      8  C2' I4B d   1      -2.722   0.109  -0.205  0.00  0.00    -0.013 C 
ATOM      9  C4' I4B d   1      -3.339   1.090  -1.167  0.00  0.00     0.013 C 
ATOM     10  C3' I4B d   1      -1.948  -0.949  -0.934  0.00  0.00     0.013 C 
ENDBRANCH   7   8
ENDBRANCH   1   7
TORSDOF 2
ENDMDL
