MODEL 1
REMARK minimizedAffinity 11.2070065
REMARK minimizedRMSD -1
REMARK  2 active torsions:
REMARK  status: ('A' for Active; 'I' for Inactive)
REMARK    1  A    between atoms: C2'_3  and  C1'_4 
REMARK    2  A    between atoms: C1'_4  and  C1_5 
ROOT
ATOM      1  C1  I4B d   1      -0.836   0.336   2.393  0.00  0.00    -0.075 A 
ATOM      2  C2  I4B d   1       0.028   0.336   1.326  0.00  0.00     0.003 A 
ATOM      3  C3  I4B d   1       1.279  -0.320   1.421  0.00  0.00     0.002 A 
ATOM      4  C4  I4B d   1       1.644  -0.917   2.610  0.00  0.00    -0.004 A 
ATOM      5  C5  I4B d   1       0.758  -0.937   3.683  0.00  0.00     0.002 A 
ATOM      6  C6  I4B d   1      -0.495  -0.317   3.570  0.00  0.00     0.003 A 
ENDROOT
BRANCH   1   7
ATOM      7  C1' I4B d   1      -2.135   1.067   2.269  0.00  0.00     0.060 C 
BRANCH   7   8
ATOM      8  C2' I4B d   1      -3.136   0.134   1.618  0.00  0.00    -0.013 C 
ATOM      9  C4' I4B d   1      -2.759  -0.158   0.189  0.00  0.00     0.013 C 
ATOM     10  C3' I4B d   1      -3.192  -1.125   2.431  0.00  0.00     0.013 C 
ENDBRANCH   7   8
ENDBRANCH   1   7
TORSDOF 2
ENDMDL
