MODEL 1
REMARK minimizedAffinity 0.644866168
REMARK minimizedRMSD -1
REMARK  2 active torsions:
REMARK  status: ('A' for Active; 'I' for Inactive)
REMARK    1  A    between atoms: C2'_3  and  C1'_4 
REMARK    2  A    between atoms: C1'_4  and  C1_5 
ROOT
ATOM      1  C1  I4B d   1      -0.854  -0.378   2.616  0.00  0.00    -0.075 A 
ATOM      2  C2  I4B d   1      -2.130  -0.005   2.276  0.00  0.00     0.003 A 
ATOM      3  C3  I4B d   1      -2.529   0.016   0.917  0.00  0.00     0.002 A 
ATOM      4  C4  I4B d   1      -1.611  -0.294  -0.065  0.00  0.00    -0.004 A 
ATOM      5  C5  I4B d   1      -0.324  -0.694   0.283  0.00  0.00     0.002 A 
ATOM      6  C6  I4B d   1       0.054  -0.749   1.632  0.00  0.00     0.003 A 
ENDROOT
BRANCH   1   7
ATOM      7  C1' I4B d   1      -0.456  -0.357   4.058  0.00  0.00     0.060 C 
BRANCH   7   8
ATOM      8  C2' I4B d   1       0.480  -1.523   4.301  0.00  0.00    -0.013 C 
ATOM      9  C4' I4B d   1       1.575  -1.150   5.265  0.00  0.00     0.013 C 
ATOM     10  C3' I4B d   1      -0.335  -2.669   4.823  0.00  0.00     0.013 C 
ENDBRANCH   7   8
ENDBRANCH   1   7
TORSDOF 2
ENDMDL
