MODEL 1
REMARK minimizedAffinity -1.10001194
REMARK minimizedRMSD -1
REMARK  0 active torsions:
REMARK  status: ('A' for Active; 'I' for Inactive)
ROOT
ATOM      1  C   UNL d   1      -0.226   0.091   0.188  0.00  0.00    -0.002 A 
ATOM      2  C1  UNL d   1       0.668  -0.309  -0.795  0.00  0.00     0.010 A 
ATOM      3  C2  UNL d   1       0.255  -0.431  -2.124  0.00  0.00     0.041 A 
ATOM      4  C3  UNL d   1      -1.083  -0.139  -2.451  0.00  0.00    -0.075 A 
ATOM      5  S   UNL d   1      -1.813  -0.217  -4.011  0.00  0.00     0.015 SA
ATOM      6  C4  UNL d   1      -3.328   0.279  -3.410  0.00  0.00     0.022 A 
ATOM      7  C5  UNL d   1      -3.297   0.503  -2.054  0.00  0.00     0.026 A 
ATOM      8  C6  UNL d   1      -2.002   0.266  -1.479  0.00  0.00    -0.082 A 
ATOM      9  C7  UNL d   1      -1.554   0.379  -0.141  0.00  0.00     0.045 A 
ENDROOT
TORSDOF 0
ENDMDL
