MODEL 1
REMARK minimizedAffinity 1.01529264
REMARK minimizedRMSD -1
REMARK  0 active torsions:
REMARK  status: ('A' for Active; 'I' for Inactive)
ROOT
ATOM      1  C   UNL d   1      -2.581  -0.537  -1.943  0.00  0.00    -0.002 A 
ATOM      2  C1  UNL d   1      -2.683  -0.668  -3.321  0.00  0.00     0.010 A 
ATOM      3  C2  UNL d   1      -3.142   0.394  -4.103  0.00  0.00     0.041 A 
ATOM      4  C3  UNL d   1      -3.497   1.602  -3.472  0.00  0.00    -0.075 A 
ATOM      5  S   UNL d   1      -4.082   3.037  -4.227  0.00  0.00     0.015 SA
ATOM      6  C4  UNL d   1      -4.209   3.858  -2.739  0.00  0.00     0.022 A 
ATOM      7  C5  UNL d   1      -3.820   3.071  -1.681  0.00  0.00     0.026 A 
ATOM      8  C6  UNL d   1      -3.402   1.758  -2.086  0.00  0.00    -0.082 A 
ATOM      9  C7  UNL d   1      -2.935   0.663  -1.320  0.00  0.00     0.045 A 
ENDROOT
TORSDOF 0
ENDMDL
