MODEL 1
REMARK minimizedAffinity -4.78352928
REMARK minimizedRMSD -1
REMARK  0 active torsions:
REMARK  status: ('A' for Active; 'I' for Inactive)
ROOT
ATOM      1  C   UNL d   1       2.565  -1.505   0.846  0.00  0.00    -0.002 A 
ATOM      2  C1  UNL d   1       3.162  -0.253   0.801  0.00  0.00     0.010 A 
ATOM      3  C2  UNL d   1       2.388   0.897   0.625  0.00  0.00     0.041 A 
ATOM      4  C3  UNL d   1       0.992   0.765   0.495  0.00  0.00    -0.075 A 
ATOM      5  S   UNL d   1      -0.155   2.032   0.271  0.00  0.00     0.015 SA
ATOM      6  C4  UNL d   1      -1.464   0.941   0.231  0.00  0.00     0.022 A 
ATOM      7  C5  UNL d   1      -1.054  -0.362   0.382  0.00  0.00     0.026 A 
ATOM      8  C6  UNL d   1       0.368  -0.485   0.537  0.00  0.00    -0.082 A 
ATOM      9  C7  UNL d   1       1.180  -1.631   0.716  0.00  0.00     0.045 A 
ENDROOT
TORSDOF 0
ENDMDL
