MODEL 1
REMARK minimizedAffinity -4.14018726
REMARK minimizedRMSD -1
REMARK  1 active torsions:
REMARK  status: ('A' for Active; 'I' for Inactive)
REMARK    1  A    between atoms: N_2  and  C1_3 
ROOT
ATOM      1  C1  UNL d   1      -0.060  -0.084  -0.265  0.00  0.00     0.143 A 
ATOM      2  C2  UNL d   1       0.335   1.066   0.427  0.00  0.00    -0.057 A 
ATOM      3  C3  UNL d   1       1.663   1.251   0.830  0.00  0.00     0.033 A 
ATOM      4  C4  UNL d   1       2.617   0.273   0.571  0.00  0.00    -0.042 A 
ATOM      5  C5  UNL d   1       2.242  -0.890  -0.093  0.00  0.00     0.033 A 
ATOM      6  C6  UNL d   1       0.915  -1.065  -0.499  0.00  0.00    -0.057 A 
ENDROOT
BRANCH   1   7
ATOM      7  N   UNL d   1      -1.385  -0.370  -0.605  0.00  0.00    -0.732 N 
ATOM      8  C   UNL d   1      -2.000   0.249  -1.759  0.00  0.00     0.284 C 
ATOM      9  H3  UNL d   1      -1.609  -1.356  -0.493  0.00  0.00     0.395 HD
ENDBRANCH   1   7
TORSDOF 1
ENDMDL
