MODEL 1
REMARK minimizedAffinity -1.71415126
REMARK minimizedRMSD -1
REMARK  1 active torsions:
REMARK  status: ('A' for Active; 'I' for Inactive)
REMARK    1  A    between atoms: N_2  and  C1_3 
ROOT
ATOM      1  C1  UNL d   1      -0.847   0.105  -1.918  0.00  0.00     0.143 A 
ATOM      2  C2  UNL d   1      -2.135   0.111  -1.373  0.00  0.00    -0.057 A 
ATOM      3  C3  UNL d   1      -3.269  -0.005  -2.186  0.00  0.00     0.033 A 
ATOM      4  C4  UNL d   1      -3.134  -0.100  -3.568  0.00  0.00    -0.042 A 
ATOM      5  C5  UNL d   1      -1.865  -0.084  -4.134  0.00  0.00     0.033 A 
ATOM      6  C6  UNL d   1      -0.736   0.026  -3.315  0.00  0.00    -0.057 A 
ENDROOT
BRANCH   1   7
ATOM      7  N   UNL d   1       0.315   0.316  -1.172  0.00  0.00    -0.732 N 
ATOM      8  C   UNL d   1       0.241   0.846   0.173  0.00  0.00     0.284 C 
ATOM      9  H3  UNL d   1       0.991  -0.435  -1.286  0.00  0.00     0.395 HD
ENDBRANCH   1   7
TORSDOF 1
ENDMDL
