MODEL 1
REMARK minimizedAffinity -4.12943506
REMARK minimizedRMSD -1
REMARK  1 active torsions:
REMARK  status: ('A' for Active; 'I' for Inactive)
REMARK    1  A    between atoms: N_2  and  C1_3 
ROOT
ATOM      1  C1  UNL d   1       0.853  -0.163   0.955  0.00  0.00     0.143 A 
ATOM      2  C2  UNL d   1       2.153   0.104   1.399  0.00  0.00    -0.057 A 
ATOM      3  C3  UNL d   1       2.847  -0.808   2.203  0.00  0.00     0.033 A 
ATOM      4  C4  UNL d   1       2.240  -1.994   2.603  0.00  0.00    -0.042 A 
ATOM      5  C5  UNL d   1       0.940  -2.269   2.194  0.00  0.00     0.033 A 
ATOM      6  C6  UNL d   1       0.254  -1.358   1.385  0.00  0.00    -0.057 A 
ENDROOT
BRANCH   1   7
ATOM      7  N   UNL d   1       0.075   0.747   0.235  0.00  0.00    -0.732 N 
ATOM      8  C   UNL d   1      -1.102   0.305  -0.482  0.00  0.00     0.284 C 
ATOM      9  H3  UNL d   1      -0.045   1.630   0.727  0.00  0.00     0.395 HD
ENDBRANCH   1   7
TORSDOF 1
ENDMDL
