MODEL 1
REMARK minimizedAffinity -3.38415504
REMARK minimizedRMSD -1
REMARK  1 active torsions:
REMARK  status: ('A' for Active; 'I' for Inactive)
REMARK    1  A    between atoms: N_2  and  C1_3 
ROOT
ATOM      1  C1  UNL d   1       0.392   0.160   0.399  0.00  0.00     0.143 A 
ATOM      2  C2  UNL d   1       1.190  -0.189   1.494  0.00  0.00    -0.057 A 
ATOM      3  C3  UNL d   1       2.554   0.125   1.528  0.00  0.00     0.033 A 
ATOM      4  C4  UNL d   1       3.152   0.771   0.451  0.00  0.00    -0.042 A 
ATOM      5  C5  UNL d   1       2.384   1.104  -0.659  0.00  0.00     0.033 A 
ATOM      6  C6  UNL d   1       1.021   0.794  -0.684  0.00  0.00    -0.057 A 
ENDROOT
BRANCH   1   7
ATOM      7  N   UNL d   1      -0.947  -0.212   0.263  0.00  0.00    -0.732 N 
ATOM      8  C   UNL d   1      -1.603  -0.147  -1.025  0.00  0.00     0.284 C 
ATOM      9  H3  UNL d   1      -1.177  -1.042   0.805  0.00  0.00     0.395 HD
ENDBRANCH   1   7
TORSDOF 1
ENDMDL
