MODEL 1
REMARK minimizedAffinity -2.77852488
REMARK minimizedRMSD -1
REMARK  1 active torsions:
REMARK  status: ('A' for Active; 'I' for Inactive)
REMARK    1  A    between atoms: N_2  and  C1_3 
ROOT
ATOM      1  C1  UNL d   1      -1.405  -0.012  -1.094  0.00  0.00     0.143 A 
ATOM      2  C2  UNL d   1      -1.213  -0.019   0.292  0.00  0.00    -0.057 A 
ATOM      3  C3  UNL d   1      -0.075   0.555   0.870  0.00  0.00     0.033 A 
ATOM      4  C4  UNL d   1       0.909   1.124   0.068  0.00  0.00    -0.042 A 
ATOM      5  C5  UNL d   1       0.751   1.120  -1.314  0.00  0.00     0.033 A 
ATOM      6  C6  UNL d   1      -0.391   0.551  -1.885  0.00  0.00    -0.057 A 
ENDROOT
BRANCH   1   7
ATOM      7  N   UNL d   1      -2.468  -0.654  -1.735  0.00  0.00    -0.732 N 
ATOM      8  C   UNL d   1      -2.955  -0.176  -3.012  0.00  0.00     0.284 C 
ATOM      9  H3  UNL d   1      -2.408  -1.667  -1.666  0.00  0.00     0.395 HD
ENDBRANCH   1   7
TORSDOF 1
ENDMDL
