MODEL 1
REMARK minimizedAffinity -3.48974538
REMARK minimizedRMSD -1
REMARK  1 active torsions:
REMARK  status: ('A' for Active; 'I' for Inactive)
REMARK    1  A    between atoms: N_2  and  C1_3 
ROOT
ATOM      1  C1  UNL d   1       0.324  -0.136   0.347  0.00  0.00     0.143 A 
ATOM      2  C2  UNL d   1       0.075  -1.338   1.019  0.00  0.00    -0.057 A 
ATOM      3  C3  UNL d   1       0.907  -1.775   2.056  0.00  0.00     0.033 A 
ATOM      4  C4  UNL d   1       2.024  -1.031   2.420  0.00  0.00    -0.042 A 
ATOM      5  C5  UNL d   1       2.305   0.154   1.749  0.00  0.00     0.033 A 
ATOM      6  C6  UNL d   1       1.466   0.589   0.719  0.00  0.00    -0.057 A 
ENDROOT
BRANCH   1   7
ATOM      7  N   UNL d   1      -0.410   0.304  -0.757  0.00  0.00    -0.732 N 
ATOM      8  C   UNL d   1      -1.821   0.002  -0.872  0.00  0.00     0.284 C 
ATOM      9  H3  UNL d   1      -0.164   1.251  -1.036  0.00  0.00     0.395 HD
ENDBRANCH   1   7
TORSDOF 1
ENDMDL
