MODEL 1
REMARK minimizedAffinity 11.2770987
REMARK minimizedRMSD -1
REMARK  1 active torsions:
REMARK  status: ('A' for Active; 'I' for Inactive)
REMARK    1  A    between atoms: C1_2  and  C2_3 
ROOT
ATOM      1  C2  UNL d   1       5.633  -3.968   0.202  0.00  0.00    -0.076 A 
ATOM      2  C3  UNL d   1       5.761  -3.367  -1.062  0.00  0.00     0.004 A 
ATOM      3  C4  UNL d   1       5.461  -4.072  -2.226  0.00  0.00    -0.003 A 
ATOM      4  C5  UNL d   1       5.026  -5.390  -2.145  0.00  0.00     0.000 A 
ATOM      5  C6  UNL d   1       4.875  -5.997  -0.898  0.00  0.00     0.000 A 
ATOM      6  C7  UNL d   1       5.158  -5.295   0.286  0.00  0.00    -0.073 A 
ATOM      7  C8  UNL d   1       4.984  -6.000   1.603  0.00  0.00     0.078 C 
ENDROOT
BRANCH   1   8
ATOM      8  C1  UNL d   1       5.999  -3.162   1.428  0.00  0.00     0.053 C 
ATOM      9  C   UNL d   1       5.934  -1.663   1.181  0.00  0.00     0.018 C 
ENDBRANCH   1   8
TORSDOF 1
ENDMDL
