MODEL 1
REMARK minimizedAffinity -3.5797646
REMARK minimizedRMSD -1
REMARK  1 active torsions:
REMARK  status: ('A' for Active; 'I' for Inactive)
REMARK    1  A    between atoms: C1_2  and  C2_3 
ROOT
ATOM      1  C2  UNL d   1      -0.738   1.074   0.583  0.00  0.00    -0.076 A 
ATOM      2  C3  UNL d   1      -0.803   1.399  -0.784  0.00  0.00     0.004 A 
ATOM      3  C4  UNL d   1      -1.104   2.694  -1.200  0.00  0.00    -0.003 A 
ATOM      4  C5  UNL d   1      -1.343   3.687  -0.256  0.00  0.00     0.000 A 
ATOM      5  C6  UNL d   1      -1.264   3.388   1.104  0.00  0.00     0.000 A 
ATOM      6  C7  UNL d   1      -0.946   2.090   1.540  0.00  0.00    -0.073 A 
ATOM      7  C8  UNL d   1      -0.881   1.821   3.018  0.00  0.00     0.078 C 
ENDROOT
BRANCH   1   8
ATOM      8  C1  UNL d   1      -0.434  -0.355   0.974  0.00  0.00     0.053 C 
ATOM      9  C   UNL d   1       0.931  -0.815   0.486  0.00  0.00     0.018 C 
ENDBRANCH   1   8
TORSDOF 1
ENDMDL
