MODEL 1
REMARK minimizedAffinity -2.41563892
REMARK minimizedRMSD -1
REMARK  1 active torsions:
REMARK  status: ('A' for Active; 'I' for Inactive)
REMARK    1  A    between atoms: C1_2  and  C2_3 
ROOT
ATOM      1  C2  UNL d   1      -1.065   1.112   0.351  0.00  0.00    -0.076 A 
ATOM      2  C3  UNL d   1      -0.683   1.925  -0.730  0.00  0.00     0.004 A 
ATOM      3  C4  UNL d   1       0.490   1.670  -1.439  0.00  0.00    -0.003 A 
ATOM      4  C5  UNL d   1       1.299   0.598  -1.079  0.00  0.00     0.000 A 
ATOM      5  C6  UNL d   1       0.926  -0.229  -0.021  0.00  0.00     0.000 A 
ATOM      6  C7  UNL d   1      -0.262   0.003   0.694  0.00  0.00    -0.073 A 
ATOM      7  C8  UNL d   1      -0.612  -0.917   1.831  0.00  0.00     0.078 C 
ENDROOT
BRANCH   1   8
ATOM      8  C1  UNL d   1      -2.334   1.453   1.101  0.00  0.00     0.053 C 
ATOM      9  C   UNL d   1      -2.223   2.760   1.869  0.00  0.00     0.018 C 
ENDBRANCH   1   8
TORSDOF 1
ENDMDL
