MODEL 1
REMARK minimizedAffinity -5.19687891
REMARK minimizedRMSD -1
REMARK  1 active torsions:
REMARK  status: ('A' for Active; 'I' for Inactive)
REMARK    1  A    between atoms: C1_2  and  C2_3 
ROOT
ATOM      1  C2  UNL d   1      -0.636   1.063  -0.496  0.00  0.00    -0.076 A 
ATOM      2  C3  UNL d   1      -1.383   2.180  -0.908  0.00  0.00     0.004 A 
ATOM      3  C4  UNL d   1      -2.072   2.964   0.016  0.00  0.00    -0.003 A 
ATOM      4  C5  UNL d   1      -2.024   2.643   1.368  0.00  0.00     0.000 A 
ATOM      5  C6  UNL d   1      -1.273   1.548   1.797  0.00  0.00     0.000 A 
ATOM      6  C7  UNL d   1      -0.560   0.758   0.880  0.00  0.00    -0.073 A 
ATOM      7  C8  UNL d   1       0.228  -0.415   1.397  0.00  0.00     0.078 C 
ENDROOT
BRANCH   1   8
ATOM      8  C1  UNL d   1       0.067   0.234  -1.547  0.00  0.00     0.053 C 
ATOM      9  C   UNL d   1       1.423   0.808  -1.930  0.00  0.00     0.018 C 
ENDBRANCH   1   8
TORSDOF 1
ENDMDL
