MODEL 1
REMARK minimizedAffinity -2.48842454
REMARK minimizedRMSD -1
REMARK  1 active torsions:
REMARK  status: ('A' for Active; 'I' for Inactive)
REMARK    1  A    between atoms: C1_2  and  C2_3 
ROOT
ATOM      1  C2  UNL d   1       0.133   0.753  -0.046  0.00  0.00    -0.076 A 
ATOM      2  C3  UNL d   1       0.528   1.880  -0.786  0.00  0.00     0.004 A 
ATOM      3  C4  UNL d   1       0.184   3.166  -0.373  0.00  0.00    -0.003 A 
ATOM      4  C5  UNL d   1      -0.560   3.345   0.788  0.00  0.00     0.000 A 
ATOM      5  C6  UNL d   1      -0.946   2.239   1.544  0.00  0.00     0.000 A 
ATOM      6  C7  UNL d   1      -0.593   0.937   1.151  0.00  0.00    -0.073 A 
ATOM      7  C8  UNL d   1      -1.040  -0.221   2.001  0.00  0.00     0.078 C 
ENDROOT
BRANCH   1   8
ATOM      8  C1  UNL d   1       0.513  -0.619  -0.557  0.00  0.00     0.053 C 
ATOM      9  C   UNL d   1       1.778  -1.154   0.094  0.00  0.00     0.018 C 
ENDBRANCH   1   8
TORSDOF 1
ENDMDL
