MODEL 1
REMARK minimizedAffinity -2.4258461
REMARK minimizedRMSD -1
REMARK  1 active torsions:
REMARK  status: ('A' for Active; 'I' for Inactive)
REMARK    1  A    between atoms: C1_2  and  C2_3 
ROOT
ATOM      1  C2  UNL d   1       0.199  -1.215  -0.670  0.00  0.00    -0.076 A 
ATOM      2  C3  UNL d   1      -0.840  -2.127  -0.924  0.00  0.00     0.004 A 
ATOM      3  C4  UNL d   1      -0.733  -3.071  -1.943  0.00  0.00    -0.003 A 
ATOM      4  C5  UNL d   1       0.417  -3.120  -2.724  0.00  0.00     0.000 A 
ATOM      5  C6  UNL d   1       1.465  -2.235  -2.475  0.00  0.00     0.000 A 
ATOM      6  C7  UNL d   1       1.379  -1.287  -1.441  0.00  0.00    -0.073 A 
ATOM      7  C8  UNL d   1       2.537  -0.353  -1.220  0.00  0.00     0.078 C 
ENDROOT
BRANCH   1   8
ATOM      8  C1  UNL d   1       0.014  -0.195   0.431  0.00  0.00     0.053 C 
ATOM      9  C   UNL d   1      -1.185  -0.501   1.314  0.00  0.00     0.018 C 
ENDBRANCH   1   8
TORSDOF 1
ENDMDL
