MODEL 1
REMARK minimizedAffinity 6.63717747
REMARK minimizedRMSD -1
REMARK  1 active torsions:
REMARK  status: ('A' for Active; 'I' for Inactive)
REMARK    1  A    between atoms: C1_2  and  C2_3 
ROOT
ATOM      1  C2  UNL d   1      -0.503   1.520   2.121  0.00  0.00    -0.076 A 
ATOM      2  C3  UNL d   1      -0.628   0.130   1.953  0.00  0.00     0.004 A 
ATOM      3  C4  UNL d   1      -0.241  -0.487   0.764  0.00  0.00    -0.003 A 
ATOM      4  C5  UNL d   1       0.278   0.277  -0.276  0.00  0.00     0.000 A 
ATOM      5  C6  UNL d   1       0.426   1.655  -0.120  0.00  0.00     0.000 A 
ATOM      6  C7  UNL d   1       0.056   2.290   1.078  0.00  0.00    -0.073 A 
ATOM      7  C8  UNL d   1       0.232   3.779   1.190  0.00  0.00     0.078 C 
ENDROOT
BRANCH   1   8
ATOM      8  C1  UNL d   1      -0.964   2.136   3.422  0.00  0.00     0.053 C 
ATOM      9  C   UNL d   1       0.172   2.316   4.417  0.00  0.00     0.018 C 
ENDBRANCH   1   8
TORSDOF 1
ENDMDL
