MODEL 1
REMARK minimizedAffinity 2.95364428
REMARK minimizedRMSD -1
REMARK  1 active torsions:
REMARK  status: ('A' for Active; 'I' for Inactive)
REMARK    1  A    between atoms: C1_2  and  C2_3 
ROOT
ATOM      1  C2  UNL d   1      -0.412   1.054   0.376  0.00  0.00    -0.076 A 
ATOM      2  C3  UNL d   1      -0.783  -0.279   0.627  0.00  0.00     0.004 A 
ATOM      3  C4  UNL d   1      -1.057  -0.716   1.922  0.00  0.00    -0.003 A 
ATOM      4  C5  UNL d   1      -0.964   0.173   2.987  0.00  0.00     0.000 A 
ATOM      5  C6  UNL d   1      -0.615   1.503   2.755  0.00  0.00     0.000 A 
ATOM      6  C7  UNL d   1      -0.352   1.963   1.453  0.00  0.00    -0.073 A 
ATOM      7  C8  UNL d   1       0.026   3.406   1.261  0.00  0.00     0.078 C 
ENDROOT
BRANCH   1   8
ATOM      8  C1  UNL d   1      -0.102   1.463  -1.046  0.00  0.00     0.053 C 
ATOM      9  C   UNL d   1      -1.280   1.252  -1.984  0.00  0.00     0.018 C 
ENDBRANCH   1   8
TORSDOF 1
ENDMDL
