MODEL 1
REMARK minimizedAffinity -4.7188139
REMARK minimizedRMSD -1
REMARK  1 active torsions:
REMARK  status: ('A' for Active; 'I' for Inactive)
REMARK    1  A    between atoms: C1_2  and  C2_3 
ROOT
ATOM      1  C2  UNL d   1      -0.865   1.264   0.716  0.00  0.00    -0.076 A 
ATOM      2  C3  UNL d   1      -0.481   1.981  -0.430  0.00  0.00     0.004 A 
ATOM      3  C4  UNL d   1       0.437   1.450  -1.335  0.00  0.00    -0.003 A 
ATOM      4  C5  UNL d   1       0.985   0.193  -1.109  0.00  0.00     0.000 A 
ATOM      5  C6  UNL d   1       0.603  -0.540   0.014  0.00  0.00     0.000 A 
ATOM      6  C7  UNL d   1      -0.334  -0.026   0.928  0.00  0.00    -0.073 A 
ATOM      7  C8  UNL d   1      -0.705  -0.857   2.125  0.00  0.00     0.078 C 
ENDROOT
BRANCH   1   8
ATOM      8  C1  UNL d   1      -1.843   1.902   1.676  0.00  0.00     0.053 C 
ATOM      9  C   UNL d   1      -2.189   3.332   1.290  0.00  0.00     0.018 C 
ENDBRANCH   1   8
TORSDOF 1
ENDMDL
