MODEL 1
REMARK minimizedAffinity -3.0232563
REMARK minimizedRMSD -1
REMARK  1 active torsions:
REMARK  status: ('A' for Active; 'I' for Inactive)
REMARK    1  A    between atoms: C1_2  and  C2_3 
ROOT
ATOM      1  C2  UNL d   1      -0.183   0.466  -0.203  0.00  0.00    -0.076 A 
ATOM      2  C3  UNL d   1      -1.063  -0.073   0.751  0.00  0.00     0.004 A 
ATOM      3  C4  UNL d   1      -2.080   0.701   1.308  0.00  0.00    -0.003 A 
ATOM      4  C5  UNL d   1      -2.234   2.027   0.918  0.00  0.00     0.000 A 
ATOM      5  C6  UNL d   1      -1.381   2.573  -0.040  0.00  0.00     0.000 A 
ATOM      6  C7  UNL d   1      -0.361   1.802  -0.623  0.00  0.00    -0.073 A 
ATOM      7  C8  UNL d   1       0.534   2.444  -1.647  0.00  0.00     0.078 C 
ENDROOT
BRANCH   1   8
ATOM      8  C1  UNL d   1       0.918  -0.413  -0.752  0.00  0.00     0.053 C 
ATOM      9  C   UNL d   1       0.384  -1.545  -1.616  0.00  0.00     0.018 C 
ENDBRANCH   1   8
TORSDOF 1
ENDMDL
