MODEL 1
REMARK minimizedAffinity -3.16824508
REMARK minimizedRMSD -1
REMARK  1 active torsions:
REMARK  status: ('A' for Active; 'I' for Inactive)
REMARK    1  A    between atoms: C1_2  and  C2_3 
ROOT
ATOM      1  C2  UNL d   1      -0.226   0.757   0.042  0.00  0.00    -0.076 A 
ATOM      2  C3  UNL d   1      -0.631   1.727   0.975  0.00  0.00     0.004 A 
ATOM      3  C4  UNL d   1      -1.865   1.633   1.617  0.00  0.00    -0.003 A 
ATOM      4  C5  UNL d   1      -2.713   0.567   1.336  0.00  0.00     0.000 A 
ATOM      5  C6  UNL d   1      -2.319  -0.414   0.426  0.00  0.00     0.000 A 
ATOM      6  C7  UNL d   1      -1.072  -0.343  -0.217  0.00  0.00    -0.073 A 
ATOM      7  C8  UNL d   1      -0.701  -1.425  -1.194  0.00  0.00     0.078 C 
ENDROOT
BRANCH   1   8
ATOM      8  C1  UNL d   1       1.112   0.925  -0.643  0.00  0.00     0.053 C 
ATOM      9  C   UNL d   1       1.048   1.891  -1.816  0.00  0.00     0.018 C 
ENDBRANCH   1   8
TORSDOF 1
ENDMDL
