MODEL 1
REMARK minimizedAffinity 14.7595711
REMARK minimizedRMSD -1
REMARK  2 active torsions:
REMARK  status: ('A' for Active; 'I' for Inactive)
REMARK    1  A    between atoms: C2'_3  and  C1'_4 
REMARK    2  A    between atoms: C1'_4  and  C1_5 
ROOT
ATOM      1  C1  I4B d   1       5.958   0.941   0.496  0.00  0.00    -0.075 A 
ATOM      2  C2  I4B d   1       6.000   1.956   1.418  0.00  0.00     0.003 A 
ATOM      3  C3  I4B d   1       5.995   3.307   0.992  0.00  0.00     0.002 A 
ATOM      4  C4  I4B d   1       5.998   3.594  -0.357  0.00  0.00    -0.004 A 
ATOM      5  C5  I4B d   1       5.933   2.564  -1.291  0.00  0.00     0.002 A 
ATOM      6  C6  I4B d   1       5.900   1.229  -0.862  0.00  0.00     0.003 A 
ENDROOT
BRANCH   1   7
ATOM      7  C1' I4B d   1       5.998  -0.474   0.979  0.00  0.00     0.060 C 
BRANCH   7   8
ATOM      8  C2' I4B d   1       4.853  -1.222   0.328  0.00  0.00    -0.013 C 
ATOM      9  C4' I4B d   1       4.418  -2.393   1.171  0.00  0.00     0.013 C 
ATOM     10  C3' I4B d   1       3.726  -0.255   0.123  0.00  0.00     0.013 C 
ENDBRANCH   7   8
ENDBRANCH   1   7
TORSDOF 2
ENDMDL
