MODEL 1
REMARK minimizedAffinity 11.2501965
REMARK minimizedRMSD -1
REMARK  2 active torsions:
REMARK  status: ('A' for Active; 'I' for Inactive)
REMARK    1  A    between atoms: C2'_3  and  C1'_4 
REMARK    2  A    between atoms: C1'_4  and  C1_5 
ROOT
ATOM      1  C1  I4B d   1      -5.018   2.150  -4.422  0.00  0.00    -0.075 A 
ATOM      2  C2  I4B d   1      -5.343   3.468  -4.623  0.00  0.00     0.003 A 
ATOM      3  C3  I4B d   1      -4.496   4.494  -4.138  0.00  0.00     0.002 A 
ATOM      4  C4  I4B d   1      -3.367   4.159  -3.419  0.00  0.00    -0.004 A 
ATOM      5  C5  I4B d   1      -3.027   2.822  -3.235  0.00  0.00     0.002 A 
ATOM      6  C6  I4B d   1      -3.850   1.810  -3.751  0.00  0.00     0.003 A 
ENDROOT
BRANCH   1   7
ATOM      7  C1' I4B d   1      -5.952   1.093  -4.919  0.00  0.00     0.060 C 
BRANCH   7   8
ATOM      8  C2' I4B d   1      -5.294  -0.254  -4.697  0.00  0.00    -0.013 C 
ATOM      9  C4' I4B d   1      -5.999  -1.033  -3.618  0.00  0.00     0.013 C 
ATOM     10  C3' I4B d   1      -5.309  -0.997  -5.999  0.00  0.00     0.013 C 
ENDBRANCH   7   8
ENDBRANCH   1   7
TORSDOF 2
ENDMDL
