MODEL 1
REMARK minimizedAffinity 14.1469469
REMARK minimizedRMSD -1
REMARK  2 active torsions:
REMARK  status: ('A' for Active; 'I' for Inactive)
REMARK    1  A    between atoms: C2'_3  and  C1'_4 
REMARK    2  A    between atoms: C1'_4  and  C1_5 
ROOT
ATOM      1  C1  I4B d   1       0.529  -2.577   1.172  0.00  0.00    -0.075 A 
ATOM      2  C2  I4B d   1       0.740  -3.860   0.734  0.00  0.00     0.003 A 
ATOM      3  C3  I4B d   1       2.056  -4.323   0.490  0.00  0.00     0.002 A 
ATOM      4  C4  I4B d   1       3.120  -3.459   0.646  0.00  0.00    -0.004 A 
ATOM      5  C5  I4B d   1       2.906  -2.165   1.112  0.00  0.00     0.002 A 
ATOM      6  C6  I4B d   1       1.604  -1.724   1.389  0.00  0.00     0.003 A 
ENDROOT
BRANCH   1   7
ATOM      7  C1' I4B d   1      -0.876  -2.111   1.389  0.00  0.00     0.060 C 
BRANCH   7   8
ATOM      8  C2' I4B d   1      -1.337  -2.631   2.735  0.00  0.00    -0.013 C 
ATOM      9  C4' I4B d   1      -1.686  -1.501   3.667  0.00  0.00     0.013 C 
ATOM     10  C3' I4B d   1      -2.518  -3.527   2.505  0.00  0.00     0.013 C 
ENDBRANCH   7   8
ENDBRANCH   1   7
TORSDOF 2
ENDMDL
