MODEL 1
REMARK minimizedAffinity 16.2955265
REMARK minimizedRMSD -1
REMARK  2 active torsions:
REMARK  status: ('A' for Active; 'I' for Inactive)
REMARK    1  A    between atoms: C2'_3  and  C1'_4 
REMARK    2  A    between atoms: C1'_4  and  C1_5 
ROOT
ATOM      1  C1  I4B d   1       2.830   4.213  -5.970  0.00  0.00    -0.075 A 
ATOM      2  C2  I4B d   1       3.114   5.556  -5.964  0.00  0.00     0.003 A 
ATOM      3  C3  I4B d   1       4.458   6.000  -5.928  0.00  0.00     0.002 A 
ATOM      4  C4  I4B d   1       5.478   5.074  -5.849  0.00  0.00    -0.004 A 
ATOM      5  C5  I4B d   1       5.189   3.713  -5.879  0.00  0.00     0.002 A 
ATOM      6  C6  I4B d   1       3.857   3.279  -5.952  0.00  0.00     0.003 A 
ENDROOT
BRANCH   1   7
ATOM      7  C1' I4B d   1       1.398   3.779  -5.975  0.00  0.00     0.060 C 
BRANCH   7   8
ATOM      8  C2' I4B d   1       0.609   4.763  -5.136  0.00  0.00    -0.013 C 
ATOM      9  C4' I4B d   1      -0.062   5.799  -5.998  0.00  0.00     0.013 C 
ATOM     10  C3' I4B d   1      -0.397   3.989  -4.337  0.00  0.00     0.013 C 
ENDBRANCH   7   8
ENDBRANCH   1   7
TORSDOF 2
ENDMDL
