MODEL 1
REMARK minimizedAffinity 11.1824207
REMARK minimizedRMSD -1
REMARK  2 active torsions:
REMARK  status: ('A' for Active; 'I' for Inactive)
REMARK    1  A    between atoms: C2'_3  and  C1'_4 
REMARK    2  A    between atoms: C1'_4  and  C1_5 
ROOT
ATOM      1  C1  I4B d   1       4.212  -3.308   5.177  0.00  0.00    -0.075 A 
ATOM      2  C2  I4B d   1       3.389  -4.405   5.102  0.00  0.00     0.003 A 
ATOM      3  C3  I4B d   1       3.864  -5.680   5.494  0.00  0.00     0.002 A 
ATOM      4  C4  I4B d   1       5.175  -5.820   5.903  0.00  0.00    -0.004 A 
ATOM      5  C5  I4B d   1       6.000  -4.704   6.000  0.00  0.00     0.002 A 
ATOM      6  C6  I4B d   1       5.512  -3.437   5.646  0.00  0.00     0.003 A 
ENDROOT
BRANCH   1   7
ATOM      7  C1' I4B d   1       3.688  -1.982   4.724  0.00  0.00     0.060 C 
BRANCH   7   8
ATOM      8  C2' I4B d   1       2.924  -2.198   3.433  0.00  0.00    -0.013 C 
ATOM      9  C4' I4B d   1       1.881  -1.131   3.232  0.00  0.00     0.013 C 
ATOM     10  C3' I4B d   1       3.914  -2.207   2.306  0.00  0.00     0.013 C 
ENDBRANCH   7   8
ENDBRANCH   1   7
TORSDOF 2
ENDMDL
