MODEL 1
REMARK minimizedAffinity 18.4773788
REMARK minimizedRMSD -1
REMARK  2 active torsions:
REMARK  status: ('A' for Active; 'I' for Inactive)
REMARK    1  A    between atoms: C2'_3  and  C1'_4 
REMARK    2  A    between atoms: C1'_4  and  C1_5 
ROOT
ATOM      1  C1  I4B d   1       3.069  -1.796   3.609  0.00  0.00    -0.075 A 
ATOM      2  C2  I4B d   1       3.772  -2.522   2.679  0.00  0.00     0.003 A 
ATOM      3  C3  I4B d   1       3.334  -2.569   1.333  0.00  0.00     0.002 A 
ATOM      4  C4  I4B d   1       2.170  -1.922   0.974  0.00  0.00    -0.004 A 
ATOM      5  C5  I4B d   1       1.472  -1.168   1.912  0.00  0.00     0.002 A 
ATOM      6  C6  I4B d   1       1.931  -1.094   3.236  0.00  0.00     0.003 A 
ENDROOT
BRANCH   1   7
ATOM      7  C1' I4B d   1       3.541  -1.795   5.028  0.00  0.00     0.060 C 
BRANCH   7   8
ATOM      8  C2' I4B d   1       4.814  -2.614   5.098  0.00  0.00    -0.013 C 
ATOM      9  C4' I4B d   1       5.969  -1.785   5.593  0.00  0.00     0.013 C 
ATOM     10  C3' I4B d   1       4.562  -3.785   6.000  0.00  0.00     0.013 C 
ENDBRANCH   7   8
ENDBRANCH   1   7
TORSDOF 2
ENDMDL
