MODEL 1
REMARK minimizedAffinity 13.1648846
REMARK minimizedRMSD -1
REMARK  2 active torsions:
REMARK  status: ('A' for Active; 'I' for Inactive)
REMARK    1  A    between atoms: C2'_3  and  C1'_4 
REMARK    2  A    between atoms: C1'_4  and  C1_5 
ROOT
ATOM      1  C1  I4B d   1       3.068  -1.882   3.375  0.00  0.00    -0.075 A 
ATOM      2  C2  I4B d   1       3.836  -2.605   2.496  0.00  0.00     0.003 A 
ATOM      3  C3  I4B d   1       3.379  -2.838   1.176  0.00  0.00     0.002 A 
ATOM      4  C4  I4B d   1       2.135  -2.377   0.796  0.00  0.00    -0.004 A 
ATOM      5  C5  I4B d   1       1.369  -1.625   1.681  0.00  0.00     0.002 A 
ATOM      6  C6  I4B d   1       1.843  -1.365   2.975  0.00  0.00     0.003 A 
ENDROOT
BRANCH   1   7
ATOM      7  C1' I4B d   1       3.566  -1.683   4.771  0.00  0.00     0.060 C 
BRANCH   7   8
ATOM      8  C2' I4B d   1       4.822  -2.512   4.942  0.00  0.00    -0.013 C 
ATOM      9  C4' I4B d   1       6.000  -1.649   5.313  0.00  0.00     0.013 C 
ATOM     10  C3' I4B d   1       4.555  -3.546   5.995  0.00  0.00     0.013 C 
ENDBRANCH   7   8
ENDBRANCH   1   7
TORSDOF 2
ENDMDL
