MODEL 1
REMARK minimizedAffinity 22.0795918
REMARK minimizedRMSD -1
REMARK  2 active torsions:
REMARK  status: ('A' for Active; 'I' for Inactive)
REMARK    1  A    between atoms: C2'_3  and  C1'_4 
REMARK    2  A    between atoms: C1'_4  and  C1_5 
ROOT
ATOM      1  C1  I4B d   1      -3.806   2.328  -3.797  0.00  0.00    -0.075 A 
ATOM      2  C2  I4B d   1      -4.748   1.664  -4.544  0.00  0.00     0.003 A 
ATOM      3  C3  I4B d   1      -5.647   2.387  -5.363  0.00  0.00     0.002 A 
ATOM      4  C4  I4B d   1      -5.604   3.766  -5.368  0.00  0.00    -0.004 A 
ATOM      5  C5  I4B d   1      -4.634   4.437  -4.629  0.00  0.00     0.002 A 
ATOM      6  C6  I4B d   1      -3.721   3.713  -3.848  0.00  0.00     0.003 A 
ENDROOT
BRANCH   1   7
ATOM      7  C1' I4B d   1      -2.893   1.535  -2.917  0.00  0.00     0.060 C 
BRANCH   7   8
ATOM      8  C2' I4B d   1      -3.749   0.739  -1.953  0.00  0.00    -0.013 C 
ATOM      9  C4' I4B d   1      -3.258  -0.679  -1.831  0.00  0.00     0.013 C 
ATOM     10  C3' I4B d   1      -3.724   1.437  -0.626  0.00  0.00     0.013 C 
ENDBRANCH   7   8
ENDBRANCH   1   7
TORSDOF 2
ENDMDL
