MODEL 1
REMARK minimizedAffinity 12.2005453
REMARK minimizedRMSD -1
REMARK  2 active torsions:
REMARK  status: ('A' for Active; 'I' for Inactive)
REMARK    1  A    between atoms: C2'_3  and  C1'_4 
REMARK    2  A    between atoms: C1'_4  and  C1_5 
ROOT
ATOM      1  C1  I4B d   1       4.896   3.593  -4.540  0.00  0.00    -0.075 A 
ATOM      2  C2  I4B d   1       3.728   4.314  -4.562  0.00  0.00     0.003 A 
ATOM      3  C3  I4B d   1       3.641   5.506  -5.320  0.00  0.00     0.002 A 
ATOM      4  C4  I4B d   1       4.753   5.965  -5.996  0.00  0.00    -0.004 A 
ATOM      5  C5  I4B d   1       5.929   5.221  -5.991  0.00  0.00     0.002 A 
ATOM      6  C6  I4B d   1       5.998   4.021  -5.268  0.00  0.00     0.003 A 
ENDROOT
BRANCH   1   7
ATOM      7  C1' I4B d   1       4.964   2.355  -3.702  0.00  0.00     0.060 C 
BRANCH   7   8
ATOM      8  C2' I4B d   1       4.872   1.159  -4.628  0.00  0.00    -0.013 C 
ATOM      9  C4' I4B d   1       5.998   0.191  -4.379  0.00  0.00     0.013 C 
ATOM     10  C3' I4B d   1       3.539   0.507  -4.411  0.00  0.00     0.013 C 
ENDBRANCH   7   8
ENDBRANCH   1   7
TORSDOF 2
ENDMDL
