MODEL 1
REMARK minimizedAffinity 12.7621794
REMARK minimizedRMSD -1
REMARK  0 active torsions:
REMARK  status: ('A' for Active; 'I' for Inactive)
ROOT
ATOM      1  C   UNL d   1      -0.747   2.127  -4.481  0.00  0.00     0.023 A 
ATOM      2  C1  UNL d   1      -0.821   3.005  -5.563  0.00  0.00     0.003 A 
ATOM      3  C2  UNL d   1      -2.062   3.474  -6.000  0.00  0.00     0.048 A 
ATOM      4  C3  UNL d   1      -3.224   3.062  -5.350  0.00  0.00     0.023 A 
ATOM      5  C4  UNL d   1      -3.155   2.184  -4.267  0.00  0.00     0.048 A 
ATOM      6  C5  UNL d   1      -1.913   1.717  -3.834  0.00  0.00     0.003 A 
ATOM      7  I   UNL d   1      -5.072   3.759  -5.998  0.00  0.00    -0.146 I 
ENDROOT
TORSDOF 0
ENDMDL
