MODEL 1
REMARK minimizedAffinity 9.55867004
REMARK minimizedRMSD -1
REMARK  0 active torsions:
REMARK  status: ('A' for Active; 'I' for Inactive)
ROOT
ATOM      1  C   UNL d   1       4.827   3.334  -0.680  0.00  0.00     0.023 A 
ATOM      2  C1  UNL d   1       5.867   2.404  -0.675  0.00  0.00     0.003 A 
ATOM      3  C2  UNL d   1       6.000   1.508   0.387  0.00  0.00     0.048 A 
ATOM      4  C3  UNL d   1       5.088   1.546   1.442  0.00  0.00     0.023 A 
ATOM      5  C4  UNL d   1       4.045   2.473   1.441  0.00  0.00     0.048 A 
ATOM      6  C5  UNL d   1       3.917   3.368   0.377  0.00  0.00     0.003 A 
ATOM      7  I   UNL d   1       5.283   0.213   3.024  0.00  0.00    -0.146 I 
ENDROOT
TORSDOF 0
ENDMDL
