MODEL 1
REMARK minimizedAffinity 12.0213528
REMARK minimizedRMSD -1
REMARK  0 active torsions:
REMARK  status: ('A' for Active; 'I' for Inactive)
ROOT
ATOM      1  C   UNL d   1      -2.748   0.659   4.187  0.00  0.00     0.023 A 
ATOM      2  C1  UNL d   1      -2.563   1.472   3.069  0.00  0.00     0.003 A 
ATOM      3  C2  UNL d   1      -2.378   0.898   1.809  0.00  0.00     0.048 A 
ATOM      4  C3  UNL d   1      -2.379  -0.490   1.675  0.00  0.00     0.023 A 
ATOM      5  C4  UNL d   1      -2.565  -1.307   2.791  0.00  0.00     0.048 A 
ATOM      6  C5  UNL d   1      -2.749  -0.729   4.049  0.00  0.00     0.003 A 
ATOM      7  I   UNL d   1      -2.104  -1.347  -0.198  0.00  0.00    -0.146 I 
ENDROOT
TORSDOF 0
ENDMDL
