MODEL 1
REMARK minimizedAffinity 15.6219387
REMARK minimizedRMSD -1
REMARK  0 active torsions:
REMARK  status: ('A' for Active; 'I' for Inactive)
ROOT
ATOM      1  C   UNL d   1      -2.889  -1.726  -0.985  0.00  0.00     0.023 A 
ATOM      2  C1  UNL d   1      -1.884  -1.827  -0.022  0.00  0.00     0.003 A 
ATOM      3  C2  UNL d   1      -0.593  -1.381  -0.310  0.00  0.00     0.048 A 
ATOM      4  C3  UNL d   1      -0.313  -0.835  -1.562  0.00  0.00     0.023 A 
ATOM      5  C4  UNL d   1      -1.315  -0.731  -2.528  0.00  0.00     0.048 A 
ATOM      6  C5  UNL d   1      -2.604  -1.179  -2.236  0.00  0.00     0.003 A 
ATOM      7  I   UNL d   1       1.609  -0.170  -1.992  0.00  0.00    -0.146 I 
ENDROOT
TORSDOF 0
ENDMDL
