MODEL 1
REMARK minimizedAffinity 5.75238895
REMARK minimizedRMSD -1
REMARK  0 active torsions:
REMARK  status: ('A' for Active; 'I' for Inactive)
ROOT
ATOM      1  C   UNL d   1      -1.887  -1.814   0.453  0.00  0.00     0.023 A 
ATOM      2  C1  UNL d   1      -1.161  -2.778  -0.245  0.00  0.00     0.003 A 
ATOM      3  C2  UNL d   1      -0.758  -3.951   0.397  0.00  0.00     0.048 A 
ATOM      4  C3  UNL d   1      -1.086  -4.153   1.737  0.00  0.00     0.023 A 
ATOM      5  C4  UNL d   1      -1.813  -3.191   2.439  0.00  0.00     0.048 A 
ATOM      6  C5  UNL d   1      -2.213  -2.020   1.794  0.00  0.00     0.003 A 
ATOM      7  I   UNL d   1      -0.488  -5.898   2.694  0.00  0.00    -0.146 I 
ENDROOT
TORSDOF 0
ENDMDL
