MODEL 1
REMARK minimizedAffinity 3.36705422
REMARK minimizedRMSD -1
REMARK  0 active torsions:
REMARK  status: ('A' for Active; 'I' for Inactive)
ROOT
ATOM      1  C   UNL d   1      -5.440   4.315   1.221  0.00  0.00     0.023 A 
ATOM      2  C1  UNL d   1      -4.503   3.612   0.464  0.00  0.00     0.003 A 
ATOM      3  C2  UNL d   1      -4.110   4.094  -0.787  0.00  0.00     0.048 A 
ATOM      4  C3  UNL d   1      -4.659   5.280  -1.274  0.00  0.00     0.023 A 
ATOM      5  C4  UNL d   1      -5.597   5.986  -0.520  0.00  0.00     0.048 A 
ATOM      6  C5  UNL d   1      -5.987   5.500   0.730  0.00  0.00     0.003 A 
ATOM      7  I   UNL d   1      -4.077   5.999  -3.135  0.00  0.00    -0.146 I 
ENDROOT
TORSDOF 0
ENDMDL
