MODEL 1
REMARK minimizedAffinity 9.4552412
REMARK minimizedRMSD -1
REMARK  0 active torsions:
REMARK  status: ('A' for Active; 'I' for Inactive)
ROOT
ATOM      1  C   UNL d   1       5.253   4.083  -0.016  0.00  0.00     0.023 A 
ATOM      2  C1  UNL d   1       4.519   4.122   1.169  0.00  0.00     0.003 A 
ATOM      3  C2  UNL d   1       4.522   3.023   2.030  0.00  0.00     0.048 A 
ATOM      4  C3  UNL d   1       5.263   1.889   1.701  0.00  0.00     0.023 A 
ATOM      5  C4  UNL d   1       6.000   1.845   0.516  0.00  0.00     0.048 A 
ATOM      6  C5  UNL d   1       5.993   2.946  -0.342  0.00  0.00     0.003 A 
ATOM      7  I   UNL d   1       5.269   0.252   2.981  0.00  0.00    -0.146 I 
ENDROOT
TORSDOF 0
ENDMDL
