MODEL 1
REMARK minimizedAffinity 8.1891489
REMARK minimizedRMSD -1
REMARK  0 active torsions:
REMARK  status: ('A' for Active; 'I' for Inactive)
ROOT
ATOM      1  C   UNL d   1      -1.048  -3.633   1.516  0.00  0.00     0.023 A 
ATOM      2  C1  UNL d   1      -1.334  -4.129   0.244  0.00  0.00     0.003 A 
ATOM      3  C2  UNL d   1      -2.000  -3.329  -0.686  0.00  0.00     0.048 A 
ATOM      4  C3  UNL d   1      -2.376  -2.032  -0.339  0.00  0.00     0.023 A 
ATOM      5  C4  UNL d   1      -2.092  -1.531   0.933  0.00  0.00     0.048 A 
ATOM      6  C5  UNL d   1      -1.427  -2.335   1.860  0.00  0.00     0.003 A 
ATOM      7  I   UNL d   1      -3.367  -0.838  -1.721  0.00  0.00    -0.146 I 
ENDROOT
TORSDOF 0
ENDMDL
