MODEL 1
REMARK minimizedAffinity 9.32208347
REMARK minimizedRMSD -1
REMARK  0 active torsions:
REMARK  status: ('A' for Active; 'I' for Inactive)
ROOT
ATOM      1  C   UNL d   1       4.684   3.457   0.234  0.00  0.00     0.023 A 
ATOM      2  C1  UNL d   1       4.125   3.435   1.512  0.00  0.00     0.003 A 
ATOM      3  C2  UNL d   1       4.501   2.445   2.423  0.00  0.00     0.048 A 
ATOM      4  C3  UNL d   1       5.438   1.482   2.050  0.00  0.00     0.023 A 
ATOM      5  C4  UNL d   1       6.000   1.501   0.772  0.00  0.00     0.048 A 
ATOM      6  C5  UNL d   1       5.620   2.491  -0.135  0.00  0.00     0.003 A 
ATOM      7  I   UNL d   1       5.999   0.009   3.403  0.00  0.00    -0.146 I 
ENDROOT
TORSDOF 0
ENDMDL
