MODEL 1
REMARK minimizedAffinity 14.9838095
REMARK minimizedRMSD -1
REMARK  0 active torsions:
REMARK  status: ('A' for Active; 'I' for Inactive)
ROOT
ATOM      1  C   UNL d   1      -2.229  -1.665   1.435  0.00  0.00     0.023 A 
ATOM      2  C1  UNL d   1      -2.387  -2.287   2.673  0.00  0.00     0.003 A 
ATOM      3  C2  UNL d   1      -1.799  -3.532   2.911  0.00  0.00     0.048 A 
ATOM      4  C3  UNL d   1      -1.054  -4.147   1.906  0.00  0.00     0.023 A 
ATOM      5  C4  UNL d   1      -0.892  -3.528   0.666  0.00  0.00     0.048 A 
ATOM      6  C5  UNL d   1      -1.482  -2.285   0.432  0.00  0.00     0.003 A 
ATOM      7  I   UNL d   1      -0.178  -5.999   2.257  0.00  0.00    -0.146 I 
ENDROOT
TORSDOF 0
ENDMDL
