MODEL 1
REMARK minimizedAffinity 17.3948936
REMARK minimizedRMSD -1
REMARK  0 active torsions:
REMARK  status: ('A' for Active; 'I' for Inactive)
ROOT
ATOM      1  C   UNL d   1       5.385   2.076   0.170  0.00  0.00     0.023 A 
ATOM      2  C1  UNL d   1       4.558   3.178   0.385  0.00  0.00     0.003 A 
ATOM      3  C2  UNL d   1       4.076   3.452   1.666  0.00  0.00     0.048 A 
ATOM      4  C3  UNL d   1       4.428   2.621   2.729  0.00  0.00     0.023 A 
ATOM      5  C4  UNL d   1       5.256   1.517   2.519  0.00  0.00     0.048 A 
ATOM      6  C5  UNL d   1       5.734   1.247   1.236  0.00  0.00     0.003 A 
ATOM      7  I   UNL d   1       3.713   3.027   4.638  0.00  0.00    -0.146 I 
ENDROOT
TORSDOF 0
ENDMDL
