MODEL 1
REMARK minimizedAffinity 9.84901905
REMARK minimizedRMSD -1
REMARK  0 active torsions:
REMARK  status: ('A' for Active; 'I' for Inactive)
ROOT
ATOM      1  C   UNL d   1      -5.541   1.761   6.000  0.00  0.00     0.023 A 
ATOM      2  C1  UNL d   1      -4.201   2.136   5.902  0.00  0.00     0.003 A 
ATOM      3  C2  UNL d   1      -3.207   1.159   5.804  0.00  0.00     0.048 A 
ATOM      4  C3  UNL d   1      -3.561  -0.189   5.804  0.00  0.00     0.023 A 
ATOM      5  C4  UNL d   1      -4.901  -0.569   5.901  0.00  0.00     0.048 A 
ATOM      6  C5  UNL d   1      -5.890   0.411   6.000  0.00  0.00     0.003 A 
ATOM      7  I   UNL d   1      -2.084  -1.644   5.659  0.00  0.00    -0.146 I 
ENDROOT
TORSDOF 0
ENDMDL
