MODEL 1
REMARK minimizedAffinity 9.23746681
REMARK minimizedRMSD -1
REMARK  0 active torsions:
REMARK  status: ('A' for Active; 'I' for Inactive)
ROOT
ATOM      1  C   UNL d   1      -2.174  -1.232  -0.250  0.00  0.00     0.023 A 
ATOM      2  C1  UNL d   1      -2.624  -1.994   0.828  0.00  0.00     0.003 A 
ATOM      3  C2  UNL d   1      -2.068  -3.250   1.077  0.00  0.00     0.048 A 
ATOM      4  C3  UNL d   1      -1.061  -3.738   0.244  0.00  0.00     0.023 A 
ATOM      5  C4  UNL d   1      -0.607  -2.979  -0.836  0.00  0.00     0.048 A 
ATOM      6  C5  UNL d   1      -1.167  -1.723  -1.081  0.00  0.00     0.003 A 
ATOM      7  I   UNL d   1      -0.231  -5.607   0.613  0.00  0.00    -0.146 I 
ENDROOT
TORSDOF 0
ENDMDL
