MODEL 1
REMARK minimizedAffinity 1.14226079
REMARK minimizedRMSD -1
REMARK  3 active torsions:
REMARK  status: ('A' for Active; 'I' for Inactive)
REMARK    1  A    between atoms: C3'_2  and  C2'_3 
REMARK    2  A    between atoms: C2'_3  and  C1'_4 
REMARK    3  A    between atoms: C1'_4  and  C1_5 
ROOT
ATOM      1  C1  N4B d   1      -0.537   0.221   0.908  0.00  0.00    -0.075 A 
ATOM      2  C2  N4B d   1       0.132   1.214   0.160  0.00  0.00     0.002 A 
ATOM      3  C3  N4B d   1       0.625   0.919  -1.087  0.00  0.00     0.002 A 
ATOM      4  C4  N4B d   1       0.479  -0.362  -1.597  0.00  0.00    -0.004 A 
ATOM      5  C5  N4B d   1      -0.190  -1.309  -0.879  0.00  0.00     0.002 A 
ATOM      6  C6  N4B d   1      -0.695  -1.026   0.374  0.00  0.00     0.002 A 
ENDROOT
BRANCH   1   7
ATOM      7  C1' N4B d   1      -1.018   0.471   2.311  0.00  0.00     0.057 C 
BRANCH   7   8
ATOM      8  C2' N4B d   1      -0.637   1.890   2.725  0.00  0.00     0.009 C 
BRANCH   8   9
ATOM      9  C3' N4B d   1       0.333   1.900   3.894  0.00  0.00     0.004 C 
ATOM     10  C4' N4B d   1       1.137   3.163   3.970  0.00  0.00     0.003 C 
ENDBRANCH   8   9
ENDBRANCH   7   8
ENDBRANCH   1   7
TORSDOF 3
ENDMDL
