MODEL 1
REMARK minimizedAffinity 0.535450459
REMARK minimizedRMSD -1
REMARK  3 active torsions:
REMARK  status: ('A' for Active; 'I' for Inactive)
REMARK    1  A    between atoms: C3'_2  and  C2'_3 
REMARK    2  A    between atoms: C2'_3  and  C1'_4 
REMARK    3  A    between atoms: C1'_4  and  C1_5 
ROOT
ATOM      1  C1  N4B d   1      -0.259   0.217   1.068  0.00  0.00    -0.075 A 
ATOM      2  C2  N4B d   1       0.100   0.890   2.257  0.00  0.00     0.002 A 
ATOM      3  C3  N4B d   1      -0.774   1.777   2.835  0.00  0.00     0.002 A 
ATOM      4  C4  N4B d   1      -2.000   2.021   2.234  0.00  0.00    -0.004 A 
ATOM      5  C5  N4B d   1      -2.350   1.348   1.100  0.00  0.00     0.002 A 
ATOM      6  C6  N4B d   1      -1.482   0.451   0.511  0.00  0.00     0.002 A 
ENDROOT
BRANCH   1   7
ATOM      7  C1' N4B d   1       0.698  -0.697   0.353  0.00  0.00     0.057 C 
BRANCH   7   8
ATOM      8  C2' N4B d   1       0.011  -1.276  -0.880  0.00  0.00     0.009 C 
BRANCH   8   9
ATOM      9  C3' N4B d   1       0.575  -2.635  -1.259  0.00  0.00     0.004 C 
ATOM     10  C4' N4B d   1       0.056  -3.132  -2.576  0.00  0.00     0.003 C 
ENDBRANCH   8   9
ENDBRANCH   7   8
ENDBRANCH   1   7
TORSDOF 3
ENDMDL
