MODEL 1
REMARK minimizedAffinity -4.99562311
REMARK minimizedRMSD -1
REMARK  3 active torsions:
REMARK  status: ('A' for Active; 'I' for Inactive)
REMARK    1  A    between atoms: C3'_2  and  C2'_3 
REMARK    2  A    between atoms: C2'_3  and  C1'_4 
REMARK    3  A    between atoms: C1'_4  and  C1_5 
ROOT
ATOM      1  C1  N4B d   1      -0.563  -0.072   0.279  0.00  0.00    -0.075 A 
ATOM      2  C2  N4B d   1      -1.046   1.136  -0.269  0.00  0.00     0.002 A 
ATOM      3  C3  N4B d   1      -1.817   1.977   0.495  0.00  0.00     0.002 A 
ATOM      4  C4  N4B d   1      -2.133   1.623   1.798  0.00  0.00    -0.004 A 
ATOM      5  C5  N4B d   1      -1.641   0.466   2.329  0.00  0.00     0.002 A 
ATOM      6  C6  N4B d   1      -0.861  -0.386   1.573  0.00  0.00     0.002 A 
ENDROOT
BRANCH   1   7
ATOM      7  C1' N4B d   1       0.213  -1.064  -0.545  0.00  0.00     0.057 C 
BRANCH   7   8
ATOM      8  C2' N4B d   1      -0.617  -1.460  -1.763  0.00  0.00     0.009 C 
BRANCH   8   9
ATOM      9  C3' N4B d   1      -0.799  -2.965  -1.861  0.00  0.00     0.004 C 
ATOM     10  C4' N4B d   1       0.493  -3.716  -1.733  0.00  0.00     0.003 C 
ENDBRANCH   8   9
ENDBRANCH   7   8
ENDBRANCH   1   7
TORSDOF 3
ENDMDL
