MODEL 1
REMARK minimizedAffinity -3.39181781
REMARK minimizedRMSD -1
REMARK  3 active torsions:
REMARK  status: ('A' for Active; 'I' for Inactive)
REMARK    1  A    between atoms: C3'_2  and  C2'_3 
REMARK    2  A    between atoms: C2'_3  and  C1'_4 
REMARK    3  A    between atoms: C1'_4  and  C1_5 
ROOT
ATOM      1  C1  N4B d   1       0.175   0.228  -1.195  0.00  0.00    -0.075 A 
ATOM      2  C2  N4B d   1      -1.058  -0.046  -0.562  0.00  0.00     0.002 A 
ATOM      3  C3  N4B d   1      -1.875   0.986  -0.173  0.00  0.00     0.002 A 
ATOM      4  C4  N4B d   1      -1.475   2.296  -0.389  0.00  0.00    -0.004 A 
ATOM      5  C5  N4B d   1      -0.295   2.553  -1.024  0.00  0.00     0.002 A 
ATOM      6  C6  N4B d   1       0.535   1.525  -1.424  0.00  0.00     0.002 A 
ENDROOT
BRANCH   1   7
ATOM      7  C1' N4B d   1       1.141  -0.865  -1.560  0.00  0.00     0.057 C 
BRANCH   7   8
ATOM      8  C2' N4B d   1       0.733  -2.152  -0.850  0.00  0.00     0.009 C 
BRANCH   8   9
ATOM      9  C3' N4B d   1       1.041  -3.384  -1.684  0.00  0.00     0.004 C 
ATOM     10  C4' N4B d   1       0.344  -3.376  -3.012  0.00  0.00     0.003 C 
ENDBRANCH   8   9
ENDBRANCH   7   8
ENDBRANCH   1   7
TORSDOF 3
ENDMDL
