MODEL 1
REMARK minimizedAffinity -0.0626099035
REMARK minimizedRMSD -1
REMARK  3 active torsions:
REMARK  status: ('A' for Active; 'I' for Inactive)
REMARK    1  A    between atoms: C3'_2  and  C2'_3 
REMARK    2  A    between atoms: C2'_3  and  C1'_4 
REMARK    3  A    between atoms: C1'_4  and  C1_5 
ROOT
ATOM      1  C1  N4B d   1      -3.610  -2.283   3.393  0.00  0.00    -0.075 A 
ATOM      2  C2  N4B d   1      -2.224  -2.290   3.666  0.00  0.00     0.002 A 
ATOM      3  C3  N4B d   1      -1.781  -2.227   4.964  0.00  0.00     0.002 A 
ATOM      4  C4  N4B d   1      -2.699  -2.137   6.000  0.00  0.00    -0.004 A 
ATOM      5  C5  N4B d   1      -4.036  -2.156   5.728  0.00  0.00     0.002 A 
ATOM      6  C6  N4B d   1      -4.496  -2.224   4.429  0.00  0.00     0.002 A 
ENDROOT
BRANCH   1   7
ATOM      7  C1' N4B d   1      -4.141  -2.264   1.986  0.00  0.00     0.057 C 
BRANCH   7   8
ATOM      8  C2' N4B d   1      -5.636  -1.959   2.019  0.00  0.00     0.009 C 
BRANCH   8   9
ATOM      9  C3' N4B d   1      -6.000  -0.800   1.107  0.00  0.00     0.004 C 
ATOM     10  C4' N4B d   1      -4.889  -0.426   0.172  0.00  0.00     0.003 C 
ENDBRANCH   8   9
ENDBRANCH   7   8
ENDBRANCH   1   7
TORSDOF 3
ENDMDL
