MODEL 1
REMARK minimizedAffinity 1.43473756
REMARK minimizedRMSD -1
REMARK  3 active torsions:
REMARK  status: ('A' for Active; 'I' for Inactive)
REMARK    1  A    between atoms: C3'_2  and  C2'_3 
REMARK    2  A    between atoms: C2'_3  and  C1'_4 
REMARK    3  A    between atoms: C1'_4  and  C1_5 
ROOT
ATOM      1  C1  N4B d   1       0.736  -1.828  -1.212  0.00  0.00    -0.075 A 
ATOM      2  C2  N4B d   1       0.310  -1.408  -2.491  0.00  0.00     0.002 A 
ATOM      3  C3  N4B d   1      -0.067  -2.337  -3.429  0.00  0.00     0.002 A 
ATOM      4  C4  N4B d   1      -0.007  -3.688  -3.119  0.00  0.00    -0.004 A 
ATOM      5  C5  N4B d   1       0.381  -4.084  -1.873  0.00  0.00     0.002 A 
ATOM      6  C6  N4B d   1       0.759  -3.161  -0.919  0.00  0.00     0.002 A 
ENDROOT
BRANCH   1   7
ATOM      7  C1' N4B d   1       1.239  -0.854  -0.182  0.00  0.00     0.057 C 
BRANCH   7   8
ATOM      8  C2' N4B d   1       1.819   0.368  -0.889  0.00  0.00     0.009 C 
BRANCH   8   9
ATOM      9  C3' N4B d   1       0.838   1.527  -0.917  0.00  0.00     0.004 C 
ATOM     10  C4' N4B d   1       1.264   2.626  -1.844  0.00  0.00     0.003 C 
ENDBRANCH   8   9
ENDBRANCH   7   8
ENDBRANCH   1   7
TORSDOF 3
ENDMDL
