MODEL 1
REMARK minimizedAffinity -2.87228584
REMARK minimizedRMSD -1
REMARK  3 active torsions:
REMARK  status: ('A' for Active; 'I' for Inactive)
REMARK    1  A    between atoms: C3'_2  and  C2'_3 
REMARK    2  A    between atoms: C2'_3  and  C1'_4 
REMARK    3  A    between atoms: C1'_4  and  C1_5 
ROOT
ATOM      1  C1  N4B d   1       0.384  -2.263  -1.220  0.00  0.00    -0.075 A 
ATOM      2  C2  N4B d   1      -0.373  -2.259  -2.412  0.00  0.00     0.002 A 
ATOM      3  C3  N4B d   1      -0.372  -3.363  -3.229  0.00  0.00     0.002 A 
ATOM      4  C4  N4B d   1       0.390  -4.470  -2.886  0.00  0.00    -0.004 A 
ATOM      5  C5  N4B d   1       1.098  -4.475  -1.720  0.00  0.00     0.002 A 
ATOM      6  C6  N4B d   1       1.104  -3.374  -0.888  0.00  0.00     0.002 A 
ENDROOT
BRANCH   1   7
ATOM      7  C1' N4B d   1       0.483  -1.048  -0.338  0.00  0.00     0.057 C 
BRANCH   7   8
ATOM      8  C2' N4B d   1       0.445   0.206  -1.207  0.00  0.00     0.009 C 
BRANCH   8   9
ATOM      9  C3' N4B d   1      -0.684   1.140  -0.808  0.00  0.00     0.004 C 
ATOM     10  C4' N4B d   1      -0.374   2.580  -1.090  0.00  0.00     0.003 C 
ENDBRANCH   8   9
ENDBRANCH   7   8
ENDBRANCH   1   7
TORSDOF 3
ENDMDL
