MODEL 1
REMARK minimizedAffinity -5.91268349
REMARK minimizedRMSD -1
REMARK  3 active torsions:
REMARK  status: ('A' for Active; 'I' for Inactive)
REMARK    1  A    between atoms: C3'_2  and  C2'_3 
REMARK    2  A    between atoms: C2'_3  and  C1'_4 
REMARK    3  A    between atoms: C1'_4  and  C1_5 
ROOT
ATOM      1  C1  N4B d   1       0.412  -1.582  -0.983  0.00  0.00    -0.075 A 
ATOM      2  C2  N4B d   1       1.226  -2.733  -1.061  0.00  0.00     0.002 A 
ATOM      3  C3  N4B d   1       0.808  -3.820  -1.789  0.00  0.00     0.002 A 
ATOM      4  C4  N4B d   1      -0.422  -3.786  -2.428  0.00  0.00    -0.004 A 
ATOM      5  C5  N4B d   1      -1.191  -2.661  -2.368  0.00  0.00     0.002 A 
ATOM      6  C6  N4B d   1      -0.782  -1.559  -1.644  0.00  0.00     0.002 A 
ENDROOT
BRANCH   1   7
ATOM      7  C1' N4B d   1       0.787  -0.401  -0.129  0.00  0.00     0.057 C 
BRANCH   7   8
ATOM      8  C2' N4B d   1      -0.424   0.515   0.019  0.00  0.00     0.009 C 
BRANCH   8   9
ATOM      9  C3' N4B d   1      -0.910   0.586   1.457  0.00  0.00     0.004 C 
ATOM     10  C4' N4B d   1      -1.421   1.945   1.831  0.00  0.00     0.003 C 
ENDBRANCH   8   9
ENDBRANCH   7   8
ENDBRANCH   1   7
TORSDOF 3
ENDMDL
