MODEL 1
REMARK minimizedAffinity -4.88403225
REMARK minimizedRMSD -1
REMARK  3 active torsions:
REMARK  status: ('A' for Active; 'I' for Inactive)
REMARK    1  A    between atoms: C3'_2  and  C2'_3 
REMARK    2  A    between atoms: C2'_3  and  C1'_4 
REMARK    3  A    between atoms: C1'_4  and  C1_5 
ROOT
ATOM      1  C1  N4B d   1      -0.484  -0.203   0.402  0.00  0.00    -0.075 A 
ATOM      2  C2  N4B d   1       0.012  -0.850   1.555  0.00  0.00     0.002 A 
ATOM      3  C3  N4B d   1      -0.070  -0.232   2.778  0.00  0.00     0.002 A 
ATOM      4  C4  N4B d   1      -0.626   1.036   2.870  0.00  0.00    -0.004 A 
ATOM      5  C5  N4B d   1      -1.126   1.643   1.755  0.00  0.00     0.002 A 
ATOM      6  C6  N4B d   1      -1.054   1.031   0.520  0.00  0.00     0.002 A 
ENDROOT
BRANCH   1   7
ATOM      7  C1' N4B d   1      -0.339  -0.803  -0.970  0.00  0.00     0.057 C 
BRANCH   7   8
ATOM      8  C2' N4B d   1       1.121  -1.186  -1.197  0.00  0.00     0.009 C 
BRANCH   8   9
ATOM      9  C3' N4B d   1       1.259  -2.589  -1.762  0.00  0.00     0.004 C 
ATOM     10  C4' N4B d   1       0.801  -2.690  -3.186  0.00  0.00     0.003 C 
ENDBRANCH   8   9
ENDBRANCH   7   8
ENDBRANCH   1   7
TORSDOF 3
ENDMDL
