MODEL 1
REMARK minimizedAffinity -5.50998449
REMARK minimizedRMSD -1
REMARK  3 active torsions:
REMARK  status: ('A' for Active; 'I' for Inactive)
REMARK    1  A    between atoms: C3'_2  and  C2'_3 
REMARK    2  A    between atoms: C2'_3  and  C1'_4 
REMARK    3  A    between atoms: C1'_4  and  C1_5 
ROOT
ATOM      1  C1  N4B d   1       0.215  -0.092   0.361  0.00  0.00    -0.075 A 
ATOM      2  C2  N4B d   1       0.280  -0.223   1.766  0.00  0.00     0.002 A 
ATOM      3  C3  N4B d   1      -0.404   0.655   2.570  0.00  0.00     0.002 A 
ATOM      4  C4  N4B d   1      -1.141   1.679   1.996  0.00  0.00    -0.004 A 
ATOM      5  C5  N4B d   1      -1.220   1.783   0.638  0.00  0.00     0.002 A 
ATOM      6  C6  N4B d   1      -0.541   0.906  -0.183  0.00  0.00     0.002 A 
ENDROOT
BRANCH   1   7
ATOM      7  C1' N4B d   1       1.014  -0.975  -0.557  0.00  0.00     0.057 C 
BRANCH   7   8
ATOM      8  C2' N4B d   1       0.084  -1.997  -1.204  0.00  0.00     0.009 C 
BRANCH   8   9
ATOM      9  C3' N4B d   1       0.838  -2.965  -2.100  0.00  0.00     0.004 C 
ATOM     10  C4' N4B d   1       0.021  -3.433  -3.267  0.00  0.00     0.003 C 
ENDBRANCH   8   9
ENDBRANCH   7   8
ENDBRANCH   1   7
TORSDOF 3
ENDMDL
