MODEL 1
REMARK minimizedAffinity 7.74585438
REMARK minimizedRMSD -1
REMARK  1 active torsions:
REMARK  status: ('A' for Active; 'I' for Inactive)
REMARK    1  A    between atoms: C1_2  and  C2_3 
ROOT
ATOM      1  C2  UNL d   1       0.463  -2.654   1.317  0.00  0.00    -0.076 A 
ATOM      2  C3  UNL d   1       0.623  -3.937   0.766  0.00  0.00     0.004 A 
ATOM      3  C4  UNL d   1       1.885  -4.417   0.421  0.00  0.00    -0.003 A 
ATOM      4  C5  UNL d   1       3.008  -3.622   0.621  0.00  0.00     0.000 A 
ATOM      5  C6  UNL d   1       2.870  -2.354   1.183  0.00  0.00     0.000 A 
ATOM      6  C7  UNL d   1       1.606  -1.860   1.552  0.00  0.00    -0.073 A 
ATOM      7  C8  UNL d   1       1.515  -0.482   2.148  0.00  0.00     0.078 C 
ENDROOT
BRANCH   1   8
ATOM      8  C1  UNL d   1      -0.933  -2.176   1.647  0.00  0.00     0.053 C 
ATOM      9  C   UNL d   1      -1.802  -3.277   2.234  0.00  0.00     0.018 C 
ENDBRANCH   1   8
TORSDOF 1
ENDMDL
