MODEL 1
REMARK minimizedAffinity 6.52098179
REMARK minimizedRMSD -1
REMARK  1 active torsions:
REMARK  status: ('A' for Active; 'I' for Inactive)
REMARK    1  A    between atoms: C1_2  and  C2_3 
ROOT
ATOM      1  C2  UNL d   1       1.303  -2.348   1.381  0.00  0.00    -0.076 A 
ATOM      2  C3  UNL d   1       1.525  -3.387   0.460  0.00  0.00     0.004 A 
ATOM      3  C4  UNL d   1       2.768  -4.009   0.366  0.00  0.00    -0.003 A 
ATOM      4  C5  UNL d   1       3.810  -3.604   1.192  0.00  0.00     0.000 A 
ATOM      5  C6  UNL d   1       3.603  -2.588   2.124  0.00  0.00     0.000 A 
ATOM      6  C7  UNL d   1       2.351  -1.961   2.243  0.00  0.00    -0.073 A 
ATOM      7  C8  UNL d   1       2.186  -0.866   3.262  0.00  0.00     0.078 C 
ENDROOT
BRANCH   1   8
ATOM      8  C1  UNL d   1      -0.058  -1.692   1.419  0.00  0.00     0.053 C 
ATOM      9  C   UNL d   1      -1.037  -2.432   2.317  0.00  0.00     0.018 C 
ENDBRANCH   1   8
TORSDOF 1
ENDMDL
