MODEL 1
REMARK minimizedAffinity 5.67431831
REMARK minimizedRMSD -1
REMARK  1 active torsions:
REMARK  status: ('A' for Active; 'I' for Inactive)
REMARK    1  A    between atoms: C1_2  and  C2_3 
ROOT
ATOM      1  C2  UNL d   1       3.884  -1.800   3.736  0.00  0.00    -0.076 A 
ATOM      2  C3  UNL d   1       2.835  -1.016   4.247  0.00  0.00     0.004 A 
ATOM      3  C4  UNL d   1       1.788  -0.597   3.429  0.00  0.00    -0.003 A 
ATOM      4  C5  UNL d   1       1.771  -0.955   2.086  0.00  0.00     0.000 A 
ATOM      5  C6  UNL d   1       2.794  -1.747   1.565  0.00  0.00     0.000 A 
ATOM      6  C7  UNL d   1       3.849  -2.192   2.380  0.00  0.00    -0.073 A 
ATOM      7  C8  UNL d   1       4.929  -3.040   1.765  0.00  0.00     0.078 C 
ENDROOT
BRANCH   1   8
ATOM      8  C1  UNL d   1       5.007  -2.202   4.664  0.00  0.00     0.053 C 
ATOM      9  C   UNL d   1       4.519  -3.022   5.848  0.00  0.00     0.018 C 
ENDBRANCH   1   8
TORSDOF 1
ENDMDL
