MODEL 1
REMARK minimizedAffinity 16.3854637
REMARK minimizedRMSD -1
REMARK  1 active torsions:
REMARK  status: ('A' for Active; 'I' for Inactive)
REMARK    1  A    between atoms: C1_2  and  C2_3 
ROOT
ATOM      1  C2  UNL d   1       3.962  -1.022  -0.125  0.00  0.00    -0.076 A 
ATOM      2  C3  UNL d   1       2.598  -1.096  -0.459  0.00  0.00     0.004 A 
ATOM      3  C4  UNL d   1       1.784  -2.096   0.070  0.00  0.00    -0.003 A 
ATOM      4  C5  UNL d   1       2.319  -3.037   0.942  0.00  0.00     0.000 A 
ATOM      5  C6  UNL d   1       3.666  -2.968   1.298  0.00  0.00     0.000 A 
ATOM      6  C7  UNL d   1       4.497  -1.957   0.786  0.00  0.00    -0.073 A 
ATOM      7  C8  UNL d   1       5.944  -1.934   1.199  0.00  0.00     0.078 C 
ENDROOT
BRANCH   1   8
ATOM      8  C1  UNL d   1       4.802   0.068  -0.751  0.00  0.00     0.053 C 
ATOM      9  C   UNL d   1       5.677  -0.448  -1.884  0.00  0.00     0.018 C 
ENDBRANCH   1   8
TORSDOF 1
ENDMDL
