MODEL 1
REMARK minimizedAffinity 9.45502663
REMARK minimizedRMSD -1
REMARK  1 active torsions:
REMARK  status: ('A' for Active; 'I' for Inactive)
REMARK    1  A    between atoms: C1_2  and  C2_3 
ROOT
ATOM      1  C2  UNL d   1       0.670  -2.388   1.493  0.00  0.00    -0.076 A 
ATOM      2  C3  UNL d   1       1.926  -2.127   0.919  0.00  0.00     0.004 A 
ATOM      3  C4  UNL d   1       2.605  -3.110   0.201  0.00  0.00    -0.003 A 
ATOM      4  C5  UNL d   1       2.038  -4.370   0.044  0.00  0.00     0.000 A 
ATOM      5  C6  UNL d   1       0.784  -4.641   0.592  0.00  0.00     0.000 A 
ATOM      6  C7  UNL d   1       0.080  -3.656   1.306  0.00  0.00    -0.073 A 
ATOM      7  C8  UNL d   1      -1.266  -4.005   1.880  0.00  0.00     0.078 C 
ENDROOT
BRANCH   1   8
ATOM      8  C1  UNL d   1      -0.006  -1.291   2.285  0.00  0.00     0.053 C 
ATOM      9  C   UNL d   1       0.989  -0.371   2.974  0.00  0.00     0.018 C 
ENDBRANCH   1   8
TORSDOF 1
ENDMDL
