MODEL 1
REMARK minimizedAffinity 16.7945862
REMARK minimizedRMSD -1
REMARK  1 active torsions:
REMARK  status: ('A' for Active; 'I' for Inactive)
REMARK    1  A    between atoms: C1_2  and  C2_3 
ROOT
ATOM      1  C2  UNL d   1       0.293  -3.079   0.437  0.00  0.00    -0.076 A 
ATOM      2  C3  UNL d   1      -1.036  -3.508   0.601  0.00  0.00     0.004 A 
ATOM      3  C4  UNL d   1      -1.928  -2.791   1.396  0.00  0.00    -0.003 A 
ATOM      4  C5  UNL d   1      -1.507  -1.632   2.039  0.00  0.00     0.000 A 
ATOM      5  C6  UNL d   1      -0.197  -1.182   1.874  0.00  0.00     0.000 A 
ATOM      6  C7  UNL d   1       0.711  -1.885   1.063  0.00  0.00    -0.073 A 
ATOM      7  C8  UNL d   1       2.112  -1.357   0.924  0.00  0.00     0.078 C 
ENDROOT
BRANCH   1   8
ATOM      8  C1  UNL d   1       1.223  -3.912  -0.415  0.00  0.00     0.053 C 
ATOM      9  C   UNL d   1       1.017  -5.406  -0.214  0.00  0.00     0.018 C 
ENDBRANCH   1   8
TORSDOF 1
ENDMDL
