MODEL 1
REMARK minimizedAffinity 17.231308
REMARK minimizedRMSD -1
REMARK  2 active torsions:
REMARK  status: ('A' for Active; 'I' for Inactive)
REMARK    1  A    between atoms: C1_2  and  C2_3 
REMARK    2  A    between atoms: C2_3  and  C3_4 
ROOT
ATOM      1  C3  UNL d   1       3.732  -0.756  -3.668  0.00  0.00    -0.075 A 
ATOM      2  C4  UNL d   1       4.491  -1.665  -4.420  0.00  0.00     0.002 A 
ATOM      3  C5  UNL d   1       5.153  -1.249  -5.575  0.00  0.00     0.002 A 
ATOM      4  C6  UNL d   1       5.057   0.075  -5.999  0.00  0.00    -0.004 A 
ATOM      5  C7  UNL d   1       4.292   0.982  -5.269  0.00  0.00     0.002 A 
ATOM      6  C8  UNL d   1       3.632   0.570  -4.110  0.00  0.00     0.002 A 
ENDROOT
BRANCH   1   7
ATOM      7  C2  UNL d   1       3.038  -1.193  -2.400  0.00  0.00     0.056 C 
BRANCH   7   8
ATOM      8  C1  UNL d   1       3.737  -0.735  -1.116  0.00  0.00     0.007 C 
ATOM      9  C   UNL d   1       3.446  -1.632   0.079  0.00  0.00     0.009 C 
ENDBRANCH   7   8
ENDBRANCH   1   7
TORSDOF 2
ENDMDL
