MODEL 1
REMARK minimizedAffinity 7.85601521
REMARK minimizedRMSD -1
REMARK  2 active torsions:
REMARK  status: ('A' for Active; 'I' for Inactive)
REMARK    1  A    between atoms: C1_2  and  C2_3 
REMARK    2  A    between atoms: C2_3  and  C3_4 
ROOT
ATOM      1  C3  UNL d   1       0.955  -3.745   0.907  0.00  0.00    -0.075 A 
ATOM      2  C4  UNL d   1       1.959  -2.776   0.770  0.00  0.00     0.002 A 
ATOM      3  C5  UNL d   1       2.158  -1.816   1.762  0.00  0.00     0.002 A 
ATOM      4  C6  UNL d   1       1.351  -1.806   2.898  0.00  0.00    -0.004 A 
ATOM      5  C7  UNL d   1       0.340  -2.754   3.037  0.00  0.00     0.002 A 
ATOM      6  C8  UNL d   1       0.142  -3.719   2.048  0.00  0.00     0.002 A 
ENDROOT
BRANCH   1   7
ATOM      7  C2  UNL d   1       0.754  -4.805  -0.149  0.00  0.00     0.056 C 
BRANCH   7   8
ATOM      8  C1  UNL d   1       1.451  -4.500  -1.480  0.00  0.00     0.007 C 
ATOM      9  C   UNL d   1       1.346  -3.037  -1.890  0.00  0.00     0.009 C 
ENDBRANCH   7   8
ENDBRANCH   1   7
TORSDOF 2
ENDMDL
