MODEL 1
REMARK minimizedAffinity 8.34234524
REMARK minimizedRMSD -1
REMARK  2 active torsions:
REMARK  status: ('A' for Active; 'I' for Inactive)
REMARK    1  A    between atoms: C1_2  and  C2_3 
REMARK    2  A    between atoms: C2_3  and  C3_4 
ROOT
ATOM      1  C3  UNL d   1       1.227  -2.666   0.605  0.00  0.00    -0.075 A 
ATOM      2  C4  UNL d   1       0.634  -2.862   1.861  0.00  0.00     0.002 A 
ATOM      3  C5  UNL d   1       0.679  -1.858   2.830  0.00  0.00     0.002 A 
ATOM      4  C6  UNL d   1       1.324  -0.654   2.560  0.00  0.00    -0.004 A 
ATOM      5  C7  UNL d   1       1.931  -0.455   1.322  0.00  0.00     0.002 A 
ATOM      6  C8  UNL d   1       1.884  -1.455   0.349  0.00  0.00     0.002 A 
ENDROOT
BRANCH   1   7
ATOM      7  C2  UNL d   1       1.156  -3.736  -0.458  0.00  0.00     0.056 C 
BRANCH   7   8
ATOM      8  C1  UNL d   1       0.710  -5.106   0.065  0.00  0.00     0.007 C 
ATOM      9  C   UNL d   1       1.873  -5.999   0.475  0.00  0.00     0.009 C 
ENDBRANCH   7   8
ENDBRANCH   1   7
TORSDOF 2
ENDMDL
