MODEL 1
REMARK minimizedAffinity -1.20003164
REMARK minimizedRMSD -1
REMARK  2 active torsions:
REMARK  status: ('A' for Active; 'I' for Inactive)
REMARK    1  A    between atoms: C1_2  and  C2_3 
REMARK    2  A    between atoms: C2_3  and  C3_4 
ROOT
ATOM      1  C3  UNL d   1       4.243   5.242  -2.911  0.00  0.00    -0.075 A 
ATOM      2  C4  UNL d   1       5.408   5.983  -3.153  0.00  0.00     0.002 A 
ATOM      3  C5  UNL d   1       5.989   5.997  -4.422  0.00  0.00     0.002 A 
ATOM      4  C6  UNL d   1       5.419   5.263  -5.460  0.00  0.00    -0.004 A 
ATOM      5  C7  UNL d   1       4.270   4.510  -5.227  0.00  0.00     0.002 A 
ATOM      6  C8  UNL d   1       3.685   4.498  -3.960  0.00  0.00     0.002 A 
ENDROOT
BRANCH   1   7
ATOM      7  C2  UNL d   1       3.593   5.246  -1.548  0.00  0.00     0.056 C 
BRANCH   7   8
ATOM      8  C1  UNL d   1       2.129   4.793  -1.553  0.00  0.00     0.007 C 
ATOM      9  C   UNL d   1       1.811   3.778  -0.463  0.00  0.00     0.009 C 
ENDBRANCH   7   8
ENDBRANCH   1   7
TORSDOF 2
ENDMDL
