MODEL 1
REMARK minimizedAffinity 9.61534023
REMARK minimizedRMSD -1
REMARK  2 active torsions:
REMARK  status: ('A' for Active; 'I' for Inactive)
REMARK    1  A    between atoms: C1_2  and  C2_3 
REMARK    2  A    between atoms: C2_3  and  C3_4 
ROOT
ATOM      1  C3  UNL d   1      -2.963   1.876  -1.486  0.00  0.00    -0.075 A 
ATOM      2  C4  UNL d   1      -4.049   2.351  -2.235  0.00  0.00     0.002 A 
ATOM      3  C5  UNL d   1      -4.628   1.558  -3.226  0.00  0.00     0.002 A 
ATOM      4  C6  UNL d   1      -4.123   0.286  -3.487  0.00  0.00    -0.004 A 
ATOM      5  C7  UNL d   1      -3.034  -0.190  -2.760  0.00  0.00     0.002 A 
ATOM      6  C8  UNL d   1      -2.456   0.600  -1.765  0.00  0.00     0.002 A 
ENDROOT
BRANCH   1   7
ATOM      7  C2  UNL d   1      -2.352   2.718  -0.392  0.00  0.00     0.056 C 
BRANCH   7   8
ATOM      8  C1  UNL d   1      -2.974   2.493   0.990  0.00  0.00     0.007 C 
ATOM      9  C   UNL d   1      -4.219   3.335   1.233  0.00  0.00     0.009 C 
ENDBRANCH   7   8
ENDBRANCH   1   7
TORSDOF 2
ENDMDL
