MODEL 1
REMARK minimizedAffinity 4.46315908
REMARK minimizedRMSD -1
REMARK  2 active torsions:
REMARK  status: ('A' for Active; 'I' for Inactive)
REMARK    1  A    between atoms: C1_2  and  C2_3 
REMARK    2  A    between atoms: C2_3  and  C3_4 
ROOT
ATOM      1  C3  UNL d   1       1.927  -2.423   3.168  0.00  0.00    -0.075 A 
ATOM      2  C4  UNL d   1       2.150  -3.749   2.769  0.00  0.00     0.002 A 
ATOM      3  C5  UNL d   1       2.554  -4.709   3.697  0.00  0.00     0.002 A 
ATOM      4  C6  UNL d   1       2.750  -4.356   5.030  0.00  0.00    -0.004 A 
ATOM      5  C7  UNL d   1       2.547  -3.038   5.434  0.00  0.00     0.002 A 
ATOM      6  C8  UNL d   1       2.139  -2.076   4.509  0.00  0.00     0.002 A 
ENDROOT
BRANCH   1   7
ATOM      7  C2  UNL d   1       1.461  -1.385   2.175  0.00  0.00     0.056 C 
BRANCH   7   8
ATOM      8  C1  UNL d   1       2.561  -0.421   1.719  0.00  0.00     0.007 C 
ATOM      9  C   UNL d   1       2.230   1.040   1.990  0.00  0.00     0.009 C 
ENDBRANCH   7   8
ENDBRANCH   1   7
TORSDOF 2
ENDMDL
