MODEL 1
REMARK minimizedAffinity 0.0858038962
REMARK minimizedRMSD -1
REMARK  2 active torsions:
REMARK  status: ('A' for Active; 'I' for Inactive)
REMARK    1  A    between atoms: C1_2  and  C2_3 
REMARK    2  A    between atoms: C2_3  and  C3_4 
ROOT
ATOM      1  C3  UNL d   1       2.542  -4.617   3.903  0.00  0.00    -0.075 A 
ATOM      2  C4  UNL d   1       1.545  -3.754   3.426  0.00  0.00     0.002 A 
ATOM      3  C5  UNL d   1       1.884  -2.598   2.723  0.00  0.00     0.002 A 
ATOM      4  C6  UNL d   1       3.223  -2.285   2.497  0.00  0.00    -0.004 A 
ATOM      5  C7  UNL d   1       4.223  -3.126   2.981  0.00  0.00     0.002 A 
ATOM      6  C8  UNL d   1       3.886  -4.285   3.681  0.00  0.00     0.002 A 
ENDROOT
BRANCH   1   7
ATOM      7  C2  UNL d   1       2.181  -5.884   4.639  0.00  0.00     0.056 C 
BRANCH   7   8
ATOM      8  C1  UNL d   1       1.514  -5.648   5.999  0.00  0.00     0.007 C 
ATOM      9  C   UNL d   1       0.022  -5.952   5.997  0.00  0.00     0.009 C 
ENDBRANCH   7   8
ENDBRANCH   1   7
TORSDOF 2
ENDMDL
