MODEL 1
REMARK minimizedAffinity 10.351881
REMARK minimizedRMSD -1
REMARK  2 active torsions:
REMARK  status: ('A' for Active; 'I' for Inactive)
REMARK    1  A    between atoms: C1_2  and  C2_3 
REMARK    2  A    between atoms: C2_3  and  C3_4 
ROOT
ATOM      1  C3  UNL d   1       3.062  -5.781  -3.614  0.00  0.00    -0.075 A 
ATOM      2  C4  UNL d   1       4.444  -5.662  -3.413  0.00  0.00     0.002 A 
ATOM      3  C5  UNL d   1       5.324  -5.699  -4.495  0.00  0.00     0.002 A 
ATOM      4  C6  UNL d   1       4.834  -5.863  -5.789  0.00  0.00    -0.004 A 
ATOM      5  C7  UNL d   1       3.463  -5.999  -5.999  0.00  0.00     0.002 A 
ATOM      6  C8  UNL d   1       2.581  -5.959  -4.918  0.00  0.00     0.002 A 
ENDROOT
BRANCH   1   7
ATOM      7  C2  UNL d   1       2.103  -5.713  -2.450  0.00  0.00     0.056 C 
BRANCH   7   8
ATOM      8  C1  UNL d   1       2.541  -4.758  -1.335  0.00  0.00     0.007 C 
ATOM      9  C   UNL d   1       1.690  -4.871  -0.077  0.00  0.00     0.009 C 
ENDBRANCH   7   8
ENDBRANCH   1   7
TORSDOF 2
ENDMDL
