MODEL 1
REMARK minimizedAffinity -1.87618899
REMARK minimizedRMSD -1
REMARK  2 active torsions:
REMARK  status: ('A' for Active; 'I' for Inactive)
REMARK    1  A    between atoms: C1_2  and  C2_3 
REMARK    2  A    between atoms: C2_3  and  C3_4 
ROOT
ATOM      1  C3  UNL d   1      -4.656  -5.880  -3.756  0.00  0.00    -0.075 A 
ATOM      2  C4  UNL d   1      -3.505  -5.996  -2.964  0.00  0.00     0.002 A 
ATOM      3  C5  UNL d   1      -3.590  -5.914  -1.574  0.00  0.00     0.002 A 
ATOM      4  C6  UNL d   1      -4.823  -5.704  -0.960  0.00  0.00    -0.004 A 
ATOM      5  C7  UNL d   1      -5.971  -5.571  -1.738  0.00  0.00     0.002 A 
ATOM      6  C8  UNL d   1      -5.889  -5.657  -3.129  0.00  0.00     0.002 A 
ENDROOT
BRANCH   1   7
ATOM      7  C2  UNL d   1      -4.575  -5.997  -5.260  0.00  0.00     0.056 C 
BRANCH   7   8
ATOM      8  C1  UNL d   1      -5.835  -5.524  -5.991  0.00  0.00     0.007 C 
ATOM      9  C   UNL d   1      -5.993  -4.010  -5.999  0.00  0.00     0.009 C 
ENDBRANCH   7   8
ENDBRANCH   1   7
TORSDOF 2
ENDMDL
