MODEL 1
REMARK minimizedAffinity 5.19859266
REMARK minimizedRMSD -1
REMARK  2 active torsions:
REMARK  status: ('A' for Active; 'I' for Inactive)
REMARK    1  A    between atoms: C1_2  and  C2_3 
REMARK    2  A    between atoms: C2_3  and  C3_4 
ROOT
ATOM      1  C3  UNL d   1       3.218  -3.161   3.400  0.00  0.00    -0.075 A 
ATOM      2  C4  UNL d   1       3.882  -3.024   4.628  0.00  0.00     0.002 A 
ATOM      3  C5  UNL d   1       5.263  -2.833   4.669  0.00  0.00     0.002 A 
ATOM      4  C6  UNL d   1       5.998  -2.787   3.487  0.00  0.00    -0.004 A 
ATOM      5  C7  UNL d   1       5.352  -2.939   2.262  0.00  0.00     0.002 A 
ATOM      6  C8  UNL d   1       3.969  -3.125   2.218  0.00  0.00     0.002 A 
ENDROOT
BRANCH   1   7
ATOM      7  C2  UNL d   1       1.719  -3.338   3.348  0.00  0.00     0.056 C 
BRANCH   7   8
ATOM      8  C1  UNL d   1       0.937  -2.022   3.293  0.00  0.00     0.007 C 
ATOM      9  C   UNL d   1       1.028  -1.324   1.943  0.00  0.00     0.009 C 
ENDBRANCH   7   8
ENDBRANCH   1   7
TORSDOF 2
ENDMDL
