MODEL 1
REMARK minimizedAffinity -2.9047401
REMARK minimizedRMSD -1
REMARK  0 active torsions:
REMARK  status: ('A' for Active; 'I' for Inactive)
ROOT
ATOM      1  C   UNL d   1       1.497   1.527   0.123  0.00  0.00     0.172 C 
ATOM      2  N   UNL d   1       1.677   0.251   0.776  0.00  0.00    -0.070 N 
ATOM      3  C1  UNL d   1       0.744  -0.749   0.845  0.00  0.00    -0.004 A 
ATOM      4  C2  UNL d   1       1.299  -1.796   1.548  0.00  0.00    -0.047 A 
ATOM      5  C3  UNL d   1       2.611  -1.412   1.915  0.00  0.00    -0.047 A 
ATOM      6  C4  UNL d   1       2.819  -0.140   1.424  0.00  0.00    -0.004 A 
ENDROOT
TORSDOF 0
ENDMDL
