MODEL 1
REMARK minimizedAffinity 1.01454973
REMARK minimizedRMSD -1
REMARK  0 active torsions:
REMARK  status: ('A' for Active; 'I' for Inactive)
ROOT
ATOM      1  C   UNL d   1      -0.743  -1.515  -0.436  0.00  0.00     0.172 C 
ATOM      2  N   UNL d   1      -1.727  -1.167  -1.434  0.00  0.00    -0.070 N 
ATOM      3  C1  UNL d   1      -2.156  -1.979  -2.449  0.00  0.00    -0.004 A 
ATOM      4  C2  UNL d   1      -3.094  -1.282  -3.179  0.00  0.00    -0.047 A 
ATOM      5  C3  UNL d   1      -3.232  -0.006  -2.583  0.00  0.00    -0.047 A 
ATOM      6  C4  UNL d   1      -2.375   0.038  -1.504  0.00  0.00    -0.004 A 
ENDROOT
TORSDOF 0
ENDMDL
