MODEL 1
REMARK minimizedAffinity -1.34458089
REMARK minimizedRMSD -1
REMARK  0 active torsions:
REMARK  status: ('A' for Active; 'I' for Inactive)
ROOT
ATOM      1  C   UNL d   1       1.852   4.670  -1.263  0.00  0.00     0.172 C 
ATOM      2  N   UNL d   1       1.524   3.499  -0.485  0.00  0.00    -0.070 N 
ATOM      3  C1  UNL d   1       0.322   3.258   0.126  0.00  0.00    -0.004 A 
ATOM      4  C2  UNL d   1       0.411   2.039   0.764  0.00  0.00    -0.047 A 
ATOM      5  C3  UNL d   1       1.710   1.531   0.529  0.00  0.00    -0.047 A 
ATOM      6  C4  UNL d   1       2.378   2.455  -0.247  0.00  0.00    -0.004 A 
ENDROOT
TORSDOF 0
ENDMDL
