MODEL 1
REMARK minimizedAffinity 5.39258909
REMARK minimizedRMSD -1
REMARK  0 active torsions:
REMARK  status: ('A' for Active; 'I' for Inactive)
ROOT
ATOM      1  C   UNL d   1       2.629   1.495   1.291  0.00  0.00     0.172 C 
ATOM      2  N   UNL d   1       2.172   0.267   1.898  0.00  0.00    -0.070 N 
ATOM      3  C1  UNL d   1       2.641  -0.269   3.068  0.00  0.00    -0.004 A 
ATOM      4  C2  UNL d   1       1.952  -1.439   3.303  0.00  0.00    -0.047 A 
ATOM      5  C3  UNL d   1       1.037  -1.613   2.238  0.00  0.00    -0.047 A 
ATOM      6  C4  UNL d   1       1.194  -0.543   1.382  0.00  0.00    -0.004 A 
ENDROOT
TORSDOF 0
ENDMDL
