MODEL 1
REMARK minimizedAffinity 6.59984303
REMARK minimizedRMSD -1
REMARK  0 active torsions:
REMARK  status: ('A' for Active; 'I' for Inactive)
ROOT
ATOM      1  C   UNL d   1      -5.997   2.984   0.402  0.00  0.00     0.172 C 
ATOM      2  N   UNL d   1      -5.398   2.645  -0.868  0.00  0.00    -0.070 N 
ATOM      3  C1  UNL d   1      -5.996   1.923  -1.866  0.00  0.00    -0.004 A 
ATOM      4  C2  UNL d   1      -5.099   1.819  -2.907  0.00  0.00    -0.047 A 
ATOM      5  C3  UNL d   1      -3.921   2.502  -2.522  0.00  0.00    -0.047 A 
ATOM      6  C4  UNL d   1      -4.133   3.004  -1.255  0.00  0.00    -0.004 A 
ENDROOT
TORSDOF 0
ENDMDL
