MODEL 1
REMARK minimizedAffinity 7.4182725
REMARK minimizedRMSD -1
REMARK  0 active torsions:
REMARK  status: ('A' for Active; 'I' for Inactive)
ROOT
ATOM      1  C   UNL d   1       2.194  -0.497   2.692  0.00  0.00     0.172 C 
ATOM      2  N   UNL d   1       2.456   0.567   1.751  0.00  0.00    -0.070 N 
ATOM      3  C1  UNL d   1       1.896   1.816   1.782  0.00  0.00    -0.004 A 
ATOM      4  C2  UNL d   1       2.403   2.531   0.718  0.00  0.00    -0.047 A 
ATOM      5  C3  UNL d   1       3.297   1.682   0.024  0.00  0.00    -0.047 A 
ATOM      6  C4  UNL d   1       3.311   0.472   0.685  0.00  0.00    -0.004 A 
ENDROOT
TORSDOF 0
ENDMDL
