MODEL 1
REMARK minimizedAffinity -0.284183532
REMARK minimizedRMSD -1
REMARK  0 active torsions:
REMARK  status: ('A' for Active; 'I' for Inactive)
ROOT
ATOM      1  C   UNL d   1       0.204  -0.952   1.213  0.00  0.00     0.172 C 
ATOM      2  N   UNL d   1       1.054   0.185   0.952  0.00  0.00    -0.070 N 
ATOM      3  C1  UNL d   1       2.044   0.648   1.778  0.00  0.00    -0.004 A 
ATOM      4  C2  UNL d   1       2.620   1.744   1.173  0.00  0.00    -0.047 A 
ATOM      5  C3  UNL d   1       1.952   1.948  -0.058  0.00  0.00    -0.047 A 
ATOM      6  C4  UNL d   1       0.988   0.969  -0.169  0.00  0.00    -0.004 A 
ENDROOT
TORSDOF 0
ENDMDL
