MODEL 1
REMARK minimizedAffinity 2.68143535
REMARK minimizedRMSD -1
REMARK  0 active torsions:
REMARK  status: ('A' for Active; 'I' for Inactive)
ROOT
ATOM      1  C   UNL d   1       0.499  -1.073   1.328  0.00  0.00     0.172 C 
ATOM      2  N   UNL d   1       1.328   0.103   1.208  0.00  0.00    -0.070 N 
ATOM      3  C1  UNL d   1       1.142   1.122   0.313  0.00  0.00    -0.004 A 
ATOM      4  C2  UNL d   1       2.140   2.051   0.518  0.00  0.00    -0.047 A 
ATOM      5  C3  UNL d   1       2.954   1.572   1.572  0.00  0.00    -0.047 A 
ATOM      6  C4  UNL d   1       2.429   0.364   1.980  0.00  0.00    -0.004 A 
ENDROOT
TORSDOF 0
ENDMDL
