MODEL 1
REMARK minimizedAffinity -0.490950763
REMARK minimizedRMSD -1
REMARK  0 active torsions:
REMARK  status: ('A' for Active; 'I' for Inactive)
ROOT
ATOM      1  C   UNL d   1       0.507  -0.746   1.842  0.00  0.00     0.172 C 
ATOM      2  N   UNL d   1       1.260   0.344   1.267  0.00  0.00    -0.070 N 
ATOM      3  C1  UNL d   1       2.493   0.770   1.683  0.00  0.00    -0.004 A 
ATOM      4  C2  UNL d   1       2.867   1.827   0.882  0.00  0.00    -0.047 A 
ATOM      5  C3  UNL d   1       1.822   2.044  -0.047  0.00  0.00    -0.047 A 
ATOM      6  C4  UNL d   1       0.840   1.112   0.214  0.00  0.00    -0.004 A 
ENDROOT
TORSDOF 0
ENDMDL
