MODEL 1
REMARK minimizedAffinity 1.41581273
REMARK minimizedRMSD -1
REMARK  0 active torsions:
REMARK  status: ('A' for Active; 'I' for Inactive)
ROOT
ATOM      1  C   UNL d   1      -4.485   2.249   1.965  0.00  0.00     0.172 C 
ATOM      2  N   UNL d   1      -5.018   2.063   0.636  0.00  0.00    -0.070 N 
ATOM      3  C1  UNL d   1      -4.995   2.991  -0.371  0.00  0.00    -0.004 A 
ATOM      4  C2  UNL d   1      -5.599   2.431  -1.476  0.00  0.00    -0.047 A 
ATOM      5  C3  UNL d   1      -6.000   1.121  -1.121  0.00  0.00    -0.047 A 
ATOM      6  C4  UNL d   1      -5.628   0.919   0.192  0.00  0.00    -0.004 A 
ENDROOT
TORSDOF 0
ENDMDL
