MODEL 1
REMARK minimizedAffinity 1.01903892
REMARK minimizedRMSD -1
REMARK  3 active torsions:
REMARK  status: ('A' for Active; 'I' for Inactive)
REMARK    1  A    between atoms: C3'_2  and  C2'_3 
REMARK    2  A    between atoms: C2'_3  and  C1'_4 
REMARK    3  A    between atoms: C1'_4  and  C1_5 
ROOT
ATOM      1  C1  N4B d   1      -0.367   0.868   0.834  0.00  0.00    -0.075 A 
ATOM      2  C2  N4B d   1       0.803   1.311   0.180  0.00  0.00     0.002 A 
ATOM      3  C3  N4B d   1       1.937   0.536   0.201  0.00  0.00     0.002 A 
ATOM      4  C4  N4B d   1       1.929  -0.671   0.883  0.00  0.00    -0.004 A 
ATOM      5  C5  N4B d   1       0.788  -1.104   1.491  0.00  0.00     0.002 A 
ATOM      6  C6  N4B d   1      -0.360  -0.337   1.475  0.00  0.00     0.002 A 
ENDROOT
BRANCH   1   7
ATOM      7  C1' N4B d   1      -1.605   1.720   0.912  0.00  0.00     0.057 C 
BRANCH   7   8
ATOM      8  C2' N4B d   1      -1.892   2.055   2.372  0.00  0.00     0.009 C 
BRANCH   8   9
ATOM      9  C3' N4B d   1      -3.162   1.388   2.870  0.00  0.00     0.004 C 
ATOM     10  C4' N4B d   1      -4.130   2.360   3.476  0.00  0.00     0.003 C 
ENDBRANCH   8   9
ENDBRANCH   7   8
ENDBRANCH   1   7
TORSDOF 3
ENDMDL
