MODEL 1
REMARK minimizedAffinity -3.07644629
REMARK minimizedRMSD -1
REMARK  3 active torsions:
REMARK  status: ('A' for Active; 'I' for Inactive)
REMARK    1  A    between atoms: C3'_2  and  C2'_3 
REMARK    2  A    between atoms: C2'_3  and  C1'_4 
REMARK    3  A    between atoms: C1'_4  and  C1_5 
ROOT
ATOM      1  C1  N4B d   1       0.791   0.959   2.621  0.00  0.00    -0.075 A 
ATOM      2  C2  N4B d   1       0.230  -0.146   1.944  0.00  0.00     0.002 A 
ATOM      3  C3  N4B d   1      -0.546   0.054   0.828  0.00  0.00     0.002 A 
ATOM      4  C4  N4B d   1      -0.789   1.346   0.384  0.00  0.00    -0.004 A 
ATOM      5  C5  N4B d   1      -0.222   2.406   1.029  0.00  0.00     0.002 A 
ATOM      6  C6  N4B d   1       0.562   2.220   2.149  0.00  0.00     0.002 A 
ENDROOT
BRANCH   1   7
ATOM      7  C1' N4B d   1       1.574   0.796   3.895  0.00  0.00     0.057 C 
BRANCH   7   8
ATOM      8  C2' N4B d   1       2.387  -0.493   3.821  0.00  0.00     0.009 C 
BRANCH   8   9
ATOM      9  C3' N4B d   1       3.789  -0.251   3.289  0.00  0.00     0.004 C 
ATOM     10  C4' N4B d   1       3.938  -0.632   1.847  0.00  0.00     0.003 C 
ENDBRANCH   8   9
ENDBRANCH   7   8
ENDBRANCH   1   7
TORSDOF 3
ENDMDL
