MODEL 1
REMARK minimizedAffinity -2.17967153
REMARK minimizedRMSD -1
REMARK  3 active torsions:
REMARK  status: ('A' for Active; 'I' for Inactive)
REMARK    1  A    between atoms: C3'_2  and  C2'_3 
REMARK    2  A    between atoms: C2'_3  and  C1'_4 
REMARK    3  A    between atoms: C1'_4  and  C1_5 
ROOT
ATOM      1  C1  N4B d   1      -2.494   0.796   1.994  0.00  0.00    -0.075 A 
ATOM      2  C2  N4B d   1      -1.779   2.014   1.965  0.00  0.00     0.002 A 
ATOM      3  C3  N4B d   1      -0.531   2.063   1.395  0.00  0.00     0.002 A 
ATOM      4  C4  N4B d   1       0.028   0.909   0.867  0.00  0.00    -0.004 A 
ATOM      5  C5  N4B d   1      -0.680  -0.257   0.876  0.00  0.00     0.002 A 
ATOM      6  C6  N4B d   1      -1.937  -0.321   1.442  0.00  0.00     0.002 A 
ENDROOT
BRANCH   1   7
ATOM      7  C1' N4B d   1      -3.826   0.674   2.683  0.00  0.00     0.057 C 
BRANCH   7   8
ATOM      8  C2' N4B d   1      -4.104   1.953   3.466  0.00  0.00     0.009 C 
BRANCH   8   9
ATOM      9  C3' N4B d   1      -5.170   1.748   4.529  0.00  0.00     0.004 C 
ATOM     10  C4' N4B d   1      -5.033   2.700   5.680  0.00  0.00     0.003 C 
ENDBRANCH   8   9
ENDBRANCH   7   8
ENDBRANCH   1   7
TORSDOF 3
ENDMDL
