MODEL 1
REMARK minimizedAffinity 0.537174642
REMARK minimizedRMSD -1
REMARK  3 active torsions:
REMARK  status: ('A' for Active; 'I' for Inactive)
REMARK    1  A    between atoms: C3'_2  and  C2'_3 
REMARK    2  A    between atoms: C2'_3  and  C1'_4 
REMARK    3  A    between atoms: C1'_4  and  C1_5 
ROOT
ATOM      1  C1  N4B d   1      -1.777   1.634   2.159  0.00  0.00    -0.075 A 
ATOM      2  C2  N4B d   1      -1.778   0.250   2.441  0.00  0.00     0.002 A 
ATOM      3  C3  N4B d   1      -0.710  -0.528   2.066  0.00  0.00     0.002 A 
ATOM      4  C4  N4B d   1       0.356   0.049   1.394  0.00  0.00    -0.004 A 
ATOM      5  C5  N4B d   1       0.361   1.391   1.147  0.00  0.00     0.002 A 
ATOM      6  C6  N4B d   1      -0.703   2.186   1.522  0.00  0.00     0.002 A 
ENDROOT
BRANCH   1   7
ATOM      7  C1' N4B d   1      -2.959   2.510   2.473  0.00  0.00     0.057 C 
BRANCH   7   8
ATOM      8  C2' N4B d   1      -3.786   1.857   3.577  0.00  0.00     0.009 C 
BRANCH   8   9
ATOM      9  C3' N4B d   1      -4.732   2.845   4.238  0.00  0.00     0.004 C 
ATOM     10  C4' N4B d   1      -5.059   2.477   5.654  0.00  0.00     0.003 C 
ENDBRANCH   8   9
ENDBRANCH   7   8
ENDBRANCH   1   7
TORSDOF 3
ENDMDL
