MODEL 1
REMARK minimizedAffinity 3.34633756
REMARK minimizedRMSD -1
REMARK  3 active torsions:
REMARK  status: ('A' for Active; 'I' for Inactive)
REMARK    1  A    between atoms: C3'_2  and  C2'_3 
REMARK    2  A    between atoms: C2'_3  and  C1'_4 
REMARK    3  A    between atoms: C1'_4  and  C1_5 
ROOT
ATOM      1  C1  N4B d   1      -2.023   0.613   1.913  0.00  0.00    -0.075 A 
ATOM      2  C2  N4B d   1      -1.497   1.710   1.194  0.00  0.00     0.002 A 
ATOM      3  C3  N4B d   1      -0.233   1.639   0.661  0.00  0.00     0.002 A 
ATOM      4  C4  N4B d   1       0.527   0.494   0.849  0.00  0.00    -0.004 A 
ATOM      5  C5  N4B d   1       0.002  -0.570   1.523  0.00  0.00     0.002 A 
ATOM      6  C6  N4B d   1      -1.268  -0.514   2.060  0.00  0.00     0.002 A 
ENDROOT
BRANCH   1   7
ATOM      7  C1' N4B d   1      -3.366   0.677   2.587  0.00  0.00     0.057 C 
BRANCH   7   8
ATOM      8  C2' N4B d   1      -3.634   2.110   3.036  0.00  0.00     0.009 C 
BRANCH   8   9
ATOM      9  C3' N4B d   1      -4.924   2.225   3.830  0.00  0.00     0.004 C 
ATOM     10  C4' N4B d   1      -4.943   3.419   4.737  0.00  0.00     0.003 C 
ENDBRANCH   8   9
ENDBRANCH   7   8
ENDBRANCH   1   7
TORSDOF 3
ENDMDL
