MODEL 1
REMARK minimizedAffinity 5.8281703
REMARK minimizedRMSD -1
REMARK  3 active torsions:
REMARK  status: ('A' for Active; 'I' for Inactive)
REMARK    1  A    between atoms: C3'_2  and  C2'_3 
REMARK    2  A    between atoms: C2'_3  and  C1'_4 
REMARK    3  A    between atoms: C1'_4  and  C1_5 
ROOT
ATOM      1  C1  N4B d   1      -1.824   1.845   2.226  0.00  0.00    -0.075 A 
ATOM      2  C2  N4B d   1      -0.710   2.405   1.564  0.00  0.00     0.002 A 
ATOM      3  C3  N4B d   1       0.396   1.633   1.308  0.00  0.00     0.002 A 
ATOM      4  C4  N4B d   1       0.419   0.309   1.721  0.00  0.00    -0.004 A 
ATOM      5  C5  N4B d   1      -0.671  -0.231   2.337  0.00  0.00     0.002 A 
ATOM      6  C6  N4B d   1      -1.792   0.532   2.597  0.00  0.00     0.002 A 
ENDROOT
BRANCH   1   7
ATOM      7  C1' N4B d   1      -3.023   2.672   2.604  0.00  0.00     0.057 C 
BRANCH   7   8
ATOM      8  C2' N4B d   1      -3.754   1.995   3.760  0.00  0.00     0.009 C 
BRANCH   8   9
ATOM      9  C3' N4B d   1      -4.672   2.958   4.493  0.00  0.00     0.004 C 
ATOM     10  C4' N4B d   1      -4.921   2.554   5.915  0.00  0.00     0.003 C 
ENDBRANCH   8   9
ENDBRANCH   7   8
ENDBRANCH   1   7
TORSDOF 3
ENDMDL
