MODEL 1
REMARK minimizedAffinity 4.00524759
REMARK minimizedRMSD -1
REMARK  3 active torsions:
REMARK  status: ('A' for Active; 'I' for Inactive)
REMARK    1  A    between atoms: C3'_2  and  C2'_3 
REMARK    2  A    between atoms: C2'_3  and  C1'_4 
REMARK    3  A    between atoms: C1'_4  and  C1_5 
ROOT
ATOM      1  C1  N4B d   1      -3.779  -2.673  -2.250  0.00  0.00    -0.075 A 
ATOM      2  C2  N4B d   1      -3.785  -1.808  -3.367  0.00  0.00     0.002 A 
ATOM      3  C3  N4B d   1      -4.210  -0.510  -3.227  0.00  0.00     0.002 A 
ATOM      4  C4  N4B d   1      -4.651  -0.061  -1.991  0.00  0.00    -0.004 A 
ATOM      5  C5  N4B d   1      -4.618  -0.896  -0.912  0.00  0.00     0.002 A 
ATOM      6  C6  N4B d   1      -4.189  -2.202  -1.037  0.00  0.00     0.002 A 
ENDROOT
BRANCH   1   7
ATOM      7  C1' N4B d   1      -3.404  -4.124  -2.373  0.00  0.00     0.057 C 
BRANCH   7   8
ATOM      8  C2' N4B d   1      -3.914  -4.878  -1.148  0.00  0.00     0.009 C 
BRANCH   8   9
ATOM      9  C3' N4B d   1      -2.974  -6.000  -0.739  0.00  0.00     0.004 C 
ATOM     10  C4' N4B d   1      -1.792  -5.511   0.043  0.00  0.00     0.003 C 
ENDBRANCH   8   9
ENDBRANCH   7   8
ENDBRANCH   1   7
TORSDOF 3
ENDMDL
