MODEL 1
REMARK minimizedAffinity -1.44900382
REMARK minimizedRMSD -1
REMARK  3 active torsions:
REMARK  status: ('A' for Active; 'I' for Inactive)
REMARK    1  A    between atoms: C3'_2  and  C2'_3 
REMARK    2  A    between atoms: C2'_3  and  C1'_4 
REMARK    3  A    between atoms: C1'_4  and  C1_5 
ROOT
ATOM      1  C1  N4B d   1      -2.040   0.794   1.913  0.00  0.00    -0.075 A 
ATOM      2  C2  N4B d   1      -1.512   2.098   1.785  0.00  0.00     0.002 A 
ATOM      3  C3  N4B d   1      -0.255   2.281   1.264  0.00  0.00     0.002 A 
ATOM      4  C4  N4B d   1       0.497   1.180   0.883  0.00  0.00    -0.004 A 
ATOM      5  C5  N4B d   1      -0.030  -0.074   0.987  0.00  0.00     0.002 A 
ATOM      6  C6  N4B d   1      -1.294  -0.273   1.505  0.00  0.00     0.002 A 
ENDROOT
BRANCH   1   7
ATOM      7  C1' N4B d   1      -3.375   0.537   2.557  0.00  0.00     0.057 C 
BRANCH   7   8
ATOM      8  C2' N4B d   1      -3.883   1.830   3.189  0.00  0.00     0.009 C 
BRANCH   8   9
ATOM      9  C3' N4B d   1      -4.951   1.568   4.238  0.00  0.00     0.004 C 
ATOM     10  C4' N4B d   1      -4.896   2.542   5.377  0.00  0.00     0.003 C 
ENDBRANCH   8   9
ENDBRANCH   7   8
ENDBRANCH   1   7
TORSDOF 3
ENDMDL
