MODEL 1
REMARK minimizedAffinity -2.54763651
REMARK minimizedRMSD -1
REMARK  3 active torsions:
REMARK  status: ('A' for Active; 'I' for Inactive)
REMARK    1  A    between atoms: C3'_2  and  C2'_3 
REMARK    2  A    between atoms: C2'_3  and  C1'_4 
REMARK    3  A    between atoms: C1'_4  and  C1_5 
ROOT
ATOM      1  C1  N4B d   1       0.587   0.976   1.496  0.00  0.00    -0.075 A 
ATOM      2  C2  N4B d   1      -0.128   2.173   1.721  0.00  0.00     0.002 A 
ATOM      3  C3  N4B d   1      -1.488   2.136   1.904  0.00  0.00     0.002 A 
ATOM      4  C4  N4B d   1      -2.156   0.922   1.847  0.00  0.00    -0.004 A 
ATOM      5  C5  N4B d   1      -1.455  -0.233   1.655  0.00  0.00     0.002 A 
ATOM      6  C6  N4B d   1      -0.087  -0.211   1.474  0.00  0.00     0.002 A 
ENDROOT
BRANCH   1   7
ATOM      7  C1' N4B d   1       2.063   0.974   1.206  0.00  0.00     0.057 C 
BRANCH   7   8
ATOM      8  C2' N4B d   1       2.310   0.277  -0.129  0.00  0.00     0.009 C 
BRANCH   8   9
ATOM      9  C3' N4B d   1       2.335   1.260  -1.287  0.00  0.00     0.004 C 
ATOM     10  C4' N4B d   1       3.101   0.745  -2.469  0.00  0.00     0.003 C 
ENDBRANCH   8   9
ENDBRANCH   7   8
ENDBRANCH   1   7
TORSDOF 3
ENDMDL
