MODEL 1
REMARK minimizedAffinity -4.68205929
REMARK minimizedRMSD -1
REMARK  0 active torsions:
REMARK  status: ('A' for Active; 'I' for Inactive)
ROOT
ATOM      1  C   UNL d   1       1.502  -1.143  -0.649  0.00  0.00     0.077 C 
ATOM      2  C1  UNL d   1       0.255  -0.498  -0.121  0.00  0.00    -0.074 A 
ATOM      3  C2  UNL d   1      -0.964  -0.632  -0.794  0.00  0.00    -0.005 A 
ATOM      4  C3  UNL d   1      -2.117  -0.035  -0.286  0.00  0.00     0.006 A 
ATOM      5  C4  UNL d   1      -2.064   0.702   0.898  0.00  0.00    -0.005 A 
ATOM      6  C5  UNL d   1      -0.855   0.846   1.585  0.00  0.00    -0.074 A 
ATOM      7  C6  UNL d   1      -0.783   1.625   2.865  0.00  0.00     0.077 C 
ATOM      8  C7  UNL d   1       0.298   0.237   1.072  0.00  0.00    -0.001 A 
ENDROOT
TORSDOF 0
ENDMDL
