MODEL 1
REMARK minimizedAffinity -4.45391226
REMARK minimizedRMSD -1
REMARK  0 active torsions:
REMARK  status: ('A' for Active; 'I' for Inactive)
ROOT
ATOM      1  C   UNL d   1      -1.473  -0.038  -0.557  0.00  0.00     0.077 C 
ATOM      2  C1  UNL d   1      -0.758   0.200   0.739  0.00  0.00    -0.074 A 
ATOM      3  C2  UNL d   1      -1.404   0.821   1.813  0.00  0.00    -0.005 A 
ATOM      4  C3  UNL d   1      -0.730   1.027   3.016  0.00  0.00     0.006 A 
ATOM      5  C4  UNL d   1       0.596   0.615   3.158  0.00  0.00    -0.005 A 
ATOM      6  C5  UNL d   1       1.259  -0.008   2.095  0.00  0.00    -0.074 A 
ATOM      7  C6  UNL d   1       2.680  -0.466   2.234  0.00  0.00     0.077 C 
ATOM      8  C7  UNL d   1       0.571  -0.218   0.892  0.00  0.00    -0.001 A 
ENDROOT
TORSDOF 0
ENDMDL
