MODEL 1
REMARK minimizedAffinity -6.83790588
REMARK minimizedRMSD -1
REMARK  0 active torsions:
REMARK  status: ('A' for Active; 'I' for Inactive)
ROOT
ATOM      1  C   UNL d   1      -2.049   0.207  -0.147  0.00  0.00     0.077 C 
ATOM      2  C1  UNL d   1      -1.197   0.347   1.080  0.00  0.00    -0.074 A 
ATOM      3  C2  UNL d   1      -1.700   0.944   2.240  0.00  0.00    -0.005 A 
ATOM      4  C3  UNL d   1      -0.900   1.059   3.376  0.00  0.00     0.006 A 
ATOM      5  C4  UNL d   1       0.411   0.579   3.364  0.00  0.00    -0.005 A 
ATOM      6  C5  UNL d   1       0.931  -0.022   2.213  0.00  0.00    -0.074 A 
ATOM      7  C6  UNL d   1       2.334  -0.552   2.186  0.00  0.00     0.077 C 
ATOM      8  C7  UNL d   1       0.117  -0.140   1.078  0.00  0.00    -0.001 A 
ENDROOT
TORSDOF 0
ENDMDL
