MODEL 1
REMARK minimizedAffinity -2.84483576
REMARK minimizedRMSD -1
REMARK  0 active torsions:
REMARK  status: ('A' for Active; 'I' for Inactive)
ROOT
ATOM      1  C   UNL d   1      -1.055  -0.296  -5.421  0.00  0.00     0.077 C 
ATOM      2  C1  UNL d   1       0.022  -0.093  -4.397  0.00  0.00    -0.074 A 
ATOM      3  C2  UNL d   1       1.259   0.453  -4.754  0.00  0.00    -0.005 A 
ATOM      4  C3  UNL d   1       2.247   0.645  -3.789  0.00  0.00     0.006 A 
ATOM      5  C4  UNL d   1       2.009   0.295  -2.459  0.00  0.00    -0.005 A 
ATOM      6  C5  UNL d   1       0.778  -0.251  -2.083  0.00  0.00    -0.074 A 
ATOM      7  C6  UNL d   1       0.502  -0.624  -0.657  0.00  0.00     0.077 C 
ATOM      8  C7  UNL d   1      -0.213  -0.435  -3.058  0.00  0.00    -0.001 A 
ENDROOT
TORSDOF 0
ENDMDL
