MODEL 1
REMARK minimizedAffinity -5.14406872
REMARK minimizedRMSD -1
REMARK  0 active torsions:
REMARK  status: ('A' for Active; 'I' for Inactive)
ROOT
ATOM      1  C   UNL d   1       0.656  -0.884  -1.337  0.00  0.00     0.077 C 
ATOM      2  C1  UNL d   1      -0.273  -0.152  -0.415  0.00  0.00    -0.074 A 
ATOM      3  C2  UNL d   1      -1.654  -0.150  -0.639  0.00  0.00    -0.005 A 
ATOM      4  C3  UNL d   1      -2.506   0.528   0.232  0.00  0.00     0.006 A 
ATOM      5  C4  UNL d   1      -1.988   1.210   1.334  0.00  0.00    -0.005 A 
ATOM      6  C5  UNL d   1      -0.610   1.218   1.574  0.00  0.00    -0.074 A 
ATOM      7  C6  UNL d   1      -0.038   1.938   2.759  0.00  0.00     0.077 C 
ATOM      8  C7  UNL d   1       0.239   0.529   0.698  0.00  0.00    -0.001 A 
ENDROOT
TORSDOF 0
ENDMDL
