MODEL 1
REMARK minimizedAffinity -4.57408524
REMARK minimizedRMSD -1
REMARK  0 active torsions:
REMARK  status: ('A' for Active; 'I' for Inactive)
ROOT
ATOM      1  C   UNL d   1       0.670  -0.004  -1.261  0.00  0.00     0.077 C 
ATOM      2  C1  UNL d   1      -0.273   0.186  -0.111  0.00  0.00    -0.074 A 
ATOM      3  C2  UNL d   1      -1.559  -0.363  -0.138  0.00  0.00    -0.005 A 
ATOM      4  C3  UNL d   1      -2.422  -0.186   0.944  0.00  0.00     0.006 A 
ATOM      5  C4  UNL d   1      -2.008   0.539   2.062  0.00  0.00    -0.005 A 
ATOM      6  C5  UNL d   1      -0.725   1.094   2.107  0.00  0.00    -0.074 A 
ATOM      7  C6  UNL d   1      -0.261   1.869   3.305  0.00  0.00     0.077 C 
ATOM      8  C7  UNL d   1       0.138   0.907   1.019  0.00  0.00    -0.001 A 
ENDROOT
TORSDOF 0
ENDMDL
