MODEL 1
REMARK minimizedAffinity -3.60657454
REMARK minimizedRMSD -1
REMARK  0 active torsions:
REMARK  status: ('A' for Active; 'I' for Inactive)
ROOT
ATOM      1  C   UNL d   1      -0.373   1.626   2.912  0.00  0.00     0.077 C 
ATOM      2  C1  UNL d   1       0.410   0.790   1.944  0.00  0.00    -0.074 A 
ATOM      3  C2  UNL d   1       1.621   0.200   2.319  0.00  0.00    -0.005 A 
ATOM      4  C3  UNL d   1       2.333  -0.583   1.410  0.00  0.00     0.006 A 
ATOM      5  C4  UNL d   1       1.842  -0.782   0.119  0.00  0.00    -0.005 A 
ATOM      6  C5  UNL d   1       0.632  -0.201  -0.274  0.00  0.00    -0.074 A 
ATOM      7  C6  UNL d   1       0.086  -0.414  -1.654  0.00  0.00     0.077 C 
ATOM      8  C7  UNL d   1      -0.081   0.579   0.648  0.00  0.00    -0.001 A 
ENDROOT
TORSDOF 0
ENDMDL
