MODEL 1
REMARK minimizedAffinity -5.1602478
REMARK minimizedRMSD -1
REMARK  0 active torsions:
REMARK  status: ('A' for Active; 'I' for Inactive)
ROOT
ATOM      1  C   UNL d   1      -0.099  -1.217  -1.694  0.00  0.00     0.077 C 
ATOM      2  C1  UNL d   1       0.439  -0.853  -0.342  0.00  0.00    -0.074 A 
ATOM      3  C2  UNL d   1       1.643  -1.393   0.122  0.00  0.00    -0.005 A 
ATOM      4  C3  UNL d   1       2.135  -1.038   1.378  0.00  0.00     0.006 A 
ATOM      5  C4  UNL d   1       1.430  -0.141   2.181  0.00  0.00    -0.005 A 
ATOM      6  C5  UNL d   1       0.225   0.409   1.734  0.00  0.00    -0.074 A 
ATOM      7  C6  UNL d   1      -0.541   1.382   2.581  0.00  0.00     0.077 C 
ATOM      8  C7  UNL d   1      -0.260   0.053   0.468  0.00  0.00    -0.001 A 
ENDROOT
TORSDOF 0
ENDMDL
