MODEL 1
REMARK minimizedAffinity -4.72744989
REMARK minimizedRMSD -1
REMARK  0 active torsions:
REMARK  status: ('A' for Active; 'I' for Inactive)
ROOT
ATOM      1  C   UNL d   1      -2.400  -0.150  -0.447  0.00  0.00     0.077 C 
ATOM      2  C1  UNL d   1      -1.162  -0.111   0.398  0.00  0.00    -0.074 A 
ATOM      3  C2  UNL d   1       0.003  -0.775  -0.001  0.00  0.00    -0.005 A 
ATOM      4  C3  UNL d   1       1.149  -0.721   0.791  0.00  0.00     0.006 A 
ATOM      5  C4  UNL d   1       1.144  -0.005   1.988  0.00  0.00    -0.005 A 
ATOM      6  C5  UNL d   1      -0.011   0.667   2.403  0.00  0.00    -0.074 A 
ATOM      7  C6  UNL d   1      -0.031   1.450   3.682  0.00  0.00     0.077 C 
ATOM      8  C7  UNL d   1      -1.157   0.614   1.598  0.00  0.00    -0.001 A 
ENDROOT
TORSDOF 0
ENDMDL
