MODEL 1
REMARK minimizedAffinity -3.21022296
REMARK minimizedRMSD -1
REMARK  0 active torsions:
REMARK  status: ('A' for Active; 'I' for Inactive)
ROOT
ATOM      1  C   UNL d   1      -0.189   1.870   2.837  0.00  0.00     0.077 C 
ATOM      2  C1  UNL d   1      -0.028   0.751   1.851  0.00  0.00    -0.074 A 
ATOM      3  C2  UNL d   1       1.222   0.453   1.300  0.00  0.00    -0.005 A 
ATOM      4  C3  UNL d   1       1.358  -0.597   0.391  0.00  0.00     0.006 A 
ATOM      5  C4  UNL d   1       0.247  -1.357   0.025  0.00  0.00    -0.005 A 
ATOM      6  C5  UNL d   1      -1.011  -1.074   0.566  0.00  0.00    -0.074 A 
ATOM      7  C6  UNL d   1      -2.213  -1.888   0.191  0.00  0.00     0.077 C 
ATOM      8  C7  UNL d   1      -1.138  -0.022   1.484  0.00  0.00    -0.001 A 
ENDROOT
TORSDOF 0
ENDMDL
