MODEL 1
REMARK minimizedAffinity 10.8552532
REMARK minimizedRMSD -1
REMARK  3 active torsions:
REMARK  status: ('A' for Active; 'I' for Inactive)
REMARK    1  A    between atoms: C3'_2  and  C2'_3 
REMARK    2  A    between atoms: C2'_3  and  C1'_4 
REMARK    3  A    between atoms: C1'_4  and  C1_5 
ROOT
ATOM      1  C1  N4B d   1       0.770  -1.212   3.689  0.00  0.00    -0.075 A 
ATOM      2  C2  N4B d   1       0.477   0.104   4.108  0.00  0.00     0.002 A 
ATOM      3  C3  N4B d   1       0.311   1.100   3.177  0.00  0.00     0.002 A 
ATOM      4  C4  N4B d   1       0.451   0.809   1.829  0.00  0.00    -0.004 A 
ATOM      5  C5  N4B d   1       0.708  -0.470   1.431  0.00  0.00     0.002 A 
ATOM      6  C6  N4B d   1       0.874  -1.482   2.355  0.00  0.00     0.002 A 
ENDROOT
BRANCH   1   7
ATOM      7  C1' N4B d   1       1.045  -2.316   4.673  0.00  0.00     0.057 C 
BRANCH   7   8
ATOM      8  C2' N4B d   1       2.527  -2.676   4.620  0.00  0.00     0.009 C 
BRANCH   8   9
ATOM      9  C3' N4B d   1       3.089  -2.971   6.000  0.00  0.00     0.004 C 
ATOM     10  C4' N4B d   1       4.386  -3.723   5.950  0.00  0.00     0.003 C 
ENDBRANCH   8   9
ENDBRANCH   7   8
ENDBRANCH   1   7
TORSDOF 3
ENDMDL
