MODEL 1
REMARK minimizedAffinity 12.524271
REMARK minimizedRMSD -1
REMARK  3 active torsions:
REMARK  status: ('A' for Active; 'I' for Inactive)
REMARK    1  A    between atoms: C3'_2  and  C2'_3 
REMARK    2  A    between atoms: C2'_3  and  C1'_4 
REMARK    3  A    between atoms: C1'_4  and  C1_5 
ROOT
ATOM      1  C1  N4B d   1       1.150  -0.348   3.770  0.00  0.00    -0.075 A 
ATOM      2  C2  N4B d   1       2.138   0.371   4.478  0.00  0.00     0.002 A 
ATOM      3  C3  N4B d   1       2.933  -0.274   5.393  0.00  0.00     0.002 A 
ATOM      4  C4  N4B d   1       2.747  -1.627   5.630  0.00  0.00    -0.004 A 
ATOM      5  C5  N4B d   1       1.807  -2.320   4.924  0.00  0.00     0.002 A 
ATOM      6  C6  N4B d   1       1.004  -1.686   3.998  0.00  0.00     0.002 A 
ENDROOT
BRANCH   1   7
ATOM      7  C1' N4B d   1       0.200   0.331   2.822  0.00  0.00     0.057 C 
BRANCH   7   8
ATOM      8  C2' N4B d   1      -0.636  -0.727   2.107  0.00  0.00     0.009 C 
BRANCH   8   9
ATOM      9  C3' N4B d   1      -2.120  -0.407   2.157  0.00  0.00     0.004 C 
ATOM     10  C4' N4B d   1      -2.971  -1.627   2.345  0.00  0.00     0.003 C 
ENDBRANCH   8   9
ENDBRANCH   7   8
ENDBRANCH   1   7
TORSDOF 3
ENDMDL
