MODEL 1
REMARK minimizedAffinity 13.0155373
REMARK minimizedRMSD -1
REMARK  3 active torsions:
REMARK  status: ('A' for Active; 'I' for Inactive)
REMARK    1  A    between atoms: C3'_2  and  C2'_3 
REMARK    2  A    between atoms: C2'_3  and  C1'_4 
REMARK    3  A    between atoms: C1'_4  and  C1_5 
ROOT
ATOM      1  C1  N4B d   1       0.139   0.875   2.609  0.00  0.00    -0.075 A 
ATOM      2  C2  N4B d   1       1.271   0.999   3.445  0.00  0.00     0.002 A 
ATOM      3  C3  N4B d   1       1.953  -0.123   3.848  0.00  0.00     0.002 A 
ATOM      4  C4  N4B d   1       1.514  -1.375   3.444  0.00  0.00    -0.004 A 
ATOM      5  C5  N4B d   1       0.435  -1.484   2.616  0.00  0.00     0.002 A 
ATOM      6  C6  N4B d   1      -0.258  -0.365   2.200  0.00  0.00     0.002 A 
ENDROOT
BRANCH   1   7
ATOM      7  C1' N4B d   1      -0.690   2.066   2.213  0.00  0.00     0.057 C 
BRANCH   7   8
ATOM      8  C2' N4B d   1       0.017   2.817   1.089  0.00  0.00     0.009 C 
BRANCH   8   9
ATOM      9  C3' N4B d   1      -0.792   4.008   0.605  0.00  0.00     0.004 C 
ATOM     10  C4' N4B d   1      -1.238   4.900   1.724  0.00  0.00     0.003 C 
ENDBRANCH   8   9
ENDBRANCH   7   8
ENDBRANCH   1   7
TORSDOF 3
ENDMDL
