MODEL 1
REMARK minimizedAffinity 11.8519316
REMARK minimizedRMSD -1
REMARK  3 active torsions:
REMARK  status: ('A' for Active; 'I' for Inactive)
REMARK    1  A    between atoms: C3'_2  and  C2'_3 
REMARK    2  A    between atoms: C2'_3  and  C1'_4 
REMARK    3  A    between atoms: C1'_4  and  C1_5 
ROOT
ATOM      1  C1  N4B d   1       3.096  -0.213   2.481  0.00  0.00    -0.075 A 
ATOM      2  C2  N4B d   1       1.716   0.072   2.395  0.00  0.00     0.002 A 
ATOM      3  C3  N4B d   1       1.075   0.001   1.183  0.00  0.00     0.002 A 
ATOM      4  C4  N4B d   1       1.794  -0.332   0.045  0.00  0.00    -0.004 A 
ATOM      5  C5  N4B d   1       3.121  -0.631   0.141  0.00  0.00     0.002 A 
ATOM      6  C6  N4B d   1       3.778  -0.568   1.353  0.00  0.00     0.002 A 
ENDROOT
BRANCH   1   7
ATOM      7  C1' N4B d   1       3.859  -0.066   3.770  0.00  0.00     0.057 C 
BRANCH   7   8
ATOM      8  C2' N4B d   1       4.175   1.409   3.999  0.00  0.00     0.009 C 
BRANCH   8   9
ATOM      9  C3' N4B d   1       3.991   1.811   5.452  0.00  0.00     0.004 C 
ATOM     10  C4' N4B d   1       2.682   2.498   5.704  0.00  0.00     0.003 C 
ENDBRANCH   8   9
ENDBRANCH   7   8
ENDBRANCH   1   7
TORSDOF 3
ENDMDL
