MODEL 1
REMARK minimizedAffinity 15.1924801
REMARK minimizedRMSD -1
REMARK  3 active torsions:
REMARK  status: ('A' for Active; 'I' for Inactive)
REMARK    1  A    between atoms: C3'_2  and  C2'_3 
REMARK    2  A    between atoms: C2'_3  and  C1'_4 
REMARK    3  A    between atoms: C1'_4  and  C1_5 
ROOT
ATOM      1  C1  N4B d   1       2.815   0.800   1.881  0.00  0.00    -0.075 A 
ATOM      2  C2  N4B d   1       2.663   1.639   0.756  0.00  0.00     0.002 A 
ATOM      3  C3  N4B d   1       2.101   1.148  -0.396  0.00  0.00     0.002 A 
ATOM      4  C4  N4B d   1       1.702  -0.179  -0.453  0.00  0.00    -0.004 A 
ATOM      5  C5  N4B d   1       1.828  -0.977   0.647  0.00  0.00     0.002 A 
ATOM      6  C6  N4B d   1       2.388  -0.495   1.813  0.00  0.00     0.002 A 
ENDROOT
BRANCH   1   7
ATOM      7  C1' N4B d   1       3.502   1.268   3.135  0.00  0.00     0.057 C 
BRANCH   7   8
ATOM      8  C2' N4B d   1       3.781   2.764   3.024  0.00  0.00     0.009 C 
BRANCH   8   9
ATOM      9  C3' N4B d   1       4.545   3.291   4.227  0.00  0.00     0.004 C 
ATOM     10  C4' N4B d   1       3.704   3.353   5.467  0.00  0.00     0.003 C 
ENDBRANCH   8   9
ENDBRANCH   7   8
ENDBRANCH   1   7
TORSDOF 3
ENDMDL
