MODEL 1
REMARK minimizedAffinity -4.52406693
REMARK minimizedRMSD -1
REMARK  1 active torsions:
REMARK  status: ('A' for Active; 'I' for Inactive)
REMARK    1  A    between atoms: C3_4  and  O_7 
ROOT
ATOM      1  C   UNL d   1      -0.733   0.181   0.516  0.00  0.00    -0.033 A 
ATOM      2  C1  UNL d   1       0.209  -0.365  -0.358  0.00  0.00     0.039 A 
ATOM      3  C2  UNL d   1       0.466  -1.737  -0.343  0.00  0.00    -0.080 A 
ATOM      4  C3  UNL d   1      -0.226  -2.552   0.549  0.00  0.00     0.150 A 
ATOM      5  C4  UNL d   1      -1.168  -2.016   1.421  0.00  0.00    -0.007 A 
ATOM      6  C5  UNL d   1      -1.423  -0.645   1.404  0.00  0.00     0.039 A 
ENDROOT
BRANCH   4   7
ATOM      7  O   UNL d   1      -0.006  -3.896   0.604  0.00  0.00    -0.526 OA
ATOM      8  H5  UNL d   1       0.692  -4.120  -0.034  0.00  0.00     0.418 HD
ENDBRANCH   4   7
TORSDOF 1
ENDMDL
