MODEL 1
REMARK minimizedAffinity -1.47713745
REMARK minimizedRMSD -1
REMARK  1 active torsions:
REMARK  status: ('A' for Active; 'I' for Inactive)
REMARK    1  A    between atoms: C3_4  and  O_7 
ROOT
ATOM      1  C   UNL d   1       0.957   0.307   0.174  0.00  0.00    -0.033 A 
ATOM      2  C1  UNL d   1      -0.183  -0.074  -0.538  0.00  0.00     0.039 A 
ATOM      3  C2  UNL d   1      -1.026  -1.064  -0.030  0.00  0.00    -0.080 A 
ATOM      4  C3  UNL d   1      -0.720  -1.663   1.189  0.00  0.00     0.150 A 
ATOM      5  C4  UNL d   1       0.411  -1.286   1.905  0.00  0.00    -0.007 A 
ATOM      6  C5  UNL d   1       1.253  -0.298   1.395  0.00  0.00     0.039 A 
ENDROOT
BRANCH   4   7
ATOM      7  O   UNL d   1      -1.511  -2.637   1.722  0.00  0.00    -0.526 OA
ATOM      8  H5  UNL d   1      -2.240  -2.815   1.104  0.00  0.00     0.418 HD
ENDBRANCH   4   7
TORSDOF 1
ENDMDL
