MODEL 1
REMARK minimizedAffinity -2.04139256
REMARK minimizedRMSD -1
REMARK  1 active torsions:
REMARK  status: ('A' for Active; 'I' for Inactive)
REMARK    1  A    between atoms: C3_4  and  O_7 
ROOT
ATOM      1  C   UNL d   1      -1.869  -2.668   1.342  0.00  0.00    -0.033 A 
ATOM      2  C1  UNL d   1      -0.982  -3.067   0.340  0.00  0.00     0.039 A 
ATOM      3  C2  UNL d   1      -0.101  -2.142  -0.224  0.00  0.00    -0.080 A 
ATOM      4  C3  UNL d   1      -0.117  -0.824   0.223  0.00  0.00     0.150 A 
ATOM      5  C4  UNL d   1      -0.995  -0.420   1.224  0.00  0.00    -0.007 A 
ATOM      6  C5  UNL d   1      -1.874  -1.345   1.785  0.00  0.00     0.039 A 
ENDROOT
BRANCH   4   7
ATOM      7  O   UNL d   1       0.721   0.116  -0.300  0.00  0.00    -0.526 OA
ATOM      8  H5  UNL d   1       1.250  -0.299  -1.001  0.00  0.00     0.418 HD
ENDBRANCH   4   7
TORSDOF 1
ENDMDL
