MODEL 1
REMARK minimizedAffinity -4.16361475
REMARK minimizedRMSD -1
REMARK  1 active torsions:
REMARK  status: ('A' for Active; 'I' for Inactive)
REMARK    1  A    between atoms: C3_4  and  O_7 
ROOT
ATOM      1  C   UNL d   1      -0.212  -0.253   0.601  0.00  0.00    -0.033 A 
ATOM      2  C1  UNL d   1      -1.000  -0.914   1.545  0.00  0.00     0.039 A 
ATOM      3  C2  UNL d   1      -2.338  -0.552   1.717  0.00  0.00    -0.080 A 
ATOM      4  C3  UNL d   1      -2.875   0.470   0.940  0.00  0.00     0.150 A 
ATOM      5  C4  UNL d   1      -2.096   1.130  -0.005  0.00  0.00    -0.007 A 
ATOM      6  C5  UNL d   1      -0.761   0.768  -0.175  0.00  0.00     0.039 A 
ENDROOT
BRANCH   4   7
ATOM      7  O   UNL d   1      -4.173   0.861   1.075  0.00  0.00    -0.526 OA
ATOM      8  H5  UNL d   1      -4.580   0.337   1.785  0.00  0.00     0.418 HD
ENDBRANCH   4   7
TORSDOF 1
ENDMDL
