MODEL 1
REMARK minimizedAffinity -4.6762619
REMARK minimizedRMSD -1
REMARK  1 active torsions:
REMARK  status: ('A' for Active; 'I' for Inactive)
REMARK    1  A    between atoms: C3_4  and  O_7 
ROOT
ATOM      1  C   UNL d   1      -0.274  -2.819   0.609  0.00  0.00    -0.033 A 
ATOM      2  C1  UNL d   1      -1.357  -2.039   1.020  0.00  0.00     0.039 A 
ATOM      3  C2  UNL d   1      -1.329  -0.654   0.844  0.00  0.00    -0.080 A 
ATOM      4  C3  UNL d   1      -0.215  -0.062   0.255  0.00  0.00     0.150 A 
ATOM      5  C4  UNL d   1       0.866  -0.834  -0.160  0.00  0.00    -0.007 A 
ATOM      6  C5  UNL d   1       0.837  -2.216   0.018  0.00  0.00     0.039 A 
ENDROOT
BRANCH   4   7
ATOM      7  O   UNL d   1      -0.139   1.286   0.066  0.00  0.00    -0.526 OA
ATOM      8  H5  UNL d   1      -0.945   1.692   0.427  0.00  0.00     0.418 HD
ENDBRANCH   4   7
TORSDOF 1
ENDMDL
