MODEL 1
REMARK minimizedAffinity -2.80388618
REMARK minimizedRMSD -1
REMARK  1 active torsions:
REMARK  status: ('A' for Active; 'I' for Inactive)
REMARK    1  A    between atoms: C3_4  and  O_7 
ROOT
ATOM      1  C   UNL d   1       0.199   2.671  -1.206  0.00  0.00    -0.033 A 
ATOM      2  C1  UNL d   1      -0.219   1.468  -1.780  0.00  0.00     0.039 A 
ATOM      3  C2  UNL d   1      -0.395   0.336  -0.983  0.00  0.00    -0.080 A 
ATOM      4  C3  UNL d   1      -0.152   0.420   0.386  0.00  0.00     0.150 A 
ATOM      5  C4  UNL d   1       0.260   1.615   0.965  0.00  0.00    -0.007 A 
ATOM      6  C5  UNL d   1       0.437   2.745   0.166  0.00  0.00     0.039 A 
ENDROOT
BRANCH   4   7
ATOM      7  O   UNL d   1      -0.306  -0.660   1.204  0.00  0.00    -0.526 OA
ATOM      8  H5  UNL d   1      -0.567  -1.423   0.661  0.00  0.00     0.418 HD
ENDBRANCH   4   7
TORSDOF 1
ENDMDL
