MODEL 1
REMARK minimizedAffinity -4.76973486
REMARK minimizedRMSD -1
REMARK  1 active torsions:
REMARK  status: ('A' for Active; 'I' for Inactive)
REMARK    1  A    between atoms: C3_4  and  O_7 
ROOT
ATOM      1  C   UNL d   1      -0.469  -2.873   0.962  0.00  0.00    -0.033 A 
ATOM      2  C1  UNL d   1       0.304  -2.763  -0.195  0.00  0.00     0.039 A 
ATOM      3  C2  UNL d   1       0.557  -1.508  -0.751  0.00  0.00    -0.080 A 
ATOM      4  C3  UNL d   1       0.034  -0.372  -0.139  0.00  0.00     0.150 A 
ATOM      5  C4  UNL d   1      -0.733  -0.474   1.016  0.00  0.00    -0.007 A 
ATOM      6  C5  UNL d   1      -0.986  -1.729   1.569  0.00  0.00     0.039 A 
ENDROOT
BRANCH   4   7
ATOM      7  O   UNL d   1       0.251   0.875  -0.647  0.00  0.00    -0.526 OA
ATOM      8  H5  UNL d   1       0.773   0.788  -1.462  0.00  0.00     0.418 HD
ENDBRANCH   4   7
TORSDOF 1
ENDMDL
