MODEL 1
REMARK minimizedAffinity -4.94935751
REMARK minimizedRMSD -1
REMARK  1 active torsions:
REMARK  status: ('A' for Active; 'I' for Inactive)
REMARK    1  A    between atoms: C3_4  and  O_7 
ROOT
ATOM      1  C   UNL d   1      -0.441  -3.076   1.024  0.00  0.00    -0.033 A 
ATOM      2  C1  UNL d   1       0.585  -2.835   0.109  0.00  0.00     0.039 A 
ATOM      3  C2  UNL d   1       0.776  -1.552  -0.407  0.00  0.00    -0.080 A 
ATOM      4  C3  UNL d   1      -0.064  -0.520   0.001  0.00  0.00     0.150 A 
ATOM      5  C4  UNL d   1      -1.086  -0.752   0.916  0.00  0.00    -0.007 A 
ATOM      6  C5  UNL d   1      -1.276  -2.034   1.429  0.00  0.00     0.039 A 
ENDROOT
BRANCH   4   7
ATOM      7  O   UNL d   1       0.080   0.748  -0.479  0.00  0.00    -0.526 OA
ATOM      8  H5  UNL d   1       0.807   0.753  -1.123  0.00  0.00     0.418 HD
ENDBRANCH   4   7
TORSDOF 1
ENDMDL
