MODEL 1
REMARK minimizedAffinity -2.2927506
REMARK minimizedRMSD -1
REMARK  1 active torsions:
REMARK  status: ('A' for Active; 'I' for Inactive)
REMARK    1  A    between atoms: C3_4  and  O_7 
ROOT
ATOM      1  C   UNL d   1      -0.411  -2.096   0.484  0.00  0.00    -0.033 A 
ATOM      2  C1  UNL d   1      -0.843  -1.049   1.301  0.00  0.00     0.039 A 
ATOM      3  C2  UNL d   1      -0.442   0.261   1.031  0.00  0.00    -0.080 A 
ATOM      4  C3  UNL d   1       0.388   0.510  -0.058  0.00  0.00     0.150 A 
ATOM      5  C4  UNL d   1       0.819  -0.527  -0.879  0.00  0.00    -0.007 A 
ATOM      6  C5  UNL d   1       0.418  -1.835  -0.607  0.00  0.00     0.039 A 
ENDROOT
BRANCH   4   7
ATOM      7  O   UNL d   1       0.809   1.772  -0.359  0.00  0.00    -0.526 OA
ATOM      8  H5  UNL d   1       0.457   2.381   0.310  0.00  0.00     0.418 HD
ENDBRANCH   4   7
TORSDOF 1
ENDMDL
