MODEL 1
REMARK minimizedAffinity -4.25539923
REMARK minimizedRMSD -1
REMARK  1 active torsions:
REMARK  status: ('A' for Active; 'I' for Inactive)
REMARK    1  A    between atoms: C3_4  and  O_7 
ROOT
ATOM      1  C   UNL d   1       1.119  -1.063  -0.064  0.00  0.00    -0.033 A 
ATOM      2  C1  UNL d   1       1.194  -2.252   0.664  0.00  0.00     0.039 A 
ATOM      3  C2  UNL d   1       0.032  -2.839   1.167  0.00  0.00    -0.080 A 
ATOM      4  C3  UNL d   1      -1.198  -2.229   0.934  0.00  0.00     0.150 A 
ATOM      5  C4  UNL d   1      -1.280  -1.047   0.206  0.00  0.00    -0.007 A 
ATOM      6  C5  UNL d   1      -0.118  -0.461  -0.295  0.00  0.00     0.039 A 
ENDROOT
BRANCH   4   7
ATOM      7  O   UNL d   1      -2.359  -2.763   1.408  0.00  0.00    -0.526 OA
ATOM      8  H5  UNL d   1      -2.145  -3.563   1.916  0.00  0.00     0.418 HD
ENDBRANCH   4   7
TORSDOF 1
ENDMDL
