MODEL 1
REMARK minimizedAffinity -4.56712151
REMARK minimizedRMSD -1
REMARK  1 active torsions:
REMARK  status: ('A' for Active; 'I' for Inactive)
REMARK    1  A    between atoms: C3_4  and  O_7 
ROOT
ATOM      1  C   UNL d   1      -0.758  -0.203   0.753  0.00  0.00    -0.033 A 
ATOM      2  C1  UNL d   1      -1.805  -1.108   0.939  0.00  0.00     0.039 A 
ATOM      3  C2  UNL d   1      -1.551  -2.481   0.937  0.00  0.00    -0.080 A 
ATOM      4  C3  UNL d   1      -0.249  -2.935   0.749  0.00  0.00     0.150 A 
ATOM      5  C4  UNL d   1       0.799  -2.039   0.567  0.00  0.00    -0.007 A 
ATOM      6  C5  UNL d   1       0.544  -0.669   0.569  0.00  0.00     0.039 A 
ENDROOT
BRANCH   4   7
ATOM      7  O   UNL d   1       0.046  -4.266   0.735  0.00  0.00    -0.526 OA
ATOM      8  H5  UNL d   1      -0.780  -4.766   0.844  0.00  0.00     0.418 HD
ENDBRANCH   4   7
TORSDOF 1
ENDMDL
