MODEL 1
REMARK minimizedAffinity -4.12337542
REMARK minimizedRMSD -1
REMARK  1 active torsions:
REMARK  status: ('A' for Active; 'I' for Inactive)
REMARK    1  A    between atoms: C3_4  and  O_7 
ROOT
ATOM      1  C   UNL d   1       0.012  -3.253   0.916  0.00  0.00    -0.033 A 
ATOM      2  C1  UNL d   1       0.606  -2.825  -0.272  0.00  0.00     0.039 A 
ATOM      3  C2  UNL d   1       0.488  -1.492  -0.673  0.00  0.00    -0.080 A 
ATOM      4  C3  UNL d   1      -0.226  -0.600   0.122  0.00  0.00     0.150 A 
ATOM      5  C4  UNL d   1      -0.817  -1.020   1.309  0.00  0.00    -0.007 A 
ATOM      6  C5  UNL d   1      -0.699  -2.351   1.708  0.00  0.00     0.039 A 
ENDROOT
BRANCH   4   7
ATOM      7  O   UNL d   1      -0.373   0.708  -0.230  0.00  0.00    -0.526 OA
ATOM      8  H5  UNL d   1       0.064   0.847  -1.087  0.00  0.00     0.418 HD
ENDBRANCH   4   7
TORSDOF 1
ENDMDL
