MODEL 1
REMARK minimizedAffinity -1.15874779
REMARK minimizedRMSD -1
REMARK  1 active torsions:
REMARK  status: ('A' for Active; 'I' for Inactive)
REMARK    1  A    between atoms: C3_4  and  O_7 
ROOT
ATOM      1  C   UNL d   1      -1.008  -2.771   1.007  0.00  0.00    -0.033 A 
ATOM      2  C1  UNL d   1      -0.376  -2.627  -0.229  0.00  0.00     0.039 A 
ATOM      3  C2  UNL d   1      -0.007  -1.359  -0.683  0.00  0.00    -0.080 A 
ATOM      4  C3  UNL d   1      -0.275  -0.245   0.108  0.00  0.00     0.150 A 
ATOM      5  C4  UNL d   1      -0.901  -0.382   1.342  0.00  0.00    -0.007 A 
ATOM      6  C5  UNL d   1      -1.270  -1.648   1.794  0.00  0.00     0.039 A 
ENDROOT
BRANCH   4   7
ATOM      7  O   UNL d   1       0.062   1.012  -0.296  0.00  0.00    -0.526 OA
ATOM      8  H5  UNL d   1       0.461   0.956  -1.180  0.00  0.00     0.418 HD
ENDBRANCH   4   7
TORSDOF 1
ENDMDL
