MODEL 1
REMARK minimizedAffinity 2.83380842
REMARK minimizedRMSD -1
REMARK  1 active torsions:
REMARK  status: ('A' for Active; 'I' for Inactive)
REMARK    1  A    between atoms: C3_4  and  O_7 
ROOT
ATOM      1  C   UNL d   1       3.873   3.201  -1.946  0.00  0.00    -0.033 A 
ATOM      2  C1  UNL d   1       4.593   3.874  -0.958  0.00  0.00     0.039 A 
ATOM      3  C2  UNL d   1       3.974   4.225   0.243  0.00  0.00    -0.080 A 
ATOM      4  C3  UNL d   1       2.636   3.898   0.443  0.00  0.00     0.150 A 
ATOM      5  C4  UNL d   1       1.913   3.224  -0.536  0.00  0.00    -0.007 A 
ATOM      6  C5  UNL d   1       2.533   2.874  -1.735  0.00  0.00     0.039 A 
ENDROOT
BRANCH   4   7
ATOM      7  O   UNL d   1       1.987   4.224   1.597  0.00  0.00    -0.526 OA
ATOM      8  H5  UNL d   1       2.602   4.712   2.169  0.00  0.00     0.418 HD
ENDBRANCH   4   7
TORSDOF 1
ENDMDL
