MODEL 1
REMARK minimizedAffinity 4.00380707
REMARK minimizedRMSD -1
REMARK  1 active torsions:
REMARK  status: ('A' for Active; 'I' for Inactive)
REMARK    1  A    between atoms: C3_4  and  O_7 
ROOT
ATOM      1  C   UNL d   1      -0.402   0.369  -0.620  0.00  0.00    -0.033 A 
ATOM      2  C1  UNL d   1      -0.507   0.363   0.773  0.00  0.00     0.039 A 
ATOM      3  C2  UNL d   1       0.072   1.389   1.522  0.00  0.00    -0.080 A 
ATOM      4  C3  UNL d   1       0.751   2.414   0.868  0.00  0.00     0.150 A 
ATOM      5  C4  UNL d   1       0.857   2.427  -0.518  0.00  0.00    -0.007 A 
ATOM      6  C5  UNL d   1       0.279   1.402  -1.265  0.00  0.00     0.039 A 
ENDROOT
BRANCH   4   7
ATOM      7  O   UNL d   1       1.337   3.434   1.558  0.00  0.00    -0.526 OA
ATOM      8  H5  UNL d   1       1.208   3.277   2.508  0.00  0.00     0.418 HD
ENDBRANCH   4   7
TORSDOF 1
ENDMDL
