MODEL 1
REMARK minimizedAffinity 6.78730488
REMARK minimizedRMSD -1
REMARK  1 active torsions:
REMARK  status: ('A' for Active; 'I' for Inactive)
REMARK    1  A    between atoms: C3_4  and  O_7 
ROOT
ATOM      1  C   UNL d   1       2.416   3.403   0.036  0.00  0.00    -0.033 A 
ATOM      2  C1  UNL d   1       1.184   2.893   0.449  0.00  0.00     0.039 A 
ATOM      3  C2  UNL d   1       0.478   3.518   1.479  0.00  0.00    -0.080 A 
ATOM      4  C3  UNL d   1       1.014   4.650   2.086  0.00  0.00     0.150 A 
ATOM      5  C4  UNL d   1       2.240   5.166   1.677  0.00  0.00    -0.007 A 
ATOM      6  C5  UNL d   1       2.944   4.540   0.649  0.00  0.00     0.039 A 
ENDROOT
BRANCH   4   7
ATOM      7  O   UNL d   1       0.364   5.292   3.099  0.00  0.00    -0.526 OA
ATOM      8  H5  UNL d   1      -0.455   4.807   3.294  0.00  0.00     0.418 HD
ENDBRANCH   4   7
TORSDOF 1
ENDMDL
