MODEL 1
REMARK minimizedAffinity 15.54531
REMARK minimizedRMSD -1
REMARK  0 active torsions:
REMARK  status: ('A' for Active; 'I' for Inactive)
ROOT
ATOM      1  C   UNL d   1       1.882  -1.762   1.685  0.00  0.00     0.124 A 
ATOM      2  C1  UNL d   1       1.968  -0.729   2.607  0.00  0.00     0.062 A 
ATOM      3  C2  UNL d   1       2.579  -0.940   3.840  0.00  0.00     0.162 A 
ATOM      4  C3  UNL d   1       3.109  -2.191   4.158  0.00  0.00    -0.034 A 
ATOM      5  C4  UNL d   1       3.017  -3.226   3.225  0.00  0.00     0.162 A 
ATOM      6  C5  UNL d   1       2.406  -3.009   1.994  0.00  0.00     0.062 A 
ATOM      7  F   UNL d   1       2.323  -4.009   1.104  0.00  0.00    -0.097 F 
ATOM      8  F1  UNL d   1       3.516  -4.440   3.498  0.00  0.00    -0.096 F 
ATOM      9  I   UNL d   1       4.022  -2.511   6.000  0.00  0.00    -0.060 I 
ATOM     10  F2  UNL d   1       2.648   0.076   4.712  0.00  0.00    -0.096 F 
ATOM     11  F3  UNL d   1       1.462   0.477   2.311  0.00  0.00    -0.097 F 
ATOM     12  F4  UNL d   1       1.293  -1.556   0.499  0.00  0.00    -0.092 F 
ENDROOT
TORSDOF 0
ENDMDL
