MODEL 1
REMARK minimizedAffinity 19.6408806
REMARK minimizedRMSD -1
REMARK  0 active torsions:
REMARK  status: ('A' for Active; 'I' for Inactive)
ROOT
ATOM      1  C   UNL d   1       2.262   0.923   4.431  0.00  0.00     0.124 A 
ATOM      2  C1  UNL d   1       2.217  -0.348   3.874  0.00  0.00     0.062 A 
ATOM      3  C2  UNL d   1       2.553  -0.538   2.537  0.00  0.00     0.162 A 
ATOM      4  C3  UNL d   1       2.939   0.546   1.747  0.00  0.00    -0.034 A 
ATOM      5  C4  UNL d   1       2.982   1.821   2.315  0.00  0.00     0.162 A 
ATOM      6  C5  UNL d   1       2.645   2.005   3.652  0.00  0.00     0.062 A 
ATOM      7  F   UNL d   1       2.689   3.233   4.189  0.00  0.00    -0.097 F 
ATOM      8  F1  UNL d   1       3.348   2.884   1.585  0.00  0.00    -0.096 F 
ATOM      9  I   UNL d   1       3.443   0.266  -0.253  0.00  0.00    -0.060 I 
ATOM     10  F2  UNL d   1       2.500  -1.776   2.024  0.00  0.00    -0.096 F 
ATOM     11  F3  UNL d   1       1.847  -1.395   4.625  0.00  0.00    -0.097 F 
ATOM     12  F4  UNL d   1       1.937   1.103   5.718  0.00  0.00    -0.092 F 
ENDROOT
TORSDOF 0
ENDMDL
