MODEL 1
REMARK minimizedAffinity 12.5572386
REMARK minimizedRMSD -1
REMARK  0 active torsions:
REMARK  status: ('A' for Active; 'I' for Inactive)
ROOT
ATOM      1  C   UNL d   1       2.260  -3.301   3.276  0.00  0.00     0.124 A 
ATOM      2  C1  UNL d   1       2.266  -2.804   1.981  0.00  0.00     0.062 A 
ATOM      3  C2  UNL d   1       2.257  -1.430   1.758  0.00  0.00     0.162 A 
ATOM      4  C3  UNL d   1       2.242  -0.542   2.834  0.00  0.00    -0.034 A 
ATOM      5  C4  UNL d   1       2.235  -1.050   4.134  0.00  0.00     0.162 A 
ATOM      6  C5  UNL d   1       2.245  -2.424   4.352  0.00  0.00     0.062 A 
ATOM      7  F   UNL d   1       2.239  -2.902   5.605  0.00  0.00    -0.097 F 
ATOM      8  F1  UNL d   1       2.221  -0.225   5.192  0.00  0.00    -0.096 F 
ATOM      9  I   UNL d   1       2.228   1.513   2.505  0.00  0.00    -0.060 I 
ATOM     10  F2  UNL d   1       2.262  -0.978   0.495  0.00  0.00    -0.096 F 
ATOM     11  F3  UNL d   1       2.280  -3.649   0.940  0.00  0.00    -0.097 F 
ATOM     12  F4  UNL d   1       2.269  -4.623   3.488  0.00  0.00    -0.092 F 
ENDROOT
TORSDOF 0
ENDMDL
