MODEL 1
REMARK minimizedAffinity 8.79603577
REMARK minimizedRMSD -1
REMARK  0 active torsions:
REMARK  status: ('A' for Active; 'I' for Inactive)
ROOT
ATOM      1  C   UNL d   1       2.358  -2.861   4.504  0.00  0.00     0.124 A 
ATOM      2  C1  UNL d   1       2.647  -1.524   4.742  0.00  0.00     0.062 A 
ATOM      3  C2  UNL d   1       2.777  -0.636   3.678  0.00  0.00     0.162 A 
ATOM      4  C3  UNL d   1       2.618  -1.082   2.366  0.00  0.00    -0.034 A 
ATOM      5  C4  UNL d   1       2.328  -2.428   2.134  0.00  0.00     0.162 A 
ATOM      6  C5  UNL d   1       2.199  -3.311   3.201  0.00  0.00     0.062 A 
ATOM      7  F   UNL d   1       1.919  -4.602   2.970  0.00  0.00    -0.097 F 
ATOM      8  F1  UNL d   1       2.168  -2.890   0.885  0.00  0.00    -0.096 F 
ATOM      9  I   UNL d   1       2.812   0.243   0.772  0.00  0.00    -0.060 I 
ATOM     10  F2  UNL d   1       3.057   0.650   3.937  0.00  0.00    -0.096 F 
ATOM     11  F3  UNL d   1       2.802  -1.086   6.000  0.00  0.00    -0.097 F 
ATOM     12  F4  UNL d   1       2.234  -3.713   5.530  0.00  0.00    -0.092 F 
ENDROOT
TORSDOF 0
ENDMDL
