MODEL 1
REMARK minimizedAffinity 15.3163986
REMARK minimizedRMSD -1
REMARK  0 active torsions:
REMARK  status: ('A' for Active; 'I' for Inactive)
ROOT
ATOM      1  C   UNL d   1       3.152  -3.586   4.323  0.00  0.00     0.124 A 
ATOM      2  C1  UNL d   1       4.296  -3.024   3.775  0.00  0.00     0.062 A 
ATOM      3  C2  UNL d   1       4.237  -1.781   3.151  0.00  0.00     0.162 A 
ATOM      4  C3  UNL d   1       3.027  -1.091   3.073  0.00  0.00    -0.034 A 
ATOM      5  C4  UNL d   1       1.880  -1.663   3.625  0.00  0.00     0.162 A 
ATOM      6  C5  UNL d   1       1.945  -2.905   4.247  0.00  0.00     0.062 A 
ATOM      7  F   UNL d   1       0.838  -3.447   4.776  0.00  0.00    -0.097 F 
ATOM      8  F1  UNL d   1       0.701  -1.026   3.567  0.00  0.00    -0.096 F 
ATOM      9  I   UNL d   1       2.933   0.768   2.141  0.00  0.00    -0.060 I 
ATOM     10  F2  UNL d   1       5.359  -1.262   2.631  0.00  0.00    -0.096 F 
ATOM     11  F3  UNL d   1       5.464  -3.680   3.846  0.00  0.00    -0.097 F 
ATOM     12  F4  UNL d   1       3.212  -4.782   4.921  0.00  0.00    -0.092 F 
ENDROOT
TORSDOF 0
ENDMDL
