MODEL 1
REMARK minimizedAffinity 16.8248234
REMARK minimizedRMSD -1
REMARK  0 active torsions:
REMARK  status: ('A' for Active; 'I' for Inactive)
ROOT
ATOM      1  C   UNL d   1       2.890  -2.322   4.683  0.00  0.00     0.124 A 
ATOM      2  C1  UNL d   1       2.304  -1.152   4.219  0.00  0.00     0.062 A 
ATOM      3  C2  UNL d   1       1.987  -1.016   2.870  0.00  0.00     0.162 A 
ATOM      4  C3  UNL d   1       2.254  -2.053   1.976  0.00  0.00    -0.034 A 
ATOM      5  C4  UNL d   1       2.845  -3.225   2.451  0.00  0.00     0.162 A 
ATOM      6  C5  UNL d   1       3.160  -3.357   3.799  0.00  0.00     0.062 A 
ATOM      7  F   UNL d   1       3.726  -4.487   4.246  0.00  0.00    -0.097 F 
ATOM      8  F1  UNL d   1       3.115  -4.242   1.619  0.00  0.00    -0.096 F 
ATOM      9  I   UNL d   1       1.782  -1.853  -0.041  0.00  0.00    -0.060 I 
ATOM     10  F2  UNL d   1       1.421   0.125   2.449  0.00  0.00    -0.096 F 
ATOM     11  F3  UNL d   1       2.044  -0.150   5.071  0.00  0.00    -0.097 F 
ATOM     12  F4  UNL d   1       3.195  -2.450   5.981  0.00  0.00    -0.092 F 
ENDROOT
TORSDOF 0
ENDMDL
