MODEL 1
REMARK minimizedAffinity 26.127882
REMARK minimizedRMSD -1
REMARK  0 active torsions:
REMARK  status: ('A' for Active; 'I' for Inactive)
ROOT
ATOM      1  C   UNL d   1       2.862  -1.898   4.084  0.00  0.00     0.124 A 
ATOM      2  C1  UNL d   1       3.089  -2.997   3.266  0.00  0.00     0.062 A 
ATOM      3  C2  UNL d   1       2.584  -3.020   1.969  0.00  0.00     0.162 A 
ATOM      4  C3  UNL d   1       1.848  -1.940   1.481  0.00  0.00    -0.034 A 
ATOM      5  C4  UNL d   1       1.624  -0.839   2.310  0.00  0.00     0.162 A 
ATOM      6  C5  UNL d   1       2.130  -0.821   3.605  0.00  0.00     0.062 A 
ATOM      7  F   UNL d   1       1.910   0.241   4.394  0.00  0.00    -0.097 F 
ATOM      8  F1  UNL d   1       0.921   0.216   1.872  0.00  0.00    -0.096 F 
ATOM      9  I   UNL d   1       1.092  -1.970  -0.458  0.00  0.00    -0.060 I 
ATOM     10  F2  UNL d   1       2.818  -4.094   1.201  0.00  0.00    -0.096 F 
ATOM     11  F3  UNL d   1       3.795  -4.039   3.726  0.00  0.00    -0.097 F 
ATOM     12  F4  UNL d   1       3.348  -1.879   5.332  0.00  0.00    -0.092 F 
ENDROOT
TORSDOF 0
ENDMDL
