MODEL 1
REMARK minimizedAffinity 15.617651
REMARK minimizedRMSD -1
REMARK  0 active torsions:
REMARK  status: ('A' for Active; 'I' for Inactive)
ROOT
ATOM      1  C   UNL d   1      -0.312  -0.899  -0.727  0.00  0.00     0.124 A 
ATOM      2  C1  UNL d   1       0.016  -0.170   0.408  0.00  0.00     0.062 A 
ATOM      3  C2  UNL d   1       1.024  -0.615   1.259  0.00  0.00     0.162 A 
ATOM      4  C3  UNL d   1       1.712  -1.795   0.977  0.00  0.00    -0.034 A 
ATOM      5  C4  UNL d   1       1.376  -2.524  -0.165  0.00  0.00     0.162 A 
ATOM      6  C5  UNL d   1       0.368  -2.075  -1.012  0.00  0.00     0.062 A 
ATOM      7  F   UNL d   1       0.052  -2.781  -2.108  0.00  0.00    -0.097 F 
ATOM      8  F1  UNL d   1       2.018  -3.663  -0.465  0.00  0.00    -0.096 F 
ATOM      9  I   UNL d   1       3.220  -2.464   2.247  0.00  0.00    -0.060 I 
ATOM     10  F2  UNL d   1       1.320   0.109   2.348  0.00  0.00    -0.096 F 
ATOM     11  F3  UNL d   1      -0.640   0.965   0.687  0.00  0.00    -0.097 F 
ATOM     12  F4  UNL d   1      -1.283  -0.470  -1.543  0.00  0.00    -0.092 F 
ENDROOT
TORSDOF 0
ENDMDL
