MODEL 1
REMARK minimizedAffinity 19.0760975
REMARK minimizedRMSD -1
REMARK  0 active torsions:
REMARK  status: ('A' for Active; 'I' for Inactive)
ROOT
ATOM      1  C   UNL d   1       3.257  -3.747   3.345  0.00  0.00     0.124 A 
ATOM      2  C1  UNL d   1       3.099  -2.398   3.058  0.00  0.00     0.062 A 
ATOM      3  C2  UNL d   1       2.657  -1.996   1.801  0.00  0.00     0.162 A 
ATOM      4  C3  UNL d   1       2.370  -2.945   0.820  0.00  0.00    -0.034 A 
ATOM      5  C4  UNL d   1       2.532  -4.300   1.115  0.00  0.00     0.162 A 
ATOM      6  C5  UNL d   1       2.974  -4.696   2.373  0.00  0.00     0.062 A 
ATOM      7  F   UNL d   1       3.126  -6.000   2.648  0.00  0.00    -0.097 F 
ATOM      8  F1  UNL d   1       2.264  -5.239   0.195  0.00  0.00    -0.096 F 
ATOM      9  I   UNL d   1       1.709  -2.349  -1.061  0.00  0.00    -0.060 I 
ATOM     10  F2  UNL d   1       2.514  -0.686   1.552  0.00  0.00    -0.096 F 
ATOM     11  F3  UNL d   1       3.373  -1.478   3.995  0.00  0.00    -0.097 F 
ATOM     12  F4  UNL d   1       3.683  -4.130   4.555  0.00  0.00    -0.092 F 
ENDROOT
TORSDOF 0
ENDMDL
