MODEL 1
REMARK minimizedAffinity -3.52003908
REMARK minimizedRMSD -1
REMARK  1 active torsions:
REMARK  status: ('A' for Active; 'I' for Inactive)
REMARK    1  A    between atoms: C1_2  and  C2_3 
ROOT
ATOM      1  C2  UNL d   1      -0.717  -1.062  -0.675  0.00  0.00    -0.073 A 
ATOM      2  C3  UNL d   1       0.656  -1.189  -0.916  0.00  0.00    -0.002 A 
ATOM      3  C4  UNL d   1       1.568  -0.374  -0.245  0.00  0.00     0.004 A 
ATOM      4  C5  UNL d   1       1.120   0.570   0.678  0.00  0.00    -0.004 A 
ATOM      5  C6  UNL d   1      -0.247   0.705   0.942  0.00  0.00    -0.075 A 
ATOM      6  C7  UNL d   1      -0.747   1.718   1.930  0.00  0.00     0.076 C 
ATOM      7  C8  UNL d   1      -1.158  -0.115   0.262  0.00  0.00     0.001 A 
ENDROOT
BRANCH   1   8
ATOM      8  C1  UNL d   1      -1.705  -1.944  -1.392  0.00  0.00     0.053 C 
ATOM      9  C   UNL d   1      -2.433  -1.201  -2.501  0.00  0.00     0.018 C 
ENDBRANCH   1   8
TORSDOF 1
ENDMDL
