MODEL 1
REMARK minimizedAffinity -3.26373148
REMARK minimizedRMSD -1
REMARK  1 active torsions:
REMARK  status: ('A' for Active; 'I' for Inactive)
REMARK    1  A    between atoms: C1_2  and  C2_3 
ROOT
ATOM      1  C2  UNL d   1      -0.438   0.193  -0.386  0.00  0.00    -0.073 A 
ATOM      2  C3  UNL d   1      -1.101  -0.345   0.723  0.00  0.00    -0.002 A 
ATOM      3  C4  UNL d   1      -1.049   0.303   1.958  0.00  0.00     0.004 A 
ATOM      4  C5  UNL d   1      -0.340   1.496   2.095  0.00  0.00    -0.004 A 
ATOM      5  C6  UNL d   1       0.320   2.055   0.996  0.00  0.00    -0.075 A 
ATOM      6  C7  UNL d   1       1.089   3.337   1.128  0.00  0.00     0.076 C 
ATOM      7  C8  UNL d   1       0.265   1.398  -0.240  0.00  0.00     0.001 A 
ENDROOT
BRANCH   1   8
ATOM      8  C1  UNL d   1      -0.497  -0.500  -1.723  0.00  0.00     0.053 C 
ATOM      9  C   UNL d   1      -1.928  -0.770  -2.162  0.00  0.00     0.018 C 
ENDBRANCH   1   8
TORSDOF 1
ENDMDL
