MODEL 1
REMARK minimizedAffinity -3.90724778
REMARK minimizedRMSD -1
REMARK  1 active torsions:
REMARK  status: ('A' for Active; 'I' for Inactive)
REMARK    1  A    between atoms: C1_2  and  C2_3 
ROOT
ATOM      1  C2  UNL d   1      -0.332  -0.203  -0.858  0.00  0.00    -0.073 A 
ATOM      2  C3  UNL d   1      -1.033  -0.680   0.256  0.00  0.00    -0.002 A 
ATOM      3  C4  UNL d   1      -0.967  -0.002   1.473  0.00  0.00     0.004 A 
ATOM      4  C5  UNL d   1      -0.208   1.163   1.588  0.00  0.00    -0.004 A 
ATOM      5  C6  UNL d   1       0.489   1.662   0.483  0.00  0.00    -0.075 A 
ATOM      6  C7  UNL d   1       1.312   2.912   0.591  0.00  0.00     0.076 C 
ATOM      7  C8  UNL d   1       0.421   0.973  -0.735  0.00  0.00     0.001 A 
ENDROOT
BRANCH   1   8
ATOM      8  C1  UNL d   1      -0.405  -0.929  -2.177  0.00  0.00     0.053 C 
ATOM      9  C   UNL d   1      -1.836  -1.078  -2.667  0.00  0.00     0.018 C 
ENDBRANCH   1   8
TORSDOF 1
ENDMDL
