MODEL 1
REMARK minimizedAffinity -3.91176581
REMARK minimizedRMSD -1
REMARK  1 active torsions:
REMARK  status: ('A' for Active; 'I' for Inactive)
REMARK    1  A    between atoms: C1_2  and  C2_3 
ROOT
ATOM      1  C2  UNL d   1       0.248   0.735   0.333  0.00  0.00    -0.073 A 
ATOM      2  C3  UNL d   1       0.077   1.362   1.573  0.00  0.00    -0.002 A 
ATOM      3  C4  UNL d   1       1.146   2.021   2.182  0.00  0.00     0.004 A 
ATOM      4  C5  UNL d   1       2.392   2.066   1.557  0.00  0.00    -0.004 A 
ATOM      5  C6  UNL d   1       2.579   1.456   0.312  0.00  0.00    -0.075 A 
ATOM      6  C7  UNL d   1       3.913   1.493  -0.373  0.00  0.00     0.076 C 
ATOM      7  C8  UNL d   1       1.501   0.794  -0.292  0.00  0.00     0.001 A 
ENDROOT
BRANCH   1   8
ATOM      8  C1  UNL d   1      -0.905   0.028  -0.332  0.00  0.00     0.053 C 
ATOM      9  C   UNL d   1      -0.460  -1.235  -1.052  0.00  0.00     0.018 C 
ENDBRANCH   1   8
TORSDOF 1
ENDMDL
