MODEL 1
REMARK minimizedAffinity -4.4004221
REMARK minimizedRMSD -1
REMARK  1 active torsions:
REMARK  status: ('A' for Active; 'I' for Inactive)
REMARK    1  A    between atoms: C1_2  and  C2_3 
ROOT
ATOM      1  C2  UNL d   1       0.377  -0.024   0.362  0.00  0.00    -0.073 A 
ATOM      2  C3  UNL d   1      -0.281   0.650   1.397  0.00  0.00    -0.002 A 
ATOM      3  C4  UNL d   1       0.287   1.788   1.970  0.00  0.00     0.004 A 
ATOM      4  C5  UNL d   1       1.513   2.268   1.511  0.00  0.00    -0.004 A 
ATOM      5  C6  UNL d   1       2.181   1.615   0.470  0.00  0.00    -0.075 A 
ATOM      6  C7  UNL d   1       3.502   2.117  -0.034  0.00  0.00     0.076 C 
ATOM      7  C8  UNL d   1       1.605   0.471  -0.099  0.00  0.00     0.001 A 
ENDROOT
BRANCH   1   8
ATOM      8  C1  UNL d   1      -0.236  -1.250  -0.265  0.00  0.00     0.053 C 
ATOM      9  C   UNL d   1       0.400  -1.584  -1.605  0.00  0.00     0.018 C 
ENDBRANCH   1   8
TORSDOF 1
ENDMDL
