MODEL 1
REMARK minimizedAffinity -4.85413694
REMARK minimizedRMSD -1
REMARK  1 active torsions:
REMARK  status: ('A' for Active; 'I' for Inactive)
REMARK    1  A    between atoms: C1_2  and  C2_3 
ROOT
ATOM      1  C2  UNL d   1       0.404  -0.286   0.035  0.00  0.00    -0.073 A 
ATOM      2  C3  UNL d   1      -0.466   0.486   0.813  0.00  0.00    -0.002 A 
ATOM      3  C4  UNL d   1       0.003   1.618   1.482  0.00  0.00     0.004 A 
ATOM      4  C5  UNL d   1       1.342   1.993   1.373  0.00  0.00    -0.004 A 
ATOM      5  C6  UNL d   1       2.224   1.241   0.590  0.00  0.00    -0.075 A 
ATOM      6  C7  UNL d   1       3.668   1.630   0.464  0.00  0.00     0.076 C 
ATOM      7  C8  UNL d   1       1.746   0.104  -0.076  0.00  0.00     0.001 A 
ENDROOT
BRANCH   1   8
ATOM      8  C1  UNL d   1      -0.100  -1.505  -0.694  0.00  0.00     0.053 C 
ATOM      9  C   UNL d   1      -1.277  -1.182  -1.600  0.00  0.00     0.018 C 
ENDBRANCH   1   8
TORSDOF 1
ENDMDL
