MODEL 1
REMARK minimizedAffinity -0.107243627
REMARK minimizedRMSD -1
REMARK  1 active torsions:
REMARK  status: ('A' for Active; 'I' for Inactive)
REMARK    1  A    between atoms: C1_2  and  C2_3 
ROOT
ATOM      1  C2  UNL d   1       1.756   0.554   0.476  0.00  0.00    -0.073 A 
ATOM      2  C3  UNL d   1       1.271   1.426   1.458  0.00  0.00    -0.002 A 
ATOM      3  C4  UNL d   1      -0.073   1.388   1.832  0.00  0.00     0.004 A 
ATOM      4  C5  UNL d   1      -0.943   0.476   1.235  0.00  0.00    -0.004 A 
ATOM      5  C6  UNL d   1      -0.475  -0.411   0.261  0.00  0.00    -0.075 A 
ATOM      6  C7  UNL d   1      -1.398  -1.397  -0.393  0.00  0.00     0.076 C 
ATOM      7  C8  UNL d   1       0.876  -0.366  -0.112  0.00  0.00     0.001 A 
ENDROOT
BRANCH   1   8
ATOM      8  C1  UNL d   1       3.207   0.586   0.073  0.00  0.00     0.053 C 
ATOM      9  C   UNL d   1       4.105   1.045   1.211  0.00  0.00     0.018 C 
ENDBRANCH   1   8
TORSDOF 1
ENDMDL
