MODEL 1
REMARK minimizedAffinity -4.40896606
REMARK minimizedRMSD -1
REMARK  1 active torsions:
REMARK  status: ('A' for Active; 'I' for Inactive)
REMARK    1  A    between atoms: C1_2  and  C2_3 
ROOT
ATOM      1  C2  UNL d   1       0.182  -0.057   0.137  0.00  0.00    -0.073 A 
ATOM      2  C3  UNL d   1      -0.782   0.555   0.947  0.00  0.00    -0.002 A 
ATOM      3  C4  UNL d   1      -0.418   1.573   1.829  0.00  0.00     0.004 A 
ATOM      4  C5  UNL d   1       0.909   1.995   1.906  0.00  0.00    -0.004 A 
ATOM      5  C6  UNL d   1       1.885   1.404   1.096  0.00  0.00    -0.075 A 
ATOM      6  C7  UNL d   1       3.317   1.845   1.168  0.00  0.00     0.076 C 
ATOM      7  C8  UNL d   1       1.512   0.380   0.215  0.00  0.00     0.001 A 
ENDROOT
BRANCH   1   8
ATOM      8  C1  UNL d   1      -0.207  -1.153  -0.821  0.00  0.00     0.053 C 
ATOM      9  C   UNL d   1      -1.359  -0.738  -1.723  0.00  0.00     0.018 C 
ENDBRANCH   1   8
TORSDOF 1
ENDMDL
