MODEL 1
REMARK minimizedAffinity 6.35863733
REMARK minimizedRMSD -1
REMARK  2 active torsions:
REMARK  status: ('A' for Active; 'I' for Inactive)
REMARK    1  A    between atoms: C2'_3  and  C1'_4 
REMARK    2  A    between atoms: C1'_4  and  C1_5 
ROOT
ATOM      1  C1  I4B d   1       2.669  -0.110  -4.308  0.00  0.00    -0.075 A 
ATOM      2  C2  I4B d   1       1.523   0.624  -4.133  0.00  0.00     0.003 A 
ATOM      3  C3  I4B d   1       1.537   2.026  -4.330  0.00  0.00     0.002 A 
ATOM      4  C4  I4B d   1       2.723   2.656  -4.650  0.00  0.00    -0.004 A 
ATOM      5  C5  I4B d   1       3.879   1.907  -4.850  0.00  0.00     0.002 A 
ATOM      6  C6  I4B d   1       3.850   0.514  -4.690  0.00  0.00     0.003 A 
ENDROOT
BRANCH   1   7
ATOM      7  C1' I4B d   1       2.626  -1.584  -4.060  0.00  0.00     0.060 C 
BRANCH   7   8
ATOM      8  C2' I4B d   1       3.874  -2.196  -4.663  0.00  0.00    -0.013 C 
ATOM      9  C4' I4B d   1       4.684  -2.921  -3.621  0.00  0.00     0.013 C 
ATOM     10  C3' I4B d   1       3.451  -3.124  -5.762  0.00  0.00     0.013 C 
ENDBRANCH   7   8
ENDBRANCH   1   7
TORSDOF 2
ENDMDL
