MODEL 1
REMARK minimizedAffinity -3.68651509
REMARK minimizedRMSD -1
REMARK  2 active torsions:
REMARK  status: ('A' for Active; 'I' for Inactive)
REMARK    1  A    between atoms: C2'_3  and  C1'_4 
REMARK    2  A    between atoms: C1'_4  and  C1_5 
ROOT
ATOM      1  C1  I4B d   1       1.384   0.959  -2.529  0.00  0.00    -0.075 A 
ATOM      2  C2  I4B d   1       0.503   0.928  -3.581  0.00  0.00     0.003 A 
ATOM      3  C3  I4B d   1       0.959   1.158  -4.901  0.00  0.00     0.002 A 
ATOM      4  C4  I4B d   1       2.288   1.464  -5.117  0.00  0.00    -0.004 A 
ATOM      5  C5  I4B d   1       3.184   1.473  -4.052  0.00  0.00     0.002 A 
ATOM      6  C6  I4B d   1       2.733   1.206  -2.752  0.00  0.00     0.003 A 
ENDROOT
BRANCH   1   7
ATOM      7  C1' I4B d   1       0.862   0.744  -1.144  0.00  0.00     0.060 C 
BRANCH   7   8
ATOM      8  C2' I4B d   1       1.209  -0.672  -0.729  0.00  0.00    -0.013 C 
ATOM      9  C4' I4B d   1       1.934  -0.691   0.591  0.00  0.00     0.013 C 
ATOM     10  C3' I4B d   1      -0.066  -1.459  -0.659  0.00  0.00     0.013 C 
ENDBRANCH   7   8
ENDBRANCH   1   7
TORSDOF 2
ENDMDL
