MODEL 1
REMARK minimizedAffinity 7.19176865
REMARK minimizedRMSD -1
REMARK  2 active torsions:
REMARK  status: ('A' for Active; 'I' for Inactive)
REMARK    1  A    between atoms: C2'_3  and  C1'_4 
REMARK    2  A    between atoms: C1'_4  and  C1_5 
ROOT
ATOM      1  C1  I4B d   1       3.854   2.234   2.429  0.00  0.00    -0.075 A 
ATOM      2  C2  I4B d   1       3.845   2.218   3.802  0.00  0.00     0.003 A 
ATOM      3  C3  I4B d   1       4.919   2.786   4.529  0.00  0.00     0.002 A 
ATOM      4  C4  I4B d   1       5.998   3.312   3.847  0.00  0.00    -0.004 A 
ATOM      5  C5  I4B d   1       5.994   3.348   2.456  0.00  0.00     0.002 A 
ATOM      6  C6  I4B d   1       4.910   2.817   1.742  0.00  0.00     0.003 A 
ENDROOT
BRANCH   1   7
ATOM      7  C1' I4B d   1       2.719   1.595   1.694  0.00  0.00     0.060 C 
BRANCH   7   8
ATOM      8  C2' I4B d   1       1.458   1.803   2.508  0.00  0.00    -0.013 C 
ATOM      9  C4' I4B d   1       0.587   2.871   1.902  0.00  0.00     0.013 C 
ATOM     10  C3' I4B d   1       0.735   0.491   2.584  0.00  0.00     0.013 C 
ENDBRANCH   7   8
ENDBRANCH   1   7
TORSDOF 2
ENDMDL
