MODEL 1
REMARK minimizedAffinity 9.92383862
REMARK minimizedRMSD -1
REMARK  2 active torsions:
REMARK  status: ('A' for Active; 'I' for Inactive)
REMARK    1  A    between atoms: C2'_3  and  C1'_4 
REMARK    2  A    between atoms: C1'_4  and  C1_5 
ROOT
ATOM      1  C1  I4B d   1       1.058   2.367   1.457  0.00  0.00    -0.075 A 
ATOM      2  C2  I4B d   1       2.386   2.278   1.793  0.00  0.00     0.003 A 
ATOM      3  C3  I4B d   1       3.159   1.174   1.356  0.00  0.00     0.002 A 
ATOM      4  C4  I4B d   1       2.556   0.165   0.634  0.00  0.00    -0.004 A 
ATOM      5  C5  I4B d   1       1.215   0.268   0.275  0.00  0.00     0.002 A 
ATOM      6  C6  I4B d   1       0.464   1.382   0.678  0.00  0.00     0.003 A 
ENDROOT
BRANCH   1   7
ATOM      7  C1' I4B d   1       0.263   3.529   1.962  0.00  0.00     0.060 C 
BRANCH   7   8
ATOM      8  C2' I4B d   1      -0.312   4.257   0.764  0.00  0.00    -0.013 C 
ATOM      9  C4' I4B d   1      -1.666   4.837   1.077  0.00  0.00     0.013 C 
ATOM     10  C3' I4B d   1       0.657   5.329   0.364  0.00  0.00     0.013 C 
ENDBRANCH   7   8
ENDBRANCH   1   7
TORSDOF 2
ENDMDL
