MODEL 1
REMARK minimizedAffinity 3.29860735
REMARK minimizedRMSD -1
REMARK  2 active torsions:
REMARK  status: ('A' for Active; 'I' for Inactive)
REMARK    1  A    between atoms: C2'_3  and  C1'_4 
REMARK    2  A    between atoms: C1'_4  and  C1_5 
ROOT
ATOM      1  C1  I4B d   1      -1.097  -2.591  -2.046  0.00  0.00    -0.075 A 
ATOM      2  C2  I4B d   1       0.114  -2.502  -1.406  0.00  0.00     0.003 A 
ATOM      3  C3  I4B d   1       0.300  -1.566  -0.360  0.00  0.00     0.002 A 
ATOM      4  C4  I4B d   1      -0.728  -0.709  -0.024  0.00  0.00    -0.004 A 
ATOM      5  C5  I4B d   1      -1.962  -0.817  -0.658  0.00  0.00     0.002 A 
ATOM      6  C6  I4B d   1      -2.152  -1.772  -1.668  0.00  0.00     0.003 A 
ENDROOT
BRANCH   1   7
ATOM      7  C1' I4B d   1      -1.248  -3.568  -3.169  0.00  0.00     0.060 C 
BRANCH   7   8
ATOM      8  C2' I4B d   1      -0.730  -4.910  -2.692  0.00  0.00    -0.013 C 
ATOM      9  C4' I4B d   1      -1.837  -5.929  -2.625  0.00  0.00     0.013 C 
ATOM     10  C3' I4B d   1       0.353  -5.348  -3.632  0.00  0.00     0.013 C 
ENDBRANCH   7   8
ENDBRANCH   1   7
TORSDOF 2
ENDMDL
