MODEL 1
REMARK minimizedAffinity 0.594068527
REMARK minimizedRMSD -1
REMARK  2 active torsions:
REMARK  status: ('A' for Active; 'I' for Inactive)
REMARK    1  A    between atoms: C2'_3  and  C1'_4 
REMARK    2  A    between atoms: C1'_4  and  C1_5 
ROOT
ATOM      1  C1  I4B d   1       2.437  -0.575  -0.399  0.00  0.00    -0.075 A 
ATOM      2  C2  I4B d   1       2.616   0.350   0.599  0.00  0.00     0.003 A 
ATOM      3  C3  I4B d   1       1.497   0.908   1.264  0.00  0.00     0.002 A 
ATOM      4  C4  I4B d   1       0.224   0.552   0.867  0.00  0.00    -0.004 A 
ATOM      5  C5  I4B d   1       0.044  -0.403  -0.130  0.00  0.00     0.002 A 
ATOM      6  C6  I4B d   1       1.158  -0.979  -0.759  0.00  0.00     0.003 A 
ENDROOT
BRANCH   1   7
ATOM      7  C1' I4B d   1       3.640  -1.118  -1.102  0.00  0.00     0.060 C 
BRANCH   7   8
ATOM      8  C2' I4B d   1       3.444  -0.911  -2.590  0.00  0.00    -0.013 C 
ATOM      9  C4' I4B d   1       3.284   0.549  -2.921  0.00  0.00     0.013 C 
ATOM     10  C3' I4B d   1       4.626  -1.501  -3.299  0.00  0.00     0.013 C 
ENDBRANCH   7   8
ENDBRANCH   1   7
TORSDOF 2
ENDMDL
