MODEL 1
REMARK minimizedAffinity 4.07665682
REMARK minimizedRMSD -1
REMARK  2 active torsions:
REMARK  status: ('A' for Active; 'I' for Inactive)
REMARK    1  A    between atoms: C2'_3  and  C1'_4 
REMARK    2  A    between atoms: C1'_4  and  C1_5 
ROOT
ATOM      1  C1  I4B d   1       1.637  -0.286   0.611  0.00  0.00    -0.075 A 
ATOM      2  C2  I4B d   1       0.994  -0.389   1.819  0.00  0.00     0.003 A 
ATOM      3  C3  I4B d   1       1.157   0.616   2.802  0.00  0.00     0.002 A 
ATOM      4  C4  I4B d   1       2.007   1.676   2.557  0.00  0.00    -0.004 A 
ATOM      5  C5  I4B d   1       2.640   1.791   1.323  0.00  0.00     0.002 A 
ATOM      6  C6  I4B d   1       2.445   0.811   0.339  0.00  0.00     0.003 A 
ENDROOT
BRANCH   1   7
ATOM      7  C1' I4B d   1       1.469  -1.382  -0.392  0.00  0.00     0.060 C 
BRANCH   7   8
ATOM      8  C2' I4B d   1      -0.016  -1.595  -0.606  0.00  0.00    -0.013 C 
ATOM      9  C4' I4B d   1      -0.605  -0.503  -1.460  0.00  0.00     0.013 C 
ATOM     10  C3' I4B d   1      -0.205  -2.940  -1.242  0.00  0.00     0.013 C 
ENDBRANCH   7   8
ENDBRANCH   1   7
TORSDOF 2
ENDMDL
