MODEL 1
REMARK minimizedAffinity 5.46758938
REMARK minimizedRMSD -1
REMARK  2 active torsions:
REMARK  status: ('A' for Active; 'I' for Inactive)
REMARK    1  A    between atoms: C2'_3  and  C1'_4 
REMARK    2  A    between atoms: C1'_4  and  C1_5 
ROOT
ATOM      1  C1  I4B d   1      -2.449  -0.185   1.695  0.00  0.00    -0.075 A 
ATOM      2  C2  I4B d   1      -2.875   1.115   1.575  0.00  0.00     0.003 A 
ATOM      3  C3  I4B d   1      -3.723   1.491   0.505  0.00  0.00     0.002 A 
ATOM      4  C4  I4B d   1      -4.077   0.554  -0.443  0.00  0.00    -0.004 A 
ATOM      5  C5  I4B d   1      -3.664  -0.768  -0.307  0.00  0.00     0.002 A 
ATOM      6  C6  I4B d   1      -2.854  -1.143   0.775  0.00  0.00     0.003 A 
ENDROOT
BRANCH   1   7
ATOM      7  C1' I4B d   1      -1.528  -0.540   2.818  0.00  0.00     0.060 C 
BRANCH   7   8
ATOM      8  C2' I4B d   1      -0.188   0.115   2.548  0.00  0.00    -0.013 C 
ATOM      9  C4' I4B d   1       0.728  -0.008   3.737  0.00  0.00     0.013 C 
ATOM     10  C3' I4B d   1       0.409  -0.535   1.336  0.00  0.00     0.013 C 
ENDBRANCH   7   8
ENDBRANCH   1   7
TORSDOF 2
ENDMDL
