MODEL 1
REMARK minimizedAffinity 2.53036714
REMARK minimizedRMSD -1
REMARK  1 active torsions:
REMARK  status: ('A' for Active; 'I' for Inactive)
REMARK    1  A    between atoms: C1_2  and  C2_3 
ROOT
ATOM      1  C2  UNL d   1      -0.588  -3.530   5.963  0.00  0.00    -0.077 A 
ATOM      2  C3  UNL d   1      -1.314  -4.729   5.961  0.00  0.00     0.002 A 
ATOM      3  C4  UNL d   1      -0.649  -5.957   5.973  0.00  0.00     0.002 A 
ATOM      4  C5  UNL d   1       0.744  -5.997   5.991  0.00  0.00    -0.004 A 
ATOM      5  C6  UNL d   1       1.475  -4.810   5.991  0.00  0.00     0.002 A 
ATOM      6  C7  UNL d   1       0.812  -3.582   5.978  0.00  0.00     0.002 A 
ENDROOT
BRANCH   1   7
ATOM      7  C1  UNL d   1      -1.303  -2.205   6.000  0.00  0.00     0.055 C 
ATOM      8  C   UNL d   1      -0.319  -1.044   5.999  0.00  0.00     0.019 C 
ENDBRANCH   1   7
TORSDOF 1
ENDMDL
