MODEL 1
REMARK minimizedAffinity 6.73954678
REMARK minimizedRMSD -1
REMARK  1 active torsions:
REMARK  status: ('A' for Active; 'I' for Inactive)
REMARK    1  A    between atoms: C1_2  and  C2_3 
ROOT
ATOM      1  C2  UNL d   1      -1.690  -4.981  -2.551  0.00  0.00    -0.077 A 
ATOM      2  C3  UNL d   1      -1.179  -3.688  -2.726  0.00  0.00     0.002 A 
ATOM      3  C4  UNL d   1      -0.359  -3.115  -1.751  0.00  0.00     0.002 A 
ATOM      4  C5  UNL d   1      -0.039  -3.831  -0.599  0.00  0.00    -0.004 A 
ATOM      5  C6  UNL d   1      -0.544  -5.117  -0.416  0.00  0.00     0.002 A 
ATOM      6  C7  UNL d   1      -1.365  -5.690  -1.388  0.00  0.00     0.002 A 
ENDROOT
BRANCH   1   7
ATOM      7  C1  UNL d   1      -2.535  -5.619  -3.623  0.00  0.00     0.055 C 
ATOM      8  C   UNL d   1      -1.698  -5.995  -4.837  0.00  0.00     0.019 C 
ENDBRANCH   1   7
TORSDOF 1
ENDMDL
