MODEL 1
REMARK minimizedAffinity 2.1057837
REMARK minimizedRMSD -1
REMARK  0 active torsions:
REMARK  status: ('A' for Active; 'I' for Inactive)
ROOT
ATOM      1  C   UNL d   1       2.087  -0.786   0.021  0.00  0.00     0.078 C 
ATOM      2  C1  UNL d   1       1.509   0.552  -0.328  0.00  0.00    -0.077 A 
ATOM      3  C2  UNL d   1       1.243   0.898  -1.659  0.00  0.00    -0.001 A 
ATOM      4  C3  UNL d   1       0.715   2.152  -1.970  0.00  0.00     0.003 A 
ATOM      5  C4  UNL d   1       0.448   3.070  -0.957  0.00  0.00    -0.005 A 
ATOM      6  C5  UNL d   1       0.711   2.736   0.370  0.00  0.00     0.003 A 
ATOM      7  C6  UNL d   1       1.240   1.483   0.683  0.00  0.00    -0.001 A 
ENDROOT
TORSDOF 0
ENDMDL
