MODEL 1
REMARK minimizedAffinity -5.55971336
REMARK minimizedRMSD -1
REMARK  0 active torsions:
REMARK  status: ('A' for Active; 'I' for Inactive)
ROOT
ATOM      1  C   UNL d   1       1.400  -0.118  -0.686  0.00  0.00     0.078 C 
ATOM      2  C1  UNL d   1       1.168   1.363  -0.665  0.00  0.00    -0.077 A 
ATOM      3  C2  UNL d   1       1.251   2.123  -1.838  0.00  0.00    -0.001 A 
ATOM      4  C3  UNL d   1       1.042   3.503  -1.801  0.00  0.00     0.003 A 
ATOM      5  C4  UNL d   1       0.751   4.135  -0.593  0.00  0.00    -0.005 A 
ATOM      6  C5  UNL d   1       0.669   3.387   0.579  0.00  0.00     0.003 A 
ATOM      7  C6  UNL d   1       0.877   2.007   0.545  0.00  0.00    -0.001 A 
ENDROOT
TORSDOF 0
ENDMDL
