MODEL 1
REMARK minimizedAffinity -3.31200123
REMARK minimizedRMSD -1
REMARK  0 active torsions:
REMARK  status: ('A' for Active; 'I' for Inactive)
ROOT
ATOM      1  C   UNL d   1       1.468  -1.505  -1.296  0.00  0.00     0.078 C 
ATOM      2  C1  UNL d   1       1.297  -0.285  -0.441  0.00  0.00    -0.077 A 
ATOM      3  C2  UNL d   1       1.898  -0.199   0.822  0.00  0.00    -0.001 A 
ATOM      4  C3  UNL d   1       1.722   0.938   1.611  0.00  0.00     0.003 A 
ATOM      5  C4  UNL d   1       0.945   1.998   1.148  0.00  0.00    -0.005 A 
ATOM      6  C5  UNL d   1       0.342   1.921  -0.106  0.00  0.00     0.003 A 
ATOM      7  C6  UNL d   1       0.517   0.784  -0.897  0.00  0.00    -0.001 A 
ENDROOT
TORSDOF 0
ENDMDL
