MODEL 1
REMARK minimizedAffinity -4.5414753
REMARK minimizedRMSD -1
REMARK  0 active torsions:
REMARK  status: ('A' for Active; 'I' for Inactive)
ROOT
ATOM      1  C   UNL d   1       0.841  -1.344  -1.437  0.00  0.00     0.078 C 
ATOM      2  C1  UNL d   1       0.995   0.068  -0.958  0.00  0.00    -0.077 A 
ATOM      3  C2  UNL d   1       1.097   1.130  -1.864  0.00  0.00    -0.001 A 
ATOM      4  C3  UNL d   1       1.249   2.439  -1.404  0.00  0.00     0.003 A 
ATOM      5  C4  UNL d   1       1.301   2.698  -0.036  0.00  0.00    -0.005 A 
ATOM      6  C5  UNL d   1       1.202   1.647   0.874  0.00  0.00     0.003 A 
ATOM      7  C6  UNL d   1       1.050   0.338   0.415  0.00  0.00    -0.001 A 
ENDROOT
TORSDOF 0
ENDMDL
