MODEL 1
REMARK minimizedAffinity -3.19476628
REMARK minimizedRMSD -1
REMARK  0 active torsions:
REMARK  status: ('A' for Active; 'I' for Inactive)
ROOT
ATOM      1  C   UNL d   1       1.184  -0.616  -0.897  0.00  0.00     0.078 C 
ATOM      2  C1  UNL d   1       1.080   0.873  -0.757  0.00  0.00    -0.077 A 
ATOM      3  C2  UNL d   1       1.070   1.479   0.506  0.00  0.00    -0.001 A 
ATOM      4  C3  UNL d   1       0.962   2.866   0.622  0.00  0.00     0.003 A 
ATOM      5  C4  UNL d   1       0.863   3.658  -0.520  0.00  0.00    -0.005 A 
ATOM      6  C5  UNL d   1       0.870   3.064  -1.780  0.00  0.00     0.003 A 
ATOM      7  C6  UNL d   1       0.977   1.677  -1.898  0.00  0.00    -0.001 A 
ENDROOT
TORSDOF 0
ENDMDL
