MODEL 1
REMARK minimizedAffinity 5.2102437
REMARK minimizedRMSD -1
REMARK  0 active torsions:
REMARK  status: ('A' for Active; 'I' for Inactive)
ROOT
ATOM      1  C   UNL d   1       1.699   2.592   1.462  0.00  0.00     0.078 C 
ATOM      2  C1  UNL d   1       1.601   1.931   0.120  0.00  0.00    -0.077 A 
ATOM      3  C2  UNL d   1       1.120   2.628  -0.995  0.00  0.00    -0.001 A 
ATOM      4  C3  UNL d   1       1.025   1.996  -2.236  0.00  0.00     0.003 A 
ATOM      5  C4  UNL d   1       1.409   0.664  -2.374  0.00  0.00    -0.005 A 
ATOM      6  C5  UNL d   1       1.887  -0.039  -1.270  0.00  0.00     0.003 A 
ATOM      7  C6  UNL d   1       1.982   0.591  -0.028  0.00  0.00    -0.001 A 
ENDROOT
TORSDOF 0
ENDMDL
