MODEL 1
REMARK minimizedAffinity 1.41758811
REMARK minimizedRMSD -1
REMARK  0 active torsions:
REMARK  status: ('A' for Active; 'I' for Inactive)
ROOT
ATOM      1  C   UNL d   1       0.799   2.522  -2.182  0.00  0.00     0.078 C 
ATOM      2  C1  UNL d   1       0.912   1.481  -1.108  0.00  0.00    -0.077 A 
ATOM      3  C2  UNL d   1       1.055   1.845   0.237  0.00  0.00    -0.001 A 
ATOM      4  C3  UNL d   1       1.169   0.866   1.225  0.00  0.00     0.003 A 
ATOM      5  C4  UNL d   1       1.142  -0.484   0.878  0.00  0.00    -0.005 A 
ATOM      6  C5  UNL d   1       1.003  -0.855  -0.457  0.00  0.00     0.003 A 
ATOM      7  C6  UNL d   1       0.889   0.123  -1.447  0.00  0.00    -0.001 A 
ENDROOT
TORSDOF 0
ENDMDL
