MODEL 1
REMARK minimizedAffinity -3.93382049
REMARK minimizedRMSD -1
REMARK  0 active torsions:
REMARK  status: ('A' for Active; 'I' for Inactive)
ROOT
ATOM      1  C   UNL d   1       1.209   3.922  -1.741  0.00  0.00     0.078 C 
ATOM      2  C1  UNL d   1       1.118   2.575  -1.089  0.00  0.00    -0.077 A 
ATOM      3  C2  UNL d   1       0.852   2.452   0.280  0.00  0.00    -0.001 A 
ATOM      4  C3  UNL d   1       0.779   1.192   0.875  0.00  0.00     0.003 A 
ATOM      5  C4  UNL d   1       0.973   0.044   0.109  0.00  0.00    -0.005 A 
ATOM      6  C5  UNL d   1       1.240   0.156  -1.254  0.00  0.00     0.003 A 
ATOM      7  C6  UNL d   1       1.313   1.416  -1.851  0.00  0.00    -0.001 A 
ENDROOT
TORSDOF 0
ENDMDL
