MODEL 1
REMARK minimizedAffinity 0.213848293
REMARK minimizedRMSD -1
REMARK  0 active torsions:
REMARK  status: ('A' for Active; 'I' for Inactive)
ROOT
ATOM      1  C   UNL d   1       1.103   1.775  -1.849  0.00  0.00     0.078 C 
ATOM      2  C1  UNL d   1       1.333   0.337  -1.490  0.00  0.00    -0.077 A 
ATOM      3  C2  UNL d   1       0.767  -0.695  -2.248  0.00  0.00    -0.001 A 
ATOM      4  C3  UNL d   1       0.981  -2.029  -1.896  0.00  0.00     0.003 A 
ATOM      5  C4  UNL d   1       1.761  -2.343  -0.785  0.00  0.00    -0.005 A 
ATOM      6  C5  UNL d   1       2.327  -1.322  -0.023  0.00  0.00     0.003 A 
ATOM      7  C6  UNL d   1       2.113   0.012  -0.373  0.00  0.00    -0.001 A 
ENDROOT
TORSDOF 0
ENDMDL
