MODEL 1
REMARK minimizedAffinity 1.05192864
REMARK minimizedRMSD -1
REMARK  0 active torsions:
REMARK  status: ('A' for Active; 'I' for Inactive)
ROOT
ATOM      1  C   UNL d   1       1.222   3.251  -1.716  0.00  0.00     0.078 C 
ATOM      2  C1  UNL d   1       1.146   1.957  -0.961  0.00  0.00    -0.077 A 
ATOM      3  C2  UNL d   1       1.304   1.924   0.430  0.00  0.00    -0.001 A 
ATOM      4  C3  UNL d   1       1.241   0.712   1.118  0.00  0.00     0.003 A 
ATOM      5  C4  UNL d   1       1.021  -0.476   0.425  0.00  0.00    -0.005 A 
ATOM      6  C5  UNL d   1       0.864  -0.453  -0.960  0.00  0.00     0.003 A 
ATOM      7  C6  UNL d   1       0.928   0.758  -1.650  0.00  0.00    -0.001 A 
ENDROOT
TORSDOF 0
ENDMDL
