MODEL 1
REMARK minimizedAffinity 0.824135065
REMARK minimizedRMSD -1
REMARK  0 active torsions:
REMARK  status: ('A' for Active; 'I' for Inactive)
ROOT
ATOM      1  C   UNL d   1       2.392   1.362   2.544  0.00  0.00     0.078 C 
ATOM      2  C1  UNL d   1       1.786   1.091   1.200  0.00  0.00    -0.077 A 
ATOM      3  C2  UNL d   1       1.159   2.110   0.472  0.00  0.00    -0.001 A 
ATOM      4  C3  UNL d   1       0.591   1.840  -0.774  0.00  0.00     0.003 A 
ATOM      5  C4  UNL d   1       0.642   0.552  -1.302  0.00  0.00    -0.005 A 
ATOM      6  C5  UNL d   1       1.261  -0.469  -0.584  0.00  0.00     0.003 A 
ATOM      7  C6  UNL d   1       1.830  -0.202   0.662  0.00  0.00    -0.001 A 
ENDROOT
TORSDOF 0
ENDMDL
