MODEL 1
REMARK minimizedAffinity -2.46911168
REMARK minimizedRMSD -1
REMARK  0 active torsions:
REMARK  status: ('A' for Active; 'I' for Inactive)
ROOT
ATOM      1  C   UNL d   1       0.666   2.851  -1.330  0.00  0.00     0.078 C 
ATOM      2  C1  UNL d   1       0.930   1.396  -1.081  0.00  0.00    -0.077 A 
ATOM      3  C2  UNL d   1       0.325   0.408  -1.869  0.00  0.00    -0.001 A 
ATOM      4  C3  UNL d   1       0.572  -0.943  -1.619  0.00  0.00     0.003 A 
ATOM      5  C4  UNL d   1       1.423  -1.319  -0.582  0.00  0.00    -0.005 A 
ATOM      6  C5  UNL d   1       2.028  -0.343   0.208  0.00  0.00     0.003 A 
ATOM      7  C6  UNL d   1       1.782   1.008  -0.040  0.00  0.00    -0.001 A 
ENDROOT
TORSDOF 0
ENDMDL
