MODEL 1
REMARK minimizedAffinity 14.0358362
REMARK minimizedRMSD -1
REMARK  2 active torsions:
REMARK  status: ('A' for Active; 'I' for Inactive)
REMARK    1  A    between atoms: C2'_3  and  C1'_4 
REMARK    2  A    between atoms: C1'_4  and  C1_5 
ROOT
ATOM      1  C1  I4B d   1      -1.682   1.660   1.690  0.00  0.00    -0.075 A 
ATOM      2  C2  I4B d   1      -0.518   0.942   1.811  0.00  0.00     0.003 A 
ATOM      3  C3  I4B d   1       0.601   1.506   2.470  0.00  0.00     0.002 A 
ATOM      4  C4  I4B d   1       0.530   2.800   2.945  0.00  0.00    -0.004 A 
ATOM      5  C5  I4B d   1      -0.658   3.517   2.841  0.00  0.00     0.002 A 
ATOM      6  C6  I4B d   1      -1.775   2.940   2.221  0.00  0.00     0.003 A 
ENDROOT
BRANCH   1   7
ATOM      7  C1' I4B d   1      -2.834   1.046   0.959  0.00  0.00     0.060 C 
BRANCH   7   8
ATOM      8  C2' I4B d   1      -2.810  -0.446   1.219  0.00  0.00    -0.013 C 
ATOM      9  C4' I4B d   1      -2.750  -0.742   2.694  0.00  0.00     0.013 C 
ATOM     10  C3' I4B d   1      -4.036  -1.045   0.596  0.00  0.00     0.013 C 
ENDBRANCH   7   8
ENDBRANCH   1   7
TORSDOF 2
ENDMDL
