MODEL 1
REMARK minimizedAffinity 15.674159
REMARK minimizedRMSD -1
REMARK  2 active torsions:
REMARK  status: ('A' for Active; 'I' for Inactive)
REMARK    1  A    between atoms: C2'_3  and  C1'_4 
REMARK    2  A    between atoms: C1'_4  and  C1_5 
ROOT
ATOM      1  C1  I4B d   1      -4.117  -0.563   0.921  0.00  0.00    -0.075 A 
ATOM      2  C2  I4B d   1      -3.944   0.712   0.444  0.00  0.00     0.003 A 
ATOM      3  C3  I4B d   1      -2.885   1.517   0.928  0.00  0.00     0.002 A 
ATOM      4  C4  I4B d   1      -2.058   1.029   1.920  0.00  0.00    -0.004 A 
ATOM      5  C5  I4B d   1      -2.221  -0.273   2.386  0.00  0.00     0.002 A 
ATOM      6  C6  I4B d   1      -3.249  -1.078   1.875  0.00  0.00     0.003 A 
ENDROOT
BRANCH   1   7
ATOM      7  C1' I4B d   1      -5.266  -1.373   0.412  0.00  0.00     0.060 C 
BRANCH   7   8
ATOM      8  C2' I4B d   1      -4.947  -2.836   0.646  0.00  0.00    -0.013 C 
ATOM      9  C4' I4B d   1      -5.995  -3.492   1.505  0.00  0.00     0.013 C 
ATOM     10  C3' I4B d   1      -4.843  -3.507  -0.690  0.00  0.00     0.013 C 
ENDBRANCH   7   8
ENDBRANCH   1   7
TORSDOF 2
ENDMDL
