MODEL 1
REMARK minimizedAffinity -0.148722023
REMARK minimizedRMSD -1
REMARK  2 active torsions:
REMARK  status: ('A' for Active; 'I' for Inactive)
REMARK    1  A    between atoms: C2'_3  and  C1'_4 
REMARK    2  A    between atoms: C1'_4  and  C1_5 
ROOT
ATOM      1  C1  I4B d   1      -0.329  -0.122  -1.803  0.00  0.00    -0.075 A 
ATOM      2  C2  I4B d   1       0.936   0.165  -2.251  0.00  0.00     0.003 A 
ATOM      3  C3  I4B d   1       1.459  -0.501  -3.386  0.00  0.00     0.002 A 
ATOM      4  C4  I4B d   1       0.706  -1.476  -4.008  0.00  0.00    -0.004 A 
ATOM      5  C5  I4B d   1      -0.585  -1.749  -3.567  0.00  0.00     0.002 A 
ATOM      6  C6  I4B d   1      -1.112  -1.059  -2.465  0.00  0.00     0.003 A 
ENDROOT
BRANCH   1   7
ATOM      7  C1' I4B d   1      -0.837   0.576  -0.581  0.00  0.00     0.060 C 
BRANCH   7   8
ATOM      8  C2' I4B d   1      -0.067   0.049   0.612  0.00  0.00    -0.013 C 
ATOM      9  C4' I4B d   1       1.274   0.724   0.737  0.00  0.00     0.013 C 
ATOM     10  C3' I4B d   1      -0.902   0.272   1.837  0.00  0.00     0.013 C 
ENDBRANCH   7   8
ENDBRANCH   1   7
TORSDOF 2
ENDMDL
