MODEL 1
REMARK minimizedAffinity -4.22781801
REMARK minimizedRMSD -1
REMARK  2 active torsions:
REMARK  status: ('A' for Active; 'I' for Inactive)
REMARK    1  A    between atoms: C2'_3  and  C1'_4 
REMARK    2  A    between atoms: C1'_4  and  C1_5 
ROOT
ATOM      1  C1  I4B d   1      -1.750  -0.459  -1.450  0.00  0.00    -0.075 A 
ATOM      2  C2  I4B d   1      -3.008   0.005  -1.745  0.00  0.00     0.003 A 
ATOM      3  C3  I4B d   1      -3.884  -0.769  -2.543  0.00  0.00     0.002 A 
ATOM      4  C4  I4B d   1      -3.447  -1.970  -3.063  0.00  0.00    -0.004 A 
ATOM      5  C5  I4B d   1      -2.180  -2.450  -2.743  0.00  0.00     0.002 A 
ATOM      6  C6  I4B d   1      -1.330  -1.695  -1.922  0.00  0.00     0.003 A 
ENDROOT
BRANCH   1   7
ATOM      7  C1' I4B d   1      -0.839   0.400  -0.632  0.00  0.00     0.060 C 
BRANCH   7   8
ATOM      8  C2' I4B d   1       0.569  -0.140  -0.779  0.00  0.00    -0.013 C 
ATOM      9  C4' I4B d   1       1.143   0.195  -2.131  0.00  0.00     0.013 C 
ATOM     10  C3' I4B d   1       1.405   0.438   0.323  0.00  0.00     0.013 C 
ENDBRANCH   7   8
ENDBRANCH   1   7
TORSDOF 2
ENDMDL
