MODEL 1
REMARK minimizedAffinity -4.32590437
REMARK minimizedRMSD -1
REMARK  2 active torsions:
REMARK  status: ('A' for Active; 'I' for Inactive)
REMARK    1  A    between atoms: C2'_3  and  C1'_4 
REMARK    2  A    between atoms: C1'_4  and  C1_5 
ROOT
ATOM      1  C1  I4B d   1      -1.875  -3.321  -2.314  0.00  0.00    -0.075 A 
ATOM      2  C2  I4B d   1      -2.626  -3.854  -1.297  0.00  0.00     0.003 A 
ATOM      3  C3  I4B d   1      -2.996  -5.221  -1.325  0.00  0.00     0.002 A 
ATOM      4  C4  I4B d   1      -2.639  -6.000  -2.406  0.00  0.00    -0.004 A 
ATOM      5  C5  I4B d   1      -1.858  -5.463  -3.426  0.00  0.00     0.002 A 
ATOM      6  C6  I4B d   1      -1.462  -4.118  -3.374  0.00  0.00     0.003 A 
ENDROOT
BRANCH   1   7
ATOM      7  C1' I4B d   1      -1.530  -1.866  -2.269  0.00  0.00     0.060 C 
BRANCH   7   8
ATOM      8  C2' I4B d   1      -2.620  -1.152  -1.497  0.00  0.00    -0.013 C 
ATOM      9  C4' I4B d   1      -2.039  -0.250  -0.440  0.00  0.00     0.013 C 
ATOM     10  C3' I4B d   1      -3.448  -0.374  -2.477  0.00  0.00     0.013 C 
ENDBRANCH   7   8
ENDBRANCH   1   7
TORSDOF 2
ENDMDL
