MODEL 1
REMARK minimizedAffinity -5.1928215
REMARK minimizedRMSD -1
REMARK  2 active torsions:
REMARK  status: ('A' for Active; 'I' for Inactive)
REMARK    1  A    between atoms: C2'_3  and  C1'_4 
REMARK    2  A    between atoms: C1'_4  and  C1_5 
ROOT
ATOM      1  C1  I4B d   1      -0.055   0.053  -0.036  0.00  0.00    -0.075 A 
ATOM      2  C2  I4B d   1       1.077   0.449   0.631  0.00  0.00     0.003 A 
ATOM      3  C3  I4B d   1       1.227   0.167   2.011  0.00  0.00     0.002 A 
ATOM      4  C4  I4B d   1       0.205  -0.464   2.691  0.00  0.00    -0.004 A 
ATOM      5  C5  I4B d   1      -0.933  -0.885   2.007  0.00  0.00     0.002 A 
ATOM      6  C6  I4B d   1      -1.059  -0.636   0.633  0.00  0.00     0.003 A 
ENDROOT
BRANCH   1   7
ATOM      7  C1' I4B d   1      -0.194   0.396  -1.485  0.00  0.00     0.060 C 
BRANCH   7   8
ATOM      8  C2' I4B d   1       0.383  -0.748  -2.293  0.00  0.00    -0.013 C 
ATOM      9  C4' I4B d   1      -0.694  -1.479  -3.050  0.00  0.00     0.013 C 
ATOM     10  C3' I4B d   1       1.411  -0.182  -3.227  0.00  0.00     0.013 C 
ENDBRANCH   7   8
ENDBRANCH   1   7
TORSDOF 2
ENDMDL
