MODEL 1
REMARK minimizedAffinity -3.15103507
REMARK minimizedRMSD -1
REMARK  2 active torsions:
REMARK  status: ('A' for Active; 'I' for Inactive)
REMARK    1  A    between atoms: C2'_3  and  C1'_4 
REMARK    2  A    between atoms: C1'_4  and  C1_5 
ROOT
ATOM      1  C1  I4B d   1      -1.282  -0.156   0.285  0.00  0.00    -0.075 A 
ATOM      2  C2  I4B d   1      -2.337  -0.181   1.162  0.00  0.00     0.003 A 
ATOM      3  C3  I4B d   1      -2.106  -0.324   2.552  0.00  0.00     0.002 A 
ATOM      4  C4  I4B d   1      -0.815  -0.488   3.013  0.00  0.00    -0.004 A 
ATOM      5  C5  I4B d   1       0.255  -0.439   2.124  0.00  0.00     0.002 A 
ATOM      6  C6  I4B d   1       0.022  -0.260   0.753  0.00  0.00     0.003 A 
ENDROOT
BRANCH   1   7
ATOM      7  C1' I4B d   1      -1.564  -0.037  -1.179  0.00  0.00     0.060 C 
BRANCH   7   8
ATOM      8  C2' I4B d   1      -0.611  -0.957  -1.915  0.00  0.00    -0.013 C 
ATOM      9  C4' I4B d   1      -1.324  -1.732  -2.992  0.00  0.00     0.013 C 
ATOM     10  C3' I4B d   1       0.491  -0.119  -2.490  0.00  0.00     0.013 C 
ENDBRANCH   7   8
ENDBRANCH   1   7
TORSDOF 2
ENDMDL
