MODEL 1
REMARK minimizedAffinity -4.96484709
REMARK minimizedRMSD -1
REMARK  2 active torsions:
REMARK  status: ('A' for Active; 'I' for Inactive)
REMARK    1  A    between atoms: C2'_3  and  C1'_4 
REMARK    2  A    between atoms: C1'_4  and  C1_5 
ROOT
ATOM      1  C1  I4B d   1      -0.427  -0.294  -1.396  0.00  0.00    -0.075 A 
ATOM      2  C2  I4B d   1       0.658  -0.099  -2.214  0.00  0.00     0.003 A 
ATOM      3  C3  I4B d   1       0.791  -0.843  -3.412  0.00  0.00     0.002 A 
ATOM      4  C4  I4B d   1      -0.152  -1.800  -3.726  0.00  0.00    -0.004 A 
ATOM      5  C5  I4B d   1      -1.263  -1.980  -2.907  0.00  0.00     0.002 A 
ATOM      6  C6  I4B d   1      -1.408  -1.214  -1.741  0.00  0.00     0.003 A 
ENDROOT
BRANCH   1   7
ATOM      7  C1' I4B d   1      -0.519   0.484  -0.122  0.00  0.00     0.060 C 
BRANCH   7   8
ATOM      8  C2' I4B d   1       0.469  -0.111   0.861  0.00  0.00    -0.013 C 
ATOM      9  C4' I4B d   1       1.679   0.772   1.020  0.00  0.00     0.013 C 
ATOM     10  C3' I4B d   1      -0.238  -0.301   2.169  0.00  0.00     0.013 C 
ENDBRANCH   7   8
ENDBRANCH   1   7
TORSDOF 2
ENDMDL
