MODEL 1
REMARK minimizedAffinity -3.39874697
REMARK minimizedRMSD -1
REMARK  2 active torsions:
REMARK  status: ('A' for Active; 'I' for Inactive)
REMARK    1  A    between atoms: C2'_3  and  C1'_4 
REMARK    2  A    between atoms: C1'_4  and  C1_5 
ROOT
ATOM      1  C1  I4B d   1       0.311  -0.357  -0.916  0.00  0.00    -0.075 A 
ATOM      2  C2  I4B d   1      -0.930  -0.856  -0.607  0.00  0.00     0.003 A 
ATOM      3  C3  I4B d   1      -1.414  -0.789   0.722  0.00  0.00     0.002 A 
ATOM      4  C4  I4B d   1      -0.609  -0.264   1.713  0.00  0.00    -0.004 A 
ATOM      5  C5  I4B d   1       0.639   0.263   1.393  0.00  0.00     0.002 A 
ATOM      6  C6  I4B d   1       1.097   0.227   0.068  0.00  0.00     0.003 A 
ENDROOT
BRANCH   1   7
ATOM      7  C1' I4B d   1       0.804  -0.475  -2.324  0.00  0.00     0.060 C 
BRANCH   7   8
ATOM      8  C2' I4B d   1       0.834  -1.945  -2.687  0.00  0.00    -0.013 C 
ATOM      9  C4' I4B d   1      -0.529  -2.431  -3.106  0.00  0.00     0.013 C 
ATOM     10  C3' I4B d   1       1.836  -2.131  -3.786  0.00  0.00     0.013 C 
ENDBRANCH   7   8
ENDBRANCH   1   7
TORSDOF 2
ENDMDL
