MODEL 1
REMARK minimizedAffinity -3.86144948
REMARK minimizedRMSD -1
REMARK  2 active torsions:
REMARK  status: ('A' for Active; 'I' for Inactive)
REMARK    1  A    between atoms: C2'_3  and  C1'_4 
REMARK    2  A    between atoms: C1'_4  and  C1_5 
ROOT
ATOM      1  C1  I4B d   1      -2.198  -2.309  -2.223  0.00  0.00    -0.075 A 
ATOM      2  C2  I4B d   1      -2.925  -1.288  -1.664  0.00  0.00     0.003 A 
ATOM      3  C3  I4B d   1      -2.273  -0.124  -1.191  0.00  0.00     0.002 A 
ATOM      4  C4  I4B d   1      -0.896  -0.045  -1.250  0.00  0.00    -0.004 A 
ATOM      5  C5  I4B d   1      -0.163  -1.071  -1.839  0.00  0.00     0.002 A 
ATOM      6  C6  I4B d   1      -0.818  -2.205  -2.340  0.00  0.00     0.003 A 
ENDROOT
BRANCH   1   7
ATOM      7  C1' I4B d   1      -2.917  -3.538  -2.683  0.00  0.00     0.060 C 
BRANCH   7   8
ATOM      8  C2' I4B d   1      -2.357  -4.720  -1.917  0.00  0.00    -0.013 C 
ATOM      9  C4' I4B d   1      -3.420  -5.378  -1.077  0.00  0.00     0.013 C 
ATOM     10  C3' I4B d   1      -1.778  -5.683  -2.910  0.00  0.00     0.013 C 
ENDBRANCH   7   8
ENDBRANCH   1   7
TORSDOF 2
ENDMDL
