MODEL 1
REMARK minimizedAffinity 19.4492092
REMARK minimizedRMSD -1
REMARK  0 active torsions:
REMARK  status: ('A' for Active; 'I' for Inactive)
ROOT
ATOM      1  C2' OXE d   1      -0.464  -4.448   1.458  0.00  0.00     0.078 C 
ATOM      2  C1' OXE d   1      -2.425  -2.844   2.666  0.00  0.00     0.078 C 
ATOM      3  C1  OXE d   1      -1.984  -2.483   1.269  0.00  0.00    -0.078 A 
ATOM      4  C2  OXE d   1      -0.990  -3.245   0.704  0.00  0.00    -0.078 A 
ATOM      5  C3  OXE d   1      -0.584  -2.990  -0.603  0.00  0.00     0.003 A 
ATOM      6  C4  OXE d   1      -1.069  -1.870  -1.289  0.00  0.00    -0.002 A 
ATOM      7  C5  OXE d   1      -2.052  -1.057  -0.717  0.00  0.00    -0.002 A 
ATOM      8  C6  OXE d   1      -2.551  -1.374   0.542  0.00  0.00     0.003 A 
ENDROOT
TORSDOF 0
ENDMDL
