MODEL 1
REMARK minimizedAffinity 0.744129062
REMARK minimizedRMSD -1
REMARK  0 active torsions:
REMARK  status: ('A' for Active; 'I' for Inactive)
ROOT
ATOM      1  C2' OXE d   1      -1.548  -5.372   4.113  0.00  0.00     0.078 C 
ATOM      2  C1' OXE d   1      -2.395  -2.707   3.864  0.00  0.00     0.078 C 
ATOM      3  C1  OXE d   1      -1.743  -3.352   2.667  0.00  0.00    -0.078 A 
ATOM      4  C2  OXE d   1      -1.289  -4.641   2.813  0.00  0.00    -0.078 A 
ATOM      5  C3  OXE d   1      -0.729  -5.302   1.723  0.00  0.00     0.003 A 
ATOM      6  C4  OXE d   1      -0.484  -4.616   0.527  0.00  0.00    -0.002 A 
ATOM      7  C5  OXE d   1      -0.902  -3.290   0.371  0.00  0.00    -0.002 A 
ATOM      8  C6  OXE d   1      -1.570  -2.659   1.415  0.00  0.00     0.003 A 
ENDROOT
TORSDOF 0
ENDMDL
