MODEL 1
REMARK minimizedAffinity 20.4357662
REMARK minimizedRMSD -1
REMARK  0 active torsions:
REMARK  status: ('A' for Active; 'I' for Inactive)
ROOT
ATOM      1  C2' OXE d   1      -0.468  -4.858   0.800  0.00  0.00     0.078 C 
ATOM      2  C1' OXE d   1      -2.319  -2.940   1.680  0.00  0.00     0.078 C 
ATOM      3  C1  OXE d   1      -1.679  -2.733   0.330  0.00  0.00    -0.078 A 
ATOM      4  C2  OXE d   1      -0.740  -3.652  -0.072  0.00  0.00    -0.078 A 
ATOM      5  C3  OXE d   1      -0.160  -3.538  -1.332  0.00  0.00     0.003 A 
ATOM      6  C4  OXE d   1      -0.409  -2.414  -2.129  0.00  0.00    -0.002 A 
ATOM      7  C5  OXE d   1      -1.333  -1.445  -1.721  0.00  0.00    -0.002 A 
ATOM      8  C6  OXE d   1      -2.007  -1.611  -0.516  0.00  0.00     0.003 A 
ENDROOT
TORSDOF 0
ENDMDL
