MODEL 1
REMARK minimizedAffinity 10.2580223
REMARK minimizedRMSD -1
REMARK  0 active torsions:
REMARK  status: ('A' for Active; 'I' for Inactive)
ROOT
ATOM      1  C2' OXE d   1       0.141   2.714  -4.696  0.00  0.00     0.078 C 
ATOM      2  C1' OXE d   1      -2.642   2.836  -4.346  0.00  0.00     0.078 C 
ATOM      3  C1  OXE d   1      -1.924   1.604  -3.855  0.00  0.00    -0.078 A 
ATOM      4  C2  OXE d   1      -0.569   1.532  -4.072  0.00  0.00    -0.078 A 
ATOM      5  C3  OXE d   1       0.150   0.442  -3.589  0.00  0.00     0.003 A 
ATOM      6  C4  OXE d   1      -0.516  -0.651  -3.022  0.00  0.00    -0.002 A 
ATOM      7  C5  OXE d   1      -1.901  -0.616  -2.828  0.00  0.00    -0.002 A 
ATOM      8  C6  OXE d   1      -2.613   0.519  -3.199  0.00  0.00     0.003 A 
ENDROOT
TORSDOF 0
ENDMDL
