MODEL 1
REMARK minimizedAffinity 15.470315
REMARK minimizedRMSD -1
REMARK  0 active torsions:
REMARK  status: ('A' for Active; 'I' for Inactive)
ROOT
ATOM      1  C2' OXE d   1      -2.022  -1.198  -2.947  0.00  0.00     0.078 C 
ATOM      2  C1' OXE d   1      -1.467  -0.972  -0.205  0.00  0.00     0.078 C 
ATOM      3  C1  OXE d   1      -1.137  -2.278  -0.884  0.00  0.00    -0.078 A 
ATOM      4  C2  OXE d   1      -1.456  -2.396  -2.216  0.00  0.00    -0.078 A 
ATOM      5  C3  OXE d   1      -1.123  -3.559  -2.904  0.00  0.00     0.003 A 
ATOM      6  C4  OXE d   1      -0.608  -4.666  -2.218  0.00  0.00    -0.002 A 
ATOM      7  C5  OXE d   1      -0.313  -4.581  -0.853  0.00  0.00    -0.002 A 
ATOM      8  C6  OXE d   1      -0.532  -3.383  -0.182  0.00  0.00     0.003 A 
ENDROOT
TORSDOF 0
ENDMDL
