MODEL 1
REMARK minimizedAffinity 12.1960325
REMARK minimizedRMSD -1
REMARK  0 active torsions:
REMARK  status: ('A' for Active; 'I' for Inactive)
ROOT
ATOM      1  C2' OXE d   1       0.083  -2.877   1.438  0.00  0.00     0.078 C 
ATOM      2  C1' OXE d   1      -2.051  -2.403   3.199  0.00  0.00     0.078 C 
ATOM      3  C1  OXE d   1      -0.650  -2.216   3.725  0.00  0.00    -0.078 A 
ATOM      4  C2  OXE d   1       0.389  -2.495   2.870  0.00  0.00    -0.078 A 
ATOM      5  C3  OXE d   1       1.700  -2.286   3.288  0.00  0.00     0.003 A 
ATOM      6  C4  OXE d   1       1.975  -1.942   4.617  0.00  0.00    -0.002 A 
ATOM      7  C5  OXE d   1       0.932  -1.691   5.515  0.00  0.00    -0.002 A 
ATOM      8  C6  OXE d   1      -0.384  -1.782   5.074  0.00  0.00     0.003 A 
ENDROOT
TORSDOF 0
ENDMDL
