MODEL 1
REMARK minimizedAffinity 10.6516085
REMARK minimizedRMSD -1
REMARK  0 active torsions:
REMARK  status: ('A' for Active; 'I' for Inactive)
ROOT
ATOM      1  C2' OXE d   1      -0.759  -4.505   1.119  0.00  0.00     0.078 C 
ATOM      2  C1' OXE d   1      -3.037  -3.385   2.318  0.00  0.00     0.078 C 
ATOM      3  C1  OXE d   1      -2.601  -2.834   0.983  0.00  0.00    -0.078 A 
ATOM      4  C2  OXE d   1      -1.459  -3.356   0.426  0.00  0.00    -0.078 A 
ATOM      5  C3  OXE d   1      -1.044  -2.922  -0.830  0.00  0.00     0.003 A 
ATOM      6  C4  OXE d   1      -1.691  -1.852  -1.460  0.00  0.00    -0.002 A 
ATOM      7  C5  OXE d   1      -2.834  -1.279  -0.891  0.00  0.00    -0.002 A 
ATOM      8  C6  OXE d   1      -3.325  -1.786   0.307  0.00  0.00     0.003 A 
ENDROOT
TORSDOF 0
ENDMDL
