MODEL 1
REMARK minimizedAffinity 12.6273327
REMARK minimizedRMSD -1
REMARK  0 active torsions:
REMARK  status: ('A' for Active; 'I' for Inactive)
ROOT
ATOM      1  C2' OXE d   1      -0.472  -4.434   1.141  0.00  0.00     0.078 C 
ATOM      2  C1' OXE d   1      -2.384  -2.790   2.373  0.00  0.00     0.078 C 
ATOM      3  C1  OXE d   1      -1.894  -2.394   1.003  0.00  0.00    -0.078 A 
ATOM      4  C2  OXE d   1      -0.924  -3.178   0.427  0.00  0.00    -0.078 A 
ATOM      5  C3  OXE d   1      -0.476  -2.889  -0.859  0.00  0.00     0.003 A 
ATOM      6  C4  OXE d   1      -0.892  -1.721  -1.508  0.00  0.00    -0.002 A 
ATOM      7  C5  OXE d   1      -1.850  -0.886  -0.923  0.00  0.00    -0.002 A 
ATOM      8  C6  OXE d   1      -2.392  -1.230   0.311  0.00  0.00     0.003 A 
ENDROOT
TORSDOF 0
ENDMDL
