MODEL 1
REMARK minimizedAffinity 17.7976856
REMARK minimizedRMSD -1
REMARK  0 active torsions:
REMARK  status: ('A' for Active; 'I' for Inactive)
ROOT
ATOM      1  C2' OXE d   1      -4.070   4.167  -4.486  0.00  0.00     0.078 C 
ATOM      2  C1' OXE d   1      -4.104   1.803  -5.999  0.00  0.00     0.078 C 
ATOM      3  C1  OXE d   1      -2.761   2.380  -5.628  0.00  0.00    -0.078 A 
ATOM      4  C2  OXE d   1      -2.754   3.563  -4.927  0.00  0.00    -0.078 A 
ATOM      5  C3  OXE d   1      -1.543   4.110  -4.512  0.00  0.00     0.003 A 
ATOM      6  C4  OXE d   1      -0.331   3.551  -4.933  0.00  0.00    -0.002 A 
ATOM      7  C5  OXE d   1      -0.316   2.368  -5.681  0.00  0.00    -0.002 A 
ATOM      8  C6  OXE d   1      -1.519   1.749  -5.999  0.00  0.00     0.003 A 
ENDROOT
TORSDOF 0
ENDMDL
