MODEL 1
REMARK minimizedAffinity 10.1927528
REMARK minimizedRMSD -1
REMARK  0 active torsions:
REMARK  status: ('A' for Active; 'I' for Inactive)
ROOT
ATOM      1  C2' OXE d   1      -3.010   4.843  -1.255  0.00  0.00     0.078 C 
ATOM      2  C1' OXE d   1      -3.032   2.859   0.730  0.00  0.00     0.078 C 
ATOM      3  C1  OXE d   1      -4.084   3.938   0.802  0.00  0.00    -0.078 A 
ATOM      4  C2  OXE d   1      -4.036   4.931  -0.146  0.00  0.00    -0.078 A 
ATOM      5  C3  OXE d   1      -5.016   5.920  -0.158  0.00  0.00     0.003 A 
ATOM      6  C4  OXE d   1      -5.955   5.999   0.877  0.00  0.00    -0.002 A 
ATOM      7  C5  OXE d   1      -5.996   5.020   1.875  0.00  0.00    -0.002 A 
ATOM      8  C6  OXE d   1      -5.096   3.961   1.829  0.00  0.00     0.003 A 
ENDROOT
TORSDOF 0
ENDMDL
