MODEL 1
REMARK minimizedAffinity 19.9206295
REMARK minimizedRMSD -1
REMARK  0 active torsions:
REMARK  status: ('A' for Active; 'I' for Inactive)
ROOT
ATOM      1  C2' OXE d   1      -4.563   1.904  -5.988  0.00  0.00     0.078 C 
ATOM      2  C1' OXE d   1      -2.693   2.886  -4.140  0.00  0.00     0.078 C 
ATOM      3  C1  OXE d   1      -3.783   3.821  -4.601  0.00  0.00    -0.078 A 
ATOM      4  C2  OXE d   1      -4.666   3.347  -5.541  0.00  0.00    -0.078 A 
ATOM      5  C3  OXE d   1      -5.724   4.149  -5.960  0.00  0.00     0.003 A 
ATOM      6  C4  OXE d   1      -5.806   5.485  -5.549  0.00  0.00    -0.002 A 
ATOM      7  C5  OXE d   1      -4.893   6.000  -4.622  0.00  0.00    -0.002 A 
ATOM      8  C6  OXE d   1      -3.903   5.170  -4.107  0.00  0.00     0.003 A 
ENDROOT
TORSDOF 0
ENDMDL
