MODEL 1
REMARK minimizedAffinity 16.3799381
REMARK minimizedRMSD -1
REMARK  0 active torsions:
REMARK  status: ('A' for Active; 'I' for Inactive)
ROOT
ATOM      1  C2' OXE d   1      -2.178  -1.053  -2.830  0.00  0.00     0.078 C 
ATOM      2  C1' OXE d   1      -2.349  -0.670  -0.054  0.00  0.00     0.078 C 
ATOM      3  C1  OXE d   1      -1.697  -1.936  -0.551  0.00  0.00    -0.078 A 
ATOM      4  C2  OXE d   1      -1.660  -2.137  -1.910  0.00  0.00    -0.078 A 
ATOM      5  C3  OXE d   1      -1.022  -3.263  -2.423  0.00  0.00     0.003 A 
ATOM      6  C4  OXE d   1      -0.554  -4.265  -1.565  0.00  0.00    -0.002 A 
ATOM      7  C5  OXE d   1      -0.618  -4.099  -0.178  0.00  0.00    -0.002 A 
ATOM      8  C6  OXE d   1      -1.147  -2.924   0.344  0.00  0.00     0.003 A 
ENDROOT
TORSDOF 0
ENDMDL
