MODEL 1
REMARK minimizedAffinity 18.7037392
REMARK minimizedRMSD -1
REMARK  0 active torsions:
REMARK  status: ('A' for Active; 'I' for Inactive)
ROOT
ATOM      1  C2' OXE d   1      -0.491  -3.400   0.271  0.00  0.00     0.078 C 
ATOM      2  C1' OXE d   1      -2.802  -1.882   0.752  0.00  0.00     0.078 C 
ATOM      3  C1  OXE d   1      -2.141  -1.748  -0.597  0.00  0.00    -0.078 A 
ATOM      4  C2  OXE d   1      -0.985  -2.459  -0.807  0.00  0.00    -0.078 A 
ATOM      5  C3  OXE d   1      -0.365  -2.415  -2.053  0.00  0.00     0.003 A 
ATOM      6  C4  OXE d   1      -0.823  -1.535  -3.041  0.00  0.00    -0.002 A 
ATOM      7  C5  OXE d   1      -1.976  -0.772  -2.833  0.00  0.00    -0.002 A 
ATOM      8  C6  OXE d   1      -2.670  -0.898  -1.635  0.00  0.00     0.003 A 
ENDROOT
TORSDOF 0
ENDMDL
