MODEL 1
REMARK minimizedAffinity 20.9756641
REMARK minimizedRMSD -1
REMARK  0 active torsions:
REMARK  status: ('A' for Active; 'I' for Inactive)
ROOT
ATOM      1  C2' OXE d   1      -3.382   0.521  -4.114  0.00  0.00     0.078 C 
ATOM      2  C1' OXE d   1      -4.199   2.435  -5.999  0.00  0.00     0.078 C 
ATOM      3  C1  OXE d   1      -2.773   2.491  -5.512  0.00  0.00    -0.078 A 
ATOM      4  C2  OXE d   1      -2.395   1.580  -4.555  0.00  0.00    -0.078 A 
ATOM      5  C3  OXE d   1      -1.075   1.554  -4.111  0.00  0.00     0.003 A 
ATOM      6  C4  OXE d   1      -0.171   2.543  -4.517  0.00  0.00    -0.002 A 
ATOM      7  C5  OXE d   1      -0.547   3.505  -5.461  0.00  0.00    -0.002 A 
ATOM      8  C6  OXE d   1      -1.829   3.467  -5.999  0.00  0.00     0.003 A 
ENDROOT
TORSDOF 0
ENDMDL
