MODEL 1
REMARK minimizedAffinity 14.581687
REMARK minimizedRMSD -1
REMARK  0 active torsions:
REMARK  status: ('A' for Active; 'I' for Inactive)
ROOT
ATOM      1  C2' OXE d   1      -2.625  -0.976  -2.690  0.00  0.00     0.078 C 
ATOM      2  C1' OXE d   1      -1.310  -3.150  -3.882  0.00  0.00     0.078 C 
ATOM      3  C1  OXE d   1      -1.220  -3.010  -2.383  0.00  0.00    -0.078 A 
ATOM      4  C2  OXE d   1      -1.827  -1.917  -1.813  0.00  0.00    -0.078 A 
ATOM      5  C3  OXE d   1      -1.821  -1.768  -0.429  0.00  0.00     0.003 A 
ATOM      6  C4  OXE d   1      -1.073  -2.638   0.373  0.00  0.00    -0.002 A 
ATOM      7  C5  OXE d   1      -0.414  -3.735  -0.191  0.00  0.00    -0.002 A 
ATOM      8  C6  OXE d   1      -0.513  -3.959  -1.560  0.00  0.00     0.003 A 
ENDROOT
TORSDOF 0
ENDMDL
