MODEL 1
REMARK minimizedAffinity 19.8202915
REMARK minimizedRMSD -1
REMARK  0 active torsions:
REMARK  status: ('A' for Active; 'I' for Inactive)
ROOT
ATOM      1  C2' OXE d   1      -2.361  -2.243   3.452  0.00  0.00     0.078 C 
ATOM      2  C1' OXE d   1      -0.459  -1.314   5.295  0.00  0.00     0.078 C 
ATOM      3  C1  OXE d   1      -1.757  -0.554   5.181  0.00  0.00    -0.078 A 
ATOM      4  C2  OXE d   1      -2.663  -0.988   4.243  0.00  0.00    -0.078 A 
ATOM      5  C3  OXE d   1      -3.898  -0.356   4.134  0.00  0.00     0.003 A 
ATOM      6  C4  OXE d   1      -4.165   0.809   4.862  0.00  0.00    -0.002 A 
ATOM      7  C5  OXE d   1      -3.240   1.292   5.794  0.00  0.00    -0.002 A 
ATOM      8  C6  OXE d   1      -2.051   0.599   5.996  0.00  0.00     0.003 A 
ENDROOT
TORSDOF 0
ENDMDL
