MODEL 1
REMARK minimizedAffinity 13.15236
REMARK minimizedRMSD -1
REMARK  0 active torsions:
REMARK  status: ('A' for Active; 'I' for Inactive)
ROOT
ATOM      1  C2' OXE d   1       3.337   2.544   2.143  0.00  0.00     0.078 C 
ATOM      2  C1' OXE d   1       4.522   3.932   0.010  0.00  0.00     0.078 C 
ATOM      3  C1  OXE d   1       3.711   2.703  -0.315  0.00  0.00    -0.078 A 
ATOM      4  C2  OXE d   1       3.173   2.003   0.739  0.00  0.00    -0.078 A 
ATOM      5  C3  OXE d   1       2.371   0.893   0.492  0.00  0.00     0.003 A 
ATOM      6  C4  OXE d   1       2.233   0.394  -0.809  0.00  0.00    -0.002 A 
ATOM      7  C5  OXE d   1       2.805   1.068  -1.893  0.00  0.00    -0.002 A 
ATOM      8  C6  OXE d   1       3.510   2.245  -1.668  0.00  0.00     0.003 A 
ENDROOT
TORSDOF 0
ENDMDL
