MODEL 1
REMARK minimizedAffinity 6.70921564
REMARK minimizedRMSD -1
REMARK  0 active torsions:
REMARK  status: ('A' for Active; 'I' for Inactive)
ROOT
ATOM      1  N1  IND d   1      -2.893  -2.317  -4.714  0.00  0.00    -0.196 N 
ATOM      2  C2  IND d   1      -3.348  -3.543  -4.316  0.00  0.00     0.054 A 
ATOM      3  C3  IND d   1      -3.672  -3.522  -3.003  0.00  0.00    -0.031 A 
ATOM      4  C4  IND d   1      -3.630  -1.557  -1.341  0.00  0.00     0.051 A 
ATOM      5  C5  IND d   1      -3.255  -0.247  -1.230  0.00  0.00    -0.031 A 
ATOM      6  C6  IND d   1      -2.732   0.454  -2.297  0.00  0.00     0.015 A 
ATOM      7  C7  IND d   1      -2.575  -0.127  -3.523  0.00  0.00    -0.016 A 
ATOM      8  C8  IND d   1      -2.948  -1.459  -3.637  0.00  0.00    -0.047 A 
ATOM      9  C9  IND d   1      -3.439  -2.188  -2.547  0.00  0.00    -0.096 A 
ATOM     10  HN1 IND d   1      -2.619  -2.116  -5.503  0.00  0.00     0.298 HD
ENDROOT
TORSDOF 0
ENDMDL
