MODEL 1
REMARK minimizedAffinity 6.26834917
REMARK minimizedRMSD -1
REMARK  0 active torsions:
REMARK  status: ('A' for Active; 'I' for Inactive)
ROOT
ATOM      1  N1  IND d   1       3.112  -5.976   1.418  0.00  0.00    -0.196 N 
ATOM      2  C2  IND d   1       1.833  -5.942   1.899  0.00  0.00     0.054 A 
ATOM      3  C3  IND d   1       0.948  -5.904   0.878  0.00  0.00    -0.031 A 
ATOM      4  C4  IND d   1       1.372  -5.994  -1.660  0.00  0.00     0.051 A 
ATOM      5  C5  IND d   1       2.378  -5.994  -2.584  0.00  0.00    -0.031 A 
ATOM      6  C6  IND d   1       3.708  -5.991  -2.215  0.00  0.00     0.015 A 
ATOM      7  C7  IND d   1       4.082  -5.999  -0.901  0.00  0.00    -0.016 A 
ATOM      8  C8  IND d   1       3.063  -5.992   0.041  0.00  0.00    -0.047 A 
ATOM      9  C9  IND d   1       1.712  -5.953  -0.328  0.00  0.00    -0.096 A 
ATOM     10  HN1 IND d   1       3.828  -5.987   1.895  0.00  0.00     0.298 HD
ENDROOT
TORSDOF 0
ENDMDL
