MODEL 1
REMARK minimizedAffinity 10.4064045
REMARK minimizedRMSD -1
REMARK  0 active torsions:
REMARK  status: ('A' for Active; 'I' for Inactive)
ROOT
ATOM      1  N1  IND d   1      -4.881   0.718  -4.585  0.00  0.00    -0.196 N 
ATOM      2  C2  IND d   1      -5.105   2.009  -4.196  0.00  0.00     0.054 A 
ATOM      3  C3  IND d   1      -4.347   2.314  -3.119  0.00  0.00    -0.031 A 
ATOM      4  C4  IND d   1      -2.594   0.881  -1.894  0.00  0.00     0.051 A 
ATOM      5  C5  IND d   1      -2.064  -0.378  -1.861  0.00  0.00    -0.031 A 
ATOM      6  C6  IND d   1      -2.453  -1.356  -2.754  0.00  0.00     0.015 A 
ATOM      7  C7  IND d   1      -3.381  -1.106  -3.725  0.00  0.00    -0.016 A 
ATOM      8  C8  IND d   1      -3.925   0.170  -3.757  0.00  0.00    -0.047 A 
ATOM      9  C9  IND d   1      -3.566   1.154  -2.827  0.00  0.00    -0.096 A 
ATOM     10  HN1 IND d   1      -5.270   0.315  -5.237  0.00  0.00     0.298 HD
ENDROOT
TORSDOF 0
ENDMDL
