MODEL 1
REMARK minimizedAffinity 12.2560349
REMARK minimizedRMSD -1
REMARK  0 active torsions:
REMARK  status: ('A' for Active; 'I' for Inactive)
ROOT
ATOM      1  N1  IND d   1       3.562  -5.399   1.668  0.00  0.00    -0.196 N 
ATOM      2  C2  IND d   1       2.719  -5.704   0.636  0.00  0.00     0.054 A 
ATOM      3  C3  IND d   1       1.776  -4.744   0.500  0.00  0.00    -0.031 A 
ATOM      4  C4  IND d   1       1.489  -2.538   1.796  0.00  0.00     0.051 A 
ATOM      5  C5  IND d   1       1.995  -1.837   2.855  0.00  0.00    -0.031 A 
ATOM      6  C6  IND d   1       3.072  -2.296   3.585  0.00  0.00     0.015 A 
ATOM      7  C7  IND d   1       3.693  -3.472   3.276  0.00  0.00    -0.016 A 
ATOM      8  C8  IND d   1       3.179  -4.190   2.205  0.00  0.00    -0.047 A 
ATOM      9  C9  IND d   1       2.059  -3.750   1.487  0.00  0.00    -0.096 A 
ATOM     10  HN1 IND d   1       4.221  -5.882   1.937  0.00  0.00     0.298 HD
ENDROOT
TORSDOF 0
ENDMDL
