MODEL 1
REMARK minimizedAffinity 7.61788273
REMARK minimizedRMSD -1
REMARK  0 active torsions:
REMARK  status: ('A' for Active; 'I' for Inactive)
ROOT
ATOM      1  N1  IND d   1       1.209  -0.242   4.320  0.00  0.00    -0.196 N 
ATOM      2  C2  IND d   1       1.402  -1.592   4.427  0.00  0.00     0.054 A 
ATOM      3  C3  IND d   1       2.179  -2.037   3.414  0.00  0.00    -0.031 A 
ATOM      4  C4  IND d   1       3.328  -0.713   1.529  0.00  0.00     0.051 A 
ATOM      5  C5  IND d   1       3.418   0.542   0.995  0.00  0.00    -0.031 A 
ATOM      6  C6  IND d   1       2.765   1.622   1.554  0.00  0.00     0.015 A 
ATOM      7  C7  IND d   1       2.004   1.488   2.681  0.00  0.00    -0.016 A 
ATOM      8  C8  IND d   1       1.905   0.214   3.222  0.00  0.00    -0.047 A 
ATOM      9  C9  IND d   1       2.530  -0.893   2.635  0.00  0.00    -0.096 A 
ATOM     10  HN1 IND d   1       0.733   0.240   4.850  0.00  0.00     0.298 HD
ENDROOT
TORSDOF 0
ENDMDL
