MODEL 1
REMARK minimizedAffinity 8.1619215
REMARK minimizedRMSD -1
REMARK  0 active torsions:
REMARK  status: ('A' for Active; 'I' for Inactive)
ROOT
ATOM      1  N1  IND d   1       0.011   2.423   1.034  0.00  0.00    -0.196 N 
ATOM      2  C2  IND d   1       0.857   3.411   0.613  0.00  0.00     0.054 A 
ATOM      3  C3  IND d   1       1.825   2.895  -0.177  0.00  0.00    -0.031 A 
ATOM      4  C4  IND d   1       2.156   0.476  -0.993  0.00  0.00     0.051 A 
ATOM      5  C5  IND d   1       1.658  -0.788  -0.845  0.00  0.00    -0.031 A 
ATOM      6  C6  IND d   1       0.561  -1.052  -0.049  0.00  0.00     0.015 A 
ATOM      7  C7  IND d   1      -0.088  -0.054   0.622  0.00  0.00    -0.016 A 
ATOM      8  C8  IND d   1       0.420   1.230   0.480  0.00  0.00    -0.047 A 
ATOM      9  C9  IND d   1       1.558   1.497  -0.292  0.00  0.00    -0.096 A 
ATOM     10  HN1 IND d   1      -0.663   2.529   1.557  0.00  0.00     0.298 HD
ENDROOT
TORSDOF 0
ENDMDL
