MODEL 1
REMARK minimizedAffinity -0.979631126
REMARK minimizedRMSD -1
REMARK  0 active torsions:
REMARK  status: ('A' for Active; 'I' for Inactive)
ROOT
ATOM      1  N1  IND d   1       5.500   1.148  -6.000  0.00  0.00    -0.196 N 
ATOM      2  C2  IND d   1       5.026   2.009  -5.049  0.00  0.00     0.054 A 
ATOM      3  C3  IND d   1       4.787   1.348  -3.894  0.00  0.00    -0.031 A 
ATOM      4  C4  IND d   1       5.195  -1.125  -3.309  0.00  0.00     0.051 A 
ATOM      5  C5  IND d   1       5.582  -2.313  -3.863  0.00  0.00    -0.031 A 
ATOM      6  C6  IND d   1       5.972  -2.410  -5.183  0.00  0.00     0.015 A 
ATOM      7  C7  IND d   1       6.000  -1.315  -5.999  0.00  0.00    -0.016 A 
ATOM      8  C8  IND d   1       5.601  -0.108  -5.443  0.00  0.00    -0.047 A 
ATOM      9  C9  IND d   1       5.164  -0.012  -4.115  0.00  0.00    -0.096 A 
ATOM     10  HN1 IND d   1       5.700   1.355  -6.810  0.00  0.00     0.298 HD
ENDROOT
TORSDOF 0
ENDMDL
