MODEL 1
REMARK minimizedAffinity 4.21218538
REMARK minimizedRMSD -1
REMARK  0 active torsions:
REMARK  status: ('A' for Active; 'I' for Inactive)
ROOT
ATOM      1  N1  IND d   1       2.800  -0.618   0.626  0.00  0.00    -0.196 N 
ATOM      2  C2  IND d   1       3.182   0.248   1.613  0.00  0.00     0.054 A 
ATOM      3  C3  IND d   1       2.357   1.319   1.645  0.00  0.00    -0.031 A 
ATOM      4  C4  IND d   1       0.257   1.807   0.238  0.00  0.00     0.051 A 
ATOM      5  C5  IND d   1      -0.470   1.327  -0.815  0.00  0.00    -0.031 A 
ATOM      6  C6  IND d   1      -0.139   0.149  -1.453  0.00  0.00     0.015 A 
ATOM      7  C7  IND d   1       0.930  -0.602  -1.052  0.00  0.00    -0.016 A 
ATOM      8  C8  IND d   1       1.674  -0.114   0.013  0.00  0.00    -0.047 A 
ATOM      9  C9  IND d   1       1.368   1.102   0.637  0.00  0.00    -0.096 A 
ATOM     10  HN1 IND d   1       3.197  -1.353   0.423  0.00  0.00     0.298 HD
ENDROOT
TORSDOF 0
ENDMDL
