MODEL 1
REMARK minimizedAffinity -0.35488686
REMARK minimizedRMSD -1
REMARK  0 active torsions:
REMARK  status: ('A' for Active; 'I' for Inactive)
ROOT
ATOM      1  N1  IND d   1       4.857  -3.218  -4.041  0.00  0.00    -0.196 N 
ATOM      2  C2  IND d   1       5.425  -3.920  -5.067  0.00  0.00     0.054 A 
ATOM      3  C3  IND d   1       5.917  -3.074  -6.000  0.00  0.00    -0.031 A 
ATOM      4  C4  IND d   1       5.990  -0.500  -5.998  0.00  0.00     0.051 A 
ATOM      5  C5  IND d   1       5.564   0.589  -5.291  0.00  0.00    -0.031 A 
ATOM      6  C6  IND d   1       4.868   0.462  -4.106  0.00  0.00     0.015 A 
ATOM      7  C7  IND d   1       4.582  -0.764  -3.576  0.00  0.00    -0.016 A 
ATOM      8  C8  IND d   1       5.007  -1.872  -4.294  0.00  0.00    -0.047 A 
ATOM      9  C9  IND d   1       5.676  -1.750  -5.519  0.00  0.00    -0.096 A 
ATOM     10  HN1 IND d   1       4.470  -3.559  -3.353  0.00  0.00     0.298 HD
ENDROOT
TORSDOF 0
ENDMDL
