MODEL 1
REMARK minimizedAffinity 6.92725182
REMARK minimizedRMSD -1
REMARK  0 active torsions:
REMARK  status: ('A' for Active; 'I' for Inactive)
ROOT
ATOM      1  C   UNL d   1      -2.778   5.987   6.000  0.00  0.00     0.023 A 
ATOM      2  C1  UNL d   1      -4.154   6.000   5.773  0.00  0.00     0.003 A 
ATOM      3  C2  UNL d   1      -4.674   5.470   4.591  0.00  0.00     0.048 A 
ATOM      4  C3  UNL d   1      -3.812   4.927   3.639  0.00  0.00     0.023 A 
ATOM      5  C4  UNL d   1      -2.434   4.911   3.861  0.00  0.00     0.048 A 
ATOM      6  C5  UNL d   1      -1.919   5.443   5.045  0.00  0.00     0.003 A 
ATOM      7  I   UNL d   1      -4.583   4.138   1.878  0.00  0.00    -0.146 I 
ENDROOT
TORSDOF 0
ENDMDL
