MODEL 1
REMARK minimizedAffinity 9.34383392
REMARK minimizedRMSD -1
REMARK  0 active torsions:
REMARK  status: ('A' for Active; 'I' for Inactive)
ROOT
ATOM      1  C   UNL d   1       4.477   5.323   0.402  0.00  0.00     0.023 A 
ATOM      2  C1  UNL d   1       3.782   4.413   1.199  0.00  0.00     0.003 A 
ATOM      3  C2  UNL d   1       4.195   4.175   2.511  0.00  0.00     0.048 A 
ATOM      4  C3  UNL d   1       5.302   4.852   3.021  0.00  0.00     0.023 A 
ATOM      5  C4  UNL d   1       6.000   5.764   2.228  0.00  0.00     0.048 A 
ATOM      6  C5  UNL d   1       5.584   5.998   0.916  0.00  0.00     0.003 A 
ATOM      7  I   UNL d   1       5.917   4.500   4.975  0.00  0.00    -0.146 I 
ENDROOT
TORSDOF 0
ENDMDL
