MODEL 1
REMARK minimizedAffinity 11.560997
REMARK minimizedRMSD -1
REMARK  0 active torsions:
REMARK  status: ('A' for Active; 'I' for Inactive)
ROOT
ATOM      1  C   UNL d   1      -2.946   6.000   5.262  0.00  0.00     0.023 A 
ATOM      2  C1  UNL d   1      -2.732   5.979   3.884  0.00  0.00     0.003 A 
ATOM      3  C2  UNL d   1      -2.678   4.761   3.203  0.00  0.00     0.048 A 
ATOM      4  C3  UNL d   1      -2.839   3.568   3.906  0.00  0.00     0.023 A 
ATOM      5  C4  UNL d   1      -3.054   3.584   5.285  0.00  0.00     0.048 A 
ATOM      6  C5  UNL d   1      -3.107   4.804   5.962  0.00  0.00     0.003 A 
ATOM      7  I   UNL d   1      -2.758   1.754   2.894  0.00  0.00    -0.146 I 
ENDROOT
TORSDOF 0
ENDMDL
