MODEL 1
REMARK minimizedAffinity 7.37496662
REMARK minimizedRMSD -1
REMARK  0 active torsions:
REMARK  status: ('A' for Active; 'I' for Inactive)
ROOT
ATOM      1  C   UNL d   1      -1.873   5.856   6.000  0.00  0.00     0.023 A 
ATOM      2  C1  UNL d   1      -3.260   5.999   5.969  0.00  0.00     0.003 A 
ATOM      3  C2  UNL d   1      -4.003   5.395   4.953  0.00  0.00     0.048 A 
ATOM      4  C3  UNL d   1      -3.353   4.647   3.972  0.00  0.00     0.023 A 
ATOM      5  C4  UNL d   1      -1.965   4.500   3.999  0.00  0.00     0.048 A 
ATOM      6  C5  UNL d   1      -1.226   5.107   5.016  0.00  0.00     0.003 A 
ATOM      7  I   UNL d   1      -4.457   3.746   2.459  0.00  0.00    -0.146 I 
ENDROOT
TORSDOF 0
ENDMDL
