MODEL 1
REMARK minimizedAffinity 14.2056122
REMARK minimizedRMSD -1
REMARK  0 active torsions:
REMARK  status: ('A' for Active; 'I' for Inactive)
ROOT
ATOM      1  C   UNL d   1      -3.132   0.745   3.175  0.00  0.00     0.023 A 
ATOM      2  C1  UNL d   1      -3.897  -0.394   3.426  0.00  0.00     0.003 A 
ATOM      3  C2  UNL d   1      -3.998  -1.396   2.458  0.00  0.00     0.048 A 
ATOM      4  C3  UNL d   1      -3.332  -1.252   1.242  0.00  0.00     0.023 A 
ATOM      5  C4  UNL d   1      -2.565  -0.114   0.987  0.00  0.00     0.048 A 
ATOM      6  C5  UNL d   1      -2.467   0.885   1.957  0.00  0.00     0.003 A 
ATOM      7  I   UNL d   1      -3.481  -2.741  -0.200  0.00  0.00    -0.146 I 
ENDROOT
TORSDOF 0
ENDMDL
