MODEL 1
REMARK minimizedAffinity 10.4752073
REMARK minimizedRMSD -1
REMARK  0 active torsions:
REMARK  status: ('A' for Active; 'I' for Inactive)
ROOT
ATOM      1  C   UNL d   1       1.871   0.747  -1.421  0.00  0.00     0.023 A 
ATOM      2  C1  UNL d   1       1.111  -0.220  -2.080  0.00  0.00     0.003 A 
ATOM      3  C2  UNL d   1       0.691  -0.004  -3.394  0.00  0.00     0.048 A 
ATOM      4  C3  UNL d   1       1.035   1.181  -4.044  0.00  0.00     0.023 A 
ATOM      5  C4  UNL d   1       1.795   2.151  -3.389  0.00  0.00     0.048 A 
ATOM      6  C5  UNL d   1       2.212   1.931  -2.075  0.00  0.00     0.003 A 
ATOM      7  I   UNL d   1       0.411   1.504  -6.000  0.00  0.00    -0.146 I 
ENDROOT
TORSDOF 0
ENDMDL
