MODEL 1
REMARK minimizedAffinity 9.59808064
REMARK minimizedRMSD -1
REMARK  0 active torsions:
REMARK  status: ('A' for Active; 'I' for Inactive)
ROOT
ATOM      1  C   UNL d   1       5.080  -1.207   4.656  0.00  0.00     0.023 A 
ATOM      2  C1  UNL d   1       4.167  -2.085   4.070  0.00  0.00     0.003 A 
ATOM      3  C2  UNL d   1       4.169  -3.435   4.424  0.00  0.00     0.048 A 
ATOM      4  C3  UNL d   1       5.085  -3.902   5.366  0.00  0.00     0.023 A 
ATOM      5  C4  UNL d   1       5.999  -3.027   5.956  0.00  0.00     0.048 A 
ATOM      6  C5  UNL d   1       5.994  -1.678   5.598  0.00  0.00     0.003 A 
ATOM      7  I   UNL d   1       5.089  -5.912   5.896  0.00  0.00    -0.146 I 
ENDROOT
TORSDOF 0
ENDMDL
