MODEL 1
REMARK minimizedAffinity 2.88805246
REMARK minimizedRMSD -1
REMARK  0 active torsions:
REMARK  status: ('A' for Active; 'I' for Inactive)
ROOT
ATOM      1  C   UNL d   1      -4.205   3.908   1.777  0.00  0.00     0.023 A 
ATOM      2  C1  UNL d   1      -2.998   3.569   2.389  0.00  0.00     0.003 A 
ATOM      3  C2  UNL d   1      -2.633   4.168   3.596  0.00  0.00     0.048 A 
ATOM      4  C3  UNL d   1      -3.480   5.106   4.186  0.00  0.00     0.023 A 
ATOM      5  C4  UNL d   1      -4.689   5.448   3.578  0.00  0.00     0.048 A 
ATOM      6  C5  UNL d   1      -5.049   4.846   2.370  0.00  0.00     0.003 A 
ATOM      7  I   UNL d   1      -2.939   6.000   5.983  0.00  0.00    -0.146 I 
ENDROOT
TORSDOF 0
ENDMDL
