MODEL 1
REMARK minimizedAffinity 9.90915108
REMARK minimizedRMSD -1
REMARK  0 active torsions:
REMARK  status: ('A' for Active; 'I' for Inactive)
ROOT
ATOM      1  C   UNL d   1      -2.912   5.950   5.251  0.00  0.00     0.023 A 
ATOM      2  C1  UNL d   1      -2.641   5.859   3.886  0.00  0.00     0.003 A 
ATOM      3  C2  UNL d   1      -2.587   4.609   3.265  0.00  0.00     0.048 A 
ATOM      4  C3  UNL d   1      -2.805   3.454   4.015  0.00  0.00     0.023 A 
ATOM      5  C4  UNL d   1      -3.077   3.540   5.382  0.00  0.00     0.048 A 
ATOM      6  C5  UNL d   1      -3.129   4.792   5.998  0.00  0.00     0.003 A 
ATOM      7  I   UNL d   1      -2.724   1.593   3.093  0.00  0.00    -0.146 I 
ENDROOT
TORSDOF 0
ENDMDL
