MODEL 1
REMARK minimizedAffinity 1.25406432
REMARK minimizedRMSD -1
REMARK  0 active torsions:
REMARK  status: ('A' for Active; 'I' for Inactive)
ROOT
ATOM      1  C   UNL d   1       2.713  -5.658   2.200  0.00  0.00     0.023 A 
ATOM      2  C1  UNL d   1       4.051  -5.981   1.970  0.00  0.00     0.003 A 
ATOM      3  C2  UNL d   1       4.958  -6.000   3.032  0.00  0.00     0.048 A 
ATOM      4  C3  UNL d   1       4.520  -5.695   4.321  0.00  0.00     0.023 A 
ATOM      5  C4  UNL d   1       3.183  -5.372   4.555  0.00  0.00     0.048 A 
ATOM      6  C5  UNL d   1       2.280  -5.354   3.490  0.00  0.00     0.003 A 
ATOM      7  I   UNL d   1       5.868  -5.723   5.902  0.00  0.00    -0.146 I 
ENDROOT
TORSDOF 0
ENDMDL
