MODEL 1
REMARK minimizedAffinity -0.949004889
REMARK minimizedRMSD -1
REMARK  0 active torsions:
REMARK  status: ('A' for Active; 'I' for Inactive)
ROOT
ATOM      1  C   UNL d   1      -4.296   4.873   1.123  0.00  0.00     0.023 A 
ATOM      2  C1  UNL d   1      -5.322   5.302   1.965  0.00  0.00     0.003 A 
ATOM      3  C2  UNL d   1      -5.046   5.625   3.295  0.00  0.00     0.048 A 
ATOM      4  C3  UNL d   1      -3.742   5.518   3.777  0.00  0.00     0.023 A 
ATOM      5  C4  UNL d   1      -2.712   5.091   2.938  0.00  0.00     0.048 A 
ATOM      6  C5  UNL d   1      -2.993   4.768   1.609  0.00  0.00     0.003 A 
ATOM      7  I   UNL d   1      -3.329   5.999   5.756  0.00  0.00    -0.146 I 
ENDROOT
TORSDOF 0
ENDMDL
