MODEL 1
REMARK minimizedAffinity 11.3157358
REMARK minimizedRMSD -1
REMARK  0 active torsions:
REMARK  status: ('A' for Active; 'I' for Inactive)
ROOT
ATOM      1  C   UNL d   1      -4.112   5.188   2.858  0.00  0.00     0.023 A 
ATOM      2  C1  UNL d   1      -3.107   4.650   3.662  0.00  0.00     0.003 A 
ATOM      3  C2  UNL d   1      -2.751   3.306   3.530  0.00  0.00     0.048 A 
ATOM      4  C3  UNL d   1      -3.403   2.507   2.592  0.00  0.00     0.023 A 
ATOM      5  C4  UNL d   1      -4.408   3.041   1.785  0.00  0.00     0.048 A 
ATOM      6  C5  UNL d   1      -4.762   4.384   1.921  0.00  0.00     0.003 A 
ATOM      7  I   UNL d   1      -2.873   0.506   2.395  0.00  0.00    -0.146 I 
ENDROOT
TORSDOF 0
ENDMDL
