MODEL 1
REMARK minimizedAffinity 3.07640672
REMARK minimizedRMSD -1
REMARK  0 active torsions:
REMARK  status: ('A' for Active; 'I' for Inactive)
ROOT
ATOM      1  C   UNL d   1      -5.206   0.691   3.446  0.00  0.00     0.023 A 
ATOM      2  C1  UNL d   1      -5.403   0.856   4.817  0.00  0.00     0.003 A 
ATOM      3  C2  UNL d   1      -5.060   2.062   5.433  0.00  0.00     0.048 A 
ATOM      4  C3  UNL d   1      -4.523   3.099   4.671  0.00  0.00     0.023 A 
ATOM      5  C4  UNL d   1      -4.325   2.938   3.299  0.00  0.00     0.048 A 
ATOM      6  C5  UNL d   1      -4.667   1.730   2.688  0.00  0.00     0.003 A 
ATOM      7  I   UNL d   1      -4.013   4.894   5.585  0.00  0.00    -0.146 I 
ENDROOT
TORSDOF 0
ENDMDL
