MODEL 1
REMARK minimizedAffinity 13.0383062
REMARK minimizedRMSD -1
REMARK  0 active torsions:
REMARK  status: ('A' for Active; 'I' for Inactive)
ROOT
ATOM      1  C   UNL d   1      -4.698   0.640   5.455  0.00  0.00     0.023 A 
ATOM      2  C1  UNL d   1      -4.150   0.970   4.215  0.00  0.00     0.003 A 
ATOM      3  C2  UNL d   1      -4.522   0.256   3.074  0.00  0.00     0.048 A 
ATOM      4  C3  UNL d   1      -5.443  -0.785   3.179  0.00  0.00     0.023 A 
ATOM      5  C4  UNL d   1      -5.995  -1.117   4.418  0.00  0.00     0.048 A 
ATOM      6  C5  UNL d   1      -5.619  -0.402   5.556  0.00  0.00     0.003 A 
ATOM      7  I   UNL d   1      -5.999  -1.848   1.482  0.00  0.00    -0.146 I 
ENDROOT
TORSDOF 0
ENDMDL
