MODEL 1
REMARK minimizedAffinity 10.6641979
REMARK minimizedRMSD -1
REMARK  0 active torsions:
REMARK  status: ('A' for Active; 'I' for Inactive)
ROOT
ATOM      1  C   UNL d   1       1.428   0.792  -2.634  0.00  0.00     0.023 A 
ATOM      2  C1  UNL d   1       2.338   1.817  -2.377  0.00  0.00     0.003 A 
ATOM      3  C2  UNL d   1       2.576   2.799  -3.341  0.00  0.00     0.048 A 
ATOM      4  C3  UNL d   1       1.899   2.750  -4.559  0.00  0.00     0.023 A 
ATOM      5  C4  UNL d   1       0.987   1.727  -4.820  0.00  0.00     0.048 A 
ATOM      6  C5  UNL d   1       0.753   0.747  -3.854  0.00  0.00     0.003 A 
ATOM      7  I   UNL d   1       2.252   4.211  -5.995  0.00  0.00    -0.146 I 
ENDROOT
TORSDOF 0
ENDMDL
