MODEL 1
REMARK minimizedAffinity 4.04924536
REMARK minimizedRMSD -1
REMARK  0 active torsions:
REMARK  status: ('A' for Active; 'I' for Inactive)
ROOT
ATOM      1  C   UNL d   1       1.506   0.942  -3.357  0.00  0.00     0.023 A 
ATOM      2  C1  UNL d   1       2.133   2.149  -3.667  0.00  0.00     0.003 A 
ATOM      3  C2  UNL d   1       2.451   3.053  -2.651  0.00  0.00     0.048 A 
ATOM      4  C3  UNL d   1       2.139   2.744  -1.328  0.00  0.00     0.023 A 
ATOM      5  C4  UNL d   1       1.512   1.537  -1.013  0.00  0.00     0.048 A 
ATOM      6  C5  UNL d   1       1.195   0.637  -2.032  0.00  0.00     0.003 A 
ATOM      7  I   UNL d   1       2.610   4.088   0.186  0.00  0.00    -0.146 I 
ENDROOT
TORSDOF 0
ENDMDL
