MODEL 1
REMARK minimizedAffinity 10.5014248
REMARK minimizedRMSD -1
REMARK  0 active torsions:
REMARK  status: ('A' for Active; 'I' for Inactive)
ROOT
ATOM      1  C   UNL d   1       1.940  -1.044  -1.861  0.00  0.00     0.023 A 
ATOM      2  C1  UNL d   1       1.442  -1.550  -3.062  0.00  0.00     0.003 A 
ATOM      3  C2  UNL d   1       1.239  -0.697  -4.149  0.00  0.00     0.048 A 
ATOM      4  C3  UNL d   1       1.535   0.660  -4.028  0.00  0.00     0.023 A 
ATOM      5  C4  UNL d   1       2.034   1.170  -2.828  0.00  0.00     0.048 A 
ATOM      6  C5  UNL d   1       2.235   0.314  -1.744  0.00  0.00     0.003 A 
ATOM      7  I   UNL d   1       1.233   1.931  -5.645  0.00  0.00    -0.146 I 
ENDROOT
TORSDOF 0
ENDMDL
