MODEL 1
REMARK minimizedAffinity -3.59317112
REMARK minimizedRMSD -1
REMARK  0 active torsions:
REMARK  status: ('A' for Active; 'I' for Inactive)
ROOT
ATOM      1  C   UNL d   1       0.746   2.279   1.141  0.00  0.00     0.078 C 
ATOM      2  C1  UNL d   1       0.574   0.975   0.421  0.00  0.00    -0.077 A 
ATOM      3  C2  UNL d   1      -0.510   0.765  -0.441  0.00  0.00    -0.001 A 
ATOM      4  C3  UNL d   1      -0.663  -0.457  -1.097  0.00  0.00     0.003 A 
ATOM      5  C4  UNL d   1       0.263  -1.479  -0.897  0.00  0.00    -0.005 A 
ATOM      6  C5  UNL d   1       1.343  -1.280  -0.040  0.00  0.00     0.003 A 
ATOM      7  C6  UNL d   1       1.498  -0.059   0.617  0.00  0.00    -0.001 A 
ENDROOT
TORSDOF 0
ENDMDL
