MODEL 1
REMARK minimizedAffinity 0.131823644
REMARK minimizedRMSD -1
REMARK  0 active torsions:
REMARK  status: ('A' for Active; 'I' for Inactive)
ROOT
ATOM      1  C   UNL d   1       0.776   1.970   0.384  0.00  0.00     0.078 C 
ATOM      2  C1  UNL d   1       0.590   0.564  -0.102  0.00  0.00    -0.077 A 
ATOM      3  C2  UNL d   1       1.571  -0.411   0.118  0.00  0.00    -0.001 A 
ATOM      4  C3  UNL d   1       1.389  -1.714  -0.348  0.00  0.00     0.003 A 
ATOM      5  C4  UNL d   1       0.228  -2.054  -1.039  0.00  0.00    -0.005 A 
ATOM      6  C5  UNL d   1      -0.753  -1.090  -1.265  0.00  0.00     0.003 A 
ATOM      7  C6  UNL d   1      -0.573   0.213  -0.799  0.00  0.00    -0.001 A 
ENDROOT
TORSDOF 0
ENDMDL
