MODEL 1
REMARK minimizedAffinity 1.85868025
REMARK minimizedRMSD -1
REMARK  0 active torsions:
REMARK  status: ('A' for Active; 'I' for Inactive)
ROOT
ATOM      1  C   UNL d   1       2.620  -1.614  -1.573  0.00  0.00     0.078 C 
ATOM      2  C1  UNL d   1       2.705  -0.339  -0.789  0.00  0.00    -0.077 A 
ATOM      3  C2  UNL d   1       1.677   0.041   0.084  0.00  0.00    -0.001 A 
ATOM      4  C3  UNL d   1       1.765   1.236   0.800  0.00  0.00     0.003 A 
ATOM      5  C4  UNL d   1       2.878   2.061   0.650  0.00  0.00    -0.005 A 
ATOM      6  C5  UNL d   1       3.904   1.693  -0.218  0.00  0.00     0.003 A 
ATOM      7  C6  UNL d   1       3.818   0.499  -0.935  0.00  0.00    -0.001 A 
ENDROOT
TORSDOF 0
ENDMDL
