MODEL 1
REMARK minimizedAffinity -3.41471624
REMARK minimizedRMSD -1
REMARK  0 active torsions:
REMARK  status: ('A' for Active; 'I' for Inactive)
ROOT
ATOM      1  C   UNL d   1       2.149   0.895   0.739  0.00  0.00     0.078 C 
ATOM      2  C1  UNL d   1       2.638  -0.241  -0.109  0.00  0.00    -0.077 A 
ATOM      3  C2  UNL d   1       2.117  -1.532   0.044  0.00  0.00    -0.001 A 
ATOM      4  C3  UNL d   1       2.589  -2.582  -0.745  0.00  0.00     0.003 A 
ATOM      5  C4  UNL d   1       3.586  -2.352  -1.692  0.00  0.00    -0.005 A 
ATOM      6  C5  UNL d   1       4.112  -1.072  -1.850  0.00  0.00     0.003 A 
ATOM      7  C6  UNL d   1       3.641  -0.021  -1.061  0.00  0.00    -0.001 A 
ENDROOT
TORSDOF 0
ENDMDL
