MODEL 1
REMARK minimizedAffinity 3.27376723
REMARK minimizedRMSD -1
REMARK  0 active torsions:
REMARK  status: ('A' for Active; 'I' for Inactive)
ROOT
ATOM      1  C   UNL d   1       2.278  -2.321  -0.053  0.00  0.00     0.078 C 
ATOM      2  C1  UNL d   1       1.068  -1.468  -0.285  0.00  0.00    -0.077 A 
ATOM      3  C2  UNL d   1      -0.061  -1.980  -0.937  0.00  0.00    -0.001 A 
ATOM      4  C3  UNL d   1      -1.178  -1.171  -1.156  0.00  0.00     0.003 A 
ATOM      5  C4  UNL d   1      -1.176   0.155  -0.727  0.00  0.00    -0.005 A 
ATOM      6  C5  UNL d   1      -0.056   0.674  -0.079  0.00  0.00     0.003 A 
ATOM      7  C6  UNL d   1       1.061  -0.133   0.140  0.00  0.00    -0.001 A 
ENDROOT
TORSDOF 0
ENDMDL
