MODEL 1
REMARK minimizedAffinity -2.89223766
REMARK minimizedRMSD -1
REMARK  0 active torsions:
REMARK  status: ('A' for Active; 'I' for Inactive)
ROOT
ATOM      1  C   UNL d   1      -0.148   0.380  -0.043  0.00  0.00     0.078 C 
ATOM      2  C1  UNL d   1       1.288  -0.035  -0.151  0.00  0.00    -0.077 A 
ATOM      3  C2  UNL d   1       1.645  -1.387  -0.227  0.00  0.00    -0.001 A 
ATOM      4  C3  UNL d   1       2.987  -1.759  -0.317  0.00  0.00     0.003 A 
ATOM      5  C4  UNL d   1       3.984  -0.786  -0.331  0.00  0.00    -0.005 A 
ATOM      6  C5  UNL d   1       3.639   0.562  -0.255  0.00  0.00     0.003 A 
ATOM      7  C6  UNL d   1       2.297   0.936  -0.164  0.00  0.00    -0.001 A 
ENDROOT
TORSDOF 0
ENDMDL
