MODEL 1
REMARK minimizedAffinity 0.42194277
REMARK minimizedRMSD -1
REMARK  0 active torsions:
REMARK  status: ('A' for Active; 'I' for Inactive)
ROOT
ATOM      1  C   UNL d   1       5.603  -0.338  -1.825  0.00  0.00     0.078 C 
ATOM      2  C1  UNL d   1       4.480  -1.325  -1.939  0.00  0.00    -0.077 A 
ATOM      3  C2  UNL d   1       4.410  -2.216  -3.017  0.00  0.00    -0.001 A 
ATOM      4  C3  UNL d   1       3.353  -3.123  -3.115  0.00  0.00     0.003 A 
ATOM      5  C4  UNL d   1       2.359  -3.147  -2.139  0.00  0.00    -0.005 A 
ATOM      6  C5  UNL d   1       2.419  -2.263  -1.064  0.00  0.00     0.003 A 
ATOM      7  C6  UNL d   1       3.475  -1.355  -0.964  0.00  0.00    -0.001 A 
ENDROOT
TORSDOF 0
ENDMDL
