MODEL 1
REMARK minimizedAffinity -2.04589009
REMARK minimizedRMSD -1
REMARK  0 active torsions:
REMARK  status: ('A' for Active; 'I' for Inactive)
ROOT
ATOM      1  C   UNL d   1       0.313   0.756  -0.536  0.00  0.00     0.078 C 
ATOM      2  C1  UNL d   1       1.664   0.136  -0.738  0.00  0.00    -0.077 A 
ATOM      3  C2  UNL d   1       2.829   0.800  -0.337  0.00  0.00    -0.001 A 
ATOM      4  C3  UNL d   1       4.080   0.215  -0.540  0.00  0.00     0.003 A 
ATOM      5  C4  UNL d   1       4.178  -1.036  -1.145  0.00  0.00    -0.005 A 
ATOM      6  C5  UNL d   1       3.024  -1.704  -1.549  0.00  0.00     0.003 A 
ATOM      7  C6  UNL d   1       1.772  -1.121  -1.347  0.00  0.00    -0.001 A 
ENDROOT
TORSDOF 0
ENDMDL
