MODEL 1
REMARK minimizedAffinity -0.866028965
REMARK minimizedRMSD -1
REMARK  0 active torsions:
REMARK  status: ('A' for Active; 'I' for Inactive)
ROOT
ATOM      1  C1  BNZ d   1      -5.597  -5.999  -3.875  0.00  0.00     0.000 A 
ATOM      2  C2  BNZ d   1      -4.893  -4.936  -3.375  0.00  0.00     0.000 A 
ATOM      3  C3  BNZ d   1      -4.595  -3.861  -4.165  0.00  0.00     0.000 A 
ATOM      4  C4  BNZ d   1      -4.965  -3.868  -5.462  0.00  0.00     0.000 A 
ATOM      5  C5  BNZ d   1      -5.667  -4.937  -5.983  0.00  0.00     0.000 A 
ATOM      6  C6  BNZ d   1      -6.000  -6.000  -5.174  0.00  0.00     0.000 A 
ENDROOT
TORSDOF 0
ENDMDL
