MODEL 1
REMARK minimizedAffinity -2.79406476
REMARK minimizedRMSD -1
REMARK  0 active torsions:
REMARK  status: ('A' for Active; 'I' for Inactive)
ROOT
ATOM      1  C1  BNZ d   1      -5.935  -4.102  -4.376  0.00  0.00     0.000 A 
ATOM      2  C2  BNZ d   1      -6.000  -4.081  -3.009  0.00  0.00     0.000 A 
ATOM      3  C3  BNZ d   1      -5.315  -4.999  -2.261  0.00  0.00     0.000 A 
ATOM      4  C4  BNZ d   1      -4.599  -5.958  -2.882  0.00  0.00     0.000 A 
ATOM      5  C5  BNZ d   1      -4.531  -5.998  -4.261  0.00  0.00     0.000 A 
ATOM      6  C6  BNZ d   1      -5.190  -5.050  -5.009  0.00  0.00     0.000 A 
ENDROOT
TORSDOF 0
ENDMDL
