MODEL 1
REMARK minimizedAffinity -2.80240178
REMARK minimizedRMSD -1
REMARK  0 active torsions:
REMARK  status: ('A' for Active; 'I' for Inactive)
ROOT
ATOM      1  C1  BNZ d   1      -4.848  -4.165  -3.639  0.00  0.00     0.000 A 
ATOM      2  C2  BNZ d   1      -4.632  -3.652  -4.890  0.00  0.00     0.000 A 
ATOM      3  C3  BNZ d   1      -5.116  -4.286  -6.000  0.00  0.00     0.000 A 
ATOM      4  C4  BNZ d   1      -5.781  -5.451  -5.861  0.00  0.00     0.000 A 
ATOM      5  C5  BNZ d   1      -6.000  -5.986  -4.607  0.00  0.00     0.000 A 
ATOM      6  C6  BNZ d   1      -5.544  -5.325  -3.489  0.00  0.00     0.000 A 
ENDROOT
TORSDOF 0
ENDMDL
