MODEL 1
REMARK minimizedAffinity 1.75914991
REMARK minimizedRMSD -1
REMARK  0 active torsions:
REMARK  status: ('A' for Active; 'I' for Inactive)
ROOT
ATOM      1  C1  BNZ d   1      -5.373  -4.687  -4.029  0.00  0.00     0.000 A 
ATOM      2  C2  BNZ d   1      -4.008  -4.721  -3.932  0.00  0.00     0.000 A 
ATOM      3  C3  BNZ d   1      -3.255  -5.361  -4.877  0.00  0.00     0.000 A 
ATOM      4  C4  BNZ d   1      -3.869  -5.999  -5.894  0.00  0.00     0.000 A 
ATOM      5  C5  BNZ d   1      -5.246  -5.982  -6.000  0.00  0.00     0.000 A 
ATOM      6  C6  BNZ d   1      -5.998  -5.304  -5.068  0.00  0.00     0.000 A 
ENDROOT
TORSDOF 0
ENDMDL
