MODEL 1
REMARK minimizedAffinity -1.01074505
REMARK minimizedRMSD -1
REMARK  0 active torsions:
REMARK  status: ('A' for Active; 'I' for Inactive)
ROOT
ATOM      1  C1  BNZ d   1      -4.042  -4.989  -4.090  0.00  0.00     0.000 A 
ATOM      2  C2  BNZ d   1      -4.256  -5.996  -4.993  0.00  0.00     0.000 A 
ATOM      3  C3  BNZ d   1      -5.215  -5.876  -5.960  0.00  0.00     0.000 A 
ATOM      4  C4  BNZ d   1      -5.984  -4.769  -5.998  0.00  0.00     0.000 A 
ATOM      5  C5  BNZ d   1      -5.786  -3.749  -5.088  0.00  0.00     0.000 A 
ATOM      6  C6  BNZ d   1      -4.794  -3.856  -4.141  0.00  0.00     0.000 A 
ENDROOT
TORSDOF 0
ENDMDL
