MODEL 1
REMARK minimizedAffinity -0.581010401
REMARK minimizedRMSD -1
REMARK  0 active torsions:
REMARK  status: ('A' for Active; 'I' for Inactive)
ROOT
ATOM      1  C1  BNZ d   1      -4.514  -5.996  -4.935  0.00  0.00     0.000 A 
ATOM      2  C2  BNZ d   1      -4.439  -5.147  -3.864  0.00  0.00     0.000 A 
ATOM      3  C3  BNZ d   1      -5.159  -3.986  -3.839  0.00  0.00     0.000 A 
ATOM      4  C4  BNZ d   1      -5.921  -3.656  -4.902  0.00  0.00     0.000 A 
ATOM      5  C5  BNZ d   1      -6.000  -4.497  -5.994  0.00  0.00     0.000 A 
ATOM      6  C6  BNZ d   1      -5.304  -5.684  -5.998  0.00  0.00     0.000 A 
ENDROOT
TORSDOF 0
ENDMDL
