MODEL 1
REMARK minimizedAffinity -3.18862844
REMARK minimizedRMSD -1
REMARK  0 active torsions:
REMARK  status: ('A' for Active; 'I' for Inactive)
ROOT
ATOM      1  C1  BNZ d   1      -6.000  -4.250  -4.543  0.00  0.00     0.000 A 
ATOM      2  C2  BNZ d   1      -5.830  -4.241  -3.184  0.00  0.00     0.000 A 
ATOM      3  C3  BNZ d   1      -4.940  -5.088  -2.585  0.00  0.00     0.000 A 
ATOM      4  C4  BNZ d   1      -4.252  -5.969  -3.339  0.00  0.00     0.000 A 
ATOM      5  C5  BNZ d   1      -4.419  -5.996  -4.709  0.00  0.00     0.000 A 
ATOM      6  C6  BNZ d   1      -5.287  -5.116  -5.313  0.00  0.00     0.000 A 
ENDROOT
TORSDOF 0
ENDMDL
