MODEL 1
REMARK minimizedAffinity 2.43581271
REMARK minimizedRMSD -1
REMARK  1 active torsions:
REMARK  status: ('A' for Active; 'I' for Inactive)
REMARK    1  A    between atoms: C3_4  and  O_7 
ROOT
ATOM      1  C   UNL d   1       2.397  -2.895   3.738  0.00  0.00    -0.033 A 
ATOM      2  C1  UNL d   1       3.694  -2.385   3.813  0.00  0.00     0.039 A 
ATOM      3  C2  UNL d   1       4.020  -1.200   3.150  0.00  0.00    -0.080 A 
ATOM      4  C3  UNL d   1       3.041  -0.535   2.418  0.00  0.00     0.150 A 
ATOM      5  C4  UNL d   1       1.745  -1.035   2.342  0.00  0.00    -0.007 A 
ATOM      6  C5  UNL d   1       1.422  -2.219   3.004  0.00  0.00     0.039 A 
ENDROOT
BRANCH   4   7
ATOM      7  O   UNL d   1       3.313   0.622   1.751  0.00  0.00    -0.526 OA
ATOM      8  H5  UNL d   1       4.254   0.832   1.870  0.00  0.00     0.418 HD
ENDBRANCH   4   7
TORSDOF 1
ENDMDL
