MODEL 1
REMARK minimizedAffinity 1.18515122
REMARK minimizedRMSD -1
REMARK  1 active torsions:
REMARK  status: ('A' for Active; 'I' for Inactive)
REMARK    1  A    between atoms: C3_4  and  O_7 
ROOT
ATOM      1  C   UNL d   1       1.884  -0.613   3.336  0.00  0.00    -0.033 A 
ATOM      2  C1  UNL d   1       1.805  -1.605   4.316  0.00  0.00     0.039 A 
ATOM      3  C2  UNL d   1       2.287  -2.888   4.052  0.00  0.00    -0.080 A 
ATOM      4  C3  UNL d   1       2.846  -3.166   2.808  0.00  0.00     0.150 A 
ATOM      5  C4  UNL d   1       2.932  -2.182   1.829  0.00  0.00    -0.007 A 
ATOM      6  C5  UNL d   1       2.449  -0.901   2.093  0.00  0.00     0.039 A 
ENDROOT
BRANCH   4   7
ATOM      7  O   UNL d   1       3.325  -4.406   2.503  0.00  0.00    -0.526 OA
ATOM      8  H5  UNL d   1       3.173  -4.990   3.264  0.00  0.00     0.418 HD
ENDBRANCH   4   7
TORSDOF 1
ENDMDL
