MODEL 1
REMARK minimizedAffinity 0.802960277
REMARK minimizedRMSD -1
REMARK  1 active torsions:
REMARK  status: ('A' for Active; 'I' for Inactive)
REMARK    1  A    between atoms: C3_4  and  O_7 
ROOT
ATOM      1  C   UNL d   1       3.697  -0.877   2.571  0.00  0.00    -0.033 A 
ATOM      2  C1  UNL d   1       2.384  -0.756   2.112  0.00  0.00     0.039 A 
ATOM      3  C2  UNL d   1       1.391  -1.610   2.597  0.00  0.00    -0.080 A 
ATOM      4  C3  UNL d   1       1.724  -2.579   3.539  0.00  0.00     0.150 A 
ATOM      5  C4  UNL d   1       3.029  -2.703   4.004  0.00  0.00    -0.007 A 
ATOM      6  C5  UNL d   1       4.019  -1.850   3.518  0.00  0.00     0.039 A 
ENDROOT
BRANCH   4   7
ATOM      7  O   UNL d   1       0.790  -3.439   4.038  0.00  0.00    -0.526 OA
ATOM      8  H5  UNL d   1      -0.060  -3.255   3.605  0.00  0.00     0.418 HD
ENDBRANCH   4   7
TORSDOF 1
ENDMDL
