MODEL 1
REMARK minimizedAffinity 0.56408757
REMARK minimizedRMSD -1
REMARK  1 active torsions:
REMARK  status: ('A' for Active; 'I' for Inactive)
REMARK    1  A    between atoms: C3_4  and  O_7 
ROOT
ATOM      1  C   UNL d   1       2.140  -3.434   3.996  0.00  0.00    -0.033 A 
ATOM      2  C1  UNL d   1       2.095  -2.215   4.675  0.00  0.00     0.039 A 
ATOM      3  C2  UNL d   1       2.291  -1.019   3.982  0.00  0.00    -0.080 A 
ATOM      4  C3  UNL d   1       2.529  -1.056   2.611  0.00  0.00     0.150 A 
ATOM      5  C4  UNL d   1       2.572  -2.266   1.926  0.00  0.00    -0.007 A 
ATOM      6  C5  UNL d   1       2.377  -3.459   2.621  0.00  0.00     0.039 A 
ENDROOT
BRANCH   4   7
ATOM      7  O   UNL d   1       2.731   0.085   1.892  0.00  0.00    -0.526 OA
ATOM      8  H5  UNL d   1       2.703   0.842   2.501  0.00  0.00     0.418 HD
ENDBRANCH   4   7
TORSDOF 1
ENDMDL
