MODEL 1
REMARK minimizedAffinity 6.05956459
REMARK minimizedRMSD -1
REMARK  1 active torsions:
REMARK  status: ('A' for Active; 'I' for Inactive)
REMARK    1  A    between atoms: C3_4  and  O_7 
ROOT
ATOM      1  C   UNL d   1      -4.024   2.960   0.173  0.00  0.00    -0.033 A 
ATOM      2  C1  UNL d   1      -3.309   2.461   1.264  0.00  0.00     0.039 A 
ATOM      3  C2  UNL d   1      -3.908   2.396   2.523  0.00  0.00    -0.080 A 
ATOM      4  C3  UNL d   1      -5.221   2.831   2.678  0.00  0.00     0.150 A 
ATOM      5  C4  UNL d   1      -5.941   3.326   1.596  0.00  0.00    -0.007 A 
ATOM      6  C5  UNL d   1      -5.340   3.390   0.339  0.00  0.00     0.039 A 
ENDROOT
BRANCH   4   7
ATOM      7  O   UNL d   1      -5.847   2.792   3.889  0.00  0.00    -0.526 OA
ATOM      8  H5  UNL d   1      -5.218   2.454   4.549  0.00  0.00     0.418 HD
ENDBRANCH   4   7
TORSDOF 1
ENDMDL
