MODEL 1
REMARK minimizedAffinity 3.90831113
REMARK minimizedRMSD -1
REMARK  1 active torsions:
REMARK  status: ('A' for Active; 'I' for Inactive)
REMARK    1  A    between atoms: C3_4  and  O_7 
ROOT
ATOM      1  C   UNL d   1       1.926  -3.417   4.511  0.00  0.00    -0.033 A 
ATOM      2  C1  UNL d   1       2.594  -3.975   3.420  0.00  0.00     0.039 A 
ATOM      3  C2  UNL d   1       2.856  -3.199   2.288  0.00  0.00    -0.080 A 
ATOM      4  C3  UNL d   1       2.446  -1.869   2.262  0.00  0.00     0.150 A 
ATOM      5  C4  UNL d   1       1.783  -1.306   3.347  0.00  0.00    -0.007 A 
ATOM      6  C5  UNL d   1       1.522  -2.082   4.476  0.00  0.00     0.039 A 
ENDROOT
BRANCH   4   7
ATOM      7  O   UNL d   1       2.675  -1.075   1.178  0.00  0.00    -0.526 OA
ATOM      8  H5  UNL d   1       3.115  -1.606   0.494  0.00  0.00     0.418 HD
ENDBRANCH   4   7
TORSDOF 1
ENDMDL
