MODEL 1
REMARK minimizedAffinity 9.05948639
REMARK minimizedRMSD -1
REMARK  1 active torsions:
REMARK  status: ('A' for Active; 'I' for Inactive)
REMARK    1  A    between atoms: C3_4  and  O_7 
ROOT
ATOM      1  C   UNL d   1      -5.951   2.077   0.721  0.00  0.00    -0.033 A 
ATOM      2  C1  UNL d   1      -5.999   3.472   0.761  0.00  0.00     0.039 A 
ATOM      3  C2  UNL d   1      -5.909   4.140   1.984  0.00  0.00    -0.080 A 
ATOM      4  C3  UNL d   1      -5.772   3.403   3.157  0.00  0.00     0.150 A 
ATOM      5  C4  UNL d   1      -5.720   2.014   3.124  0.00  0.00    -0.007 A 
ATOM      6  C5  UNL d   1      -5.810   1.348   1.902  0.00  0.00     0.039 A 
ENDROOT
BRANCH   4   7
ATOM      7  O   UNL d   1      -5.686   4.011   4.374  0.00  0.00    -0.526 OA
ATOM      8  H5  UNL d   1      -5.765   4.971   4.245  0.00  0.00     0.418 HD
ENDBRANCH   4   7
TORSDOF 1
ENDMDL
