MODEL 1
REMARK minimizedAffinity 3.19222665
REMARK minimizedRMSD -1
REMARK  1 active torsions:
REMARK  status: ('A' for Active; 'I' for Inactive)
REMARK    1  A    between atoms: C3_4  and  O_7 
ROOT
ATOM      1  C   UNL d   1      -4.021   2.525   0.037  0.00  0.00    -0.033 A 
ATOM      2  C1  UNL d   1      -3.225   2.884   1.126  0.00  0.00     0.039 A 
ATOM      3  C2  UNL d   1      -3.815   3.372   2.294  0.00  0.00    -0.080 A 
ATOM      4  C3  UNL d   1      -5.200   3.495   2.359  0.00  0.00     0.150 A 
ATOM      5  C4  UNL d   1      -6.000   3.135   1.279  0.00  0.00    -0.007 A 
ATOM      6  C5  UNL d   1      -5.409   2.649   0.114  0.00  0.00     0.039 A 
ENDROOT
BRANCH   4   7
ATOM      7  O   UNL d   1      -5.821   3.971   3.476  0.00  0.00    -0.526 OA
ATOM      8  H5  UNL d   1      -5.142   4.206   4.129  0.00  0.00     0.418 HD
ENDBRANCH   4   7
TORSDOF 1
ENDMDL
