MODEL 1
REMARK minimizedAffinity -2.91841817
REMARK minimizedRMSD -1
REMARK  1 active torsions:
REMARK  status: ('A' for Active; 'I' for Inactive)
REMARK    1  A    between atoms: C1_2  and  C2_3 
ROOT
ATOM      1  C2  UNL d   1      -0.497   0.144   0.622  0.00  0.00    -0.081 A 
ATOM      2  C3  UNL d   1       0.088   1.325   0.149  0.00  0.00     0.006 A 
ATOM      3  C4  UNL d   1       0.867   1.315  -1.010  0.00  0.00     0.002 A 
ATOM      4  C5  UNL d   1       1.068   0.127  -1.720  0.00  0.00    -0.080 A 
ATOM      5  C6  UNL d   1       1.877   0.108  -2.983  0.00  0.00     0.076 C 
ATOM      6  C7  UNL d   1       0.498  -1.057  -1.239  0.00  0.00     0.002 A 
ATOM      7  C8  UNL d   1      -0.281  -1.047  -0.079  0.00  0.00     0.006 A 
ENDROOT
BRANCH   1   8
ATOM      8  C1  UNL d   1      -1.391   0.164   1.835  0.00  0.00     0.054 C 
ATOM      9  C   UNL d   1      -2.856   0.022   1.446  0.00  0.00     0.018 C 
ENDBRANCH   1   8
TORSDOF 1
ENDMDL
