MODEL 1
REMARK minimizedAffinity -4.8491168
REMARK minimizedRMSD -1
REMARK  1 active torsions:
REMARK  status: ('A' for Active; 'I' for Inactive)
REMARK    1  A    between atoms: C1_2  and  C2_3 
ROOT
ATOM      1  C2  UNL d   1      -0.889   0.472   1.313  0.00  0.00    -0.081 A 
ATOM      2  C3  UNL d   1      -0.279   1.670   0.922  0.00  0.00     0.006 A 
ATOM      3  C4  UNL d   1       0.669   1.680  -0.104  0.00  0.00     0.002 A 
ATOM      4  C5  UNL d   1       1.016   0.495  -0.761  0.00  0.00    -0.080 A 
ATOM      5  C6  UNL d   1       2.010   0.497  -1.885  0.00  0.00     0.076 C 
ATOM      6  C7  UNL d   1       0.420  -0.705  -0.359  0.00  0.00     0.002 A 
ATOM      7  C8  UNL d   1      -0.527  -0.716   0.667  0.00  0.00     0.006 A 
ENDROOT
BRANCH   1   8
ATOM      8  C1  UNL d   1      -1.959   0.467   2.375  0.00  0.00     0.054 C 
ATOM      9  C   UNL d   1      -3.344   0.311   1.764  0.00  0.00     0.018 C 
ENDBRANCH   1   8
TORSDOF 1
ENDMDL
