MODEL 1
REMARK minimizedAffinity -4.17938232
REMARK minimizedRMSD -1
REMARK  1 active torsions:
REMARK  status: ('A' for Active; 'I' for Inactive)
REMARK    1  A    between atoms: C1_2  and  C2_3 
ROOT
ATOM      1  C2  UNL d   1      -0.708   0.227   0.841  0.00  0.00    -0.081 A 
ATOM      2  C3  UNL d   1       0.350   1.124   0.646  0.00  0.00     0.006 A 
ATOM      3  C4  UNL d   1       1.285   0.906  -0.369  0.00  0.00     0.002 A 
ATOM      4  C5  UNL d   1       1.173  -0.206  -1.210  0.00  0.00    -0.080 A 
ATOM      5  C6  UNL d   1       2.153  -0.434  -2.323  0.00  0.00     0.076 C 
ATOM      6  C7  UNL d   1       0.127  -1.111  -1.005  0.00  0.00     0.002 A 
ATOM      7  C8  UNL d   1      -0.808  -0.894   0.010  0.00  0.00     0.006 A 
ENDROOT
BRANCH   1   8
ATOM      8  C1  UNL d   1      -1.754   0.493   1.892  0.00  0.00     0.054 C 
ATOM      9  C   UNL d   1      -3.134   0.055   1.423  0.00  0.00     0.018 C 
ENDBRANCH   1   8
TORSDOF 1
ENDMDL
