MODEL 1
REMARK minimizedAffinity -4.9997921
REMARK minimizedRMSD -1
REMARK  1 active torsions:
REMARK  status: ('A' for Active; 'I' for Inactive)
REMARK    1  A    between atoms: C1_2  and  C2_3 
ROOT
ATOM      1  C2  UNL d   1      -0.085   0.006   0.699  0.00  0.00    -0.081 A 
ATOM      2  C3  UNL d   1       0.477   1.034  -0.068  0.00  0.00     0.006 A 
ATOM      3  C4  UNL d   1       1.130   0.746  -1.269  0.00  0.00     0.002 A 
ATOM      4  C5  UNL d   1       1.226  -0.572  -1.726  0.00  0.00    -0.080 A 
ATOM      5  C6  UNL d   1       1.898  -0.892  -3.028  0.00  0.00     0.076 C 
ATOM      6  C7  UNL d   1       0.679  -1.601  -0.951  0.00  0.00     0.002 A 
ATOM      7  C8  UNL d   1       0.027  -1.314   0.249  0.00  0.00     0.006 A 
ENDROOT
BRANCH   1   8
ATOM      8  C1  UNL d   1      -0.846   0.321   1.961  0.00  0.00     0.054 C 
ATOM      9  C   UNL d   1      -2.330   0.508   1.680  0.00  0.00     0.018 C 
ENDBRANCH   1   8
TORSDOF 1
ENDMDL
