MODEL 1
REMARK minimizedAffinity -3.21361542
REMARK minimizedRMSD -1
REMARK  1 active torsions:
REMARK  status: ('A' for Active; 'I' for Inactive)
REMARK    1  A    between atoms: C1_2  and  C2_3 
ROOT
ATOM      1  C2  UNL d   1      -0.915   0.253   0.561  0.00  0.00    -0.081 A 
ATOM      2  C3  UNL d   1       0.427   0.570   0.804  0.00  0.00     0.006 A 
ATOM      3  C4  UNL d   1       1.366   0.517  -0.228  0.00  0.00     0.002 A 
ATOM      4  C5  UNL d   1       0.978   0.153  -1.522  0.00  0.00    -0.080 A 
ATOM      5  C6  UNL d   1       1.970   0.121  -2.647  0.00  0.00     0.076 C 
ATOM      6  C7  UNL d   1      -0.359  -0.181  -1.762  0.00  0.00     0.002 A 
ATOM      7  C8  UNL d   1      -1.299  -0.129  -0.730  0.00  0.00     0.006 A 
ENDROOT
BRANCH   1   8
ATOM      8  C1  UNL d   1      -1.942   0.372   1.658  0.00  0.00     0.054 C 
ATOM      9  C   UNL d   1      -3.299  -0.148   1.204  0.00  0.00     0.018 C 
ENDBRANCH   1   8
TORSDOF 1
ENDMDL
