MODEL 1
REMARK minimizedAffinity -5.37381887
REMARK minimizedRMSD -1
REMARK  1 active torsions:
REMARK  status: ('A' for Active; 'I' for Inactive)
REMARK    1  A    between atoms: C1_2  and  C2_3 
ROOT
ATOM      1  C2  UNL d   1       0.157  -0.200   0.035  0.00  0.00    -0.081 A 
ATOM      2  C3  UNL d   1       0.799   0.918  -0.512  0.00  0.00     0.006 A 
ATOM      3  C4  UNL d   1       1.492   0.816  -1.721  0.00  0.00     0.002 A 
ATOM      4  C5  UNL d   1       1.549  -0.402  -2.406  0.00  0.00    -0.080 A 
ATOM      5  C6  UNL d   1       2.264  -0.518  -3.719  0.00  0.00     0.076 C 
ATOM      6  C7  UNL d   1       0.923  -1.523  -1.851  0.00  0.00     0.002 A 
ATOM      7  C8  UNL d   1       0.230  -1.422  -0.642  0.00  0.00     0.006 A 
ENDROOT
BRANCH   1   8
ATOM      8  C1  UNL d   1      -0.645  -0.078   1.305  0.00  0.00     0.054 C 
ATOM      9  C   UNL d   1      -2.133  -0.257   1.039  0.00  0.00     0.018 C 
ENDBRANCH   1   8
TORSDOF 1
ENDMDL
