MODEL 1
REMARK minimizedAffinity -2.66081667
REMARK minimizedRMSD -1
REMARK  1 active torsions:
REMARK  status: ('A' for Active; 'I' for Inactive)
REMARK    1  A    between atoms: C1_2  and  C2_3 
ROOT
ATOM      1  C2  UNL d   1      -1.622   1.852   2.378  0.00  0.00    -0.081 A 
ATOM      2  C3  UNL d   1      -0.352   2.100   1.841  0.00  0.00     0.006 A 
ATOM      3  C4  UNL d   1       0.314   1.113   1.112  0.00  0.00     0.002 A 
ATOM      4  C5  UNL d   1      -0.281  -0.136   0.900  0.00  0.00    -0.080 A 
ATOM      5  C6  UNL d   1       0.410  -1.195   0.094  0.00  0.00     0.076 C 
ATOM      6  C7  UNL d   1      -1.541  -0.390   1.452  0.00  0.00     0.002 A 
ATOM      7  C8  UNL d   1      -2.207   0.597   2.182  0.00  0.00     0.006 A 
ENDROOT
BRANCH   1   8
ATOM      8  C1  UNL d   1      -2.370   2.937   3.110  0.00  0.00     0.054 C 
ATOM      9  C   UNL d   1      -3.343   3.657   2.187  0.00  0.00     0.018 C 
ENDBRANCH   1   8
TORSDOF 1
ENDMDL
