MODEL 1
REMARK minimizedAffinity -1.89070022
REMARK minimizedRMSD -1
REMARK  1 active torsions:
REMARK  status: ('A' for Active; 'I' for Inactive)
REMARK    1  A    between atoms: C1_2  and  C2_3 
ROOT
ATOM      1  C2  UNL d   1      -0.973   0.602   1.320  0.00  0.00    -0.081 A 
ATOM      2  C3  UNL d   1      -0.321   1.788   0.960  0.00  0.00     0.006 A 
ATOM      3  C4  UNL d   1       0.777   1.759   0.097  0.00  0.00     0.002 A 
ATOM      4  C5  UNL d   1       1.236   0.545  -0.426  0.00  0.00    -0.080 A 
ATOM      5  C6  UNL d   1       2.395   0.503  -1.378  0.00  0.00     0.076 C 
ATOM      6  C7  UNL d   1       0.596  -0.641  -0.053  0.00  0.00     0.002 A 
ATOM      7  C8  UNL d   1      -0.501  -0.613   0.810  0.00  0.00     0.006 A 
ENDROOT
BRANCH   1   8
ATOM      8  C1  UNL d   1      -2.197   0.637   2.199  0.00  0.00     0.054 C 
ATOM      9  C   UNL d   1      -3.436   0.185   1.440  0.00  0.00     0.018 C 
ENDBRANCH   1   8
TORSDOF 1
ENDMDL
