MODEL 1
REMARK minimizedAffinity -5.35298491
REMARK minimizedRMSD -1
REMARK  1 active torsions:
REMARK  status: ('A' for Active; 'I' for Inactive)
REMARK    1  A    between atoms: C1_2  and  C2_3 
ROOT
ATOM      1  C2  UNL d   1      -0.478   0.077   0.593  0.00  0.00    -0.081 A 
ATOM      2  C3  UNL d   1       0.128   1.061  -0.196  0.00  0.00     0.006 A 
ATOM      3  C4  UNL d   1       0.905   0.704  -1.301  0.00  0.00     0.002 A 
ATOM      4  C5  UNL d   1       1.083  -0.642  -1.639  0.00  0.00    -0.080 A 
ATOM      5  C6  UNL d   1       1.890  -1.037  -2.840  0.00  0.00     0.076 C 
ATOM      6  C7  UNL d   1       0.492  -1.626  -0.840  0.00  0.00     0.002 A 
ATOM      7  C8  UNL d   1      -0.285  -1.270   0.265  0.00  0.00     0.006 A 
ENDROOT
BRANCH   1   8
ATOM      8  C1  UNL d   1      -1.370   0.460   1.746  0.00  0.00     0.054 C 
ATOM      9  C   UNL d   1      -2.807   0.665   1.290  0.00  0.00     0.018 C 
ENDBRANCH   1   8
TORSDOF 1
ENDMDL
