MODEL 1
REMARK minimizedAffinity 6.6853857
REMARK minimizedRMSD -1
REMARK  0 active torsions:
REMARK  status: ('A' for Active; 'I' for Inactive)
ROOT
ATOM      1  N1  IND d   1       0.178  -3.097   3.071  0.00  0.00    -0.196 N 
ATOM      2  C2  IND d   1      -0.067  -1.785   3.366  0.00  0.00     0.054 A 
ATOM      3  C3  IND d   1       0.677  -0.979   2.577  0.00  0.00    -0.031 A 
ATOM      4  C4  IND d   1       2.289  -1.594   0.667  0.00  0.00     0.051 A 
ATOM      5  C5  IND d   1       2.868  -2.668   0.049  0.00  0.00    -0.031 A 
ATOM      6  C6  IND d   1       2.571  -3.965   0.413  0.00  0.00     0.015 A 
ATOM      7  C7  IND d   1       1.672  -4.239   1.405  0.00  0.00    -0.016 A 
ATOM      8  C8  IND d   1       1.088  -3.152   2.039  0.00  0.00    -0.047 A 
ATOM      9  C9  IND d   1       1.417  -1.832   1.703  0.00  0.00    -0.096 A 
ATOM     10  HN1 IND d   1      -0.177  -3.775   3.465  0.00  0.00     0.298 HD
ENDROOT
TORSDOF 0
ENDMDL
