MODEL 1
REMARK minimizedAffinity 6.47693062
REMARK minimizedRMSD -1
REMARK  0 active torsions:
REMARK  status: ('A' for Active; 'I' for Inactive)
ROOT
ATOM      1  N1  IND d   1       1.040  -2.266   0.239  0.00  0.00    -0.196 N 
ATOM      2  C2  IND d   1       2.147  -1.552  -0.125  0.00  0.00     0.054 A 
ATOM      3  C3  IND d   1       2.520  -0.721   0.874  0.00  0.00    -0.031 A 
ATOM      4  C4  IND d   1       1.519  -0.442   3.229  0.00  0.00     0.051 A 
ATOM      5  C5  IND d   1       0.476  -0.852   4.012  0.00  0.00    -0.031 A 
ATOM      6  C6  IND d   1      -0.449  -1.775   3.569  0.00  0.00     0.015 A 
ATOM      7  C7  IND d   1      -0.359  -2.333   2.325  0.00  0.00    -0.016 A 
ATOM      8  C8  IND d   1       0.694  -1.914   1.525  0.00  0.00    -0.047 A 
ATOM      9  C9  IND d   1       1.612  -0.946   1.953  0.00  0.00    -0.096 A 
ATOM     10  HN1 IND d   1       0.628  -2.839  -0.253  0.00  0.00     0.298 HD
ENDROOT
TORSDOF 0
ENDMDL
