MODEL 1
REMARK minimizedAffinity 6.83232403
REMARK minimizedRMSD -1
REMARK  0 active torsions:
REMARK  status: ('A' for Active; 'I' for Inactive)
ROOT
ATOM      1  N1  IND d   1      -0.155  -2.287   3.240  0.00  0.00    -0.196 N 
ATOM      2  C2  IND d   1      -0.777  -1.110   2.928  0.00  0.00     0.054 A 
ATOM      3  C3  IND d   1      -0.193  -0.541   1.849  0.00  0.00    -0.031 A 
ATOM      4  C4  IND d   1       1.730  -1.416   0.379  0.00  0.00     0.051 A 
ATOM      5  C5  IND d   1       2.642  -2.430   0.289  0.00  0.00    -0.031 A 
ATOM      6  C6  IND d   1       2.668  -3.470   1.196  0.00  0.00     0.015 A 
ATOM      7  C7  IND d   1       1.771  -3.541   2.223  0.00  0.00    -0.016 A 
ATOM      8  C8  IND d   1       0.847  -2.510   2.321  0.00  0.00    -0.047 A 
ATOM      9  C9  IND d   1       0.843  -1.430   1.429  0.00  0.00    -0.096 A 
ATOM     10  HN1 IND d   1      -0.355  -2.801   3.900  0.00  0.00     0.298 HD
ENDROOT
TORSDOF 0
ENDMDL
