MODEL 1
REMARK minimizedAffinity 11.393281
REMARK minimizedRMSD -1
REMARK  0 active torsions:
REMARK  status: ('A' for Active; 'I' for Inactive)
ROOT
ATOM      1  N1  IND d   1       1.244  -1.389  -1.302  0.00  0.00    -0.196 N 
ATOM      2  C2  IND d   1      -0.081  -1.056  -1.338  0.00  0.00     0.054 A 
ATOM      3  C3  IND d   1      -0.658  -1.291  -0.139  0.00  0.00    -0.031 A 
ATOM      4  C4  IND d   1       0.405  -2.125   2.052  0.00  0.00     0.051 A 
ATOM      5  C5  IND d   1       1.580  -2.595   2.569  0.00  0.00    -0.031 A 
ATOM      6  C6  IND d   1       2.727  -2.687   1.807  0.00  0.00     0.015 A 
ATOM      7  C7  IND d   1       2.744  -2.299   0.497  0.00  0.00    -0.016 A 
ATOM      8  C8  IND d   1       1.551  -1.827  -0.033  0.00  0.00    -0.047 A 
ATOM      9  C9  IND d   1       0.374  -1.772   0.724  0.00  0.00    -0.096 A 
ATOM     10  HN1 IND d   1       1.794  -1.334  -1.961  0.00  0.00     0.298 HD
ENDROOT
TORSDOF 0
ENDMDL
