MODEL 1
REMARK minimizedAffinity 12.102663
REMARK minimizedRMSD -1
REMARK  0 active torsions:
REMARK  status: ('A' for Active; 'I' for Inactive)
ROOT
ATOM      1  N1  IND d   1       1.175  -3.077   0.732  0.00  0.00    -0.196 N 
ATOM      2  C2  IND d   1       2.061  -2.191   0.187  0.00  0.00     0.054 A 
ATOM      3  C3  IND d   1       1.985  -0.999   0.821  0.00  0.00    -0.031 A 
ATOM      4  C4  IND d   1       0.550  -0.313   2.845  0.00  0.00     0.051 A 
ATOM      5  C5  IND d   1      -0.441  -0.771   3.668  0.00  0.00    -0.031 A 
ATOM      6  C6  IND d   1      -0.952  -2.048   3.553  0.00  0.00     0.015 A 
ATOM      7  C7  IND d   1      -0.482  -2.922   2.615  0.00  0.00    -0.016 A 
ATOM      8  C8  IND d   1       0.520  -2.458   1.773  0.00  0.00    -0.047 A 
ATOM      9  C9  IND d   1       1.013  -1.150   1.857  0.00  0.00    -0.096 A 
ATOM     10  HN1 IND d   1       1.048  -3.886   0.468  0.00  0.00     0.298 HD
ENDROOT
TORSDOF 0
ENDMDL
