MODEL 1
REMARK minimizedAffinity 8.71032333
REMARK minimizedRMSD -1
REMARK  0 active torsions:
REMARK  status: ('A' for Active; 'I' for Inactive)
ROOT
ATOM      1  N1  IND d   1       1.302  -2.290   0.288  0.00  0.00    -0.196 N 
ATOM      2  C2  IND d   1       1.083  -1.213   1.102  0.00  0.00     0.054 A 
ATOM      3  C3  IND d   1       1.740  -1.368   2.273  0.00  0.00    -0.031 A 
ATOM      4  C4  IND d   1       3.315  -3.259   3.029  0.00  0.00     0.051 A 
ATOM      5  C5  IND d   1       3.796  -4.479   2.643  0.00  0.00    -0.031 A 
ATOM      6  C6  IND d   1       3.466  -5.042   1.427  0.00  0.00     0.015 A 
ATOM      7  C7  IND d   1       2.648  -4.397   0.542  0.00  0.00    -0.016 A 
ATOM      8  C8  IND d   1       2.152  -3.162   0.934  0.00  0.00    -0.047 A 
ATOM      9  C9  IND d   1       2.449  -2.605   2.184  0.00  0.00    -0.096 A 
ATOM     10  HN1 IND d   1       0.966  -2.404  -0.495  0.00  0.00     0.298 HD
ENDROOT
TORSDOF 0
ENDMDL
