MODEL 1
REMARK minimizedAffinity -3.44169021
REMARK minimizedRMSD -1
REMARK  1 active torsions:
REMARK  status: ('A' for Active; 'I' for Inactive)
REMARK    1  A    between atoms: C3_4  and  O_7 
ROOT
ATOM      1  C   UNL d   1      -0.881   0.400  -0.271  0.00  0.00    -0.033 A 
ATOM      2  C1  UNL d   1      -0.345   1.685  -0.166  0.00  0.00     0.039 A 
ATOM      3  C2  UNL d   1       0.989   1.859   0.207  0.00  0.00    -0.080 A 
ATOM      4  C3  UNL d   1       1.775   0.742   0.472  0.00  0.00     0.150 A 
ATOM      5  C4  UNL d   1       1.249  -0.541   0.366  0.00  0.00    -0.007 A 
ATOM      6  C5  UNL d   1      -0.083  -0.713  -0.006  0.00  0.00     0.039 A 
ENDROOT
BRANCH   4   7
ATOM      7  O   UNL d   1       3.081   0.862   0.844  0.00  0.00    -0.526 OA
ATOM      8  H5  UNL d   1       3.299   1.807   0.903  0.00  0.00     0.418 HD
ENDBRANCH   4   7
TORSDOF 1
ENDMDL
