MODEL 1
REMARK minimizedAffinity -4.52524042
REMARK minimizedRMSD -1
REMARK  1 active torsions:
REMARK  status: ('A' for Active; 'I' for Inactive)
REMARK    1  A    between atoms: C3_4  and  O_7 
ROOT
ATOM      1  C   UNL d   1       2.083  -0.369   1.226  0.00  0.00    -0.033 A 
ATOM      2  C1  UNL d   1       1.872   0.822   0.527  0.00  0.00     0.039 A 
ATOM      3  C2  UNL d   1       0.653   1.050  -0.114  0.00  0.00    -0.080 A 
ATOM      4  C3  UNL d   1      -0.346   0.083  -0.048  0.00  0.00     0.150 A 
ATOM      5  C4  UNL d   1      -0.144  -1.104   0.649  0.00  0.00    -0.007 A 
ATOM      6  C5  UNL d   1       1.075  -1.331   1.288  0.00  0.00     0.039 A 
ENDROOT
BRANCH   4   7
ATOM      7  O   UNL d   1      -1.550   0.259  -0.661  0.00  0.00    -0.526 OA
ATOM      8  H5  UNL d   1      -1.536   1.112  -1.128  0.00  0.00     0.418 HD
ENDBRANCH   4   7
TORSDOF 1
ENDMDL
