MODEL 1
REMARK minimizedAffinity -3.27307248
REMARK minimizedRMSD -1
REMARK  1 active torsions:
REMARK  status: ('A' for Active; 'I' for Inactive)
REMARK    1  A    between atoms: C3_4  and  O_7 
ROOT
ATOM      1  C   UNL d   1       0.778   0.556   0.022  0.00  0.00    -0.033 A 
ATOM      2  C1  UNL d   1      -0.097  -0.524   0.152  0.00  0.00     0.039 A 
ATOM      3  C2  UNL d   1       0.139  -1.503   1.119  0.00  0.00    -0.080 A 
ATOM      4  C3  UNL d   1       1.251  -1.391   1.948  0.00  0.00     0.150 A 
ATOM      5  C4  UNL d   1       2.125  -0.316   1.826  0.00  0.00    -0.007 A 
ATOM      6  C5  UNL d   1       1.888   0.661   0.860  0.00  0.00     0.039 A 
ENDROOT
BRANCH   4   7
ATOM      7  O   UNL d   1       1.526  -2.325   2.902  0.00  0.00    -0.526 OA
ATOM      8  H5  UNL d   1       0.853  -3.024   2.851  0.00  0.00     0.418 HD
ENDBRANCH   4   7
TORSDOF 1
ENDMDL
