MODEL 1
REMARK minimizedAffinity -1.87173903
REMARK minimizedRMSD -1
REMARK  1 active torsions:
REMARK  status: ('A' for Active; 'I' for Inactive)
REMARK    1  A    between atoms: C3_4  and  O_7 
ROOT
ATOM      1  C   UNL d   1       1.315   1.148   0.629  0.00  0.00    -0.033 A 
ATOM      2  C1  UNL d   1       2.113   0.353   1.453  0.00  0.00     0.039 A 
ATOM      3  C2  UNL d   1       1.665  -0.907   1.856  0.00  0.00    -0.080 A 
ATOM      4  C3  UNL d   1       0.420  -1.359   1.427  0.00  0.00     0.150 A 
ATOM      5  C4  UNL d   1      -0.379  -0.573   0.603  0.00  0.00    -0.007 A 
ATOM      6  C5  UNL d   1       0.070   0.685   0.202  0.00  0.00     0.039 A 
ENDROOT
BRANCH   4   7
ATOM      7  O   UNL d   1      -0.062  -2.579   1.798  0.00  0.00    -0.526 OA
ATOM      8  H5  UNL d   1       0.584  -2.998   2.390  0.00  0.00     0.418 HD
ENDBRANCH   4   7
TORSDOF 1
ENDMDL
