MODEL 1
REMARK minimizedAffinity -2.20576334
REMARK minimizedRMSD -1
REMARK  3 active torsions:
REMARK  status: ('A' for Active; 'I' for Inactive)
REMARK    1  A    between atoms: C3'_2  and  C2'_3 
REMARK    2  A    between atoms: C2'_3  and  C1'_4 
REMARK    3  A    between atoms: C1'_4  and  C1_5 
ROOT
ATOM      1  C1  N4B d   1      -5.871  -3.340  -5.128  0.00  0.00    -0.075 A 
ATOM      2  C2  N4B d   1      -5.946  -2.039  -5.673  0.00  0.00     0.002 A 
ATOM      3  C3  N4B d   1      -6.000  -0.948  -4.841  0.00  0.00     0.002 A 
ATOM      4  C4  N4B d   1      -6.000  -1.133  -3.467  0.00  0.00    -0.004 A 
ATOM      5  C5  N4B d   1      -5.902  -2.391  -2.948  0.00  0.00     0.002 A 
ATOM      6  C6  N4B d   1      -5.843  -3.497  -3.773  0.00  0.00     0.002 A 
ENDROOT
BRANCH   1   7
ATOM      7  C1' N4B d   1      -5.896  -4.567  -5.997  0.00  0.00     0.057 C 
BRANCH   7   8
ATOM      8  C2' N4B d   1      -4.718  -5.465  -5.630  0.00  0.00     0.009 C 
BRANCH   8   9
ATOM      9  C3' N4B d   1      -3.386  -4.821  -5.975  0.00  0.00     0.004 C 
ATOM     10  C4' N4B d   1      -2.214  -5.693  -5.632  0.00  0.00     0.003 C 
ENDBRANCH   8   9
ENDBRANCH   7   8
ENDBRANCH   1   7
TORSDOF 3
ENDMDL
