MODEL 1
REMARK minimizedAffinity -1.64699769
REMARK minimizedRMSD -1
REMARK  3 active torsions:
REMARK  status: ('A' for Active; 'I' for Inactive)
REMARK    1  A    between atoms: C3'_2  and  C2'_3 
REMARK    2  A    between atoms: C2'_3  and  C1'_4 
REMARK    3  A    between atoms: C1'_4  and  C1_5 
ROOT
ATOM      1  C1  N4B d   1      -3.580  -4.269  -5.560  0.00  0.00    -0.075 A 
ATOM      2  C2  N4B d   1      -4.793  -4.843  -6.000  0.00  0.00     0.002 A 
ATOM      3  C3  N4B d   1      -5.990  -4.267  -5.653  0.00  0.00     0.002 A 
ATOM      4  C4  N4B d   1      -6.000  -3.132  -4.855  0.00  0.00    -0.004 A 
ATOM      5  C5  N4B d   1      -4.823  -2.569  -4.456  0.00  0.00     0.002 A 
ATOM      6  C6  N4B d   1      -3.612  -3.136  -4.801  0.00  0.00     0.002 A 
ENDROOT
BRANCH   1   7
ATOM      7  C1' N4B d   1      -2.249  -4.912  -5.843  0.00  0.00     0.057 C 
BRANCH   7   8
ATOM      8  C2' N4B d   1      -1.542  -5.199  -4.522  0.00  0.00     0.009 C 
BRANCH   8   9
ATOM      9  C3' N4B d   1      -2.416  -5.999  -3.571  0.00  0.00     0.004 C 
ATOM     10  C4' N4B d   1      -2.658  -5.292  -2.271  0.00  0.00     0.003 C 
ENDBRANCH   8   9
ENDBRANCH   7   8
ENDBRANCH   1   7
TORSDOF 3
ENDMDL
