MODEL 1
REMARK minimizedAffinity -3.43222094
REMARK minimizedRMSD -1
REMARK  3 active torsions:
REMARK  status: ('A' for Active; 'I' for Inactive)
REMARK    1  A    between atoms: C3'_2  and  C2'_3 
REMARK    2  A    between atoms: C2'_3  and  C1'_4 
REMARK    3  A    between atoms: C1'_4  and  C1_5 
ROOT
ATOM      1  C1  N4B d   1      -3.894  -2.824  -5.445  0.00  0.00    -0.075 A 
ATOM      2  C2  N4B d   1      -4.145  -1.541  -5.979  0.00  0.00     0.002 A 
ATOM      3  C3  N4B d   1      -5.187  -0.788  -5.496  0.00  0.00     0.002 A 
ATOM      4  C4  N4B d   1      -6.000  -1.303  -4.498  0.00  0.00    -0.004 A 
ATOM      5  C5  N4B d   1      -5.735  -2.533  -3.970  0.00  0.00     0.002 A 
ATOM      6  C6  N4B d   1      -4.688  -3.299  -4.443  0.00  0.00     0.002 A 
ENDROOT
BRANCH   1   7
ATOM      7  C1' N4B d   1      -2.819  -3.718  -6.000  0.00  0.00     0.057 C 
BRANCH   7   8
ATOM      8  C2' N4B d   1      -3.286  -5.169  -5.923  0.00  0.00     0.009 C 
BRANCH   8   9
ATOM      9  C3' N4B d   1      -2.412  -5.999  -4.999  0.00  0.00     0.004 C 
ATOM     10  C4' N4B d   1      -1.152  -5.290  -4.598  0.00  0.00     0.003 C 
ENDBRANCH   8   9
ENDBRANCH   7   8
ENDBRANCH   1   7
TORSDOF 3
ENDMDL
