MODEL 1
REMARK minimizedAffinity -2.29852271
REMARK minimizedRMSD -1
REMARK  3 active torsions:
REMARK  status: ('A' for Active; 'I' for Inactive)
REMARK    1  A    between atoms: C3'_2  and  C2'_3 
REMARK    2  A    between atoms: C2'_3  and  C1'_4 
REMARK    3  A    between atoms: C1'_4  and  C1_5 
ROOT
ATOM      1  C1  N4B d   1      -3.887  -4.627  -5.311  0.00  0.00    -0.075 A 
ATOM      2  C2  N4B d   1      -2.713  -4.250  -6.000  0.00  0.00     0.002 A 
ATOM      3  C3  N4B d   1      -1.497  -4.755  -5.610  0.00  0.00     0.002 A 
ATOM      4  C4  N4B d   1      -1.428  -5.620  -4.528  0.00  0.00    -0.004 A 
ATOM      5  C5  N4B d   1      -2.569  -5.999  -3.885  0.00  0.00     0.002 A 
ATOM      6  C6  N4B d   1      -3.799  -5.503  -4.268  0.00  0.00     0.002 A 
ENDROOT
BRANCH   1   7
ATOM      7  C1' N4B d   1      -5.229  -4.035  -5.646  0.00  0.00     0.057 C 
BRANCH   7   8
ATOM      8  C2' N4B d   1      -5.625  -3.045  -4.555  0.00  0.00     0.009 C 
BRANCH   8   9
ATOM      9  C3' N4B d   1      -5.999  -1.689  -5.128  0.00  0.00     0.004 C 
ATOM     10  C4' N4B d   1      -5.828  -0.574  -4.139  0.00  0.00     0.003 C 
ENDBRANCH   8   9
ENDBRANCH   7   8
ENDBRANCH   1   7
TORSDOF 3
ENDMDL
