MODEL 1
REMARK minimizedAffinity -2.70435405
REMARK minimizedRMSD -1
REMARK  3 active torsions:
REMARK  status: ('A' for Active; 'I' for Inactive)
REMARK    1  A    between atoms: C3'_2  and  C2'_3 
REMARK    2  A    between atoms: C2'_3  and  C1'_4 
REMARK    3  A    between atoms: C1'_4  and  C1_5 
ROOT
ATOM      1  C1  N4B d   1      -4.603  -3.579  -5.868  0.00  0.00    -0.075 A 
ATOM      2  C2  N4B d   1      -3.196  -3.490  -5.949  0.00  0.00     0.002 A 
ATOM      3  C3  N4B d   1      -2.437  -4.633  -5.995  0.00  0.00     0.002 A 
ATOM      4  C4  N4B d   1      -3.059  -5.872  -5.943  0.00  0.00    -0.004 A 
ATOM      5  C5  N4B d   1      -4.420  -5.950  -5.890  0.00  0.00     0.002 A 
ATOM      6  C6  N4B d   1      -5.195  -4.809  -5.847  0.00  0.00     0.002 A 
ENDROOT
BRANCH   1   7
ATOM      7  C1' N4B d   1      -5.470  -2.358  -5.729  0.00  0.00     0.057 C 
BRANCH   7   8
ATOM      8  C2' N4B d   1      -5.914  -2.222  -4.275  0.00  0.00     0.009 C 
BRANCH   8   9
ATOM      9  C3' N4B d   1      -5.971  -0.770  -3.831  0.00  0.00     0.004 C 
ATOM     10  C4' N4B d   1      -5.989   0.189  -4.984  0.00  0.00     0.003 C 
ENDBRANCH   8   9
ENDBRANCH   7   8
ENDBRANCH   1   7
TORSDOF 3
ENDMDL
