MODEL 1
REMARK minimizedAffinity 1.69561207
REMARK minimizedRMSD -1
REMARK  3 active torsions:
REMARK  status: ('A' for Active; 'I' for Inactive)
REMARK    1  A    between atoms: C3'_2  and  C2'_3 
REMARK    2  A    between atoms: C2'_3  and  C1'_4 
REMARK    3  A    between atoms: C1'_4  and  C1_5 
ROOT
ATOM      1  C1  N4B d   1      -3.803  -3.759  -3.966  0.00  0.00    -0.075 A 
ATOM      2  C2  N4B d   1      -4.968  -2.997  -3.732  0.00  0.00     0.002 A 
ATOM      3  C3  N4B d   1      -5.998  -3.021  -4.641  0.00  0.00     0.002 A 
ATOM      4  C4  N4B d   1      -5.877  -3.782  -5.794  0.00  0.00    -0.004 A 
ATOM      5  C5  N4B d   1      -4.759  -4.535  -6.000  0.00  0.00     0.002 A 
ATOM      6  C6  N4B d   1      -3.718  -4.524  -5.093  0.00  0.00     0.002 A 
ENDROOT
BRANCH   1   7
ATOM      7  C1' N4B d   1      -2.616  -3.698  -3.044  0.00  0.00     0.057 C 
BRANCH   7   8
ATOM      8  C2' N4B d   1      -3.096  -3.394  -1.628  0.00  0.00     0.009 C 
BRANCH   8   9
ATOM      9  C3' N4B d   1      -2.424  -2.159  -1.053  0.00  0.00     0.004 C 
ATOM     10  C4' N4B d   1      -2.672  -1.994   0.417  0.00  0.00     0.003 C 
ENDBRANCH   8   9
ENDBRANCH   7   8
ENDBRANCH   1   7
TORSDOF 3
ENDMDL
