MODEL 1
REMARK minimizedAffinity 2.36980486
REMARK minimizedRMSD -1
REMARK  3 active torsions:
REMARK  status: ('A' for Active; 'I' for Inactive)
REMARK    1  A    between atoms: C3'_2  and  C2'_3 
REMARK    2  A    between atoms: C2'_3  and  C1'_4 
REMARK    3  A    between atoms: C1'_4  and  C1_5 
ROOT
ATOM      1  C1  N4B d   1      -1.620  -1.738   0.550  0.00  0.00    -0.075 A 
ATOM      2  C2  N4B d   1      -0.824  -2.499   1.435  0.00  0.00     0.002 A 
ATOM      3  C3  N4B d   1       0.456  -2.097   1.726  0.00  0.00     0.002 A 
ATOM      4  C4  N4B d   1       0.967  -0.952   1.132  0.00  0.00    -0.004 A 
ATOM      5  C5  N4B d   1       0.183  -0.209   0.299  0.00  0.00     0.002 A 
ATOM      6  C6  N4B d   1      -1.107  -0.599   0.000  0.00  0.00     0.002 A 
ENDROOT
BRANCH   1   7
ATOM      7  C1' N4B d   1      -2.995  -2.185   0.135  0.00  0.00     0.057 C 
BRANCH   7   8
ATOM      8  C2' N4B d   1      -3.989  -1.059   0.401  0.00  0.00     0.009 C 
BRANCH   8   9
ATOM      9  C3' N4B d   1      -4.500  -0.435  -0.886  0.00  0.00     0.004 C 
ATOM     10  C4' N4B d   1      -5.837   0.223  -0.722  0.00  0.00     0.003 C 
ENDBRANCH   8   9
ENDBRANCH   7   8
ENDBRANCH   1   7
TORSDOF 3
ENDMDL
