MODEL 1
REMARK minimizedAffinity -2.79751348
REMARK minimizedRMSD -1
REMARK  3 active torsions:
REMARK  status: ('A' for Active; 'I' for Inactive)
REMARK    1  A    between atoms: C3'_2  and  C2'_3 
REMARK    2  A    between atoms: C2'_3  and  C1'_4 
REMARK    3  A    between atoms: C1'_4  and  C1_5 
ROOT
ATOM      1  C1  N4B d   1      -4.751  -3.779  -5.725  0.00  0.00    -0.075 A 
ATOM      2  C2  N4B d   1      -3.447  -3.273  -5.527  0.00  0.00     0.002 A 
ATOM      3  C3  N4B d   1      -2.401  -4.137  -5.313  0.00  0.00     0.002 A 
ATOM      4  C4  N4B d   1      -2.637  -5.503  -5.275  0.00  0.00    -0.004 A 
ATOM      5  C5  N4B d   1      -3.895  -5.985  -5.493  0.00  0.00     0.002 A 
ATOM      6  C6  N4B d   1      -4.955  -5.128  -5.713  0.00  0.00     0.002 A 
ENDROOT
BRANCH   1   7
ATOM      7  C1' N4B d   1      -5.940  -2.870  -5.877  0.00  0.00     0.057 C 
BRANCH   7   8
ATOM      8  C2' N4B d   1      -5.915  -1.822  -4.769  0.00  0.00     0.009 C 
BRANCH   8   9
ATOM      9  C3' N4B d   1      -5.978  -2.453  -3.388  0.00  0.00     0.004 C 
ATOM     10  C4' N4B d   1      -5.902  -1.442  -2.283  0.00  0.00     0.003 C 
ENDBRANCH   8   9
ENDBRANCH   7   8
ENDBRANCH   1   7
TORSDOF 3
ENDMDL
