MODEL 1
REMARK minimizedAffinity 0.987368226
REMARK minimizedRMSD -1
REMARK  3 active torsions:
REMARK  status: ('A' for Active; 'I' for Inactive)
REMARK    1  A    between atoms: C3'_2  and  C2'_3 
REMARK    2  A    between atoms: C2'_3  and  C1'_4 
REMARK    3  A    between atoms: C1'_4  and  C1_5 
ROOT
ATOM      1  C1  N4B d   1      -4.605  -4.235  -4.736  0.00  0.00    -0.075 A 
ATOM      2  C2  N4B d   1      -4.590  -5.239  -5.728  0.00  0.00     0.002 A 
ATOM      3  C3  N4B d   1      -3.436  -5.939  -5.981  0.00  0.00     0.002 A 
ATOM      4  C4  N4B d   1      -2.283  -5.640  -5.269  0.00  0.00    -0.004 A 
ATOM      5  C5  N4B d   1      -2.312  -4.686  -4.294  0.00  0.00     0.002 A 
ATOM      6  C6  N4B d   1      -3.467  -3.978  -4.027  0.00  0.00     0.002 A 
ENDROOT
BRANCH   1   7
ATOM      7  C1' N4B d   1      -5.820  -3.385  -4.484  0.00  0.00     0.057 C 
BRANCH   7   8
ATOM      8  C2' N4B d   1      -6.000  -2.412  -5.645  0.00  0.00     0.009 C 
BRANCH   8   9
ATOM      9  C3' N4B d   1      -5.781  -0.970  -5.218  0.00  0.00     0.004 C 
ATOM     10  C4' N4B d   1      -5.955  -0.770  -3.742  0.00  0.00     0.003 C 
ENDBRANCH   8   9
ENDBRANCH   7   8
ENDBRANCH   1   7
TORSDOF 3
ENDMDL
