MODEL 1
REMARK minimizedAffinity -0.503402233
REMARK minimizedRMSD -1
REMARK  3 active torsions:
REMARK  status: ('A' for Active; 'I' for Inactive)
REMARK    1  A    between atoms: C3'_2  and  C2'_3 
REMARK    2  A    between atoms: C2'_3  and  C1'_4 
REMARK    3  A    between atoms: C1'_4  and  C1_5 
ROOT
ATOM      1  C1  N4B d   1      -5.556  -4.116  -5.198  0.00  0.00    -0.075 A 
ATOM      2  C2  N4B d   1      -5.753  -4.170  -3.801  0.00  0.00     0.002 A 
ATOM      3  C3  N4B d   1      -5.983  -3.015  -3.095  0.00  0.00     0.002 A 
ATOM      4  C4  N4B d   1      -6.000  -1.797  -3.759  0.00  0.00    -0.004 A 
ATOM      5  C5  N4B d   1      -5.834  -1.757  -5.112  0.00  0.00     0.002 A 
ATOM      6  C6  N4B d   1      -5.606  -2.910  -5.835  0.00  0.00     0.002 A 
ENDROOT
BRANCH   1   7
ATOM      7  C1' N4B d   1      -5.217  -5.343  -6.000  0.00  0.00     0.057 C 
BRANCH   7   8
ATOM      8  C2' N4B d   1      -3.906  -5.931  -5.485  0.00  0.00     0.009 C 
BRANCH   8   9
ATOM      9  C3' N4B d   1      -2.814  -4.881  -5.380  0.00  0.00     0.004 C 
ATOM     10  C4' N4B d   1      -1.687  -5.302  -4.486  0.00  0.00     0.003 C 
ENDBRANCH   8   9
ENDBRANCH   7   8
ENDBRANCH   1   7
TORSDOF 3
ENDMDL
