MODEL 1
REMARK minimizedAffinity 6.79545403
REMARK minimizedRMSD -1
REMARK  3 active torsions:
REMARK  status: ('A' for Active; 'I' for Inactive)
REMARK    1  A    between atoms: C3'_2  and  C2'_3 
REMARK    2  A    between atoms: C2'_3  and  C1'_4 
REMARK    3  A    between atoms: C1'_4  and  C1_5 
ROOT
ATOM      1  C1  N4B d   1      -3.774  -3.605  -3.591  0.00  0.00    -0.075 A 
ATOM      2  C2  N4B d   1      -3.089  -3.419  -4.811  0.00  0.00     0.002 A 
ATOM      3  C3  N4B d   1      -3.775  -3.470  -5.999  0.00  0.00     0.002 A 
ATOM      4  C4  N4B d   1      -5.139  -3.724  -5.993  0.00  0.00    -0.004 A 
ATOM      5  C5  N4B d   1      -5.798  -3.878  -4.808  0.00  0.00     0.002 A 
ATOM      6  C6  N4B d   1      -5.121  -3.825  -3.606  0.00  0.00     0.002 A 
ENDROOT
BRANCH   1   7
ATOM      7  C1' N4B d   1      -3.052  -3.643  -2.272  0.00  0.00     0.057 C 
BRANCH   7   8
ATOM      8  C2' N4B d   1      -3.058  -2.247  -1.656  0.00  0.00     0.009 C 
BRANCH   8   9
ATOM      9  C3' N4B d   1      -2.777  -2.282  -0.164  0.00  0.00     0.004 C 
ATOM     10  C4' N4B d   1      -1.753  -1.270   0.258  0.00  0.00     0.003 C 
ENDBRANCH   8   9
ENDBRANCH   7   8
ENDBRANCH   1   7
TORSDOF 3
ENDMDL
