MODEL 1
REMARK minimizedAffinity -1.19888628
REMARK minimizedRMSD -1
REMARK  3 active torsions:
REMARK  status: ('A' for Active; 'I' for Inactive)
REMARK    1  A    between atoms: C3'_2  and  C2'_3 
REMARK    2  A    between atoms: C2'_3  and  C1'_4 
REMARK    3  A    between atoms: C1'_4  and  C1_5 
ROOT
ATOM      1  C1  N4B d   1      -4.132  -4.580  -5.124  0.00  0.00    -0.075 A 
ATOM      2  C2  N4B d   1      -5.170  -4.117  -5.963  0.00  0.00     0.002 A 
ATOM      3  C3  N4B d   1      -5.998  -3.108  -5.536  0.00  0.00     0.002 A 
ATOM      4  C4  N4B d   1      -5.821  -2.563  -4.273  0.00  0.00    -0.004 A 
ATOM      5  C5  N4B d   1      -4.801  -2.999  -3.479  0.00  0.00     0.002 A 
ATOM      6  C6  N4B d   1      -3.958  -4.009  -3.897  0.00  0.00     0.002 A 
ENDROOT
BRANCH   1   7
ATOM      7  C1' N4B d   1      -3.255  -5.739  -5.512  0.00  0.00     0.057 C 
BRANCH   7   8
ATOM      8  C2' N4B d   1      -1.910  -5.209  -5.999  0.00  0.00     0.009 C 
BRANCH   8   9
ATOM      9  C3' N4B d   1      -0.745  -5.905  -5.318  0.00  0.00     0.004 C 
ATOM     10  C4' N4B d   1      -0.813  -5.824  -3.822  0.00  0.00     0.003 C 
ENDBRANCH   8   9
ENDBRANCH   7   8
ENDBRANCH   1   7
TORSDOF 3
ENDMDL
