MODEL 1
REMARK minimizedAffinity 6.75312185
REMARK minimizedRMSD -1
REMARK  3 active torsions:
REMARK  status: ('A' for Active; 'I' for Inactive)
REMARK    1  A    between atoms: C3'_2  and  C2'_3 
REMARK    2  A    between atoms: C2'_3  and  C1'_4 
REMARK    3  A    between atoms: C1'_4  and  C1_5 
ROOT
ATOM      1  C1  N4B d   1      -2.505  -1.503  -2.714  0.00  0.00    -0.075 A 
ATOM      2  C2  N4B d   1      -1.515  -0.572  -3.097  0.00  0.00     0.002 A 
ATOM      3  C3  N4B d   1      -0.578  -0.916  -4.040  0.00  0.00     0.002 A 
ATOM      4  C4  N4B d   1      -0.600  -2.185  -4.597  0.00  0.00    -0.004 A 
ATOM      5  C5  N4B d   1      -1.575  -3.070  -4.240  0.00  0.00     0.002 A 
ATOM      6  C6  N4B d   1      -2.525  -2.737  -3.297  0.00  0.00     0.002 A 
ENDROOT
BRANCH   1   7
ATOM      7  C1' N4B d   1      -3.499  -1.203  -1.624  0.00  0.00     0.057 C 
BRANCH   7   8
ATOM      8  C2' N4B d   1      -3.222  -2.110  -0.430  0.00  0.00     0.009 C 
BRANCH   8   9
ATOM      9  C3' N4B d   1      -1.883  -1.804   0.218  0.00  0.00     0.004 C 
ATOM     10  C4' N4B d   1      -1.549  -2.745   1.337  0.00  0.00     0.003 C 
ENDBRANCH   8   9
ENDBRANCH   7   8
ENDBRANCH   1   7
TORSDOF 3
ENDMDL
