MODEL 1
REMARK minimizedAffinity 5.56778479
REMARK minimizedRMSD -1
REMARK  3 active torsions:
REMARK  status: ('A' for Active; 'I' for Inactive)
REMARK    1  A    between atoms: C3'_2  and  C2'_3 
REMARK    2  A    between atoms: C2'_3  and  C1'_4 
REMARK    3  A    between atoms: C1'_4  and  C1_5 
ROOT
ATOM      1  C1  N4B d   1       0.847  -5.989   2.806  0.00  0.00    -0.075 A 
ATOM      2  C2  N4B d   1       2.257  -5.917   2.847  0.00  0.00     0.002 A 
ATOM      3  C3  N4B d   1       2.906  -5.848   4.055  0.00  0.00     0.002 A 
ATOM      4  C4  N4B d   1       2.169  -5.831   5.229  0.00  0.00    -0.004 A 
ATOM      5  C5  N4B d   1       0.809  -5.925   5.182  0.00  0.00     0.002 A 
ATOM      6  C6  N4B d   1       0.143  -5.999   3.975  0.00  0.00     0.002 A 
ENDROOT
BRANCH   1   7
ATOM      7  C1' N4B d   1       0.089  -5.979   1.506  0.00  0.00     0.057 C 
BRANCH   7   8
ATOM      8  C2' N4B d   1      -1.407  -5.913   1.800  0.00  0.00     0.009 C 
BRANCH   8   9
ATOM      9  C3' N4B d   1      -2.239  -5.999   0.532  0.00  0.00     0.004 C 
ATOM     10  C4' N4B d   1      -1.403  -5.987  -0.713  0.00  0.00     0.003 C 
ENDBRANCH   8   9
ENDBRANCH   7   8
ENDBRANCH   1   7
TORSDOF 3
ENDMDL
