MODEL 1
REMARK minimizedAffinity 6.93679714
REMARK minimizedRMSD -1
REMARK  3 active torsions:
REMARK  status: ('A' for Active; 'I' for Inactive)
REMARK    1  A    between atoms: C3'_2  and  C2'_3 
REMARK    2  A    between atoms: C2'_3  and  C1'_4 
REMARK    3  A    between atoms: C1'_4  and  C1_5 
ROOT
ATOM      1  C1  N4B d   1      -0.761  -5.908   1.584  0.00  0.00    -0.075 A 
ATOM      2  C2  N4B d   1      -0.665  -5.963   2.992  0.00  0.00     0.002 A 
ATOM      3  C3  N4B d   1       0.568  -5.999   3.596  0.00  0.00     0.002 A 
ATOM      4  C4  N4B d   1       1.714  -5.999   2.815  0.00  0.00    -0.004 A 
ATOM      5  C5  N4B d   1       1.613  -5.920   1.457  0.00  0.00     0.002 A 
ATOM      6  C6  N4B d   1       0.381  -5.879   0.837  0.00  0.00     0.002 A 
ENDROOT
BRANCH   1   7
ATOM      7  C1' N4B d   1      -2.087  -5.954   0.876  0.00  0.00     0.057 C 
BRANCH   7   8
ATOM      8  C2' N4B d   1      -3.207  -5.992   1.912  0.00  0.00     0.009 C 
BRANCH   8   9
ATOM      9  C3' N4B d   1      -4.581  -5.989   1.264  0.00  0.00     0.004 C 
ATOM     10  C4' N4B d   1      -5.696  -5.975   2.266  0.00  0.00     0.003 C 
ENDBRANCH   8   9
ENDBRANCH   7   8
ENDBRANCH   1   7
TORSDOF 3
ENDMDL
