MODEL 1
REMARK minimizedAffinity 4.86020565
REMARK minimizedRMSD -1
REMARK  3 active torsions:
REMARK  status: ('A' for Active; 'I' for Inactive)
REMARK    1  A    between atoms: C3'_2  and  C2'_3 
REMARK    2  A    between atoms: C2'_3  and  C1'_4 
REMARK    3  A    between atoms: C1'_4  and  C1_5 
ROOT
ATOM      1  C1  N4B d   1      -0.864  -0.780   1.783  0.00  0.00    -0.075 A 
ATOM      2  C2  N4B d   1      -0.810   0.627   1.673  0.00  0.00     0.002 A 
ATOM      3  C3  N4B d   1       0.402   1.260   1.553  0.00  0.00     0.002 A 
ATOM      4  C4  N4B d   1       1.570   0.513   1.560  0.00  0.00    -0.004 A 
ATOM      5  C5  N4B d   1       1.508  -0.848   1.641  0.00  0.00     0.002 A 
ATOM      6  C6  N4B d   1       0.296  -1.498   1.758  0.00  0.00     0.002 A 
ENDROOT
BRANCH   1   7
ATOM      7  C1' N4B d   1      -2.161  -1.511   2.002  0.00  0.00     0.057 C 
BRANCH   7   8
ATOM      8  C2' N4B d   1      -2.959  -0.799   3.090  0.00  0.00     0.009 C 
BRANCH   8   9
ATOM      9  C3' N4B d   1      -4.440  -1.126   3.014  0.00  0.00     0.004 C 
ATOM     10  C4' N4B d   1      -5.245  -0.425   4.068  0.00  0.00     0.003 C 
ENDBRANCH   8   9
ENDBRANCH   7   8
ENDBRANCH   1   7
TORSDOF 3
ENDMDL
