MODEL 1
REMARK minimizedAffinity -2.2829082
REMARK minimizedRMSD -1
REMARK  3 active torsions:
REMARK  status: ('A' for Active; 'I' for Inactive)
REMARK    1  A    between atoms: C3'_2  and  C2'_3 
REMARK    2  A    between atoms: C2'_3  and  C1'_4 
REMARK    3  A    between atoms: C1'_4  and  C1_5 
ROOT
ATOM      1  C1  N4B d   1      -1.874   0.499   2.761  0.00  0.00    -0.075 A 
ATOM      2  C2  N4B d   1      -1.958  -0.909   2.689  0.00  0.00     0.002 A 
ATOM      3  C3  N4B d   1      -0.945  -1.628   2.104  0.00  0.00     0.002 A 
ATOM      4  C4  N4B d   1       0.148  -0.963   1.570  0.00  0.00    -0.004 A 
ATOM      5  C5  N4B d   1       0.234   0.396   1.666  0.00  0.00     0.002 A 
ATOM      6  C6  N4B d   1      -0.775   1.131   2.255  0.00  0.00     0.002 A 
ENDROOT
BRANCH   1   7
ATOM      7  C1' N4B d   1      -2.996   1.334   3.315  0.00  0.00     0.057 C 
BRANCH   7   8
ATOM      8  C2' N4B d   1      -4.166   0.424   3.678  0.00  0.00     0.009 C 
BRANCH   8   9
ATOM      9  C3' N4B d   1      -5.416   1.216   4.022  0.00  0.00     0.004 C 
ATOM     10  C4' N4B d   1      -6.000   1.925   2.837  0.00  0.00     0.003 C 
ENDBRANCH   8   9
ENDBRANCH   7   8
ENDBRANCH   1   7
TORSDOF 3
ENDMDL
