MODEL 1
REMARK minimizedAffinity 3.479357
REMARK minimizedRMSD -1
REMARK  3 active torsions:
REMARK  status: ('A' for Active; 'I' for Inactive)
REMARK    1  A    between atoms: C3'_2  and  C2'_3 
REMARK    2  A    between atoms: C2'_3  and  C1'_4 
REMARK    3  A    between atoms: C1'_4  and  C1_5 
ROOT
ATOM      1  C1  N4B d   1      -3.989  -1.450   2.727  0.00  0.00    -0.075 A 
ATOM      2  C2  N4B d   1      -4.051  -2.207   1.537  0.00  0.00     0.002 A 
ATOM      3  C3  N4B d   1      -2.911  -2.780   1.028  0.00  0.00     0.002 A 
ATOM      4  C4  N4B d   1      -1.701  -2.594   1.679  0.00  0.00    -0.004 A 
ATOM      5  C5  N4B d   1      -1.654  -1.882   2.842  0.00  0.00     0.002 A 
ATOM      6  C6  N4B d   1      -2.793  -1.304   3.367  0.00  0.00     0.002 A 
ENDROOT
BRANCH   1   7
ATOM      7  C1' N4B d   1      -5.193  -0.733   3.276  0.00  0.00     0.057 C 
BRANCH   7   8
ATOM      8  C2' N4B d   1      -4.992  -0.486   4.768  0.00  0.00     0.009 C 
BRANCH   8   9
ATOM      9  C3' N4B d   1      -5.364   0.933   5.163  0.00  0.00     0.004 C 
ATOM     10  C4' N4B d   1      -5.260   1.901   4.022  0.00  0.00     0.003 C 
ENDBRANCH   8   9
ENDBRANCH   7   8
ENDBRANCH   1   7
TORSDOF 3
ENDMDL
