MODEL 1
REMARK minimizedAffinity 2.72655749
REMARK minimizedRMSD -1
REMARK  3 active torsions:
REMARK  status: ('A' for Active; 'I' for Inactive)
REMARK    1  A    between atoms: C3'_2  and  C2'_3 
REMARK    2  A    between atoms: C2'_3  and  C1'_4 
REMARK    3  A    between atoms: C1'_4  and  C1_5 
ROOT
ATOM      1  C1  N4B d   1      -1.405  -4.522   3.066  0.00  0.00    -0.075 A 
ATOM      2  C2  N4B d   1      -1.837  -3.455   2.248  0.00  0.00     0.002 A 
ATOM      3  C3  N4B d   1      -2.725  -3.689   1.227  0.00  0.00     0.002 A 
ATOM      4  C4  N4B d   1      -3.178  -4.979   0.994  0.00  0.00    -0.004 A 
ATOM      5  C5  N4B d   1      -2.775  -6.000   1.804  0.00  0.00     0.002 A 
ATOM      6  C6  N4B d   1      -1.886  -5.779   2.837  0.00  0.00     0.002 A 
ENDROOT
BRANCH   1   7
ATOM      7  C1' N4B d   1      -0.369  -4.331   4.140  0.00  0.00     0.057 C 
BRANCH   7   8
ATOM      8  C2' N4B d   1       0.260  -5.680   4.475  0.00  0.00     0.009 C 
BRANCH   8   9
ATOM      9  C3' N4B d   1       1.739  -5.719   4.128  0.00  0.00     0.004 C 
ATOM     10  C4' N4B d   1       2.191  -4.504   3.375  0.00  0.00     0.003 C 
ENDBRANCH   8   9
ENDBRANCH   7   8
ENDBRANCH   1   7
TORSDOF 3
ENDMDL
