MODEL 1
REMARK minimizedAffinity -2.84940839
REMARK minimizedRMSD -1
REMARK  0 active torsions:
REMARK  status: ('A' for Active; 'I' for Inactive)
ROOT
ATOM      1  C1  BNZ d   1      -2.509  -0.789   0.091  0.00  0.00     0.000 A 
ATOM      2  C2  BNZ d   1      -1.535  -0.454  -0.811  0.00  0.00     0.000 A 
ATOM      3  C3  BNZ d   1      -0.993  -1.398  -1.639  0.00  0.00     0.000 A 
ATOM      4  C4  BNZ d   1      -1.396  -2.681  -1.535  0.00  0.00     0.000 A 
ATOM      5  C5  BNZ d   1      -2.370  -3.036  -0.623  0.00  0.00     0.000 A 
ATOM      6  C6  BNZ d   1      -2.941  -2.076   0.181  0.00  0.00     0.000 A 
ENDROOT
TORSDOF 0
ENDMDL
