MODEL 1
REMARK minimizedAffinity -4.26322889
REMARK minimizedRMSD -1
REMARK  0 active torsions:
REMARK  status: ('A' for Active; 'I' for Inactive)
ROOT
ATOM      1  C1  BNZ d   1      -3.141  -2.703  -1.022  0.00  0.00     0.000 A 
ATOM      2  C2  BNZ d   1      -3.628  -2.067   0.088  0.00  0.00     0.000 A 
ATOM      3  C3  BNZ d   1      -2.880  -1.129   0.742  0.00  0.00     0.000 A 
ATOM      4  C4  BNZ d   1      -1.632  -0.857   0.310  0.00  0.00     0.000 A 
ATOM      5  C5  BNZ d   1      -1.122  -1.497  -0.802  0.00  0.00     0.000 A 
ATOM      6  C6  BNZ d   1      -1.893  -2.412  -1.481  0.00  0.00     0.000 A 
ENDROOT
TORSDOF 0
ENDMDL
