MODEL 1
REMARK minimizedAffinity -3.36887264
REMARK minimizedRMSD -1
REMARK  0 active torsions:
REMARK  status: ('A' for Active; 'I' for Inactive)
ROOT
ATOM      1  C1  BNZ d   1      -3.856   4.393   4.470  0.00  0.00     0.000 A 
ATOM      2  C2  BNZ d   1      -4.059   3.469   5.460  0.00  0.00     0.000 A 
ATOM      3  C3  BNZ d   1      -5.121   2.610   5.410  0.00  0.00     0.000 A 
ATOM      4  C4  BNZ d   1      -6.000   2.702   4.391  0.00  0.00     0.000 A 
ATOM      5  C5  BNZ d   1      -5.814   3.634   3.389  0.00  0.00     0.000 A 
ATOM      6  C6  BNZ d   1      -4.723   4.471   3.423  0.00  0.00     0.000 A 
ENDROOT
TORSDOF 0
ENDMDL
