MODEL 1
REMARK minimizedAffinity -2.85399222
REMARK minimizedRMSD -1
REMARK  0 active torsions:
REMARK  status: ('A' for Active; 'I' for Inactive)
ROOT
ATOM      1  C1  BNZ d   1      -1.210  -1.211  -0.682  0.00  0.00     0.000 A 
ATOM      2  C2  BNZ d   1      -1.520  -0.527   0.464  0.00  0.00     0.000 A 
ATOM      3  C3  BNZ d   1      -2.723  -0.712   1.086  0.00  0.00     0.000 A 
ATOM      4  C4  BNZ d   1      -3.630  -1.548   0.540  0.00  0.00     0.000 A 
ATOM      5  C5  BNZ d   1      -3.336  -2.238  -0.619  0.00  0.00     0.000 A 
ATOM      6  C6  BNZ d   1      -2.109  -2.079  -1.221  0.00  0.00     0.000 A 
ENDROOT
TORSDOF 0
ENDMDL
