MODEL 1
REMARK minimizedAffinity -2.65031767
REMARK minimizedRMSD -1
REMARK  0 active torsions:
REMARK  status: ('A' for Active; 'I' for Inactive)
ROOT
ATOM      1  C1  BNZ d   1      -2.923  -0.778   0.420  0.00  0.00     0.000 A 
ATOM      2  C2  BNZ d   1      -3.545  -1.784  -0.270  0.00  0.00     0.000 A 
ATOM      3  C3  BNZ d   1      -2.847  -2.566  -1.147  0.00  0.00     0.000 A 
ATOM      4  C4  BNZ d   1      -1.540  -2.316  -1.364  0.00  0.00     0.000 A 
ATOM      5  C5  BNZ d   1      -0.901  -1.299  -0.683  0.00  0.00     0.000 A 
ATOM      6  C6  BNZ d   1      -1.597  -0.539   0.228  0.00  0.00     0.000 A 
ENDROOT
TORSDOF 0
ENDMDL
