MODEL 1
REMARK minimizedAffinity 0.677250266
REMARK minimizedRMSD -1
REMARK  0 active torsions:
REMARK  status: ('A' for Active; 'I' for Inactive)
ROOT
ATOM      1  C1  BNZ d   1      -1.534  -1.899  -1.471  0.00  0.00     0.000 A 
ATOM      2  C2  BNZ d   1      -2.763  -2.418  -1.159  0.00  0.00     0.000 A 
ATOM      3  C3  BNZ d   1      -3.465  -1.955  -0.082  0.00  0.00     0.000 A 
ATOM      4  C4  BNZ d   1      -2.922  -1.004   0.705  0.00  0.00     0.000 A 
ATOM      5  C5  BNZ d   1      -1.680  -0.478   0.410  0.00  0.00     0.000 A 
ATOM      6  C6  BNZ d   1      -0.993  -0.918  -0.698  0.00  0.00     0.000 A 
ENDROOT
TORSDOF 0
ENDMDL
