MODEL 1
REMARK minimizedAffinity -1.62613726
REMARK minimizedRMSD -1
REMARK  0 active torsions:
REMARK  status: ('A' for Active; 'I' for Inactive)
ROOT
ATOM      1  C1  BNZ d   1      -0.871  -1.120  -0.009  0.00  0.00     0.000 A 
ATOM      2  C2  BNZ d   1      -1.500  -2.336   0.032  0.00  0.00     0.000 A 
ATOM      3  C3  BNZ d   1      -1.958  -2.926  -1.113  0.00  0.00     0.000 A 
ATOM      4  C4  BNZ d   1      -1.822  -2.282  -2.290  0.00  0.00     0.000 A 
ATOM      5  C5  BNZ d   1      -1.198  -1.052  -2.347  0.00  0.00     0.000 A 
ATOM      6  C6  BNZ d   1      -0.703  -0.479  -1.198  0.00  0.00     0.000 A 
ENDROOT
TORSDOF 0
ENDMDL
