MODEL 1
REMARK minimizedAffinity -3.78230882
REMARK minimizedRMSD -1
REMARK  0 active torsions:
REMARK  status: ('A' for Active; 'I' for Inactive)
ROOT
ATOM      1  C1  BNZ d   1      -4.970   2.583   4.649  0.00  0.00     0.000 A 
ATOM      2  C2  BNZ d   1      -4.849   3.237   3.451  0.00  0.00     0.000 A 
ATOM      3  C3  BNZ d   1      -5.099   4.577   3.357  0.00  0.00     0.000 A 
ATOM      4  C4  BNZ d   1      -5.507   5.254   4.450  0.00  0.00     0.000 A 
ATOM      5  C5  BNZ d   1      -5.642   4.608   5.662  0.00  0.00     0.000 A 
ATOM      6  C6  BNZ d   1      -5.353   3.266   5.762  0.00  0.00     0.000 A 
ENDROOT
TORSDOF 0
ENDMDL
