MODEL 1
REMARK minimizedAffinity -3.01230311
REMARK minimizedRMSD -1
REMARK  0 active torsions:
REMARK  status: ('A' for Active; 'I' for Inactive)
ROOT
ATOM      1  C1  BNZ d   1      -4.984   3.667   5.413  0.00  0.00     0.000 A 
ATOM      2  C2  BNZ d   1      -5.994   3.510   4.501  0.00  0.00     0.000 A 
ATOM      3  C3  BNZ d   1      -5.792   3.788   3.178  0.00  0.00     0.000 A 
ATOM      4  C4  BNZ d   1      -4.594   4.260   2.775  0.00  0.00     0.000 A 
ATOM      5  C5  BNZ d   1      -3.569   4.432   3.684  0.00  0.00     0.000 A 
ATOM      6  C6  BNZ d   1      -3.764   4.114   5.008  0.00  0.00     0.000 A 
ENDROOT
TORSDOF 0
ENDMDL
