MODEL 1
REMARK minimizedAffinity -2.53128171
REMARK minimizedRMSD -1
REMARK  0 active torsions:
REMARK  status: ('A' for Active; 'I' for Inactive)
ROOT
ATOM      1  C1  BNZ d   1      -5.622   4.756   3.314  0.00  0.00     0.000 A 
ATOM      2  C2  BNZ d   1      -5.999   4.403   4.582  0.00  0.00     0.000 A 
ATOM      3  C3  BNZ d   1      -5.797   3.133   5.044  0.00  0.00     0.000 A 
ATOM      4  C4  BNZ d   1      -5.256   2.207   4.226  0.00  0.00     0.000 A 
ATOM      5  C5  BNZ d   1      -4.879   2.545   2.942  0.00  0.00     0.000 A 
ATOM      6  C6  BNZ d   1      -5.048   3.835   2.493  0.00  0.00     0.000 A 
ENDROOT
TORSDOF 0
ENDMDL
