MODEL 1
REMARK minimizedAffinity -1.87176502
REMARK minimizedRMSD -1
REMARK  0 active torsions:
REMARK  status: ('A' for Active; 'I' for Inactive)
ROOT
ATOM      1  C1  BNZ d   1      -5.680   5.999  -0.031  0.00  0.00     0.000 A 
ATOM      2  C2  BNZ d   1      -5.541   5.996   1.332  0.00  0.00     0.000 A 
ATOM      3  C3  BNZ d   1      -5.416   4.822   2.020  0.00  0.00     0.000 A 
ATOM      4  C4  BNZ d   1      -5.470   3.652   1.351  0.00  0.00     0.000 A 
ATOM      5  C5  BNZ d   1      -5.620   3.638  -0.021  0.00  0.00     0.000 A 
ATOM      6  C6  BNZ d   1      -5.706   4.823  -0.715  0.00  0.00     0.000 A 
ENDROOT
TORSDOF 0
ENDMDL
