MODEL 1
REMARK minimizedAffinity -2.89582825
REMARK minimizedRMSD -1
REMARK  0 active torsions:
REMARK  status: ('A' for Active; 'I' for Inactive)
ROOT
ATOM      1  C1  BNZ d   1      -5.443   6.000   2.447  0.00  0.00     0.000 A 
ATOM      2  C2  BNZ d   1      -5.809   5.985   3.767  0.00  0.00     0.000 A 
ATOM      3  C3  BNZ d   1      -5.524   4.910   4.560  0.00  0.00     0.000 A 
ATOM      4  C4  BNZ d   1      -4.909   3.835   4.025  0.00  0.00     0.000 A 
ATOM      5  C5  BNZ d   1      -4.542   3.831   2.694  0.00  0.00     0.000 A 
ATOM      6  C6  BNZ d   1      -4.796   4.931   1.907  0.00  0.00     0.000 A 
ENDROOT
TORSDOF 0
ENDMDL
