MODEL 1
REMARK minimizedAffinity -3.41757226
REMARK minimizedRMSD -1
REMARK  0 active torsions:
REMARK  status: ('A' for Active; 'I' for Inactive)
ROOT
ATOM      1  C1  BNZ d   1      -5.143   4.633   2.848  0.00  0.00     0.000 A 
ATOM      2  C2  BNZ d   1      -4.007   5.069   3.476  0.00  0.00     0.000 A 
ATOM      3  C3  BNZ d   1      -3.647   4.572   4.698  0.00  0.00     0.000 A 
ATOM      4  C4  BNZ d   1      -4.444   3.671   5.307  0.00  0.00     0.000 A 
ATOM      5  C5  BNZ d   1      -5.598   3.228   4.691  0.00  0.00     0.000 A 
ATOM      6  C6  BNZ d   1      -5.936   3.702   3.444  0.00  0.00     0.000 A 
ENDROOT
TORSDOF 0
ENDMDL
