MODEL 1
REMARK minimizedAffinity -2.42539406
REMARK minimizedRMSD -1
REMARK  0 active torsions:
REMARK  status: ('A' for Active; 'I' for Inactive)
ROOT
ATOM      1  C1  BNZ d   1      -6.000   4.983   5.847  0.00  0.00     0.000 A 
ATOM      2  C2  BNZ d   1      -5.999   5.948   4.875  0.00  0.00     0.000 A 
ATOM      3  C3  BNZ d   1      -5.638   5.648   3.591  0.00  0.00     0.000 A 
ATOM      4  C4  BNZ d   1      -5.240   4.395   3.290  0.00  0.00     0.000 A 
ATOM      5  C5  BNZ d   1      -5.227   3.413   4.260  0.00  0.00     0.000 A 
ATOM      6  C6  BNZ d   1      -5.628   3.709   5.543  0.00  0.00     0.000 A 
ENDROOT
TORSDOF 0
ENDMDL
