MODEL 1
REMARK minimizedAffinity -3.2607007
REMARK minimizedRMSD -1
REMARK  0 active torsions:
REMARK  status: ('A' for Active; 'I' for Inactive)
ROOT
ATOM      1  C1  BNZ d   1      -5.050   4.886   4.058  0.00  0.00     0.000 A 
ATOM      2  C2  BNZ d   1      -4.522   5.951   3.378  0.00  0.00     0.000 A 
ATOM      3  C3  BNZ d   1      -4.566   6.000   2.013  0.00  0.00     0.000 A 
ATOM      4  C4  BNZ d   1      -5.099   4.967   1.329  0.00  0.00     0.000 A 
ATOM      5  C5  BNZ d   1      -5.627   3.882   2.000  0.00  0.00     0.000 A 
ATOM      6  C6  BNZ d   1      -5.617   3.854   3.376  0.00  0.00     0.000 A 
ENDROOT
TORSDOF 0
ENDMDL
