MODEL 1
REMARK minimizedAffinity -3.1127646
REMARK minimizedRMSD -1
REMARK  0 active torsions:
REMARK  status: ('A' for Active; 'I' for Inactive)
ROOT
ATOM      1  C1  BNZ d   1      -5.998   4.728   1.344  0.00  0.00     0.000 A 
ATOM      2  C2  BNZ d   1      -5.963   3.620   2.148  0.00  0.00     0.000 A 
ATOM      3  C3  BNZ d   1      -5.259   3.626   3.319  0.00  0.00     0.000 A 
ATOM      4  C4  BNZ d   1      -4.558   4.725   3.666  0.00  0.00     0.000 A 
ATOM      5  C5  BNZ d   1      -4.575   5.847   2.861  0.00  0.00     0.000 A 
ATOM      6  C6  BNZ d   1      -5.317   5.850   1.702  0.00  0.00     0.000 A 
ENDROOT
TORSDOF 0
ENDMDL
