MODEL 1
REMARK minimizedAffinity 4.91176844
REMARK minimizedRMSD -1
REMARK  1 active torsions:
REMARK  status: ('A' for Active; 'I' for Inactive)
REMARK    1  A    between atoms: C1_2  and  C2_3 
ROOT
ATOM      1  C2  UNL d   1       2.722   3.808  -5.352  0.00  0.00    -0.081 A 
ATOM      2  C3  UNL d   1       2.496   2.444  -5.131  0.00  0.00     0.006 A 
ATOM      3  C4  UNL d   1       3.527   1.517  -5.309  0.00  0.00     0.002 A 
ATOM      4  C5  UNL d   1       4.801   1.940  -5.704  0.00  0.00    -0.080 A 
ATOM      5  C6  UNL d   1       5.924   0.960  -5.870  0.00  0.00     0.076 C 
ATOM      6  C7  UNL d   1       5.021   3.301  -5.942  0.00  0.00     0.002 A 
ATOM      7  C8  UNL d   1       3.991   4.227  -5.764  0.00  0.00     0.006 A 
ENDROOT
BRANCH   1   8
ATOM      8  C1  UNL d   1       1.630   4.816  -5.098  0.00  0.00     0.054 C 
ATOM      9  C   UNL d   1       0.371   4.477  -5.882  0.00  0.00     0.018 C 
ENDBRANCH   1   8
TORSDOF 1
ENDMDL
