MODEL 1
REMARK minimizedAffinity 0.788628519
REMARK minimizedRMSD -1
REMARK  1 active torsions:
REMARK  status: ('A' for Active; 'I' for Inactive)
REMARK    1  A    between atoms: C1_2  and  C2_3 
ROOT
ATOM      1  C2  UNL d   1       3.436   3.854  -5.639  0.00  0.00    -0.081 A 
ATOM      2  C3  UNL d   1       2.246   3.162  -5.895  0.00  0.00     0.006 A 
ATOM      3  C4  UNL d   1       1.035   3.851  -5.999  0.00  0.00     0.002 A 
ATOM      4  C5  UNL d   1       0.995   5.242  -5.857  0.00  0.00    -0.080 A 
ATOM      5  C6  UNL d   1      -0.294   5.996  -5.997  0.00  0.00     0.076 C 
ATOM      6  C7  UNL d   1       2.181   5.932  -5.584  0.00  0.00     0.002 A 
ATOM      7  C8  UNL d   1       3.392   5.244  -5.479  0.00  0.00     0.006 A 
ENDROOT
BRANCH   1   8
ATOM      8  C1  UNL d   1       4.753   3.122  -5.591  0.00  0.00     0.054 C 
ATOM      9  C   UNL d   1       4.588   1.724  -5.014  0.00  0.00     0.018 C 
ENDBRANCH   1   8
TORSDOF 1
ENDMDL
