MODEL 1
REMARK minimizedAffinity 0.647134125
REMARK minimizedRMSD -1
REMARK  1 active torsions:
REMARK  status: ('A' for Active; 'I' for Inactive)
REMARK    1  A    between atoms: C1_2  and  C2_3 
ROOT
ATOM      1  C2  UNL d   1       3.747   3.955  -5.299  0.00  0.00    -0.081 A 
ATOM      2  C3  UNL d   1       3.608   5.253  -4.792  0.00  0.00     0.006 A 
ATOM      3  C4  UNL d   1       2.385   5.922  -4.883  0.00  0.00     0.002 A 
ATOM      4  C5  UNL d   1       1.279   5.302  -5.475  0.00  0.00    -0.080 A 
ATOM      5  C6  UNL d   1      -0.047   5.998  -5.552  0.00  0.00     0.076 C 
ATOM      6  C7  UNL d   1       1.423   4.012  -5.997  0.00  0.00     0.002 A 
ATOM      7  C8  UNL d   1       2.645   3.343  -5.907  0.00  0.00     0.006 A 
ENDROOT
BRANCH   1   8
ATOM      8  C1  UNL d   1       5.046   3.206  -5.144  0.00  0.00     0.054 C 
ATOM      9  C   UNL d   1       4.808   1.772  -4.695  0.00  0.00     0.018 C 
ENDBRANCH   1   8
TORSDOF 1
ENDMDL
