MODEL 1
REMARK minimizedAffinity -3.5051477
REMARK minimizedRMSD -1
REMARK  1 active torsions:
REMARK  status: ('A' for Active; 'I' for Inactive)
REMARK    1  A    between atoms: C1_2  and  C2_3 
ROOT
ATOM      1  C2  UNL d   1       1.832   4.396  -5.000  0.00  0.00    -0.081 A 
ATOM      2  C3  UNL d   1       2.527   5.411  -5.668  0.00  0.00     0.006 A 
ATOM      3  C4  UNL d   1       3.879   5.256  -5.982  0.00  0.00     0.002 A 
ATOM      4  C5  UNL d   1       4.556   4.080  -5.641  0.00  0.00    -0.080 A 
ATOM      5  C6  UNL d   1       6.000   3.888  -5.999  0.00  0.00     0.076 C 
ATOM      6  C7  UNL d   1       3.867   3.073  -4.958  0.00  0.00     0.002 A 
ATOM      7  C8  UNL d   1       2.515   3.228  -4.643  0.00  0.00     0.006 A 
ENDROOT
BRANCH   1   8
ATOM      8  C1  UNL d   1       0.358   4.534  -4.717  0.00  0.00     0.054 C 
ATOM      9  C   UNL d   1      -0.423   4.843  -5.987  0.00  0.00     0.018 C 
ENDBRANCH   1   8
TORSDOF 1
ENDMDL
