MODEL 1
REMARK minimizedAffinity 0.100721836
REMARK minimizedRMSD -1
REMARK  1 active torsions:
REMARK  status: ('A' for Active; 'I' for Inactive)
REMARK    1  A    between atoms: C1_2  and  C2_3 
ROOT
ATOM      1  C2  UNL d   1       3.833   4.067  -5.703  0.00  0.00    -0.081 A 
ATOM      2  C3  UNL d   1       3.043   2.922  -5.541  0.00  0.00     0.006 A 
ATOM      3  C4  UNL d   1       1.651   3.007  -5.613  0.00  0.00     0.002 A 
ATOM      4  C5  UNL d   1       1.026   4.234  -5.856  0.00  0.00    -0.080 A 
ATOM      5  C6  UNL d   1      -0.467   4.334  -5.965  0.00  0.00     0.076 C 
ATOM      6  C7  UNL d   1       1.814   5.381  -6.000  0.00  0.00     0.002 A 
ATOM      7  C8  UNL d   1       3.206   5.298  -5.927  0.00  0.00     0.006 A 
ENDROOT
BRANCH   1   8
ATOM      8  C1  UNL d   1       5.337   3.968  -5.690  0.00  0.00     0.054 C 
ATOM      9  C   UNL d   1       5.983   5.313  -5.996  0.00  0.00     0.018 C 
ENDBRANCH   1   8
TORSDOF 1
ENDMDL
