MODEL 1
REMARK minimizedAffinity 6.3393774
REMARK minimizedRMSD -1
REMARK  1 active torsions:
REMARK  status: ('A' for Active; 'I' for Inactive)
REMARK    1  A    between atoms: C1_2  and  C2_3 
ROOT
ATOM      1  C2  UNL d   1       2.767   4.283  -5.505  0.00  0.00    -0.081 A 
ATOM      2  C3  UNL d   1       2.329   3.018  -5.916  0.00  0.00     0.006 A 
ATOM      3  C4  UNL d   1       2.929   1.862  -5.412  0.00  0.00     0.002 A 
ATOM      4  C5  UNL d   1       3.971   1.951  -4.483  0.00  0.00    -0.080 A 
ATOM      5  C6  UNL d   1       4.604   0.717  -3.911  0.00  0.00     0.076 C 
ATOM      6  C7  UNL d   1       4.421   3.214  -4.085  0.00  0.00     0.002 A 
ATOM      7  C8  UNL d   1       3.822   4.371  -4.589  0.00  0.00     0.006 A 
ENDROOT
BRANCH   1   8
ATOM      8  C1  UNL d   1       2.079   5.530  -5.997  0.00  0.00     0.054 C 
ATOM      9  C   UNL d   1       1.015   6.000  -5.015  0.00  0.00     0.018 C 
ENDBRANCH   1   8
TORSDOF 1
ENDMDL
