MODEL 1
REMARK minimizedAffinity 4.85680437
REMARK minimizedRMSD -1
REMARK  1 active torsions:
REMARK  status: ('A' for Active; 'I' for Inactive)
REMARK    1  A    between atoms: C1_2  and  C2_3 
ROOT
ATOM      1  C2  UNL d   1       2.198   4.133  -5.365  0.00  0.00    -0.081 A 
ATOM      2  C3  UNL d   1       2.250   2.739  -5.242  0.00  0.00     0.006 A 
ATOM      3  C4  UNL d   1       3.448   2.053  -5.458  0.00  0.00     0.002 A 
ATOM      4  C5  UNL d   1       4.614   2.750  -5.794  0.00  0.00    -0.080 A 
ATOM      5  C6  UNL d   1       5.913   2.028  -6.000  0.00  0.00     0.076 C 
ATOM      6  C7  UNL d   1       4.558   4.140  -5.935  0.00  0.00     0.002 A 
ATOM      7  C8  UNL d   1       3.361   4.827  -5.719  0.00  0.00     0.006 A 
ENDROOT
BRANCH   1   8
ATOM      8  C1  UNL d   1       0.924   4.881  -5.069  0.00  0.00     0.054 C 
ATOM      9  C   UNL d   1      -0.201   4.450  -6.000  0.00  0.00     0.018 C 
ENDBRANCH   1   8
TORSDOF 1
ENDMDL
