MODEL 1
REMARK minimizedAffinity -1.42341459
REMARK minimizedRMSD -1
REMARK  1 active torsions:
REMARK  status: ('A' for Active; 'I' for Inactive)
REMARK    1  A    between atoms: C1_2  and  C2_3 
ROOT
ATOM      1  C2  UNL d   1       3.273   3.580  -5.444  0.00  0.00    -0.081 A 
ATOM      2  C3  UNL d   1       3.387   4.926  -5.815  0.00  0.00     0.006 A 
ATOM      3  C4  UNL d   1       2.245   5.709  -5.999  0.00  0.00     0.002 A 
ATOM      4  C5  UNL d   1       0.971   5.162  -5.809  0.00  0.00    -0.080 A 
ATOM      5  C6  UNL d   1      -0.262   6.000  -5.975  0.00  0.00     0.076 C 
ATOM      6  C7  UNL d   1       0.857   3.814  -5.456  0.00  0.00     0.002 A 
ATOM      7  C8  UNL d   1       1.998   3.030  -5.271  0.00  0.00     0.006 A 
ENDROOT
BRANCH   1   8
ATOM      8  C1  UNL d   1       4.504   2.751  -5.181  0.00  0.00     0.054 C 
ATOM      9  C   UNL d   1       5.692   3.253  -5.988  0.00  0.00     0.018 C 
ENDBRANCH   1   8
TORSDOF 1
ENDMDL
