MODEL 1
REMARK minimizedAffinity 2.83611298
REMARK minimizedRMSD -1
REMARK  1 active torsions:
REMARK  status: ('A' for Active; 'I' for Inactive)
REMARK    1  A    between atoms: C1_2  and  C2_3 
ROOT
ATOM      1  C2  UNL d   1       4.117   4.284  -5.875  0.00  0.00    -0.081 A 
ATOM      2  C3  UNL d   1       3.262   5.392  -5.923  0.00  0.00     0.006 A 
ATOM      3  C4  UNL d   1       1.876   5.216  -5.965  0.00  0.00     0.002 A 
ATOM      4  C5  UNL d   1       1.323   3.931  -5.950  0.00  0.00    -0.080 A 
ATOM      5  C6  UNL d   1      -0.163   3.729  -5.963  0.00  0.00     0.076 C 
ATOM      6  C7  UNL d   1       2.178   2.824  -5.919  0.00  0.00     0.002 A 
ATOM      7  C8  UNL d   1       3.563   2.999  -5.879  0.00  0.00     0.006 A 
ENDROOT
BRANCH   1   8
ATOM      8  C1  UNL d   1       5.608   4.471  -5.765  0.00  0.00     0.054 C 
ATOM      9  C   UNL d   1       5.998   5.931  -5.954  0.00  0.00     0.018 C 
ENDBRANCH   1   8
TORSDOF 1
ENDMDL
