MODEL 1
REMARK minimizedAffinity -3.56481028
REMARK minimizedRMSD -1
REMARK  1 active torsions:
REMARK  status: ('A' for Active; 'I' for Inactive)
REMARK    1  A    between atoms: C1_2  and  C2_3 
ROOT
ATOM      1  C2  UNL d   1       2.740   4.277  -5.196  0.00  0.00    -0.081 A 
ATOM      2  C3  UNL d   1       2.640   3.107  -5.959  0.00  0.00     0.006 A 
ATOM      3  C4  UNL d   1       3.697   2.195  -5.999  0.00  0.00     0.002 A 
ATOM      4  C5  UNL d   1       4.868   2.433  -5.271  0.00  0.00    -0.080 A 
ATOM      5  C6  UNL d   1       5.998   1.447  -5.281  0.00  0.00     0.076 C 
ATOM      6  C7  UNL d   1       4.975   3.610  -4.522  0.00  0.00     0.002 A 
ATOM      7  C8  UNL d   1       3.919   4.523  -4.482  0.00  0.00     0.006 A 
ENDROOT
BRANCH   1   8
ATOM      8  C1  UNL d   1       1.577   5.231  -5.099  0.00  0.00     0.054 C 
ATOM      9  C   UNL d   1       0.430   4.798  -6.000  0.00  0.00     0.018 C 
ENDBRANCH   1   8
TORSDOF 1
ENDMDL
