MODEL 1
REMARK minimizedAffinity 1.69787478
REMARK minimizedRMSD -1
REMARK  1 active torsions:
REMARK  status: ('A' for Active; 'I' for Inactive)
REMARK    1  A    between atoms: C1_2  and  C2_3 
ROOT
ATOM      1  C2  UNL d   1       4.380   1.415   1.254  0.00  0.00    -0.081 A 
ATOM      2  C3  UNL d   1       3.030   1.705   1.485  0.00  0.00     0.006 A 
ATOM      3  C4  UNL d   1       2.296   0.965   2.415  0.00  0.00     0.002 A 
ATOM      4  C5  UNL d   1       2.901  -0.070   3.135  0.00  0.00    -0.080 A 
ATOM      5  C6  UNL d   1       2.133  -0.852   4.159  0.00  0.00     0.076 C 
ATOM      6  C7  UNL d   1       4.246  -0.371   2.892  0.00  0.00     0.002 A 
ATOM      7  C8  UNL d   1       4.980   0.367   1.961  0.00  0.00     0.006 A 
ENDROOT
BRANCH   1   8
ATOM      8  C1  UNL d   1       5.191   2.252   0.298  0.00  0.00     0.054 C 
ATOM      9  C   UNL d   1       5.437   3.647   0.856  0.00  0.00     0.018 C 
ENDBRANCH   1   8
TORSDOF 1
ENDMDL
