MODEL 1
REMARK minimizedAffinity -0.297495365
REMARK minimizedRMSD -1
REMARK  1 active torsions:
REMARK  status: ('A' for Active; 'I' for Inactive)
REMARK    1  A    between atoms: C1_2  and  C2_3 
ROOT
ATOM      1  C2  UNL d   1       3.495   4.297  -5.758  0.00  0.00    -0.081 A 
ATOM      2  C3  UNL d   1       4.885   4.412  -5.633  0.00  0.00     0.006 A 
ATOM      3  C4  UNL d   1       5.698   3.278  -5.696  0.00  0.00     0.002 A 
ATOM      4  C5  UNL d   1       5.136   2.012  -5.892  0.00  0.00    -0.080 A 
ATOM      5  C6  UNL d   1       6.000   0.790  -5.992  0.00  0.00     0.076 C 
ATOM      6  C7  UNL d   1       3.746   1.894  -5.999  0.00  0.00     0.002 A 
ATOM      7  C8  UNL d   1       2.933   3.028  -5.936  0.00  0.00     0.006 A 
ENDROOT
BRANCH   1   8
ATOM      8  C1  UNL d   1       2.621   5.525  -5.755  0.00  0.00     0.054 C 
ATOM      9  C   UNL d   1       1.148   5.156  -5.853  0.00  0.00     0.018 C 
ENDBRANCH   1   8
TORSDOF 1
ENDMDL
