MODEL 1
REMARK minimizedAffinity -0.00825780351
REMARK minimizedRMSD -1
REMARK  1 active torsions:
REMARK  status: ('A' for Active; 'I' for Inactive)
REMARK    1  A    between atoms: C1_2  and  C2_3 
ROOT
ATOM      1  C2  UNL d   1       3.744   2.080  -5.566  0.00  0.00    -0.081 A 
ATOM      2  C3  UNL d   1       2.436   2.336  -5.998  0.00  0.00     0.006 A 
ATOM      3  C4  UNL d   1       1.867   3.599  -5.823  0.00  0.00     0.002 A 
ATOM      4  C5  UNL d   1       2.598   4.630  -5.222  0.00  0.00    -0.080 A 
ATOM      5  C6  UNL d   1       2.009   6.000  -5.057  0.00  0.00     0.076 C 
ATOM      6  C7  UNL d   1       3.898   4.370  -4.775  0.00  0.00     0.002 A 
ATOM      7  C8  UNL d   1       4.467   3.106  -4.949  0.00  0.00     0.006 A 
ENDROOT
BRANCH   1   8
ATOM      8  C1  UNL d   1       4.383   0.737  -5.811  0.00  0.00     0.054 C 
ATOM      9  C   UNL d   1       5.886   0.789  -5.579  0.00  0.00     0.018 C 
ENDBRANCH   1   8
TORSDOF 1
ENDMDL
