MODEL 1
REMARK minimizedAffinity 12.8293333
REMARK minimizedRMSD -1
REMARK  1 active torsions:
REMARK  status: ('A' for Active; 'I' for Inactive)
REMARK    1  A    between atoms: C1_2  and  C2_3 
ROOT
ATOM      1  C2  UNL d   1      -2.025  -2.197  -3.540  0.00  0.00    -0.081 A 
ATOM      2  C3  UNL d   1      -1.773  -3.464  -3.001  0.00  0.00     0.006 A 
ATOM      3  C4  UNL d   1      -1.232  -4.477  -3.798  0.00  0.00     0.002 A 
ATOM      4  C5  UNL d   1      -0.927  -4.236  -5.142  0.00  0.00    -0.080 A 
ATOM      5  C6  UNL d   1      -0.318  -5.305  -6.000  0.00  0.00     0.076 C 
ATOM      6  C7  UNL d   1      -1.196  -2.975  -5.684  0.00  0.00     0.002 A 
ATOM      7  C8  UNL d   1      -1.738  -1.963  -4.889  0.00  0.00     0.006 A 
ENDROOT
BRANCH   1   8
ATOM      8  C1  UNL d   1      -2.548  -1.084  -2.667  0.00  0.00     0.054 C 
ATOM      9  C   UNL d   1      -1.850  -1.067  -1.315  0.00  0.00     0.018 C 
ENDBRANCH   1   8
TORSDOF 1
ENDMDL
