MODEL 1
REMARK minimizedAffinity 2.70373154
REMARK minimizedRMSD -1
REMARK  2 active torsions:
REMARK  status: ('A' for Active; 'I' for Inactive)
REMARK    1  A    between atoms: C1_2  and  C2_3 
REMARK    2  A    between atoms: C2_3  and  C3_4 
ROOT
ATOM      1  C3  UNL d   1       3.130   5.930   3.575  0.00  0.00    -0.075 A 
ATOM      2  C4  UNL d   1       3.572   5.997   4.904  0.00  0.00     0.002 A 
ATOM      3  C5  UNL d   1       2.659   5.944   5.957  0.00  0.00     0.002 A 
ATOM      4  C6  UNL d   1       1.295   5.833   5.696  0.00  0.00    -0.004 A 
ATOM      5  C7  UNL d   1       0.844   5.782   4.379  0.00  0.00     0.002 A 
ATOM      6  C8  UNL d   1       1.755   5.831   3.323  0.00  0.00     0.002 A 
ENDROOT
BRANCH   1   7
ATOM      7  C2  UNL d   1       4.116   5.958   2.431  0.00  0.00     0.056 C 
BRANCH   7   8
ATOM      8  C1  UNL d   1       5.012   4.718   2.350  0.00  0.00     0.007 C 
ATOM      9  C   UNL d   1       4.311   3.440   2.789  0.00  0.00     0.009 C 
ENDBRANCH   7   8
ENDBRANCH   1   7
TORSDOF 2
ENDMDL
