MODEL 1
REMARK minimizedAffinity 4.48409462
REMARK minimizedRMSD -1
REMARK  2 active torsions:
REMARK  status: ('A' for Active; 'I' for Inactive)
REMARK    1  A    between atoms: C1_2  and  C2_3 
REMARK    2  A    between atoms: C2_3  and  C3_4 
ROOT
ATOM      1  C3  UNL d   1       3.120   5.984   3.527  0.00  0.00    -0.075 A 
ATOM      2  C4  UNL d   1       3.558   5.999   4.859  0.00  0.00     0.002 A 
ATOM      3  C5  UNL d   1       2.637   6.000   5.907  0.00  0.00     0.002 A 
ATOM      4  C6  UNL d   1       1.270   5.996   5.638  0.00  0.00    -0.004 A 
ATOM      5  C7  UNL d   1       0.824   5.998   4.318  0.00  0.00     0.002 A 
ATOM      6  C8  UNL d   1       1.743   5.993   3.267  0.00  0.00     0.002 A 
ENDROOT
BRANCH   1   7
ATOM      7  C2  UNL d   1       4.111   5.954   2.388  0.00  0.00     0.056 C 
BRANCH   7   8
ATOM      8  C1  UNL d   1       4.687   4.563   2.099  0.00  0.00     0.007 C 
ATOM      9  C   UNL d   1       3.820   3.431   2.635  0.00  0.00     0.009 C 
ENDBRANCH   7   8
ENDBRANCH   1   7
TORSDOF 2
ENDMDL
