MODEL 1
REMARK minimizedAffinity 6.23529959
REMARK minimizedRMSD -1
REMARK  2 active torsions:
REMARK  status: ('A' for Active; 'I' for Inactive)
REMARK    1  A    between atoms: C1_2  and  C2_3 
REMARK    2  A    between atoms: C2_3  and  C3_4 
ROOT
ATOM      1  C3  UNL d   1      -0.195  -1.299   1.859  0.00  0.00    -0.075 A 
ATOM      2  C4  UNL d   1      -0.693  -0.788   0.652  0.00  0.00     0.002 A 
ATOM      3  C5  UNL d   1       0.177  -0.306  -0.326  0.00  0.00     0.002 A 
ATOM      4  C6  UNL d   1       1.553  -0.317  -0.105  0.00  0.00    -0.004 A 
ATOM      5  C7  UNL d   1       2.057  -0.806   1.098  0.00  0.00     0.002 A 
ATOM      6  C8  UNL d   1       1.189  -1.294   2.076  0.00  0.00     0.002 A 
ENDROOT
BRANCH   1   7
ATOM      7  C2  UNL d   1      -1.130  -1.850   2.909  0.00  0.00     0.056 C 
BRANCH   7   8
ATOM      8  C1  UNL d   1      -1.197  -3.380   2.944  0.00  0.00     0.007 C 
ATOM      9  C   UNL d   1      -2.224  -3.914   3.933  0.00  0.00     0.009 C 
ENDBRANCH   7   8
ENDBRANCH   1   7
TORSDOF 2
ENDMDL
