MODEL 1
REMARK minimizedAffinity -3.32490993
REMARK minimizedRMSD -1
REMARK  0 active torsions:
REMARK  status: ('A' for Active; 'I' for Inactive)
ROOT
ATOM      1  C   UNL d   1      -1.893   0.735   0.327  0.00  0.00     0.023 A 
ATOM      2  C1  UNL d   1      -2.033   0.897   1.706  0.00  0.00     0.003 A 
ATOM      3  C2  UNL d   1      -0.966   0.601   2.556  0.00  0.00     0.048 A 
ATOM      4  C3  UNL d   1       0.238   0.145   2.022  0.00  0.00     0.023 A 
ATOM      5  C4  UNL d   1       0.383  -0.018   0.643  0.00  0.00     0.048 A 
ATOM      6  C5  UNL d   1      -0.687   0.278  -0.204  0.00  0.00     0.003 A 
ATOM      7  I   UNL d   1       1.828  -0.296   3.286  0.00  0.00    -0.146 I 
ENDROOT
TORSDOF 0
ENDMDL
