MODEL 1
REMARK minimizedAffinity -0.0496723801
REMARK minimizedRMSD -1
REMARK  0 active torsions:
REMARK  status: ('A' for Active; 'I' for Inactive)
ROOT
ATOM      1  C   UNL d   1      -0.766  -0.044   2.344  0.00  0.00     0.023 A 
ATOM      2  C1  UNL d   1       0.497  -0.517   1.990  0.00  0.00     0.003 A 
ATOM      3  C2  UNL d   1       0.834  -0.671   0.643  0.00  0.00     0.048 A 
ATOM      4  C3  UNL d   1      -0.097  -0.348  -0.343  0.00  0.00     0.023 A 
ATOM      5  C4  UNL d   1      -1.363   0.126   0.007  0.00  0.00     0.048 A 
ATOM      6  C5  UNL d   1      -1.695   0.277   1.354  0.00  0.00     0.003 A 
ATOM      7  I   UNL d   1       0.401  -0.576  -2.348  0.00  0.00    -0.146 I 
ENDROOT
TORSDOF 0
ENDMDL
