MODEL 1
REMARK minimizedAffinity -2.51697826
REMARK minimizedRMSD -1
REMARK  0 active torsions:
REMARK  status: ('A' for Active; 'I' for Inactive)
ROOT
ATOM      1  C   UNL d   1      -1.205   0.189   2.498  0.00  0.00     0.023 A 
ATOM      2  C1  UNL d   1       0.144  -0.168   2.484  0.00  0.00     0.003 A 
ATOM      3  C2  UNL d   1       0.798  -0.381   1.269  0.00  0.00     0.048 A 
ATOM      4  C3  UNL d   1       0.098  -0.234   0.072  0.00  0.00     0.023 A 
ATOM      5  C4  UNL d   1      -1.252   0.123   0.081  0.00  0.00     0.048 A 
ATOM      6  C5  UNL d   1      -1.902   0.334   1.299  0.00  0.00     0.003 A 
ATOM      7  I   UNL d   1       1.069  -0.550  -1.738  0.00  0.00    -0.146 I 
ENDROOT
TORSDOF 0
ENDMDL
