MODEL 1
REMARK minimizedAffinity -3.81338334
REMARK minimizedRMSD -1
REMARK  0 active torsions:
REMARK  status: ('A' for Active; 'I' for Inactive)
ROOT
ATOM      1  C   UNL d   1      -0.482  -0.099   1.164  0.00  0.00     0.023 A 
ATOM      2  C1  UNL d   1      -0.073  -1.225   0.450  0.00  0.00     0.003 A 
ATOM      3  C2  UNL d   1       0.295  -1.108  -0.892  0.00  0.00     0.048 A 
ATOM      4  C3  UNL d   1       0.253   0.140  -1.513  0.00  0.00     0.023 A 
ATOM      5  C4  UNL d   1      -0.155   1.270  -0.803  0.00  0.00     0.048 A 
ATOM      6  C5  UNL d   1      -0.523   1.147   0.538  0.00  0.00     0.003 A 
ATOM      7  I   UNL d   1       0.801   0.318  -3.510  0.00  0.00    -0.146 I 
ENDROOT
TORSDOF 0
ENDMDL
