MODEL 1
REMARK minimizedAffinity -0.839807868
REMARK minimizedRMSD -1
REMARK  0 active torsions:
REMARK  status: ('A' for Active; 'I' for Inactive)
ROOT
ATOM      1  C   UNL d   1       1.814   0.517  -2.859  0.00  0.00     0.023 A 
ATOM      2  C1  UNL d   1       0.974  -0.471  -2.346  0.00  0.00     0.003 A 
ATOM      3  C2  UNL d   1      -0.202  -0.808  -3.020  0.00  0.00     0.048 A 
ATOM      4  C3  UNL d   1      -0.530  -0.155  -4.207  0.00  0.00     0.023 A 
ATOM      5  C4  UNL d   1       0.309   0.833  -4.725  0.00  0.00     0.048 A 
ATOM      6  C5  UNL d   1       1.482   1.168  -4.047  0.00  0.00     0.003 A 
ATOM      7  I   UNL d   1      -2.279  -0.656  -5.212  0.00  0.00    -0.146 I 
ENDROOT
TORSDOF 0
ENDMDL
