MODEL 1
REMARK minimizedAffinity -4.13204956
REMARK minimizedRMSD -1
REMARK  0 active torsions:
REMARK  status: ('A' for Active; 'I' for Inactive)
ROOT
ATOM      1  C   UNL d   1       1.555  -1.731   0.006  0.00  0.00     0.023 A 
ATOM      2  C1  UNL d   1       2.163  -1.234   1.158  0.00  0.00     0.003 A 
ATOM      3  C2  UNL d   1       1.498  -0.298   1.952  0.00  0.00     0.048 A 
ATOM      4  C3  UNL d   1       0.223   0.136   1.588  0.00  0.00     0.023 A 
ATOM      5  C4  UNL d   1      -0.390  -0.359   0.436  0.00  0.00     0.048 A 
ATOM      6  C5  UNL d   1       0.280  -1.295  -0.355  0.00  0.00     0.003 A 
ATOM      7  I   UNL d   1      -0.769   1.530   2.769  0.00  0.00    -0.146 I 
ENDROOT
TORSDOF 0
ENDMDL
