MODEL 1
REMARK minimizedAffinity 8.06901455
REMARK minimizedRMSD -1
REMARK  0 active torsions:
REMARK  status: ('A' for Active; 'I' for Inactive)
ROOT
ATOM      1  C1  DEN d   1      -0.979   2.973   1.600  0.00  0.00     0.130 A 
ATOM      2  C2  DEN d   1       0.300   2.434   2.054  0.00  0.00    -0.031 A 
ATOM      3  C3  DEN d   1       1.314   2.736   1.024  0.00  0.00     0.027 A 
ATOM      4  C4  DEN d   1       1.031   3.982  -1.216  0.00  0.00     0.027 A 
ATOM      5  C5  DEN d   1       0.129   4.615  -2.042  0.00  0.00    -0.003 A 
ATOM      6  C6  DEN d   1      -1.202   4.713  -1.731  0.00  0.00     0.001 A 
ATOM      7  C7  DEN d   1      -1.660   4.211  -0.542  0.00  0.00     0.017 A 
ATOM      8  C8  DEN d   1      -0.757   3.565   0.293  0.00  0.00    -0.094 A 
ATOM      9  C9  DEN d   1       0.586   3.486  -0.034  0.00  0.00    -0.072 A 
ENDROOT
TORSDOF 0
ENDMDL
