MODEL 1
REMARK minimizedAffinity 4.24571705
REMARK minimizedRMSD -1
REMARK  0 active torsions:
REMARK  status: ('A' for Active; 'I' for Inactive)
ROOT
ATOM      1  C1  DEN d   1      -5.911   5.616  -4.176  0.00  0.00     0.130 A 
ATOM      2  C2  DEN d   1      -5.941   5.999  -2.768  0.00  0.00    -0.031 A 
ATOM      3  C3  DEN d   1      -5.983   4.764  -1.959  0.00  0.00     0.027 A 
ATOM      4  C4  DEN d   1      -6.000   2.308  -2.749  0.00  0.00     0.027 A 
ATOM      5  C5  DEN d   1      -5.996   1.484  -3.852  0.00  0.00    -0.003 A 
ATOM      6  C6  DEN d   1      -5.998   1.975  -5.131  0.00  0.00     0.001 A 
ATOM      7  C7  DEN d   1      -5.958   3.328  -5.338  0.00  0.00     0.017 A 
ATOM      8  C8  DEN d   1      -5.969   4.166  -4.230  0.00  0.00    -0.094 A 
ATOM      9  C9  DEN d   1      -5.955   3.650  -2.946  0.00  0.00    -0.072 A 
ENDROOT
TORSDOF 0
ENDMDL
