MODEL 1
REMARK minimizedAffinity 4.48319006
REMARK minimizedRMSD -1
REMARK  0 active torsions:
REMARK  status: ('A' for Active; 'I' for Inactive)
ROOT
ATOM      1  C1  DEN d   1      -5.992   2.504  -3.435  0.00  0.00     0.130 A 
ATOM      2  C2  DEN d   1      -5.988   1.480  -4.476  0.00  0.00    -0.031 A 
ATOM      3  C3  DEN d   1      -5.322   2.043  -5.668  0.00  0.00     0.027 A 
ATOM      4  C4  DEN d   1      -4.298   4.387  -5.998  0.00  0.00     0.027 A 
ATOM      5  C5  DEN d   1      -4.071   5.607  -5.401  0.00  0.00    -0.003 A 
ATOM      6  C6  DEN d   1      -4.495   5.888  -4.129  0.00  0.00     0.001 A 
ATOM      7  C7  DEN d   1      -5.129   4.920  -3.396  0.00  0.00     0.017 A 
ATOM      8  C8  DEN d   1      -5.368   3.689  -3.994  0.00  0.00    -0.094 A 
ATOM      9  C9  DEN d   1      -4.921   3.421  -5.276  0.00  0.00    -0.072 A 
ENDROOT
TORSDOF 0
ENDMDL
