MODEL 1
REMARK minimizedAffinity -0.206860989
REMARK minimizedRMSD -1
REMARK  0 active torsions:
REMARK  status: ('A' for Active; 'I' for Inactive)
ROOT
ATOM      1  C1  DEN d   1      -0.815   2.592   2.183  0.00  0.00     0.130 A 
ATOM      2  C2  DEN d   1       0.441   2.320   2.876  0.00  0.00    -0.031 A 
ATOM      3  C3  DEN d   1       1.538   2.905   2.079  0.00  0.00     0.027 A 
ATOM      4  C4  DEN d   1       1.414   4.203  -0.146  0.00  0.00     0.027 A 
ATOM      5  C5  DEN d   1       0.568   4.674  -1.125  0.00  0.00    -0.003 A 
ATOM      6  C6  DEN d   1      -0.784   4.457  -1.088  0.00  0.00     0.001 A 
ATOM      7  C7  DEN d   1      -1.335   3.788  -0.027  0.00  0.00     0.017 A 
ATOM      8  C8  DEN d   1      -0.487   3.304   0.960  0.00  0.00    -0.094 A 
ATOM      9  C9  DEN d   1       0.875   3.545   0.911  0.00  0.00    -0.072 A 
ENDROOT
TORSDOF 0
ENDMDL
