MODEL 1
REMARK minimizedAffinity 3.85435224
REMARK minimizedRMSD -1
REMARK  0 active torsions:
REMARK  status: ('A' for Active; 'I' for Inactive)
ROOT
ATOM      1  C1  DEN d   1      -1.218   2.996   1.297  0.00  0.00     0.130 A 
ATOM      2  C2  DEN d   1       0.105   2.528   1.700  0.00  0.00    -0.031 A 
ATOM      3  C3  DEN d   1       1.077   2.976   0.682  0.00  0.00     0.027 A 
ATOM      4  C4  DEN d   1       0.664   4.344  -1.465  0.00  0.00     0.027 A 
ATOM      5  C5  DEN d   1      -0.297   4.958  -2.237  0.00  0.00    -0.003 A 
ATOM      6  C6  DEN d   1      -1.626   4.933  -1.906  0.00  0.00     0.001 A 
ATOM      7  C7  DEN d   1      -2.025   4.318  -0.749  0.00  0.00     0.017 A 
ATOM      8  C8  DEN d   1      -1.063   3.690   0.031  0.00  0.00    -0.094 A 
ATOM      9  C9  DEN d   1       0.277   3.737  -0.315  0.00  0.00    -0.072 A 
ENDROOT
TORSDOF 0
ENDMDL
