MODEL 1
REMARK minimizedAffinity 4.95038891
REMARK minimizedRMSD -1
REMARK  0 active torsions:
REMARK  status: ('A' for Active; 'I' for Inactive)
ROOT
ATOM      1  C1  DEN d   1      -0.374   2.881   0.152  0.00  0.00     0.130 A 
ATOM      2  C2  DEN d   1       0.415   3.625  -0.826  0.00  0.00    -0.031 A 
ATOM      3  C3  DEN d   1       1.731   3.917  -0.223  0.00  0.00     0.027 A 
ATOM      4  C4  DEN d   1       2.621   3.289   2.115  0.00  0.00     0.027 A 
ATOM      5  C5  DEN d   1       2.311   2.668   3.304  0.00  0.00    -0.003 A 
ATOM      6  C6  DEN d   1       1.083   2.108   3.537  0.00  0.00     0.001 A 
ATOM      7  C7  DEN d   1       0.133   2.119   2.549  0.00  0.00     0.017 A 
ATOM      8  C8  DEN d   1       0.436   2.750   1.350  0.00  0.00    -0.094 A 
ATOM      9  C9  DEN d   1       1.688   3.299   1.129  0.00  0.00    -0.072 A 
ENDROOT
TORSDOF 0
ENDMDL
