MODEL 1
REMARK minimizedAffinity 7.73756504
REMARK minimizedRMSD -1
REMARK  0 active torsions:
REMARK  status: ('A' for Active; 'I' for Inactive)
ROOT
ATOM      1  C1  DEN d   1       1.323   3.718   0.226  0.00  0.00     0.130 A 
ATOM      2  C2  DEN d   1      -0.040   3.476  -0.240  0.00  0.00    -0.031 A 
ATOM      3  C3  DEN d   1      -0.760   2.740   0.818  0.00  0.00     0.027 A 
ATOM      4  C4  DEN d   1       0.097   1.959   3.122  0.00  0.00     0.027 A 
ATOM      5  C5  DEN d   1       1.189   1.923   3.961  0.00  0.00    -0.003 A 
ATOM      6  C6  DEN d   1       2.402   2.448   3.602  0.00  0.00     0.001 A 
ATOM      7  C7  DEN d   1       2.540   3.073   2.391  0.00  0.00     0.017 A 
ATOM      8  C8  DEN d   1       1.445   3.107   1.537  0.00  0.00    -0.094 A 
ATOM      9  C9  DEN d   1       0.224   2.581   1.923  0.00  0.00    -0.072 A 
ENDROOT
TORSDOF 0
ENDMDL
