MODEL 1
REMARK minimizedAffinity 3.13385415
REMARK minimizedRMSD -1
REMARK  0 active torsions:
REMARK  status: ('A' for Active; 'I' for Inactive)
ROOT
ATOM      1  O1  BZF d   1       1.312   1.224   0.243  0.00  0.00    -0.204 OA
ATOM      2  C2  BZF d   1       0.065   0.733   0.578  0.00  0.00     0.174 A 
ATOM      3  C3  BZF d   1      -0.056  -0.558   0.209  0.00  0.00    -0.012 A 
ATOM      4  C3A BZF d   1       1.226  -0.923  -0.310  0.00  0.00    -0.107 A 
ATOM      5  C4  BZF d   1       1.738  -2.081  -0.821  0.00  0.00     0.055 A 
ATOM      6  C5  BZF d   1       3.006  -2.085  -1.309  0.00  0.00    -0.016 A 
ATOM      7  C6  BZF d   1       3.788  -0.948  -1.308  0.00  0.00     0.022 A 
ATOM      8  C7  BZF d   1       3.326   0.224  -0.808  0.00  0.00     0.029 A 
ATOM      9  C7A BZF d   1       2.056   0.222  -0.283  0.00  0.00     0.058 A 
ENDROOT
TORSDOF 0
ENDMDL
