MODEL 1
REMARK minimizedAffinity 9.94882679
REMARK minimizedRMSD -1
REMARK  0 active torsions:
REMARK  status: ('A' for Active; 'I' for Inactive)
ROOT
ATOM      1  O1  BZF d   1      -1.010   0.874  -1.238  0.00  0.00    -0.204 OA
ATOM      2  C2  BZF d   1      -0.154   1.539  -0.381  0.00  0.00     0.174 A 
ATOM      3  C3  BZF d   1       0.677   0.672   0.232  0.00  0.00    -0.012 A 
ATOM      4  C3A BZF d   1       0.380  -0.604  -0.342  0.00  0.00    -0.107 A 
ATOM      5  C4  BZF d   1       0.885  -1.859  -0.153  0.00  0.00     0.055 A 
ATOM      6  C5  BZF d   1       0.325  -2.903  -0.819  0.00  0.00    -0.016 A 
ATOM      7  C6  BZF d   1      -0.743  -2.730  -1.675  0.00  0.00     0.022 A 
ATOM      8  C7  BZF d   1      -1.275  -1.503  -1.898  0.00  0.00     0.029 A 
ATOM      9  C7A BZF d   1      -0.690  -0.442  -1.252  0.00  0.00     0.058 A 
ENDROOT
TORSDOF 0
ENDMDL
