MODEL 1
REMARK minimizedAffinity -0.704214096
REMARK minimizedRMSD -1
REMARK  0 active torsions:
REMARK  status: ('A' for Active; 'I' for Inactive)
ROOT
ATOM      1  O1  BZF d   1       0.062   0.607  -0.149  0.00  0.00    -0.204 OA
ATOM      2  C2  BZF d   1      -0.799  -0.470  -0.061  0.00  0.00     0.174 A 
ATOM      3  C3  BZF d   1      -0.148  -1.625  -0.309  0.00  0.00    -0.012 A 
ATOM      4  C3A BZF d   1       1.224  -1.254  -0.477  0.00  0.00    -0.107 A 
ATOM      5  C4  BZF d   1       2.364  -1.963  -0.731  0.00  0.00     0.055 A 
ATOM      6  C5  BZF d   1       3.532  -1.292  -0.911  0.00  0.00    -0.016 A 
ATOM      7  C6  BZF d   1       3.596   0.084  -0.849  0.00  0.00     0.022 A 
ATOM      8  C7  BZF d   1       2.493   0.830  -0.595  0.00  0.00     0.029 A 
ATOM      9  C7A BZF d   1       1.317   0.153  -0.381  0.00  0.00     0.058 A 
ENDROOT
TORSDOF 0
ENDMDL
