MODEL 1
REMARK minimizedAffinity 0.925257146
REMARK minimizedRMSD -1
REMARK  0 active torsions:
REMARK  status: ('A' for Active; 'I' for Inactive)
ROOT
ATOM      1  O1  BZF d   1       3.692   1.212  -0.970  0.00  0.00    -0.204 OA
ATOM      2  C2  BZF d   1       2.660   1.513  -0.102  0.00  0.00     0.174 A 
ATOM      3  C3  BZF d   1       1.871   0.437   0.093  0.00  0.00    -0.012 A 
ATOM      4  C3A BZF d   1       2.499  -0.627  -0.629  0.00  0.00    -0.107 A 
ATOM      5  C4  BZF d   1       2.199  -1.947  -0.806  0.00  0.00     0.055 A 
ATOM      6  C5  BZF d   1       2.976  -2.697  -1.631  0.00  0.00    -0.016 A 
ATOM      7  C6  BZF d   1       4.056  -2.158  -2.299  0.00  0.00     0.022 A 
ATOM      8  C7  BZF d   1       4.396  -0.854  -2.151  0.00  0.00     0.029 A 
ATOM      9  C7A BZF d   1       3.632  -0.102  -1.292  0.00  0.00     0.058 A 
ENDROOT
TORSDOF 0
ENDMDL
