MODEL 1
REMARK minimizedAffinity 3.10018873
REMARK minimizedRMSD -1
REMARK  0 active torsions:
REMARK  status: ('A' for Active; 'I' for Inactive)
ROOT
ATOM      1  O1  BZF d   1       1.437   0.735  -0.452  0.00  0.00    -0.204 OA
ATOM      2  C2  BZF d   1       0.197   1.345  -0.443  0.00  0.00     0.174 A 
ATOM      3  C3  BZF d   1      -0.783   0.438  -0.631  0.00  0.00    -0.012 A 
ATOM      4  C3A BZF d   1      -0.121  -0.829  -0.674  0.00  0.00    -0.107 A 
ATOM      5  C4  BZF d   1      -0.561  -2.114  -0.822  0.00  0.00     0.055 A 
ATOM      6  C5  BZF d   1       0.350  -3.119  -0.895  0.00  0.00    -0.016 A 
ATOM      7  C6  BZF d   1       1.707  -2.876  -0.828  0.00  0.00     0.022 A 
ATOM      8  C7  BZF d   1       2.190  -1.620  -0.676  0.00  0.00     0.029 A 
ATOM      9  C7A BZF d   1       1.271  -0.605  -0.569  0.00  0.00     0.058 A 
ENDROOT
TORSDOF 0
ENDMDL
