MODEL 1
REMARK minimizedAffinity -0.0193484426
REMARK minimizedRMSD -1
REMARK  0 active torsions:
REMARK  status: ('A' for Active; 'I' for Inactive)
ROOT
ATOM      1  O1  BZF d   1       3.062   1.290  -0.284  0.00  0.00    -0.204 OA
ATOM      2  C2  BZF d   1       1.883   1.627   0.353  0.00  0.00     0.174 A 
ATOM      3  C3  BZF d   1       1.046   0.571   0.399  0.00  0.00    -0.012 A 
ATOM      4  C3A BZF d   1       1.781  -0.518  -0.168  0.00  0.00    -0.107 A 
ATOM      5  C4  BZF d   1       1.492  -1.835  -0.385  0.00  0.00     0.055 A 
ATOM      6  C5  BZF d   1       2.402  -2.614  -1.026  0.00  0.00    -0.016 A 
ATOM      7  C6  BZF d   1       3.607  -2.109  -1.468  0.00  0.00     0.022 A 
ATOM      8  C7  BZF d   1       3.941  -0.810  -1.271  0.00  0.00     0.029 A 
ATOM      9  C7A BZF d   1       3.037  -0.028  -0.595  0.00  0.00     0.058 A 
ENDROOT
TORSDOF 0
ENDMDL
