MODEL 1
REMARK minimizedAffinity 2.36227894
REMARK minimizedRMSD -1
REMARK  0 active torsions:
REMARK  status: ('A' for Active; 'I' for Inactive)
ROOT
ATOM      1  O1  BZF d   1      -0.553   0.010  -0.682  0.00  0.00    -0.204 OA
ATOM      2  C2  BZF d   1      -1.342  -1.121  -0.749  0.00  0.00     0.174 A 
ATOM      3  C3  BZF d   1      -0.581  -2.230  -0.851  0.00  0.00    -0.012 A 
ATOM      4  C3A BZF d   1       0.770  -1.769  -0.755  0.00  0.00    -0.107 A 
ATOM      5  C4  BZF d   1       1.981  -2.400  -0.773  0.00  0.00     0.055 A 
ATOM      6  C5  BZF d   1       3.116  -1.654  -0.732  0.00  0.00    -0.016 A 
ATOM      7  C6  BZF d   1       3.077  -0.276  -0.677  0.00  0.00     0.022 A 
ATOM      8  C7  BZF d   1       1.899   0.395  -0.651  0.00  0.00     0.029 A 
ATOM      9  C7A BZF d   1       0.751  -0.359  -0.660  0.00  0.00     0.058 A 
ENDROOT
TORSDOF 0
ENDMDL
