MODEL 1
REMARK minimizedAffinity 5.09603024
REMARK minimizedRMSD -1
REMARK  0 active torsions:
REMARK  status: ('A' for Active; 'I' for Inactive)
ROOT
ATOM      1  C   UNL d   1       5.997   0.794  -0.154  0.00  0.00     0.078 C 
ATOM      2  C1  UNL d   1       4.507   0.632  -0.124  0.00  0.00    -0.077 A 
ATOM      3  C2  UNL d   1       3.659   1.744  -0.195  0.00  0.00    -0.001 A 
ATOM      4  C3  UNL d   1       2.274   1.580  -0.157  0.00  0.00     0.003 A 
ATOM      5  C4  UNL d   1       1.724   0.304  -0.045  0.00  0.00    -0.005 A 
ATOM      6  C5  UNL d   1       2.559  -0.808   0.029  0.00  0.00     0.003 A 
ATOM      7  C6  UNL d   1       3.945  -0.646  -0.009  0.00  0.00    -0.001 A 
ENDROOT
TORSDOF 0
ENDMDL
