MODEL 1
REMARK minimizedAffinity 11.5402184
REMARK minimizedRMSD -1
REMARK  0 active torsions:
REMARK  status: ('A' for Active; 'I' for Inactive)
ROOT
ATOM      1  C   UNL d   1      -5.916   1.695  -4.450  0.00  0.00     0.078 C 
ATOM      2  C1  UNL d   1      -5.408   1.114  -3.164  0.00  0.00    -0.077 A 
ATOM      3  C2  UNL d   1      -4.359   0.188  -3.155  0.00  0.00    -0.001 A 
ATOM      4  C3  UNL d   1      -3.903  -0.352  -1.951  0.00  0.00     0.003 A 
ATOM      5  C4  UNL d   1      -4.493   0.028  -0.747  0.00  0.00    -0.005 A 
ATOM      6  C5  UNL d   1      -5.539   0.948  -0.746  0.00  0.00     0.003 A 
ATOM      7  C6  UNL d   1      -5.996   1.488  -1.949  0.00  0.00    -0.001 A 
ENDROOT
TORSDOF 0
ENDMDL
