MODEL 1
REMARK minimizedAffinity 6.9520607
REMARK minimizedRMSD -1
REMARK  0 active torsions:
REMARK  status: ('A' for Active; 'I' for Inactive)
ROOT
ATOM      1  C   UNL d   1       5.207   1.902  -0.798  0.00  0.00     0.078 C 
ATOM      2  C1  UNL d   1       3.891   1.297  -0.411  0.00  0.00    -0.077 A 
ATOM      3  C2  UNL d   1       3.683  -0.086  -0.490  0.00  0.00    -0.001 A 
ATOM      4  C3  UNL d   1       2.449  -0.635  -0.136  0.00  0.00     0.003 A 
ATOM      5  C4  UNL d   1       1.414   0.191   0.298  0.00  0.00    -0.005 A 
ATOM      6  C5  UNL d   1       1.612   1.568   0.378  0.00  0.00     0.003 A 
ATOM      7  C6  UNL d   1       2.845   2.119   0.024  0.00  0.00    -0.001 A 
ENDROOT
TORSDOF 0
ENDMDL
