MODEL 1
REMARK minimizedAffinity -0.608959854
REMARK minimizedRMSD -1
REMARK  0 active torsions:
REMARK  status: ('A' for Active; 'I' for Inactive)
ROOT
ATOM      1  C   UNL d   1      -4.449   5.986   0.404  0.00  0.00     0.078 C 
ATOM      2  C1  UNL d   1      -4.537   5.983   1.901  0.00  0.00    -0.077 A 
ATOM      3  C2  UNL d   1      -5.777   5.993   2.551  0.00  0.00    -0.001 A 
ATOM      4  C3  UNL d   1      -5.843   5.999   3.945  0.00  0.00     0.003 A 
ATOM      5  C4  UNL d   1      -4.673   5.998   4.702  0.00  0.00    -0.005 A 
ATOM      6  C5  UNL d   1      -3.434   5.991   4.064  0.00  0.00     0.003 A 
ATOM      7  C6  UNL d   1      -3.366   5.984   2.670  0.00  0.00    -0.001 A 
ENDROOT
TORSDOF 0
ENDMDL
