MODEL 1
REMARK minimizedAffinity -1.0426892
REMARK minimizedRMSD -1
REMARK  0 active torsions:
REMARK  status: ('A' for Active; 'I' for Inactive)
ROOT
ATOM      1  C   UNL d   1      -5.886   5.672   4.994  0.00  0.00     0.078 C 
ATOM      2  C1  UNL d   1      -5.053   5.667   3.747  0.00  0.00    -0.077 A 
ATOM      3  C2  UNL d   1      -3.693   5.999   3.787  0.00  0.00    -0.001 A 
ATOM      4  C3  UNL d   1      -2.931   6.000   2.618  0.00  0.00     0.003 A 
ATOM      5  C4  UNL d   1      -3.521   5.670   1.399  0.00  0.00    -0.005 A 
ATOM      6  C5  UNL d   1      -4.874   5.340   1.349  0.00  0.00     0.003 A 
ATOM      7  C6  UNL d   1      -5.637   5.339   2.517  0.00  0.00    -0.001 A 
ENDROOT
TORSDOF 0
ENDMDL
