MODEL 1
REMARK minimizedAffinity -0.242274523
REMARK minimizedRMSD -1
REMARK  0 active torsions:
REMARK  status: ('A' for Active; 'I' for Inactive)
ROOT
ATOM      1  C   UNL d   1       0.366  -0.131   5.256  0.00  0.00     0.078 C 
ATOM      2  C1  UNL d   1       0.236  -1.625   5.289  0.00  0.00    -0.077 A 
ATOM      3  C2  UNL d   1       1.169  -2.444   4.642  0.00  0.00    -0.001 A 
ATOM      4  C3  UNL d   1       1.031  -3.832   4.672  0.00  0.00     0.003 A 
ATOM      5  C4  UNL d   1      -0.039  -4.414   5.349  0.00  0.00    -0.005 A 
ATOM      6  C5  UNL d   1      -0.974  -3.607   5.995  0.00  0.00     0.003 A 
ATOM      7  C6  UNL d   1      -0.837  -2.218   5.965  0.00  0.00    -0.001 A 
ENDROOT
TORSDOF 0
ENDMDL
