MODEL 1
REMARK minimizedAffinity 1.70863736
REMARK minimizedRMSD -1
REMARK  0 active torsions:
REMARK  status: ('A' for Active; 'I' for Inactive)
ROOT
ATOM      1  C   UNL d   1      -4.499   5.999  -0.260  0.00  0.00     0.078 C 
ATOM      2  C1  UNL d   1      -4.417   5.991   1.238  0.00  0.00    -0.077 A 
ATOM      3  C2  UNL d   1      -5.576   5.993   2.024  0.00  0.00    -0.001 A 
ATOM      4  C3  UNL d   1      -5.484   5.996   3.416  0.00  0.00     0.003 A 
ATOM      5  C4  UNL d   1      -4.236   5.997   4.036  0.00  0.00    -0.005 A 
ATOM      6  C5  UNL d   1      -3.077   5.998   3.262  0.00  0.00     0.003 A 
ATOM      7  C6  UNL d   1      -3.167   5.995   1.869  0.00  0.00    -0.001 A 
ENDROOT
TORSDOF 0
ENDMDL
