MODEL 1
REMARK minimizedAffinity -0.161326066
REMARK minimizedRMSD -1
REMARK  0 active torsions:
REMARK  status: ('A' for Active; 'I' for Inactive)
ROOT
ATOM      1  C   UNL d   1       0.734  -1.828   4.264  0.00  0.00     0.078 C 
ATOM      2  C1  UNL d   1       0.413  -3.158   4.877  0.00  0.00    -0.077 A 
ATOM      3  C2  UNL d   1       1.418  -3.953   5.441  0.00  0.00    -0.001 A 
ATOM      4  C3  UNL d   1       1.107  -5.194   6.000  0.00  0.00     0.003 A 
ATOM      5  C4  UNL d   1      -0.210  -5.651   5.999  0.00  0.00    -0.005 A 
ATOM      6  C5  UNL d   1      -1.216  -4.867   5.438  0.00  0.00     0.003 A 
ATOM      7  C6  UNL d   1      -0.907  -3.627   4.879  0.00  0.00    -0.001 A 
ENDROOT
TORSDOF 0
ENDMDL
