MODEL 1
REMARK minimizedAffinity 1.76477599
REMARK minimizedRMSD -1
REMARK  0 active torsions:
REMARK  status: ('A' for Active; 'I' for Inactive)
ROOT
ATOM      1  C   UNL d   1      -4.433   5.880   0.035  0.00  0.00     0.078 C 
ATOM      2  C1  UNL d   1      -4.594   5.844   1.526  0.00  0.00    -0.077 A 
ATOM      3  C2  UNL d   1      -5.854   5.669   2.110  0.00  0.00    -0.001 A 
ATOM      4  C3  UNL d   1      -5.991   5.647   3.499  0.00  0.00     0.003 A 
ATOM      5  C4  UNL d   1      -4.872   5.799   4.315  0.00  0.00    -0.005 A 
ATOM      6  C5  UNL d   1      -3.614   5.975   3.742  0.00  0.00     0.003 A 
ATOM      7  C6  UNL d   1      -3.475   5.998   2.353  0.00  0.00    -0.001 A 
ENDROOT
TORSDOF 0
ENDMDL
