MODEL 1
REMARK minimizedAffinity 0.406447709
REMARK minimizedRMSD -1
REMARK  0 active torsions:
REMARK  status: ('A' for Active; 'I' for Inactive)
ROOT
ATOM      1  C   UNL d   1      -6.000   5.963   5.193  0.00  0.00     0.078 C 
ATOM      2  C1  UNL d   1      -5.159   5.983   3.952  0.00  0.00    -0.077 A 
ATOM      3  C2  UNL d   1      -5.748   5.991   2.682  0.00  0.00    -0.001 A 
ATOM      4  C3  UNL d   1      -4.953   6.000   1.534  0.00  0.00     0.003 A 
ATOM      5  C4  UNL d   1      -3.564   5.999   1.646  0.00  0.00    -0.005 A 
ATOM      6  C5  UNL d   1      -2.969   5.989   2.905  0.00  0.00     0.003 A 
ATOM      7  C6  UNL d   1      -3.762   5.980   4.054  0.00  0.00    -0.001 A 
ENDROOT
TORSDOF 0
ENDMDL
