MODEL 1
REMARK minimizedAffinity 0.508245587
REMARK minimizedRMSD -1
REMARK  0 active torsions:
REMARK  status: ('A' for Active; 'I' for Inactive)
ROOT
ATOM      1  C   UNL d   1       5.999  -0.957   1.637  0.00  0.00     0.078 C 
ATOM      2  C1  UNL d   1       5.287   0.065   0.803  0.00  0.00    -0.077 A 
ATOM      3  C2  UNL d   1       6.000   1.022   0.070  0.00  0.00    -0.001 A 
ATOM      4  C3  UNL d   1       5.323   1.974  -0.694  0.00  0.00     0.003 A 
ATOM      5  C4  UNL d   1       3.930   1.979  -0.732  0.00  0.00    -0.005 A 
ATOM      6  C5  UNL d   1       3.212   1.032  -0.004  0.00  0.00     0.003 A 
ATOM      7  C6  UNL d   1       3.887   0.080   0.761  0.00  0.00    -0.001 A 
ENDROOT
TORSDOF 0
ENDMDL
