MODEL 1
REMARK minimizedAffinity 6.1368947
REMARK minimizedRMSD -1
REMARK  0 active torsions:
REMARK  status: ('A' for Active; 'I' for Inactive)
ROOT
ATOM      1  C1  DEN d   1      -4.060   4.242  -2.651  0.00  0.00     0.130 A 
ATOM      2  C2  DEN d   1      -5.186   5.165  -2.760  0.00  0.00    -0.031 A 
ATOM      3  C3  DEN d   1      -5.958   4.804  -3.966  0.00  0.00     0.027 A 
ATOM      4  C4  DEN d   1      -5.523   2.911  -5.663  0.00  0.00     0.027 A 
ATOM      5  C5  DEN d   1      -4.680   1.874  -5.997  0.00  0.00    -0.003 A 
ATOM      6  C6  DEN d   1      -3.562   1.577  -5.263  0.00  0.00     0.001 A 
ATOM      7  C7  DEN d   1      -3.281   2.298  -4.133  0.00  0.00     0.017 A 
ATOM      8  C8  DEN d   1      -4.122   3.350  -3.794  0.00  0.00    -0.094 A 
ATOM      9  C9  DEN d   1      -5.254   3.627  -4.542  0.00  0.00    -0.072 A 
ENDROOT
TORSDOF 0
ENDMDL
