MODEL 1
REMARK minimizedAffinity 15.9889593
REMARK minimizedRMSD -1
REMARK  0 active torsions:
REMARK  status: ('A' for Active; 'I' for Inactive)
ROOT
ATOM      1  C1  DEN d   1       0.676   2.310  -0.739  0.00  0.00     0.130 A 
ATOM      2  C2  DEN d   1       0.377   1.470   0.417  0.00  0.00    -0.031 A 
ATOM      3  C3  DEN d   1      -0.218   2.326   1.462  0.00  0.00     0.027 A 
ATOM      4  C4  DEN d   1      -0.710   4.857   1.401  0.00  0.00     0.027 A 
ATOM      5  C5  DEN d   1      -0.619   6.000   0.638  0.00  0.00    -0.003 A 
ATOM      6  C6  DEN d   1      -0.065   6.000  -0.614  0.00  0.00     0.001 A 
ATOM      7  C7  DEN d   1       0.381   4.824  -1.159  0.00  0.00     0.017 A 
ATOM      8  C8  DEN d   1       0.300   3.669  -0.393  0.00  0.00    -0.094 A 
ATOM      9  C9  DEN d   1      -0.276   3.688   0.867  0.00  0.00    -0.072 A 
ENDROOT
TORSDOF 0
ENDMDL
