MODEL 1
REMARK minimizedAffinity 5.34806395
REMARK minimizedRMSD -1
REMARK  0 active torsions:
REMARK  status: ('A' for Active; 'I' for Inactive)
ROOT
ATOM      1  C1  DEN d   1      -1.355   3.835   0.785  0.00  0.00     0.130 A 
ATOM      2  C2  DEN d   1      -0.030   3.678   1.377  0.00  0.00    -0.031 A 
ATOM      3  C3  DEN d   1       0.946   4.347   0.493  0.00  0.00     0.027 A 
ATOM      4  C4  DEN d   1       0.535   5.608  -1.718  0.00  0.00     0.027 A 
ATOM      5  C5  DEN d   1      -0.424   5.996  -2.628  0.00  0.00    -0.003 A 
ATOM      6  C6  DEN d   1      -1.745   5.663  -2.483  0.00  0.00     0.001 A 
ATOM      7  C7  DEN d   1      -2.151   4.960  -1.379  0.00  0.00     0.017 A 
ATOM      8  C8  DEN d   1      -1.188   4.560  -0.461  0.00  0.00    -0.094 A 
ATOM      9  C9  DEN d   1       0.140   4.916  -0.620  0.00  0.00    -0.072 A 
ENDROOT
TORSDOF 0
ENDMDL
