MODEL 1
REMARK minimizedAffinity 14.2760572
REMARK minimizedRMSD -1
REMARK  0 active torsions:
REMARK  status: ('A' for Active; 'I' for Inactive)
ROOT
ATOM      1  C1  DEN d   1       1.545   2.359   0.865  0.00  0.00     0.130 A 
ATOM      2  C2  DEN d   1       0.567   3.250   1.482  0.00  0.00    -0.031 A 
ATOM      3  C3  DEN d   1      -0.782   2.738   1.165  0.00  0.00     0.027 A 
ATOM      4  C4  DEN d   1      -1.446   0.659  -0.209  0.00  0.00     0.027 A 
ATOM      5  C5  DEN d   1      -0.964  -0.402  -0.944  0.00  0.00    -0.003 A 
ATOM      6  C6  DEN d   1       0.375  -0.596  -1.154  0.00  0.00     0.001 A 
ATOM      7  C7  DEN d   1       1.283   0.259  -0.585  0.00  0.00     0.017 A 
ATOM      8  C8  DEN d   1       0.804   1.335   0.150  0.00  0.00    -0.094 A 
ATOM      9  C9  DEN d   1      -0.553   1.507   0.361  0.00  0.00    -0.072 A 
ENDROOT
TORSDOF 0
ENDMDL
