MODEL 1
REMARK minimizedAffinity 16.9956856
REMARK minimizedRMSD -1
REMARK  0 active torsions:
REMARK  status: ('A' for Active; 'I' for Inactive)
ROOT
ATOM      1  C1  DEN d   1      -3.273  -0.038  -0.431  0.00  0.00     0.130 A 
ATOM      2  C2  DEN d   1      -3.126   0.707   0.816  0.00  0.00    -0.031 A 
ATOM      3  C3  DEN d   1      -1.708   1.095   0.952  0.00  0.00     0.027 A 
ATOM      4  C4  DEN d   1       0.264   0.621  -0.642  0.00  0.00     0.027 A 
ATOM      5  C5  DEN d   1       0.632   0.014  -1.823  0.00  0.00    -0.003 A 
ATOM      6  C6  DEN d   1      -0.261  -0.676  -2.599  0.00  0.00     0.001 A 
ATOM      7  C7  DEN d   1      -1.578  -0.738  -2.226  0.00  0.00     0.017 A 
ATOM      8  C8  DEN d   1      -1.955  -0.135  -1.033  0.00  0.00    -0.094 A 
ATOM      9  C9  DEN d   1      -1.040   0.569  -0.269  0.00  0.00    -0.072 A 
ENDROOT
TORSDOF 0
ENDMDL
