MODEL 1
REMARK minimizedAffinity 14.0220661
REMARK minimizedRMSD -1
REMARK  0 active torsions:
REMARK  status: ('A' for Active; 'I' for Inactive)
ROOT
ATOM      1  C1  DEN d   1      -0.527   3.019   2.349  0.00  0.00     0.130 A 
ATOM      2  C2  DEN d   1       0.281   1.885   1.907  0.00  0.00    -0.031 A 
ATOM      3  C3  DEN d   1       0.806   2.195   0.563  0.00  0.00     0.027 A 
ATOM      4  C4  DEN d   1       0.453   4.311  -0.869  0.00  0.00     0.027 A 
ATOM      5  C5  DEN d   1      -0.166   5.541  -0.922  0.00  0.00    -0.003 A 
ATOM      6  C6  DEN d   1      -0.970   5.997   0.089  0.00  0.00     0.001 A 
ATOM      7  C7  DEN d   1      -1.140   5.238   1.216  0.00  0.00     0.017 A 
ATOM      8  C8  DEN d   1      -0.525   3.995   1.274  0.00  0.00    -0.094 A 
ATOM      9  C9  DEN d   1       0.294   3.556   0.247  0.00  0.00    -0.072 A 
ENDROOT
TORSDOF 0
ENDMDL
