MODEL 1
REMARK minimizedAffinity 1.15997589
REMARK minimizedRMSD -1
REMARK  0 active torsions:
REMARK  status: ('A' for Active; 'I' for Inactive)
ROOT
ATOM      1  C4' PXY d   1      -1.669  -2.461   2.528  0.00  0.00     0.077 C 
ATOM      2  C1' PXY d   1       1.801   0.927  -0.619  0.00  0.00     0.077 C 
ATOM      3  C1  PXY d   1       0.882   0.048   0.207  0.00  0.00    -0.082 A 
ATOM      4  C2  PXY d   1       1.386  -0.973   0.882  0.00  0.00     0.003 A 
ATOM      5  C3  PXY d   1       0.565  -1.797   1.608  0.00  0.00     0.003 A 
ATOM      6  C4  PXY d   1      -0.778  -1.542   1.688  0.00  0.00    -0.082 A 
ATOM      7  C5  PXY d   1      -1.298  -0.496   1.011  0.00  0.00     0.003 A 
ATOM      8  C6  PXY d   1      -0.454   0.304   0.246  0.00  0.00     0.003 A 
ENDROOT
TORSDOF 0
ENDMDL
