MODEL 1
REMARK minimizedAffinity -3.46495986
REMARK minimizedRMSD -1
REMARK  0 active torsions:
REMARK  status: ('A' for Active; 'I' for Inactive)
ROOT
ATOM      1  C4' PXY d   1      -3.317  -1.055  -0.182  0.00  0.00     0.077 C 
ATOM      2  C1' PXY d   1       2.014   1.166   0.064  0.00  0.00     0.077 C 
ATOM      3  C1  PXY d   1       0.613   0.592  -0.010  0.00  0.00    -0.082 A 
ATOM      4  C2  PXY d   1       0.119  -0.064   1.028  0.00  0.00     0.003 A 
ATOM      5  C3  PXY d   1      -1.134  -0.616   0.966  0.00  0.00     0.003 A 
ATOM      6  C4  PXY d   1      -1.910  -0.451  -0.149  0.00  0.00    -0.082 A 
ATOM      7  C5  PXY d   1      -1.418   0.226  -1.208  0.00  0.00     0.003 A 
ATOM      8  C6  PXY d   1      -0.128   0.745  -1.141  0.00  0.00     0.003 A 
ENDROOT
TORSDOF 0
ENDMDL
