MODEL 1
REMARK minimizedAffinity -1.49642873
REMARK minimizedRMSD -1
REMARK  0 active torsions:
REMARK  status: ('A' for Active; 'I' for Inactive)
ROOT
ATOM      1  C4' PXY d   1       2.381   1.978   0.916  0.00  0.00     0.077 C 
ATOM      2  C1' PXY d   1      -2.069  -0.858  -1.443  0.00  0.00     0.077 C 
ATOM      3  C1  PXY d   1      -0.901  -0.124  -0.816  0.00  0.00    -0.082 A 
ATOM      4  C2  PXY d   1      -0.803   1.188  -0.952  0.00  0.00     0.003 A 
ATOM      5  C3  PXY d   1       0.264   1.864  -0.418  0.00  0.00     0.003 A 
ATOM      6  C4  PXY d   1       1.214   1.196   0.308  0.00  0.00    -0.082 A 
ATOM      7  C5  PXY d   1       1.116  -0.141   0.460  0.00  0.00     0.003 A 
ATOM      8  C6  PXY d   1       0.047  -0.814  -0.124  0.00  0.00     0.003 A 
ENDROOT
TORSDOF 0
ENDMDL
