MODEL 1
REMARK minimizedAffinity -4.31529808
REMARK minimizedRMSD -1
REMARK  0 active torsions:
REMARK  status: ('A' for Active; 'I' for Inactive)
ROOT
ATOM      1  C4' PXY d   1       1.994   0.579   0.359  0.00  0.00     0.077 C 
ATOM      2  C1' PXY d   1      -3.469  -1.270  -0.027  0.00  0.00     0.077 C 
ATOM      3  C1  PXY d   1      -2.036  -0.790   0.087  0.00  0.00    -0.082 A 
ATOM      4  C2  PXY d   1      -1.613   0.197  -0.687  0.00  0.00     0.003 A 
ATOM      5  C3  PXY d   1      -0.312   0.622  -0.620  0.00  0.00     0.003 A 
ATOM      6  C4  PXY d   1       0.553   0.068   0.285  0.00  0.00    -0.082 A 
ATOM      7  C5  PXY d   1       0.126  -0.932   1.086  0.00  0.00     0.003 A 
ATOM      8  C6  PXY d   1      -1.188  -1.377   0.974  0.00  0.00     0.003 A 
ENDROOT
TORSDOF 0
ENDMDL
