MODEL 1
REMARK minimizedAffinity -3.76074481
REMARK minimizedRMSD -1
REMARK  0 active torsions:
REMARK  status: ('A' for Active; 'I' for Inactive)
ROOT
ATOM      1  C4' PXY d   1      -3.769  -0.763   0.130  0.00  0.00     0.077 C 
ATOM      2  C1' PXY d   1       1.939   0.059  -0.262  0.00  0.00     0.077 C 
ATOM      3  C1  PXY d   1       0.441  -0.148  -0.169  0.00  0.00    -0.082 A 
ATOM      4  C2  PXY d   1      -0.088  -0.607   0.954  0.00  0.00     0.003 A 
ATOM      5  C3  PXY d   1      -1.438  -0.830   1.045  0.00  0.00     0.003 A 
ATOM      6  C4  PXY d   1      -2.262  -0.530  -0.006  0.00  0.00    -0.082 A 
ATOM      7  C5  PXY d   1      -1.732  -0.051  -1.152  0.00  0.00     0.003 A 
ATOM      8  C6  PXY d   1      -0.354   0.130  -1.238  0.00  0.00     0.003 A 
ENDROOT
TORSDOF 0
ENDMDL
