MODEL 1
REMARK minimizedAffinity -3.76662874
REMARK minimizedRMSD -1
REMARK  0 active torsions:
REMARK  status: ('A' for Active; 'I' for Inactive)
ROOT
ATOM      1  C4' PXY d   1       2.296   1.473   0.378  0.00  0.00     0.077 C 
ATOM      2  C1' PXY d   1      -3.190  -0.300  -0.038  0.00  0.00     0.077 C 
ATOM      3  C1  PXY d   1      -1.748   0.154   0.077  0.00  0.00    -0.082 A 
ATOM      4  C2  PXY d   1      -1.470   1.447   0.104  0.00  0.00     0.003 A 
ATOM      5  C3  PXY d   1      -0.169   1.875   0.175  0.00  0.00     0.003 A 
ATOM      6  C4  PXY d   1       0.854   0.969   0.273  0.00  0.00    -0.082 A 
ATOM      7  C5  PXY d   1       0.577  -0.352   0.257  0.00  0.00     0.003 A 
ATOM      8  C6  PXY d   1      -0.747  -0.766   0.143  0.00  0.00     0.003 A 
ENDROOT
TORSDOF 0
ENDMDL
