MODEL 1
REMARK minimizedAffinity -4.06447887
REMARK minimizedRMSD -1
REMARK  0 active torsions:
REMARK  status: ('A' for Active; 'I' for Inactive)
ROOT
ATOM      1  C4' PXY d   1       2.057   1.701   0.424  0.00  0.00     0.077 C 
ATOM      2  C1' PXY d   1      -3.178  -0.567  -0.506  0.00  0.00     0.077 C 
ATOM      3  C1  PXY d   1      -1.803   0.018  -0.253  0.00  0.00    -0.082 A 
ATOM      4  C2  PXY d   1      -1.591   1.307  -0.467  0.00  0.00     0.003 A 
ATOM      5  C3  PXY d   1      -0.345   1.846  -0.274  0.00  0.00     0.003 A 
ATOM      6  C4  PXY d   1       0.682   1.069   0.192  0.00  0.00    -0.082 A 
ATOM      7  C5  PXY d   1       0.471  -0.244   0.422  0.00  0.00     0.003 A 
ATOM      8  C6  PXY d   1      -0.791  -0.781   0.181  0.00  0.00     0.003 A 
ENDROOT
TORSDOF 0
ENDMDL
