MODEL 1
REMARK minimizedAffinity -1.96025848
REMARK minimizedRMSD -1
REMARK  0 active torsions:
REMARK  status: ('A' for Active; 'I' for Inactive)
ROOT
ATOM      1  C4' PXY d   1      -3.691  -0.406   0.249  0.00  0.00     0.077 C 
ATOM      2  C1' PXY d   1       2.014   0.249  -0.410  0.00  0.00     0.077 C 
ATOM      3  C1  PXY d   1       0.516   0.084  -0.248  0.00  0.00    -0.082 A 
ATOM      4  C2  PXY d   1       0.009  -0.151   0.951  0.00  0.00     0.003 A 
ATOM      5  C3  PXY d   1      -1.340  -0.334   1.111  0.00  0.00     0.003 A 
ATOM      6  C4  PXY d   1      -2.186  -0.224   0.040  0.00  0.00    -0.082 A 
ATOM      7  C5  PXY d   1      -1.678   0.027  -1.186  0.00  0.00     0.003 A 
ATOM      8  C6  PXY d   1      -0.301   0.169  -1.333  0.00  0.00     0.003 A 
ENDROOT
TORSDOF 0
ENDMDL
