MODEL 1
REMARK minimizedAffinity -3.88294697
REMARK minimizedRMSD -1
REMARK  0 active torsions:
REMARK  status: ('A' for Active; 'I' for Inactive)
ROOT
ATOM      1  C4' PXY d   1       2.211   0.713  -0.800  0.00  0.00     0.077 C 
ATOM      2  C1' PXY d   1      -3.262  -0.920   0.090  0.00  0.00     0.077 C 
ATOM      3  C1  PXY d   1      -1.828  -0.496  -0.156  0.00  0.00    -0.082 A 
ATOM      4  C2  PXY d   1      -0.980  -0.436   0.859  0.00  0.00     0.003 A 
ATOM      5  C3  PXY d   1       0.312  -0.023   0.659  0.00  0.00     0.003 A 
ATOM      6  C4  PXY d   1       0.756   0.281  -0.600  0.00  0.00    -0.082 A 
ATOM      7  C5  PXY d   1      -0.100   0.212  -1.642  0.00  0.00     0.003 A 
ATOM      8  C6  PXY d   1      -1.419  -0.170  -1.412  0.00  0.00     0.003 A 
ENDROOT
TORSDOF 0
ENDMDL
