MODEL 1
REMARK minimizedAffinity -4.98608208
REMARK minimizedRMSD -1
REMARK  0 active torsions:
REMARK  status: ('A' for Active; 'I' for Inactive)
ROOT
ATOM      1  C4' PXY d   1       1.928   0.352   0.489  0.00  0.00     0.077 C 
ATOM      2  C1' PXY d   1      -3.505  -1.542  -0.069  0.00  0.00     0.077 C 
ATOM      3  C1  PXY d   1      -2.080  -1.043   0.064  0.00  0.00    -0.082 A 
ATOM      4  C2  PXY d   1      -1.359  -1.398   1.115  0.00  0.00     0.003 A 
ATOM      5  C3  PXY d   1      -0.079  -0.931   1.268  0.00  0.00     0.003 A 
ATOM      6  C4  PXY d   1       0.487  -0.135   0.308  0.00  0.00    -0.082 A 
ATOM      7  C5  PXY d   1      -0.239   0.223  -0.773  0.00  0.00     0.003 A 
ATOM      8  C6  PXY d   1      -1.550  -0.229  -0.888  0.00  0.00     0.003 A 
ENDROOT
TORSDOF 0
ENDMDL
