MODEL 1
REMARK minimizedAffinity -4.75080347
REMARK minimizedRMSD -1
REMARK  0 active torsions:
REMARK  status: ('A' for Active; 'I' for Inactive)
ROOT
ATOM      1  C4' PXY d   1       2.810   1.062   0.487  0.00  0.00     0.077 C 
ATOM      2  C1' PXY d   1      -2.751  -0.395  -0.119  0.00  0.00     0.077 C 
ATOM      3  C1  PXY d   1      -1.289  -0.023   0.034  0.00  0.00    -0.082 A 
ATOM      4  C2  PXY d   1      -0.910   0.741   1.045  0.00  0.00     0.003 A 
ATOM      5  C3  PXY d   1       0.403   1.113   1.179  0.00  0.00     0.003 A 
ATOM      6  C4  PXY d   1       1.346   0.654   0.300  0.00  0.00    -0.082 A 
ATOM      7  C5  PXY d   1       0.969  -0.135  -0.729  0.00  0.00     0.003 A 
ATOM      8  C6  PXY d   1      -0.375  -0.468  -0.871  0.00  0.00     0.003 A 
ENDROOT
TORSDOF 0
ENDMDL
