MODEL 1
REMARK minimizedAffinity -3.90192318
REMARK minimizedRMSD -1
REMARK  0 active torsions:
REMARK  status: ('A' for Active; 'I' for Inactive)
ROOT
ATOM      1  C4' PXY d   1       2.550   0.102   0.837  0.00  0.00     0.077 C 
ATOM      2  C1' PXY d   1      -3.096  -0.590  -0.192  0.00  0.00     0.077 C 
ATOM      3  C1  PXY d   1      -1.618  -0.408   0.091  0.00  0.00    -0.082 A 
ATOM      4  C2  PXY d   1      -0.842   0.154  -0.821  0.00  0.00     0.003 A 
ATOM      5  C3  PXY d   1       0.503   0.297  -0.595  0.00  0.00     0.003 A 
ATOM      6  C4  PXY d   1       1.050  -0.092   0.599  0.00  0.00    -0.082 A 
ATOM      7  C5  PXY d   1       0.263  -0.658   1.538  0.00  0.00     0.003 A 
ATOM      8  C6  PXY d   1      -1.093  -0.831   1.273  0.00  0.00     0.003 A 
ENDROOT
TORSDOF 0
ENDMDL
