MODEL 1
REMARK minimizedAffinity -3.48556352
REMARK minimizedRMSD -1
REMARK  0 active torsions:
REMARK  status: ('A' for Active; 'I' for Inactive)
ROOT
ATOM      1  C4' PXY d   1      -3.355  -1.092  -0.310  0.00  0.00     0.077 C 
ATOM      2  C1' PXY d   1       2.047   0.963  -0.241  0.00  0.00     0.077 C 
ATOM      3  C1  PXY d   1       0.629   0.429  -0.271  0.00  0.00    -0.082 A 
ATOM      4  C2  PXY d   1      -0.012   0.210   0.866  0.00  0.00     0.003 A 
ATOM      5  C3  PXY d   1      -1.284  -0.303   0.857  0.00  0.00     0.003 A 
ATOM      6  C4  PXY d   1      -1.925  -0.545  -0.328  0.00  0.00    -0.082 A 
ATOM      7  C5  PXY d   1      -1.282  -0.314  -1.492  0.00  0.00     0.003 A 
ATOM      8  C6  PXY d   1       0.024   0.168  -1.461  0.00  0.00     0.003 A 
ENDROOT
TORSDOF 0
ENDMDL
