MODEL 1
REMARK minimizedAffinity -4.91285467
REMARK minimizedRMSD -1
REMARK  0 active torsions:
REMARK  status: ('A' for Active; 'I' for Inactive)
ROOT
ATOM      1  C4' PXY d   1       2.021   0.698   0.661  0.00  0.00     0.077 C 
ATOM      2  C1' PXY d   1      -3.421  -0.899  -0.459  0.00  0.00     0.077 C 
ATOM      3  C1  PXY d   1      -1.992  -0.479  -0.178  0.00  0.00    -0.082 A 
ATOM      4  C2  PXY d   1      -1.407  -0.859   0.946  0.00  0.00     0.003 A 
ATOM      5  C3  PXY d   1      -0.126  -0.462   1.230  0.00  0.00     0.003 A 
ATOM      6  C4  PXY d   1       0.582   0.289   0.331  0.00  0.00    -0.082 A 
ATOM      7  C5  PXY d   1      -0.004   0.673  -0.823  0.00  0.00     0.003 A 
ATOM      8  C6  PXY d   1      -1.319   0.293  -1.075  0.00  0.00     0.003 A 
ENDROOT
TORSDOF 0
ENDMDL
