MODEL 1
REMARK minimizedAffinity -4.72462893
REMARK minimizedRMSD -1
REMARK  0 active torsions:
REMARK  status: ('A' for Active; 'I' for Inactive)
ROOT
ATOM      1  C4' PXY d   1       2.565   1.462   0.974  0.00  0.00     0.077 C 
ATOM      2  C1' PXY d   1      -2.636  -0.977   0.334  0.00  0.00     0.077 C 
ATOM      3  C1  PXY d   1      -1.267  -0.349   0.505  0.00  0.00    -0.082 A 
ATOM      4  C2  PXY d   1      -1.170   0.933   0.818  0.00  0.00     0.003 A 
ATOM      5  C3  PXY d   1       0.060   1.524   0.945  0.00  0.00     0.003 A 
ATOM      6  C4  PXY d   1       1.203   0.784   0.801  0.00  0.00    -0.082 A 
ATOM      7  C5  PXY d   1       1.112  -0.527   0.492  0.00  0.00     0.003 A 
ATOM      8  C6  PXY d   1      -0.146  -1.099   0.328  0.00  0.00     0.003 A 
ENDROOT
TORSDOF 0
ENDMDL
