MODEL 1
REMARK minimizedAffinity -3.82134056
REMARK minimizedRMSD -1
REMARK  0 active torsions:
REMARK  status: ('A' for Active; 'I' for Inactive)
ROOT
ATOM      1  C4' PXY d   1       2.313   1.139   0.123  0.00  0.00     0.077 C 
ATOM      2  C1' PXY d   1      -3.003  -1.126  -0.044  0.00  0.00     0.077 C 
ATOM      3  C1  PXY d   1      -1.606  -0.537  -0.012  0.00  0.00    -0.082 A 
ATOM      4  C2  PXY d   1      -1.019  -0.308   1.151  0.00  0.00     0.003 A 
ATOM      5  C3  PXY d   1       0.231   0.254   1.199  0.00  0.00     0.003 A 
ATOM      6  C4  PXY d   1       0.908   0.536   0.043  0.00  0.00    -0.082 A 
ATOM      7  C5  PXY d   1       0.320   0.296  -1.148  0.00  0.00     0.003 A 
ATOM      8  C6  PXY d   1      -0.966  -0.237  -1.175  0.00  0.00     0.003 A 
ENDROOT
TORSDOF 0
ENDMDL
