MODEL 1
REMARK minimizedAffinity -3.13095808
REMARK minimizedRMSD -1
REMARK  0 active torsions:
REMARK  status: ('A' for Active; 'I' for Inactive)
ROOT
ATOM      1  C4' PXY d   1       2.324   1.440   0.382  0.00  0.00     0.077 C 
ATOM      2  C1' PXY d   1      -2.956  -0.790  -0.367  0.00  0.00     0.077 C 
ATOM      3  C1  PXY d   1      -1.568  -0.215  -0.163  0.00  0.00    -0.082 A 
ATOM      4  C2  PXY d   1      -1.369   1.084  -0.314  0.00  0.00     0.003 A 
ATOM      5  C3  PXY d   1      -0.114   1.616  -0.165  0.00  0.00     0.003 A 
ATOM      6  C4  PXY d   1       0.938   0.817   0.195  0.00  0.00    -0.082 A 
ATOM      7  C5  PXY d   1       0.741  -0.508   0.362  0.00  0.00     0.003 A 
ATOM      8  C6  PXY d   1      -0.532  -1.034   0.165  0.00  0.00     0.003 A 
ENDROOT
TORSDOF 0
ENDMDL
