MODEL 1
REMARK minimizedAffinity -4.78825855
REMARK minimizedRMSD -1
REMARK  0 active torsions:
REMARK  status: ('A' for Active; 'I' for Inactive)
ROOT
ATOM      1  C4' PXY d   1       2.069   1.093   0.553  0.00  0.00     0.077 C 
ATOM      2  C1' PXY d   1      -3.295  -0.837  -0.406  0.00  0.00     0.077 C 
ATOM      3  C1  PXY d   1      -1.886  -0.332  -0.168  0.00  0.00    -0.082 A 
ATOM      4  C2  PXY d   1      -1.321  -0.504   1.016  0.00  0.00     0.003 A 
ATOM      5  C3  PXY d   1      -0.059  -0.024   1.259  0.00  0.00     0.003 A 
ATOM      6  C4  PXY d   1       0.652   0.591   0.264  0.00  0.00    -0.082 A 
ATOM      7  C5  PXY d   1       0.086   0.761  -0.950  0.00  0.00     0.003 A 
ATOM      8  C6  PXY d   1      -1.211   0.303  -1.164  0.00  0.00     0.003 A 
ENDROOT
TORSDOF 0
ENDMDL
