MODEL 1
REMARK minimizedAffinity -1.37949336
REMARK minimizedRMSD -1
REMARK  0 active torsions:
REMARK  status: ('A' for Active; 'I' for Inactive)
ROOT
ATOM      1  C   UNL d   1       3.606  -3.544  -0.230  0.00  0.00     0.023 A 
ATOM      2  C1  UNL d   1       2.374  -4.176  -0.061  0.00  0.00     0.003 A 
ATOM      3  C2  UNL d   1       1.240  -3.425   0.254  0.00  0.00     0.048 A 
ATOM      4  C3  UNL d   1       1.344  -2.042   0.398  0.00  0.00     0.023 A 
ATOM      5  C4  UNL d   1       2.574  -1.405   0.229  0.00  0.00     0.048 A 
ATOM      6  C5  UNL d   1       3.706  -2.160  -0.085  0.00  0.00     0.003 A 
ATOM      7  I   UNL d   1      -0.344  -0.923   0.866  0.00  0.00    -0.146 I 
ENDROOT
TORSDOF 0
ENDMDL
