MODEL 1
REMARK minimizedAffinity 5.91641712
REMARK minimizedRMSD -1
REMARK  0 active torsions:
REMARK  status: ('A' for Active; 'I' for Inactive)
ROOT
ATOM      1  C   UNL d   1       3.201   5.501   2.752  0.00  0.00     0.023 A 
ATOM      2  C1  UNL d   1       2.594   5.028   1.588  0.00  0.00     0.003 A 
ATOM      3  C2  UNL d   1       3.295   5.038   0.381  0.00  0.00     0.048 A 
ATOM      4  C3  UNL d   1       4.603   5.521   0.344  0.00  0.00     0.023 A 
ATOM      5  C4  UNL d   1       5.214   5.994   1.507  0.00  0.00     0.048 A 
ATOM      6  C5  UNL d   1       4.509   5.983   2.712  0.00  0.00     0.003 A 
ATOM      7  I   UNL d   1       5.649   5.537  -1.452  0.00  0.00    -0.146 I 
ENDROOT
TORSDOF 0
ENDMDL
