MODEL 1
REMARK minimizedAffinity 4.27173853
REMARK minimizedRMSD -1
REMARK  0 active torsions:
REMARK  status: ('A' for Active; 'I' for Inactive)
ROOT
ATOM      1  C   UNL d   1      -1.026  -0.755   0.402  0.00  0.00     0.023 A 
ATOM      2  C1  UNL d   1      -0.724  -0.172   1.632  0.00  0.00     0.003 A 
ATOM      3  C2  UNL d   1       0.587  -0.196   2.114  0.00  0.00     0.048 A 
ATOM      4  C3  UNL d   1       1.590  -0.804   1.360  0.00  0.00     0.023 A 
ATOM      5  C4  UNL d   1       1.292  -1.388   0.128  0.00  0.00     0.048 A 
ATOM      6  C5  UNL d   1      -0.020  -1.363  -0.349  0.00  0.00     0.003 A 
ATOM      7  I   UNL d   1       3.541  -0.841   2.075  0.00  0.00    -0.146 I 
ENDROOT
TORSDOF 0
ENDMDL
