MODEL 1
REMARK minimizedAffinity -0.274825335
REMARK minimizedRMSD -1
REMARK  0 active torsions:
REMARK  status: ('A' for Active; 'I' for Inactive)
ROOT
ATOM      1  C   UNL d   1       4.711   5.912   2.140  0.00  0.00     0.023 A 
ATOM      2  C1  UNL d   1       3.557   5.188   1.840  0.00  0.00     0.003 A 
ATOM      3  C2  UNL d   1       3.433   4.548   0.605  0.00  0.00     0.048 A 
ATOM      4  C3  UNL d   1       4.469   4.635  -0.325  0.00  0.00     0.023 A 
ATOM      5  C4  UNL d   1       5.626   5.357  -0.029  0.00  0.00     0.048 A 
ATOM      6  C5  UNL d   1       5.745   5.996   1.207  0.00  0.00     0.003 A 
ATOM      7  I   UNL d   1       4.288   3.683  -2.164  0.00  0.00    -0.146 I 
ENDROOT
TORSDOF 0
ENDMDL
