MODEL 1
REMARK minimizedAffinity 2.62843657
REMARK minimizedRMSD -1
REMARK  0 active torsions:
REMARK  status: ('A' for Active; 'I' for Inactive)
ROOT
ATOM      1  C   UNL d   1       0.295  -2.125   0.296  0.00  0.00     0.023 A 
ATOM      2  C1  UNL d   1       1.636  -2.061  -0.083  0.00  0.00     0.003 A 
ATOM      3  C2  UNL d   1       2.485  -1.123   0.509  0.00  0.00     0.048 A 
ATOM      4  C3  UNL d   1       1.987  -0.254   1.479  0.00  0.00     0.023 A 
ATOM      5  C4  UNL d   1       0.646  -0.316   1.862  0.00  0.00     0.048 A 
ATOM      6  C5  UNL d   1      -0.200  -1.254   1.266  0.00  0.00     0.003 A 
ATOM      7  I   UNL d   1       3.249   1.141   2.362  0.00  0.00    -0.146 I 
ENDROOT
TORSDOF 0
ENDMDL
