MODEL 1
REMARK minimizedAffinity 0.887408614
REMARK minimizedRMSD -1
REMARK  0 active torsions:
REMARK  status: ('A' for Active; 'I' for Inactive)
ROOT
ATOM      1  C   UNL d   1       0.697  -1.693   0.306  0.00  0.00     0.023 A 
ATOM      2  C1  UNL d   1       2.031  -1.399   0.588  0.00  0.00     0.003 A 
ATOM      3  C2  UNL d   1       3.012  -2.380   0.430  0.00  0.00     0.048 A 
ATOM      4  C3  UNL d   1       2.653  -3.653  -0.012  0.00  0.00     0.023 A 
ATOM      5  C4  UNL d   1       1.319  -3.951  -0.296  0.00  0.00     0.048 A 
ATOM      6  C5  UNL d   1       0.342  -2.968  -0.135  0.00  0.00     0.003 A 
ATOM      7  I   UNL d   1       4.111  -5.114  -0.248  0.00  0.00    -0.146 I 
ENDROOT
TORSDOF 0
ENDMDL
