MODEL 1
REMARK minimizedAffinity 1.3558979
REMARK minimizedRMSD -1
REMARK  0 active torsions:
REMARK  status: ('A' for Active; 'I' for Inactive)
ROOT
ATOM      1  C   UNL d   1      -0.406  -3.205  -0.038  0.00  0.00     0.023 A 
ATOM      2  C1  UNL d   1      -0.926  -2.053   0.552  0.00  0.00     0.003 A 
ATOM      3  C2  UNL d   1      -0.074  -1.008   0.914  0.00  0.00     0.048 A 
ATOM      4  C3  UNL d   1       1.296  -1.120   0.683  0.00  0.00     0.023 A 
ATOM      5  C4  UNL d   1       1.821  -2.271   0.092  0.00  0.00     0.048 A 
ATOM      6  C5  UNL d   1       0.966  -3.314  -0.268  0.00  0.00     0.003 A 
ATOM      7  I   UNL d   1       2.566   0.434   1.222  0.00  0.00    -0.146 I 
ENDROOT
TORSDOF 0
ENDMDL
