MODEL 1
REMARK minimizedAffinity 7.15930891
REMARK minimizedRMSD -1
REMARK  0 active torsions:
REMARK  status: ('A' for Active; 'I' for Inactive)
ROOT
ATOM      1  C   UNL d   1       3.057   0.821  -2.763  0.00  0.00     0.023 A 
ATOM      2  C1  UNL d   1       4.186   0.691  -1.955  0.00  0.00     0.003 A 
ATOM      3  C2  UNL d   1       4.613   1.764  -1.170  0.00  0.00     0.048 A 
ATOM      4  C3  UNL d   1       3.904   2.965  -1.198  0.00  0.00     0.023 A 
ATOM      5  C4  UNL d   1       2.773   3.099  -2.004  0.00  0.00     0.048 A 
ATOM      6  C5  UNL d   1       2.351   2.024  -2.788  0.00  0.00     0.003 A 
ATOM      7  I   UNL d   1       4.536   4.564  -0.030  0.00  0.00    -0.146 I 
ENDROOT
TORSDOF 0
ENDMDL
