MODEL 1
REMARK minimizedAffinity -1.04192662
REMARK minimizedRMSD -1
REMARK  0 active torsions:
REMARK  status: ('A' for Active; 'I' for Inactive)
ROOT
ATOM      1  C   UNL d   1       2.607  -2.542   0.381  0.00  0.00     0.023 A 
ATOM      2  C1  UNL d   1       2.717  -1.159   0.529  0.00  0.00     0.003 A 
ATOM      3  C2  UNL d   1       1.584  -0.394   0.815  0.00  0.00     0.048 A 
ATOM      4  C3  UNL d   1       0.345  -1.018   0.954  0.00  0.00     0.023 A 
ATOM      5  C4  UNL d   1       0.231  -2.402   0.808  0.00  0.00     0.048 A 
ATOM      6  C5  UNL d   1       1.366  -3.162   0.520  0.00  0.00     0.003 A 
ATOM      7  I   UNL d   1      -1.342   0.118   1.380  0.00  0.00    -0.146 I 
ENDROOT
TORSDOF 0
ENDMDL
