MODEL 1
REMARK minimizedAffinity 4.87867308
REMARK minimizedRMSD -1
REMARK  0 active torsions:
REMARK  status: ('A' for Active; 'I' for Inactive)
ROOT
ATOM      1  C   UNL d   1       2.832   1.534  -3.711  0.00  0.00     0.023 A 
ATOM      2  C1  UNL d   1       3.692   1.221  -2.658  0.00  0.00     0.003 A 
ATOM      3  C2  UNL d   1       4.092   2.215  -1.763  0.00  0.00     0.048 A 
ATOM      4  C3  UNL d   1       3.628   3.520  -1.925  0.00  0.00     0.023 A 
ATOM      5  C4  UNL d   1       2.766   3.837  -2.977  0.00  0.00     0.048 A 
ATOM      6  C5  UNL d   1       2.370   2.840  -3.870  0.00  0.00     0.003 A 
ATOM      7  I   UNL d   1       4.221   5.001  -0.593  0.00  0.00    -0.146 I 
ENDROOT
TORSDOF 0
ENDMDL
