MODEL 1
REMARK minimizedAffinity 1.18509817
REMARK minimizedRMSD -1
REMARK  0 active torsions:
REMARK  status: ('A' for Active; 'I' for Inactive)
ROOT
ATOM      1  C   UNL d   1       4.629   5.994   1.976  0.00  0.00     0.023 A 
ATOM      2  C1  UNL d   1       5.613   5.998   0.987  0.00  0.00     0.003 A 
ATOM      3  C2  UNL d   1       5.480   5.179  -0.136  0.00  0.00     0.048 A 
ATOM      4  C3  UNL d   1       4.359   4.359  -0.265  0.00  0.00     0.023 A 
ATOM      5  C4  UNL d   1       3.371   4.353   0.721  0.00  0.00     0.048 A 
ATOM      6  C5  UNL d   1       3.510   5.172   1.843  0.00  0.00     0.003 A 
ATOM      7  I   UNL d   1       4.158   3.140  -1.936  0.00  0.00    -0.146 I 
ENDROOT
TORSDOF 0
ENDMDL
