MODEL 1
REMARK minimizedAffinity -1.13721883
REMARK minimizedRMSD -1
REMARK  0 active torsions:
REMARK  status: ('A' for Active; 'I' for Inactive)
ROOT
ATOM      1  C   UNL d   1      -0.043  -1.306   1.155  0.00  0.00     0.023 A 
ATOM      2  C1  UNL d   1      -0.171  -2.650   0.806  0.00  0.00     0.003 A 
ATOM      3  C2  UNL d   1       0.944  -3.369   0.368  0.00  0.00     0.048 A 
ATOM      4  C3  UNL d   1       2.184  -2.737   0.283  0.00  0.00     0.023 A 
ATOM      5  C4  UNL d   1       2.317  -1.392   0.632  0.00  0.00     0.048 A 
ATOM      6  C5  UNL d   1       1.200  -0.678   1.068  0.00  0.00     0.003 A 
ATOM      7  I   UNL d   1       3.844  -3.804  -0.368  0.00  0.00    -0.146 I 
ENDROOT
TORSDOF 0
ENDMDL
