MODEL 1
REMARK minimizedAffinity -4.08001041
REMARK minimizedRMSD -1
REMARK  0 active torsions:
REMARK  status: ('A' for Active; 'I' for Inactive)
ROOT
ATOM      1  C   UNL d   1       0.312  -3.036   0.399  0.00  0.00     0.023 A 
ATOM      2  C1  UNL d   1       0.876  -1.864   0.902  0.00  0.00     0.003 A 
ATOM      3  C2  UNL d   1       0.074  -0.744   1.134  0.00  0.00     0.048 A 
ATOM      4  C3  UNL d   1      -1.292  -0.805   0.860  0.00  0.00     0.023 A 
ATOM      5  C4  UNL d   1      -1.861  -1.976   0.358  0.00  0.00     0.048 A 
ATOM      6  C5  UNL d   1      -1.055  -3.092   0.127  0.00  0.00     0.003 A 
ATOM      7  I   UNL d   1      -2.488   0.860   1.204  0.00  0.00    -0.146 I 
ENDROOT
TORSDOF 0
ENDMDL
