MODEL 1
REMARK minimizedAffinity 4.43911552
REMARK minimizedRMSD -1
REMARK  0 active torsions:
REMARK  status: ('A' for Active; 'I' for Inactive)
ROOT
ATOM      1  C   UNL d   1      -0.383  -0.066   1.501  0.00  0.00     0.023 A 
ATOM      2  C1  UNL d   1      -1.159  -1.093   0.964  0.00  0.00     0.003 A 
ATOM      3  C2  UNL d   1      -0.548  -2.154   0.292  0.00  0.00     0.048 A 
ATOM      4  C3  UNL d   1       0.840  -2.182   0.162  0.00  0.00     0.023 A 
ATOM      5  C4  UNL d   1       1.621  -1.157   0.698  0.00  0.00     0.048 A 
ATOM      6  C5  UNL d   1       1.006  -0.098   1.368  0.00  0.00     0.003 A 
ATOM      7  I   UNL d   1       1.751  -3.761  -0.837  0.00  0.00    -0.146 I 
ENDROOT
TORSDOF 0
ENDMDL
