MODEL 1
REMARK minimizedAffinity 6.13826036
REMARK minimizedRMSD -1
REMARK  0 active torsions:
REMARK  status: ('A' for Active; 'I' for Inactive)
ROOT
ATOM      1  C   UNL d   1      -0.108  -0.289   1.412  0.00  0.00     0.023 A 
ATOM      2  C1  UNL d   1      -0.778  -1.507   1.535  0.00  0.00     0.003 A 
ATOM      3  C2  UNL d   1      -0.151  -2.692   1.147  0.00  0.00     0.048 A 
ATOM      4  C3  UNL d   1       1.146  -2.654   0.637  0.00  0.00     0.023 A 
ATOM      5  C4  UNL d   1       1.821  -1.438   0.513  0.00  0.00     0.048 A 
ATOM      6  C5  UNL d   1       1.189  -0.255   0.901  0.00  0.00     0.003 A 
ATOM      7  I   UNL d   1       2.082  -4.417   0.059  0.00  0.00    -0.146 I 
ENDROOT
TORSDOF 0
ENDMDL
