MODEL 1
REMARK minimizedAffinity 2.55940366
REMARK minimizedRMSD -1
REMARK  0 active torsions:
REMARK  status: ('A' for Active; 'I' for Inactive)
ROOT
ATOM      1  C   UNL d   1       2.360  -1.426   0.519  0.00  0.00     0.023 A 
ATOM      2  C1  UNL d   1       2.221  -0.380   1.432  0.00  0.00     0.003 A 
ATOM      3  C2  UNL d   1       0.956   0.144   1.708  0.00  0.00     0.048 A 
ATOM      4  C3  UNL d   1      -0.165  -0.383   1.069  0.00  0.00     0.023 A 
ATOM      5  C4  UNL d   1      -0.031  -1.430   0.155  0.00  0.00     0.048 A 
ATOM      6  C5  UNL d   1       1.235  -1.950  -0.119  0.00  0.00     0.003 A 
ATOM      7  I   UNL d   1      -2.048   0.395   1.478  0.00  0.00    -0.146 I 
ENDROOT
TORSDOF 0
ENDMDL
