MODEL 1
REMARK minimizedAffinity 3.1437912
REMARK minimizedRMSD -1
REMARK  1 active torsions:
REMARK  status: ('A' for Active; 'I' for Inactive)
REMARK    1  A    between atoms: C1_2  and  C2_3 
ROOT
ATOM      1  C2  UNL d   1       0.878   1.022   0.221  0.00  0.00    -0.073 A 
ATOM      2  C3  UNL d   1       1.675   1.644  -0.747  0.00  0.00    -0.002 A 
ATOM      3  C4  UNL d   1       1.747   1.125  -2.040  0.00  0.00     0.004 A 
ATOM      4  C5  UNL d   1       1.020  -0.015  -2.381  0.00  0.00    -0.004 A 
ATOM      5  C6  UNL d   1       0.208  -0.644  -1.431  0.00  0.00    -0.075 A 
ATOM      6  C7  UNL d   1      -0.579  -1.873  -1.781  0.00  0.00     0.076 C 
ATOM      7  C8  UNL d   1       0.143  -0.118  -0.134  0.00  0.00     0.001 A 
ENDROOT
BRANCH   1   8
ATOM      8  C1  UNL d   1       0.792   1.583   1.617  0.00  0.00     0.053 C 
ATOM      9  C   UNL d   1       1.567   0.741   2.618  0.00  0.00     0.018 C 
ENDBRANCH   1   8
TORSDOF 1
ENDMDL
