MODEL 1
REMARK minimizedAffinity 4.35626364
REMARK minimizedRMSD -1
REMARK  1 active torsions:
REMARK  status: ('A' for Active; 'I' for Inactive)
REMARK    1  A    between atoms: C1_2  and  C2_3 
ROOT
ATOM      1  C2  UNL d   1      -2.863   1.448   3.949  0.00  0.00    -0.073 A 
ATOM      2  C3  UNL d   1      -3.975   0.612   3.801  0.00  0.00    -0.002 A 
ATOM      3  C4  UNL d   1      -4.801   0.729   2.682  0.00  0.00     0.004 A 
ATOM      4  C5  UNL d   1      -4.519   1.676   1.698  0.00  0.00    -0.004 A 
ATOM      5  C6  UNL d   1      -3.405   2.513   1.822  0.00  0.00    -0.075 A 
ATOM      6  C7  UNL d   1      -3.089   3.538   0.773  0.00  0.00     0.076 C 
ATOM      7  C8  UNL d   1      -2.582   2.391   2.950  0.00  0.00     0.001 A 
ENDROOT
BRANCH   1   8
ATOM      8  C1  UNL d   1      -1.965   1.321   5.153  0.00  0.00     0.053 C 
ATOM      9  C   UNL d   1      -2.315   0.108   6.000  0.00  0.00     0.018 C 
ENDBRANCH   1   8
TORSDOF 1
ENDMDL
