MODEL 1
REMARK minimizedAffinity 7.10118628
REMARK minimizedRMSD -1
REMARK  1 active torsions:
REMARK  status: ('A' for Active; 'I' for Inactive)
REMARK    1  A    between atoms: C1_2  and  C2_3 
ROOT
ATOM      1  C2  UNL d   1       1.047   0.485  -0.509  0.00  0.00    -0.073 A 
ATOM      2  C3  UNL d   1       0.665   1.458   0.422  0.00  0.00    -0.002 A 
ATOM      3  C4  UNL d   1       1.491   1.760   1.505  0.00  0.00     0.004 A 
ATOM      4  C5  UNL d   1       2.709   1.098   1.665  0.00  0.00    -0.004 A 
ATOM      5  C6  UNL d   1       3.113   0.131   0.739  0.00  0.00    -0.075 A 
ATOM      6  C7  UNL d   1       4.419  -0.591   0.898  0.00  0.00     0.076 C 
ATOM      7  C8  UNL d   1       2.277  -0.168  -0.345  0.00  0.00     0.001 A 
ENDROOT
BRANCH   1   8
ATOM      8  C1  UNL d   1       0.161   0.160  -1.684  0.00  0.00     0.053 C 
ATOM      9  C   UNL d   1       0.892   0.312  -3.008  0.00  0.00     0.018 C 
ENDBRANCH   1   8
TORSDOF 1
ENDMDL
