MODEL 1
REMARK minimizedAffinity 2.11625504
REMARK minimizedRMSD -1
REMARK  1 active torsions:
REMARK  status: ('A' for Active; 'I' for Inactive)
REMARK    1  A    between atoms: C1_2  and  C2_3 
ROOT
ATOM      1  C2  UNL d   1       2.149   1.643   1.137  0.00  0.00    -0.073 A 
ATOM      2  C3  UNL d   1       0.801   2.019   1.121  0.00  0.00    -0.002 A 
ATOM      3  C4  UNL d   1      -0.111   1.338   0.313  0.00  0.00     0.004 A 
ATOM      4  C5  UNL d   1       0.314   0.273  -0.481  0.00  0.00    -0.004 A 
ATOM      5  C6  UNL d   1       1.655  -0.125  -0.470  0.00  0.00    -0.075 A 
ATOM      6  C7  UNL d   1       2.128  -1.267  -1.320  0.00  0.00     0.076 C 
ATOM      7  C8  UNL d   1       2.565   0.565   0.342  0.00  0.00     0.001 A 
ENDROOT
BRANCH   1   8
ATOM      8  C1  UNL d   1       3.136   2.371   2.013  0.00  0.00     0.053 C 
ATOM      9  C   UNL d   1       2.661   3.771   2.366  0.00  0.00     0.018 C 
ENDBRANCH   1   8
TORSDOF 1
ENDMDL
