MODEL 1
REMARK minimizedAffinity 4.69714499
REMARK minimizedRMSD -1
REMARK  1 active torsions:
REMARK  status: ('A' for Active; 'I' for Inactive)
REMARK    1  A    between atoms: C1_2  and  C2_3 
ROOT
ATOM      1  C2  UNL d   1       1.462  -0.918  -0.200  0.00  0.00    -0.073 A 
ATOM      2  C3  UNL d   1       1.171  -0.637  -1.540  0.00  0.00    -0.002 A 
ATOM      3  C4  UNL d   1       0.901   0.671  -1.943  0.00  0.00     0.004 A 
ATOM      4  C5  UNL d   1       0.926   1.711  -1.014  0.00  0.00    -0.004 A 
ATOM      5  C6  UNL d   1       1.226   1.452   0.327  0.00  0.00    -0.075 A 
ATOM      6  C7  UNL d   1       1.254   2.560   1.339  0.00  0.00     0.076 C 
ATOM      7  C8  UNL d   1       1.493   0.135   0.725  0.00  0.00     0.001 A 
ENDROOT
BRANCH   1   8
ATOM      8  C1  UNL d   1       1.760  -2.328   0.239  0.00  0.00     0.053 C 
ATOM      9  C   UNL d   1       3.253  -2.617   0.252  0.00  0.00     0.018 C 
ENDBRANCH   1   8
TORSDOF 1
ENDMDL
