MODEL 1
REMARK minimizedAffinity -0.873460948
REMARK minimizedRMSD -1
REMARK  1 active torsions:
REMARK  status: ('A' for Active; 'I' for Inactive)
REMARK    1  A    between atoms: C1_2  and  C2_3 
ROOT
ATOM      1  C2  UNL d   1       1.217  -2.126  -0.600  0.00  0.00    -0.073 A 
ATOM      2  C3  UNL d   1       2.535  -2.325  -0.176  0.00  0.00    -0.002 A 
ATOM      3  C4  UNL d   1       3.484  -1.313  -0.325  0.00  0.00     0.004 A 
ATOM      4  C5  UNL d   1       3.123  -0.090  -0.891  0.00  0.00    -0.004 A 
ATOM      5  C6  UNL d   1       1.807   0.132  -1.309  0.00  0.00    -0.075 A 
ATOM      6  C7  UNL d   1       1.403   1.441  -1.922  0.00  0.00     0.076 C 
ATOM      7  C8  UNL d   1       0.861  -0.890  -1.159  0.00  0.00     0.001 A 
ENDROOT
BRANCH   1   8
ATOM      8  C1  UNL d   1       0.187  -3.214  -0.435  0.00  0.00     0.053 C 
ATOM      9  C   UNL d   1      -0.830  -3.213  -1.566  0.00  0.00     0.018 C 
ENDBRANCH   1   8
TORSDOF 1
ENDMDL
