MODEL 1
REMARK minimizedAffinity 2.48288298
REMARK minimizedRMSD -1
REMARK  1 active torsions:
REMARK  status: ('A' for Active; 'I' for Inactive)
REMARK    1  A    between atoms: C1_2  and  C2_3 
ROOT
ATOM      1  C2  UNL d   1       1.627   1.024   0.575  0.00  0.00    -0.073 A 
ATOM      2  C3  UNL d   1       2.812   0.320   0.333  0.00  0.00    -0.002 A 
ATOM      3  C4  UNL d   1       4.009   0.733   0.919  0.00  0.00     0.004 A 
ATOM      4  C5  UNL d   1       4.033   1.848   1.757  0.00  0.00    -0.004 A 
ATOM      5  C6  UNL d   1       2.857   2.558   2.020  0.00  0.00    -0.075 A 
ATOM      6  C7  UNL d   1       2.867   3.761   2.916  0.00  0.00     0.076 C 
ATOM      7  C8  UNL d   1       1.659   2.139   1.425  0.00  0.00     0.001 A 
ENDROOT
BRANCH   1   8
ATOM      8  C1  UNL d   1       0.330   0.579  -0.050  0.00  0.00     0.053 C 
ATOM      9  C   UNL d   1       0.551  -0.128  -1.378  0.00  0.00     0.018 C 
ENDBRANCH   1   8
TORSDOF 1
ENDMDL
