MODEL 1
REMARK minimizedAffinity -5.74687481
REMARK minimizedRMSD -1
REMARK  0 active torsions:
REMARK  status: ('A' for Active; 'I' for Inactive)
ROOT
ATOM      1  C2' OXE d   1       2.455  -0.572   2.472  0.00  0.00     0.078 C 
ATOM      2  C1' OXE d   1       0.891  -1.006   0.182  0.00  0.00     0.078 C 
ATOM      3  C1  OXE d   1       0.339  -0.094   1.249  0.00  0.00    -0.078 A 
ATOM      4  C2  OXE d   1       1.090   0.076   2.386  0.00  0.00    -0.078 A 
ATOM      5  C3  OXE d   1       0.653   0.951   3.377  0.00  0.00     0.003 A 
ATOM      6  C4  OXE d   1      -0.615   1.538   3.295  0.00  0.00    -0.002 A 
ATOM      7  C5  OXE d   1      -1.414   1.347   2.162  0.00  0.00    -0.002 A 
ATOM      8  C6  OXE d   1      -0.935   0.569   1.114  0.00  0.00     0.003 A 
ENDROOT
TORSDOF 0
ENDMDL
