MODEL 1
REMARK minimizedAffinity 0.0455002896
REMARK minimizedRMSD -1
REMARK  0 active torsions:
REMARK  status: ('A' for Active; 'I' for Inactive)
ROOT
ATOM      1  C2' OXE d   1      -1.536  -3.708  -1.034  0.00  0.00     0.078 C 
ATOM      2  C1' OXE d   1      -1.062  -1.098  -0.116  0.00  0.00     0.078 C 
ATOM      3  C1  OXE d   1      -2.449  -1.431  -0.605  0.00  0.00    -0.078 A 
ATOM      4  C2  OXE d   1      -2.660  -2.697  -1.096  0.00  0.00    -0.078 A 
ATOM      5  C3  OXE d   1      -3.935  -3.072  -1.509  0.00  0.00     0.003 A 
ATOM      6  C4  OXE d   1      -4.967  -2.128  -1.573  0.00  0.00    -0.002 A 
ATOM      7  C5  OXE d   1      -4.763  -0.822  -1.114  0.00  0.00    -0.002 A 
ATOM      8  C6  OXE d   1      -3.524  -0.470  -0.589  0.00  0.00     0.003 A 
ENDROOT
TORSDOF 0
ENDMDL
