MODEL 1
REMARK minimizedAffinity 0.0232610423
REMARK minimizedRMSD -1
REMARK  0 active torsions:
REMARK  status: ('A' for Active; 'I' for Inactive)
ROOT
ATOM      1  C2' OXE d   1       3.090   1.489  -2.472  0.00  0.00     0.078 C 
ATOM      2  C1' OXE d   1       0.377   1.067  -3.059  0.00  0.00     0.078 C 
ATOM      3  C1  OXE d   1       0.863   0.704  -1.678  0.00  0.00    -0.078 A 
ATOM      4  C2  OXE d   1       2.201   0.870  -1.415  0.00  0.00    -0.078 A 
ATOM      5  C3  OXE d   1       2.692   0.602  -0.140  0.00  0.00     0.003 A 
ATOM      6  C4  OXE d   1       1.865   0.020   0.829  0.00  0.00    -0.002 A 
ATOM      7  C5  OXE d   1       0.508  -0.194   0.569  0.00  0.00    -0.002 A 
ATOM      8  C6  OXE d   1      -0.017   0.181  -0.663  0.00  0.00     0.003 A 
ENDROOT
TORSDOF 0
ENDMDL
