MODEL 1
REMARK minimizedAffinity 0.748059809
REMARK minimizedRMSD -1
REMARK  0 active torsions:
REMARK  status: ('A' for Active; 'I' for Inactive)
ROOT
ATOM      1  C2' OXE d   1      -0.172  -0.414  -0.246  0.00  0.00     0.078 C 
ATOM      2  C1' OXE d   1      -2.906   0.022   0.216  0.00  0.00     0.078 C 
ATOM      3  C1  OXE d   1      -2.506  -1.252  -0.486  0.00  0.00    -0.078 A 
ATOM      4  C2  OXE d   1      -1.170  -1.434  -0.750  0.00  0.00    -0.078 A 
ATOM      5  C3  OXE d   1      -0.740  -2.616  -1.347  0.00  0.00     0.003 A 
ATOM      6  C4  OXE d   1      -1.670  -3.551  -1.819  0.00  0.00    -0.002 A 
ATOM      7  C5  OXE d   1      -3.039  -3.365  -1.596  0.00  0.00    -0.002 A 
ATOM      8  C6  OXE d   1      -3.469  -2.244  -0.895  0.00  0.00     0.003 A 
ENDROOT
TORSDOF 0
ENDMDL
