MODEL 1
REMARK minimizedAffinity -5.32883358
REMARK minimizedRMSD -1
REMARK  0 active torsions:
REMARK  status: ('A' for Active; 'I' for Inactive)
ROOT
ATOM      1  C2' OXE d   1      -2.264  -0.713   0.021  0.00  0.00     0.078 C 
ATOM      2  C1' OXE d   1       0.340   0.006  -0.741  0.00  0.00     0.078 C 
ATOM      3  C1  OXE d   1      -0.154   0.478   0.603  0.00  0.00    -0.078 A 
ATOM      4  C2  OXE d   1      -1.446   0.161   0.948  0.00  0.00    -0.078 A 
ATOM      5  C3  OXE d   1      -1.935   0.524   2.200  0.00  0.00     0.003 A 
ATOM      6  C4  OXE d   1      -1.176   1.341   3.047  0.00  0.00    -0.002 A 
ATOM      7  C5  OXE d   1       0.128   1.708   2.698  0.00  0.00    -0.002 A 
ATOM      8  C6  OXE d   1       0.668   1.251   1.501  0.00  0.00     0.003 A 
ENDROOT
TORSDOF 0
ENDMDL
