MODEL 1
REMARK minimizedAffinity -3.83546066
REMARK minimizedRMSD -1
REMARK  0 active torsions:
REMARK  status: ('A' for Active; 'I' for Inactive)
ROOT
ATOM      1  C2' OXE d   1       0.300   0.433  -0.943  0.00  0.00     0.078 C 
ATOM      2  C1' OXE d   1      -2.051  -0.930  -0.243  0.00  0.00     0.078 C 
ATOM      3  C1  OXE d   1      -1.364  -0.118   0.826  0.00  0.00    -0.078 A 
ATOM      4  C2  OXE d   1      -0.188   0.508   0.487  0.00  0.00    -0.078 A 
ATOM      5  C3  OXE d   1       0.458   1.314   1.420  0.00  0.00     0.003 A 
ATOM      6  C4  OXE d   1       0.004   1.370   2.743  0.00  0.00    -0.002 A 
ATOM      7  C5  OXE d   1      -1.169   0.708   3.120  0.00  0.00    -0.002 A 
ATOM      8  C6  OXE d   1      -1.886  -0.004   2.166  0.00  0.00     0.003 A 
ENDROOT
TORSDOF 0
ENDMDL
