MODEL 1
REMARK minimizedAffinity -0.251528442
REMARK minimizedRMSD -1
REMARK  0 active torsions:
REMARK  status: ('A' for Active; 'I' for Inactive)
ROOT
ATOM      1  C2' OXE d   1       1.860  -1.706  -0.652  0.00  0.00     0.078 C 
ATOM      2  C1' OXE d   1      -0.523  -0.232  -0.818  0.00  0.00     0.078 C 
ATOM      3  C1  OXE d   1       0.483  -0.070  -1.930  0.00  0.00    -0.078 A 
ATOM      4  C2  OXE d   1       1.666  -0.760  -1.817  0.00  0.00    -0.078 A 
ATOM      5  C3  OXE d   1       2.606  -0.689  -2.842  0.00  0.00     0.003 A 
ATOM      6  C4  OXE d   1       2.423   0.197  -3.911  0.00  0.00    -0.002 A 
ATOM      7  C5  OXE d   1       1.242   0.938  -4.025  0.00  0.00    -0.002 A 
ATOM      8  C6  OXE d   1       0.246   0.784  -3.067  0.00  0.00     0.003 A 
ENDROOT
TORSDOF 0
ENDMDL
