MODEL 1
REMARK minimizedAffinity -4.74417353
REMARK minimizedRMSD -1
REMARK  0 active torsions:
REMARK  status: ('A' for Active; 'I' for Inactive)
ROOT
ATOM      1  C2' OXE d   1      -2.211  -0.756   0.301  0.00  0.00     0.078 C 
ATOM      2  C1' OXE d   1       0.293   0.038  -0.690  0.00  0.00     0.078 C 
ATOM      3  C1  OXE d   1      -0.042   0.390   0.738  0.00  0.00    -0.078 A 
ATOM      4  C2  OXE d   1      -1.288   0.038   1.200  0.00  0.00    -0.078 A 
ATOM      5  C3  OXE d   1      -1.628   0.290   2.526  0.00  0.00     0.003 A 
ATOM      6  C4  OXE d   1      -0.773   1.034   3.348  0.00  0.00    -0.002 A 
ATOM      7  C5  OXE d   1       0.485   1.437   2.885  0.00  0.00    -0.002 A 
ATOM      8  C6  OXE d   1       0.881   1.086   1.599  0.00  0.00     0.003 A 
ENDROOT
TORSDOF 0
ENDMDL
