MODEL 1
REMARK minimizedAffinity -4.76289082
REMARK minimizedRMSD -1
REMARK  0 active torsions:
REMARK  status: ('A' for Active; 'I' for Inactive)
ROOT
ATOM      1  C2' OXE d   1      -1.609  -3.802  -1.706  0.00  0.00     0.078 C 
ATOM      2  C1' OXE d   1      -4.073  -2.620  -1.065  0.00  0.00     0.078 C 
ATOM      3  C1  OXE d   1      -2.824  -1.798  -0.861  0.00  0.00    -0.078 A 
ATOM      4  C2  OXE d   1      -1.620  -2.401  -1.134  0.00  0.00    -0.078 A 
ATOM      5  C3  OXE d   1      -0.441  -1.670  -1.016  0.00  0.00     0.003 A 
ATOM      6  C4  OXE d   1      -0.459  -0.378  -0.476  0.00  0.00    -0.002 A 
ATOM      7  C5  OXE d   1      -1.672   0.240  -0.154  0.00  0.00    -0.002 A 
ATOM      8  C6  OXE d   1      -2.864  -0.439  -0.381  0.00  0.00     0.003 A 
ENDROOT
TORSDOF 0
ENDMDL
