MODEL 1
REMARK minimizedAffinity 2.4329505
REMARK minimizedRMSD -1
REMARK  0 active torsions:
REMARK  status: ('A' for Active; 'I' for Inactive)
ROOT
ATOM      1  C2' OXE d   1       0.365   0.174  -1.451  0.00  0.00     0.078 C 
ATOM      2  C1' OXE d   1      -2.168  -0.633  -0.550  0.00  0.00     0.078 C 
ATOM      3  C1  OXE d   1      -1.174  -0.158   0.480  0.00  0.00    -0.078 A 
ATOM      4  C2  OXE d   1       0.079   0.190   0.036  0.00  0.00    -0.078 A 
ATOM      5  C3  OXE d   1       1.017   0.687   0.936  0.00  0.00     0.003 A 
ATOM      6  C4  OXE d   1       0.747   0.689   2.310  0.00  0.00    -0.002 A 
ATOM      7  C5  OXE d   1      -0.509   0.301   2.788  0.00  0.00    -0.002 A 
ATOM      8  C6  OXE d   1      -1.492  -0.084   1.884  0.00  0.00     0.003 A 
ENDROOT
TORSDOF 0
ENDMDL
