MODEL 1
REMARK minimizedAffinity -3.55209064
REMARK minimizedRMSD -1
REMARK  0 active torsions:
REMARK  status: ('A' for Active; 'I' for Inactive)
ROOT
ATOM      1  C2' OXE d   1       2.038   0.331  -3.185  0.00  0.00     0.078 C 
ATOM      2  C1' OXE d   1       1.389   1.887  -5.430  0.00  0.00     0.078 C 
ATOM      3  C1  OXE d   1       0.438   0.783  -5.040  0.00  0.00    -0.078 A 
ATOM      4  C2  OXE d   1       0.786  -0.003  -3.968  0.00  0.00    -0.078 A 
ATOM      5  C3  OXE d   1      -0.083  -0.999  -3.533  0.00  0.00     0.003 A 
ATOM      6  C4  OXE d   1      -1.233  -1.308  -4.269  0.00  0.00    -0.002 A 
ATOM      7  C5  OXE d   1      -1.586  -0.545  -5.387  0.00  0.00    -0.002 A 
ATOM      8  C6  OXE d   1      -0.786   0.529  -5.760  0.00  0.00     0.003 A 
ENDROOT
TORSDOF 0
ENDMDL
