MODEL 1
REMARK minimizedAffinity 12.7826662
REMARK minimizedRMSD -1
REMARK  3 active torsions:
REMARK  status: ('A' for Active; 'I' for Inactive)
REMARK    1  A    between atoms: C3'_2  and  C2'_3 
REMARK    2  A    between atoms: C2'_3  and  C1'_4 
REMARK    3  A    between atoms: C1'_4  and  C1_5 
ROOT
ATOM      1  C1  N4B d   1       1.438  -2.664   1.081  0.00  0.00    -0.075 A 
ATOM      2  C2  N4B d   1       2.719  -2.105   0.881  0.00  0.00     0.002 A 
ATOM      3  C3  N4B d   1       2.937  -0.776   1.149  0.00  0.00     0.002 A 
ATOM      4  C4  N4B d   1       1.890   0.014   1.598  0.00  0.00    -0.004 A 
ATOM      5  C5  N4B d   1       0.662  -0.539   1.813  0.00  0.00     0.002 A 
ATOM      6  C6  N4B d   1       0.429  -1.875   1.552  0.00  0.00     0.002 A 
ENDROOT
BRANCH   1   7
ATOM      7  C1' N4B d   1       1.129  -4.092   0.720  0.00  0.00     0.057 C 
BRANCH   7   8
ATOM      8  C2' N4B d   1       0.046  -4.114  -0.355  0.00  0.00     0.009 C 
BRANCH   8   9
ATOM      9  C3' N4B d   1       0.549  -3.566  -1.679  0.00  0.00     0.004 C 
ATOM     10  C4' N4B d   1       0.884  -4.646  -2.664  0.00  0.00     0.003 C 
ENDBRANCH   8   9
ENDBRANCH   7   8
ENDBRANCH   1   7
TORSDOF 3
ENDMDL
