MODEL 1
REMARK minimizedAffinity 10.1403236
REMARK minimizedRMSD -1
REMARK  3 active torsions:
REMARK  status: ('A' for Active; 'I' for Inactive)
REMARK    1  A    between atoms: C3'_2  and  C2'_3 
REMARK    2  A    between atoms: C2'_3  and  C1'_4 
REMARK    3  A    between atoms: C1'_4  and  C1_5 
ROOT
ATOM      1  C1  N4B d   1       1.085  -3.754   1.228  0.00  0.00    -0.075 A 
ATOM      2  C2  N4B d   1       0.276  -3.498   2.356  0.00  0.00     0.002 A 
ATOM      3  C3  N4B d   1       0.471  -2.358   3.097  0.00  0.00     0.002 A 
ATOM      4  C4  N4B d   1       1.477  -1.473   2.740  0.00  0.00    -0.004 A 
ATOM      5  C5  N4B d   1       2.238  -1.715   1.634  0.00  0.00     0.002 A 
ATOM      6  C6  N4B d   1       2.050  -2.854   0.878  0.00  0.00     0.002 A 
ENDROOT
BRANCH   1   7
ATOM      7  C1' N4B d   1       0.966  -5.029   0.438  0.00  0.00     0.057 C 
BRANCH   7   8
ATOM      8  C2' N4B d   1       0.465  -4.703  -0.966  0.00  0.00     0.009 C 
BRANCH   8   9
ATOM      9  C3' N4B d   1       1.597  -4.299  -1.894  0.00  0.00     0.004 C 
ATOM     10  C4' N4B d   1       1.556  -2.845  -2.261  0.00  0.00     0.003 C 
ENDBRANCH   8   9
ENDBRANCH   7   8
ENDBRANCH   1   7
TORSDOF 3
ENDMDL
