MODEL 1
REMARK minimizedAffinity 5.4004488
REMARK minimizedRMSD -1
REMARK  3 active torsions:
REMARK  status: ('A' for Active; 'I' for Inactive)
REMARK    1  A    between atoms: C3'_2  and  C2'_3 
REMARK    2  A    between atoms: C2'_3  and  C1'_4 
REMARK    3  A    between atoms: C1'_4  and  C1_5 
ROOT
ATOM      1  C1  N4B d   1       2.360  -1.842   3.298  0.00  0.00    -0.075 A 
ATOM      2  C2  N4B d   1       2.967  -0.768   2.610  0.00  0.00     0.002 A 
ATOM      3  C3  N4B d   1       2.353  -0.223   1.509  0.00  0.00     0.002 A 
ATOM      4  C4  N4B d   1       1.146  -0.745   1.068  0.00  0.00    -0.004 A 
ATOM      5  C5  N4B d   1       0.554  -1.766   1.753  0.00  0.00     0.002 A 
ATOM      6  C6  N4B d   1       1.157  -2.320   2.864  0.00  0.00     0.002 A 
ENDROOT
BRANCH   1   7
ATOM      7  C1' N4B d   1       3.034  -2.526   4.456  0.00  0.00     0.057 C 
BRANCH   7   8
ATOM      8  C2' N4B d   1       2.204  -3.736   4.874  0.00  0.00     0.009 C 
BRANCH   8   9
ATOM      9  C3' N4B d   1       2.844  -5.043   4.438  0.00  0.00     0.004 C 
ATOM     10  C4' N4B d   1       2.205  -5.622   3.211  0.00  0.00     0.003 C 
ENDBRANCH   8   9
ENDBRANCH   7   8
ENDBRANCH   1   7
TORSDOF 3
ENDMDL
