MODEL 1
REMARK minimizedAffinity 3.42432046
REMARK minimizedRMSD -1
REMARK  3 active torsions:
REMARK  status: ('A' for Active; 'I' for Inactive)
REMARK    1  A    between atoms: C3'_2  and  C2'_3 
REMARK    2  A    between atoms: C2'_3  and  C1'_4 
REMARK    3  A    between atoms: C1'_4  and  C1_5 
ROOT
ATOM      1  C1  N4B d   1       3.149  -1.216   2.204  0.00  0.00    -0.075 A 
ATOM      2  C2  N4B d   1       3.731  -0.557   1.098  0.00  0.00     0.002 A 
ATOM      3  C3  N4B d   1       5.046  -0.787   0.776  0.00  0.00     0.002 A 
ATOM      4  C4  N4B d   1       5.801  -1.653   1.552  0.00  0.00    -0.004 A 
ATOM      5  C5  N4B d   1       5.225  -2.305   2.603  0.00  0.00     0.002 A 
ATOM      6  C6  N4B d   1       3.903  -2.087   2.936  0.00  0.00     0.002 A 
ENDROOT
BRANCH   1   7
ATOM      7  C1' N4B d   1       1.740  -0.931   2.647  0.00  0.00     0.057 C 
BRANCH   7   8
ATOM      8  C2' N4B d   1       1.055  -2.245   3.012  0.00  0.00     0.009 C 
BRANCH   8   9
ATOM      9  C3' N4B d   1       0.724  -2.321   4.492  0.00  0.00     0.004 C 
ATOM     10  C4' N4B d   1       1.483  -1.319   5.309  0.00  0.00     0.003 C 
ENDBRANCH   8   9
ENDBRANCH   7   8
ENDBRANCH   1   7
TORSDOF 3
ENDMDL
