MODEL 1
REMARK minimizedAffinity -0.179519549
REMARK minimizedRMSD -1
REMARK  3 active torsions:
REMARK  status: ('A' for Active; 'I' for Inactive)
REMARK    1  A    between atoms: C3'_2  and  C2'_3 
REMARK    2  A    between atoms: C2'_3  and  C1'_4 
REMARK    3  A    between atoms: C1'_4  and  C1_5 
ROOT
ATOM      1  C1  N4B d   1       1.349  -3.905   4.227  0.00  0.00    -0.075 A 
ATOM      2  C2  N4B d   1       2.257  -4.957   4.477  0.00  0.00     0.002 A 
ATOM      3  C3  N4B d   1       1.893  -5.998   5.295  0.00  0.00     0.002 A 
ATOM      4  C4  N4B d   1       0.639  -5.999   5.887  0.00  0.00    -0.004 A 
ATOM      5  C5  N4B d   1      -0.242  -4.991   5.620  0.00  0.00     0.002 A 
ATOM      6  C6  N4B d   1       0.109  -3.941   4.797  0.00  0.00     0.002 A 
ENDROOT
BRANCH   1   7
ATOM      7  C1' N4B d   1       1.733  -2.703   3.408  0.00  0.00     0.057 C 
BRANCH   7   8
ATOM      8  C2' N4B d   1       3.155  -2.886   2.886  0.00  0.00     0.009 C 
BRANCH   8   9
ATOM      9  C3' N4B d   1       4.165  -2.994   4.015  0.00  0.00     0.004 C 
ATOM     10  C4' N4B d   1       5.568  -2.704   3.570  0.00  0.00     0.003 C 
ENDBRANCH   8   9
ENDBRANCH   7   8
ENDBRANCH   1   7
TORSDOF 3
ENDMDL
