MODEL 1
REMARK minimizedAffinity -4.67908525
REMARK minimizedRMSD -1
REMARK  1 active torsions:
REMARK  status: ('A' for Active; 'I' for Inactive)
REMARK    1  A    between atoms: C1_2  and  C2_3 
ROOT
ATOM      1  C2  UNL d   1      -1.058   1.388  -0.702  0.00  0.00    -0.081 A 
ATOM      2  C3  UNL d   1      -2.066   1.208  -1.657  0.00  0.00     0.006 A 
ATOM      3  C4  UNL d   1      -2.093   1.988  -2.815  0.00  0.00     0.002 A 
ATOM      4  C5  UNL d   1      -1.108   2.956  -3.042  0.00  0.00    -0.080 A 
ATOM      5  C6  UNL d   1      -1.108   3.779  -4.295  0.00  0.00     0.076 C 
ATOM      6  C7  UNL d   1      -0.111   3.148  -2.080  0.00  0.00     0.002 A 
ATOM      7  C8  UNL d   1      -0.084   2.369  -0.921  0.00  0.00     0.006 A 
ENDROOT
BRANCH   1   8
ATOM      8  C1  UNL d   1      -0.990   0.504   0.517  0.00  0.00     0.054 C 
ATOM      9  C   UNL d   1       0.231  -0.404   0.474  0.00  0.00     0.018 C 
ENDBRANCH   1   8
TORSDOF 1
ENDMDL
