MODEL 1
REMARK minimizedAffinity -2.25614548
REMARK minimizedRMSD -1
REMARK  1 active torsions:
REMARK  status: ('A' for Active; 'I' for Inactive)
REMARK    1  A    between atoms: C1_2  and  C2_3 
ROOT
ATOM      1  C2  UNL d   1       0.232   1.173  -0.031  0.00  0.00    -0.081 A 
ATOM      2  C3  UNL d   1       0.151   2.561   0.132  0.00  0.00     0.006 A 
ATOM      3  C4  UNL d   1       1.293   3.356   0.010  0.00  0.00     0.002 A 
ATOM      4  C5  UNL d   1       2.532   2.778  -0.286  0.00  0.00    -0.080 A 
ATOM      5  C6  UNL d   1       3.760   3.623  -0.450  0.00  0.00     0.076 C 
ATOM      6  C7  UNL d   1       2.616   1.389  -0.432  0.00  0.00     0.002 A 
ATOM      7  C8  UNL d   1       1.475   0.594  -0.309  0.00  0.00     0.006 A 
ENDROOT
BRANCH   1   8
ATOM      8  C1  UNL d   1      -1.009   0.320   0.036  0.00  0.00     0.054 C 
ATOM      9  C   UNL d   1      -1.347  -0.052   1.473  0.00  0.00     0.018 C 
ENDBRANCH   1   8
TORSDOF 1
ENDMDL
