MODEL 1
REMARK minimizedAffinity -3.70158505
REMARK minimizedRMSD -1
REMARK  1 active torsions:
REMARK  status: ('A' for Active; 'I' for Inactive)
REMARK    1  A    between atoms: C1_2  and  C2_3 
ROOT
ATOM      1  C2  UNL d   1       1.562   1.545   0.003  0.00  0.00    -0.081 A 
ATOM      2  C3  UNL d   1       0.359   0.846   0.157  0.00  0.00     0.006 A 
ATOM      3  C4  UNL d   1       0.355  -0.548   0.244  0.00  0.00     0.002 A 
ATOM      4  C5  UNL d   1       1.555  -1.265   0.188  0.00  0.00    -0.080 A 
ATOM      5  C6  UNL d   1       1.568  -2.760   0.312  0.00  0.00     0.076 C 
ATOM      6  C7  UNL d   1       2.756  -0.568   0.017  0.00  0.00     0.002 A 
ATOM      7  C8  UNL d   1       2.760   0.825  -0.071  0.00  0.00     0.006 A 
ENDROOT
BRANCH   1   8
ATOM      8  C1  UNL d   1       1.575   3.052  -0.026  0.00  0.00     0.054 C 
ATOM      9  C   UNL d   1       2.961   3.600   0.283  0.00  0.00     0.018 C 
ENDBRANCH   1   8
TORSDOF 1
ENDMDL
