MODEL 1
REMARK minimizedAffinity -2.04767561
REMARK minimizedRMSD -1
REMARK  1 active torsions:
REMARK  status: ('A' for Active; 'I' for Inactive)
REMARK    1  A    between atoms: C1_2  and  C2_3 
ROOT
ATOM      1  C2  UNL d   1       0.236   3.129  -0.325  0.00  0.00    -0.081 A 
ATOM      2  C3  UNL d   1      -0.283   3.789  -1.446  0.00  0.00     0.006 A 
ATOM      3  C4  UNL d   1      -1.223   3.160  -2.266  0.00  0.00     0.002 A 
ATOM      4  C5  UNL d   1      -1.665   1.865  -1.975  0.00  0.00    -0.080 A 
ATOM      5  C6  UNL d   1      -2.696   1.190  -2.830  0.00  0.00     0.076 C 
ATOM      6  C7  UNL d   1      -1.133   1.199  -0.866  0.00  0.00     0.002 A 
ATOM      7  C8  UNL d   1      -0.193   1.827  -0.046  0.00  0.00     0.006 A 
ENDROOT
BRANCH   1   8
ATOM      8  C1  UNL d   1       1.200   3.829   0.598  0.00  0.00     0.054 C 
ATOM      9  C   UNL d   1       2.631   3.716   0.091  0.00  0.00     0.018 C 
ENDBRANCH   1   8
TORSDOF 1
ENDMDL
