MODEL 1
REMARK minimizedAffinity -2.73635912
REMARK minimizedRMSD -1
REMARK  1 active torsions:
REMARK  status: ('A' for Active; 'I' for Inactive)
REMARK    1  A    between atoms: C1_2  and  C2_3 
ROOT
ATOM      1  C2  UNL d   1       0.193   1.090  -0.061  0.00  0.00    -0.081 A 
ATOM      2  C3  UNL d   1       1.488   0.680  -0.400  0.00  0.00     0.006 A 
ATOM      3  C4  UNL d   1       1.928  -0.608  -0.086  0.00  0.00     0.002 A 
ATOM      4  C5  UNL d   1       1.079  -1.509   0.566  0.00  0.00    -0.080 A 
ATOM      5  C6  UNL d   1       1.528  -2.904   0.882  0.00  0.00     0.076 C 
ATOM      6  C7  UNL d   1      -0.209  -1.093   0.921  0.00  0.00     0.002 A 
ATOM      7  C8  UNL d   1      -0.650   0.195   0.607  0.00  0.00     0.006 A 
ENDROOT
BRANCH   1   8
ATOM      8  C1  UNL d   1      -0.307   2.457  -0.456  0.00  0.00     0.054 C 
ATOM      9  C   UNL d   1       0.674   3.545  -0.045  0.00  0.00     0.018 C 
ENDBRANCH   1   8
TORSDOF 1
ENDMDL
