MODEL 1
REMARK minimizedAffinity -2.34854293
REMARK minimizedRMSD -1
REMARK  1 active torsions:
REMARK  status: ('A' for Active; 'I' for Inactive)
REMARK    1  A    between atoms: C1_2  and  C2_3 
ROOT
ATOM      1  C2  UNL d   1       2.767   2.933  -0.059  0.00  0.00    -0.081 A 
ATOM      2  C3  UNL d   1       1.453   3.397   0.073  0.00  0.00     0.006 A 
ATOM      3  C4  UNL d   1       0.378   2.507   0.018  0.00  0.00     0.002 A 
ATOM      4  C5  UNL d   1       0.599   1.137  -0.162  0.00  0.00    -0.080 A 
ATOM      5  C6  UNL d   1      -0.544   0.167  -0.193  0.00  0.00     0.076 C 
ATOM      6  C7  UNL d   1       1.911   0.675  -0.313  0.00  0.00     0.002 A 
ATOM      7  C8  UNL d   1       2.986   1.565  -0.258  0.00  0.00     0.006 A 
ENDROOT
BRANCH   1   8
ATOM      8  C1  UNL d   1       3.932   3.882   0.064  0.00  0.00     0.054 C 
ATOM      9  C   UNL d   1       4.864   3.772  -1.133  0.00  0.00     0.018 C 
ENDBRANCH   1   8
TORSDOF 1
ENDMDL
