MODEL 1
REMARK minimizedAffinity 3.30459213
REMARK minimizedRMSD -1
REMARK  1 active torsions:
REMARK  status: ('A' for Active; 'I' for Inactive)
REMARK    1  A    between atoms: C1_2  and  C2_3 
ROOT
ATOM      1  C2  UNL d   1      -0.393   0.552   0.180  0.00  0.00    -0.081 A 
ATOM      2  C3  UNL d   1      -1.372   0.988   1.082  0.00  0.00     0.006 A 
ATOM      3  C4  UNL d   1      -1.992   0.082   1.947  0.00  0.00     0.002 A 
ATOM      4  C5  UNL d   1      -1.639  -1.271   1.929  0.00  0.00    -0.080 A 
ATOM      5  C6  UNL d   1      -2.275  -2.249   2.872  0.00  0.00     0.076 C 
ATOM      6  C7  UNL d   1      -0.674  -1.710   1.016  0.00  0.00     0.002 A 
ATOM      7  C8  UNL d   1      -0.054  -0.806   0.151  0.00  0.00     0.006 A 
ENDROOT
BRANCH   1   8
ATOM      8  C1  UNL d   1       0.323   1.536  -0.708  0.00  0.00     0.054 C 
ATOM      9  C   UNL d   1       1.249   2.437   0.098  0.00  0.00     0.018 C 
ENDBRANCH   1   8
TORSDOF 1
ENDMDL
