MODEL 1
REMARK minimizedAffinity 2.59800005
REMARK minimizedRMSD -1
REMARK  1 active torsions:
REMARK  status: ('A' for Active; 'I' for Inactive)
REMARK    1  A    between atoms: C1_2  and  C2_3 
ROOT
ATOM      1  C2  UNL d   1       0.494   1.745  -0.065  0.00  0.00    -0.081 A 
ATOM      2  C3  UNL d   1       0.357   3.137  -0.001  0.00  0.00     0.006 A 
ATOM      3  C4  UNL d   1       1.486   3.957   0.066  0.00  0.00     0.002 A 
ATOM      4  C5  UNL d   1       2.769   3.401   0.062  0.00  0.00    -0.080 A 
ATOM      5  C6  UNL d   1       3.990   4.271   0.103  0.00  0.00     0.076 C 
ATOM      6  C7  UNL d   1       2.906   2.009   0.015  0.00  0.00     0.002 A 
ATOM      7  C8  UNL d   1       1.778   1.188  -0.051  0.00  0.00     0.006 A 
ENDROOT
BRANCH   1   8
ATOM      8  C1  UNL d   1      -0.719   0.861  -0.203  0.00  0.00     0.054 C 
ATOM      9  C   UNL d   1      -0.764  -0.192   0.895  0.00  0.00     0.018 C 
ENDBRANCH   1   8
TORSDOF 1
ENDMDL
