MODEL 1
REMARK minimizedAffinity -5.29940128
REMARK minimizedRMSD -1
REMARK  1 active torsions:
REMARK  status: ('A' for Active; 'I' for Inactive)
REMARK    1  A    between atoms: C1_2  and  C2_3 
ROOT
ATOM      1  C2  UNL d   1      -0.791   0.154  -0.775  0.00  0.00    -0.081 A 
ATOM      2  C3  UNL d   1      -0.791   0.094   0.623  0.00  0.00     0.006 A 
ATOM      3  C4  UNL d   1      -0.061  -0.894   1.289  0.00  0.00     0.002 A 
ATOM      4  C5  UNL d   1       0.687  -1.831   0.569  0.00  0.00    -0.080 A 
ATOM      5  C6  UNL d   1       1.499  -2.878   1.272  0.00  0.00     0.076 C 
ATOM      6  C7  UNL d   1       0.672  -1.782  -0.829  0.00  0.00     0.002 A 
ATOM      7  C8  UNL d   1      -0.058  -0.796  -1.496  0.00  0.00     0.006 A 
ENDROOT
BRANCH   1   8
ATOM      8  C1  UNL d   1      -1.526   1.256  -1.495  0.00  0.00     0.054 C 
ATOM      9  C   UNL d   1      -2.593   0.696  -2.424  0.00  0.00     0.018 C 
ENDBRANCH   1   8
TORSDOF 1
ENDMDL
