MODEL 1
REMARK minimizedAffinity -3.39061761
REMARK minimizedRMSD -1
REMARK  1 active torsions:
REMARK  status: ('A' for Active; 'I' for Inactive)
REMARK    1  A    between atoms: C1_2  and  C2_3 
ROOT
ATOM      1  C2  UNL d   1      -0.315   1.364  -0.313  0.00  0.00    -0.081 A 
ATOM      2  C3  UNL d   1       0.926   0.731  -0.451  0.00  0.00     0.006 A 
ATOM      3  C4  UNL d   1       2.110   1.466  -0.362  0.00  0.00     0.002 A 
ATOM      4  C5  UNL d   1       2.074   2.845  -0.126  0.00  0.00    -0.080 A 
ATOM      5  C6  UNL d   1       3.339   3.640   0.002  0.00  0.00     0.076 C 
ATOM      6  C7  UNL d   1       0.834   3.481  -0.006  0.00  0.00     0.002 A 
ATOM      7  C8  UNL d   1      -0.351   2.746  -0.095  0.00  0.00     0.006 A 
ENDROOT
BRANCH   1   8
ATOM      8  C1  UNL d   1      -1.592   0.564  -0.344  0.00  0.00     0.054 C 
ATOM      9  C   UNL d   1      -2.455   0.945  -1.538  0.00  0.00     0.018 C 
ENDBRANCH   1   8
TORSDOF 1
ENDMDL
