MODEL 1
REMARK minimizedAffinity -3.6579814
REMARK minimizedRMSD -1
REMARK  1 active torsions:
REMARK  status: ('A' for Active; 'I' for Inactive)
REMARK    1  A    between atoms: C1_2  and  C2_3 
ROOT
ATOM      1  C2  UNL d   1      -1.320   2.126  -1.535  0.00  0.00    -0.081 A 
ATOM      2  C3  UNL d   1      -0.890   3.413  -1.881  0.00  0.00     0.006 A 
ATOM      3  C4  UNL d   1       0.216   3.984  -1.247  0.00  0.00     0.002 A 
ATOM      4  C5  UNL d   1       0.915   3.276  -0.264  0.00  0.00    -0.080 A 
ATOM      5  C6  UNL d   1       2.122   3.866   0.403  0.00  0.00     0.076 C 
ATOM      6  C7  UNL d   1       0.475   1.997   0.094  0.00  0.00     0.002 A 
ATOM      7  C8  UNL d   1      -0.631   1.426  -0.539  0.00  0.00     0.006 A 
ENDROOT
BRANCH   1   8
ATOM      8  C1  UNL d   1      -2.473   1.482  -2.262  0.00  0.00     0.054 C 
ATOM      9  C   UNL d   1      -2.409   1.760  -3.757  0.00  0.00     0.018 C 
ENDBRANCH   1   8
TORSDOF 1
ENDMDL
