MODEL 1
REMARK minimizedAffinity -3.96280146
REMARK minimizedRMSD -1
REMARK  1 active torsions:
REMARK  status: ('A' for Active; 'I' for Inactive)
REMARK    1  A    between atoms: C1_2  and  C2_3 
ROOT
ATOM      1  C2  UNL d   1      -0.582   3.312  -0.558  0.00  0.00    -0.081 A 
ATOM      2  C3  UNL d   1      -1.276   2.178  -0.119  0.00  0.00     0.006 A 
ATOM      3  C4  UNL d   1      -2.060   1.439  -1.008  0.00  0.00     0.002 A 
ATOM      4  C5  UNL d   1      -2.157   1.817  -2.351  0.00  0.00    -0.080 A 
ATOM      5  C6  UNL d   1      -2.971   1.015  -3.323  0.00  0.00     0.076 C 
ATOM      6  C7  UNL d   1      -1.477   2.960  -2.786  0.00  0.00     0.002 A 
ATOM      7  C8  UNL d   1      -0.694   3.699  -1.897  0.00  0.00     0.006 A 
ENDROOT
BRANCH   1   8
ATOM      8  C1  UNL d   1       0.316   4.073   0.384  0.00  0.00     0.054 C 
ATOM      9  C   UNL d   1       1.762   3.615   0.260  0.00  0.00     0.018 C 
ENDBRANCH   1   8
TORSDOF 1
ENDMDL
