MODEL 1
REMARK minimizedAffinity -1.7167052
REMARK minimizedRMSD -1
REMARK  1 active torsions:
REMARK  status: ('A' for Active; 'I' for Inactive)
REMARK    1  A    between atoms: C1_2  and  C2_3 
ROOT
ATOM      1  C2  UNL d   1       1.196   0.923  -0.059  0.00  0.00    -0.081 A 
ATOM      2  C3  UNL d   1       0.017   0.172   0.040  0.00  0.00     0.006 A 
ATOM      3  C4  UNL d   1       0.048  -1.133   0.536  0.00  0.00     0.002 A 
ATOM      4  C5  UNL d   1       1.256  -1.707   0.950  0.00  0.00    -0.080 A 
ATOM      5  C6  UNL d   1       1.298  -3.096   1.513  0.00  0.00     0.076 C 
ATOM      6  C7  UNL d   1       2.435  -0.963   0.835  0.00  0.00     0.002 A 
ATOM      7  C8  UNL d   1       2.405   0.342   0.338  0.00  0.00     0.006 A 
ENDROOT
BRANCH   1   8
ATOM      8  C1  UNL d   1       1.156   2.353  -0.533  0.00  0.00     0.054 C 
ATOM      9  C   UNL d   1       2.262   3.179   0.107  0.00  0.00     0.018 C 
ENDBRANCH   1   8
TORSDOF 1
ENDMDL
