MODEL 1
REMARK minimizedAffinity -3.37074852
REMARK minimizedRMSD -1
REMARK  1 active torsions:
REMARK  status: ('A' for Active; 'I' for Inactive)
REMARK    1  A    between atoms: C1_2  and  C2_3 
ROOT
ATOM      1  C2  UNL d   1       2.660   1.166   0.036  0.00  0.00    -0.081 A 
ATOM      2  C3  UNL d   1       1.471   0.817  -0.616  0.00  0.00     0.006 A 
ATOM      3  C4  UNL d   1       0.883  -0.431  -0.395  0.00  0.00     0.002 A 
ATOM      4  C5  UNL d   1       1.469  -1.346   0.486  0.00  0.00    -0.080 A 
ATOM      5  C6  UNL d   1       0.832  -2.677   0.755  0.00  0.00     0.076 C 
ATOM      6  C7  UNL d   1       2.666  -1.004   1.124  0.00  0.00     0.002 A 
ATOM      7  C8  UNL d   1       3.255   0.243   0.903  0.00  0.00     0.006 A 
ENDROOT
BRANCH   1   8
ATOM      8  C1  UNL d   1       3.262   2.536  -0.150  0.00  0.00     0.054 C 
ATOM      9  C   UNL d   1       2.244   3.631   0.131  0.00  0.00     0.018 C 
ENDBRANCH   1   8
TORSDOF 1
ENDMDL
