MODEL 1
REMARK minimizedAffinity -4.82008219
REMARK minimizedRMSD -1
REMARK  1 active torsions:
REMARK  status: ('A' for Active; 'I' for Inactive)
REMARK    1  A    between atoms: C1_2  and  C2_3 
ROOT
ATOM      1  C2  UNL d   1       0.120   1.927  -0.203  0.00  0.00    -0.081 A 
ATOM      2  C3  UNL d   1       0.344   3.303  -0.073  0.00  0.00     0.006 A 
ATOM      3  C4  UNL d   1       1.642   3.817  -0.127  0.00  0.00     0.002 A 
ATOM      4  C5  UNL d   1       2.735   2.966  -0.319  0.00  0.00    -0.080 A 
ATOM      5  C6  UNL d   1       4.131   3.508  -0.409  0.00  0.00     0.076 C 
ATOM      6  C7  UNL d   1       2.512   1.589  -0.431  0.00  0.00     0.002 A 
ATOM      7  C8  UNL d   1       1.215   1.075  -0.377  0.00  0.00     0.006 A 
ENDROOT
BRANCH   1   8
ATOM      8  C1  UNL d   1      -1.284   1.377  -0.210  0.00  0.00     0.054 C 
ATOM      9  C   UNL d   1      -1.894   1.435  -1.603  0.00  0.00     0.018 C 
ENDBRANCH   1   8
TORSDOF 1
ENDMDL
