MODEL 1
REMARK minimizedAffinity 6.15563726
REMARK minimizedRMSD -1
REMARK  0 active torsions:
REMARK  status: ('A' for Active; 'I' for Inactive)
ROOT
ATOM      1  C2' OXE d   1      -4.745   2.056  -4.276  0.00  0.00     0.078 C 
ATOM      2  C1' OXE d   1      -3.004   2.525  -2.125  0.00  0.00     0.078 C 
ATOM      3  C1  OXE d   1      -3.195   1.099  -2.577  0.00  0.00    -0.078 A 
ATOM      4  C2  OXE d   1      -4.084   0.874  -3.600  0.00  0.00    -0.078 A 
ATOM      5  C3  OXE d   1      -4.256  -0.417  -4.092  0.00  0.00     0.003 A 
ATOM      6  C4  OXE d   1      -3.649  -1.506  -3.455  0.00  0.00    -0.002 A 
ATOM      7  C5  OXE d   1      -2.770  -1.302  -2.386  0.00  0.00    -0.002 A 
ATOM      8  C6  OXE d   1      -2.500  -0.005  -1.963  0.00  0.00     0.003 A 
ENDROOT
TORSDOF 0
ENDMDL
