MODEL 1
REMARK minimizedAffinity 10.4302301
REMARK minimizedRMSD -1
REMARK  0 active torsions:
REMARK  status: ('A' for Active; 'I' for Inactive)
ROOT
ATOM      1  C2' OXE d   1      -5.724   4.585  -1.273  0.00  0.00     0.078 C 
ATOM      2  C1' OXE d   1      -3.199   3.456  -1.754  0.00  0.00     0.078 C 
ATOM      3  C1  OXE d   1      -3.771   3.333  -0.364  0.00  0.00    -0.078 A 
ATOM      4  C2  OXE d   1      -4.986   3.928  -0.125  0.00  0.00    -0.078 A 
ATOM      5  C3  OXE d   1      -5.584   3.798   1.125  0.00  0.00     0.003 A 
ATOM      6  C4  OXE d   1      -4.891   3.198   2.183  0.00  0.00    -0.002 A 
ATOM      7  C5  OXE d   1      -3.635   2.620   1.971  0.00  0.00    -0.002 A 
ATOM      8  C6  OXE d   1      -3.081   2.641   0.696  0.00  0.00     0.003 A 
ENDROOT
TORSDOF 0
ENDMDL
