MODEL 1
REMARK minimizedAffinity 5.38295889
REMARK minimizedRMSD -1
REMARK  0 active torsions:
REMARK  status: ('A' for Active; 'I' for Inactive)
ROOT
ATOM      1  C2' OXE d   1       3.273  -5.049   5.605  0.00  0.00     0.078 C 
ATOM      2  C1' OXE d   1       5.078  -3.055   4.800  0.00  0.00     0.078 C 
ATOM      3  C1  OXE d   1       3.677  -3.002   4.244  0.00  0.00    -0.078 A 
ATOM      4  C2  OXE d   1       2.814  -4.008   4.607  0.00  0.00    -0.078 A 
ATOM      5  C3  OXE d   1       1.494  -3.976   4.165  0.00  0.00     0.003 A 
ATOM      6  C4  OXE d   1       1.081  -3.016   3.234  0.00  0.00    -0.002 A 
ATOM      7  C5  OXE d   1       1.955  -2.005   2.821  0.00  0.00    -0.002 A 
ATOM      8  C6  OXE d   1       3.241  -1.959   3.348  0.00  0.00     0.003 A 
ENDROOT
TORSDOF 0
ENDMDL
