MODEL 1
REMARK minimizedAffinity 11.3828564
REMARK minimizedRMSD -1
REMARK  0 active torsions:
REMARK  status: ('A' for Active; 'I' for Inactive)
ROOT
ATOM      1  C2' OXE d   1      -2.264   1.660  -0.374  0.00  0.00     0.078 C 
ATOM      2  C1' OXE d   1      -4.025   1.839  -2.553  0.00  0.00     0.078 C 
ATOM      3  C1  OXE d   1      -4.427   2.515  -1.266  0.00  0.00    -0.078 A 
ATOM      4  C2  OXE d   1      -3.581   2.383  -0.191  0.00  0.00    -0.078 A 
ATOM      5  C3  OXE d   1      -3.878   3.032   1.004  0.00  0.00     0.003 A 
ATOM      6  C4  OXE d   1      -5.103   3.690   1.168  0.00  0.00    -0.002 A 
ATOM      7  C5  OXE d   1      -5.998   3.802   0.098  0.00  0.00    -0.002 A 
ATOM      8  C6  OXE d   1      -5.656   3.258  -1.135  0.00  0.00     0.003 A 
ENDROOT
TORSDOF 0
ENDMDL
