MODEL 1
REMARK minimizedAffinity 6.56441116
REMARK minimizedRMSD -1
REMARK  0 active torsions:
REMARK  status: ('A' for Active; 'I' for Inactive)
ROOT
ATOM      1  C2' OXE d   1       1.866  -4.888   4.938  0.00  0.00     0.078 C 
ATOM      2  C1' OXE d   1       1.297  -5.043   2.194  0.00  0.00     0.078 C 
ATOM      3  C1  OXE d   1       1.582  -3.682   2.777  0.00  0.00    -0.078 A 
ATOM      4  C2  OXE d   1       1.813  -3.610   4.130  0.00  0.00    -0.078 A 
ATOM      5  C3  OXE d   1       2.136  -2.386   4.710  0.00  0.00     0.003 A 
ATOM      6  C4  OXE d   1       2.075  -1.207   3.958  0.00  0.00    -0.002 A 
ATOM      7  C5  OXE d   1       1.803  -1.253   2.586  0.00  0.00    -0.002 A 
ATOM      8  C6  OXE d   1       1.597  -2.485   1.974  0.00  0.00     0.003 A 
ENDROOT
TORSDOF 0
ENDMDL
