MODEL 1
REMARK minimizedAffinity 9.57983685
REMARK minimizedRMSD -1
REMARK  0 active torsions:
REMARK  status: ('A' for Active; 'I' for Inactive)
ROOT
ATOM      1  C2' OXE d   1       0.777  -2.680   1.730  0.00  0.00     0.078 C 
ATOM      2  C1' OXE d   1       2.483  -0.998   3.192  0.00  0.00     0.078 C 
ATOM      3  C1  OXE d   1       2.651  -2.488   3.359  0.00  0.00    -0.078 A 
ATOM      4  C2  OXE d   1       1.781  -3.302   2.676  0.00  0.00    -0.078 A 
ATOM      5  C3  OXE d   1       1.927  -4.685   2.752  0.00  0.00     0.003 A 
ATOM      6  C4  OXE d   1       2.852  -5.252   3.636  0.00  0.00    -0.002 A 
ATOM      7  C5  OXE d   1       3.722  -4.440   4.372  0.00  0.00    -0.002 A 
ATOM      8  C6  OXE d   1       3.663  -3.060   4.213  0.00  0.00     0.003 A 
ENDROOT
TORSDOF 0
ENDMDL
