MODEL 1
REMARK minimizedAffinity 6.48450184
REMARK minimizedRMSD -1
REMARK  0 active torsions:
REMARK  status: ('A' for Active; 'I' for Inactive)
ROOT
ATOM      1  C2' OXE d   1       2.982   2.898   3.265  0.00  0.00     0.078 C 
ATOM      2  C1' OXE d   1       3.149   1.950   0.628  0.00  0.00     0.078 C 
ATOM      3  C1  OXE d   1       2.678   0.990   1.692  0.00  0.00    -0.078 A 
ATOM      4  C2  OXE d   1       2.644   1.449   2.987  0.00  0.00    -0.078 A 
ATOM      5  C3  OXE d   1       2.165   0.623   4.000  0.00  0.00     0.003 A 
ATOM      6  C4  OXE d   1       1.864  -0.719   3.736  0.00  0.00    -0.002 A 
ATOM      7  C5  OXE d   1       1.929  -1.218   2.431  0.00  0.00    -0.002 A 
ATOM      8  C6  OXE d   1       2.293  -0.367   1.393  0.00  0.00     0.003 A 
ENDROOT
TORSDOF 0
ENDMDL
