MODEL 1
REMARK minimizedAffinity -1.33439851
REMARK minimizedRMSD -1
REMARK  0 active torsions:
REMARK  status: ('A' for Active; 'I' for Inactive)
ROOT
ATOM      1  C   UNL d   1      -1.496  -2.668   1.516  0.00  0.00    -0.002 A 
ATOM      2  C1  UNL d   1      -2.540  -1.767   1.674  0.00  0.00     0.010 A 
ATOM      3  C2  UNL d   1      -2.368  -0.418   1.357  0.00  0.00     0.041 A 
ATOM      4  C3  UNL d   1      -1.118   0.014   0.872  0.00  0.00    -0.075 A 
ATOM      5  S   UNL d   1      -0.677   1.618   0.418  0.00  0.00     0.015 SA
ATOM      6  C4  UNL d   1       0.907   1.145   0.002  0.00  0.00     0.022 A 
ATOM      7  C5  UNL d   1       1.111  -0.200   0.199  0.00  0.00     0.026 A 
ATOM      8  C6  UNL d   1      -0.052  -0.875   0.703  0.00  0.00    -0.082 A 
ATOM      9  C7  UNL d   1      -0.258  -2.236   1.034  0.00  0.00     0.045 A 
ENDROOT
TORSDOF 0
ENDMDL
