MODEL 1
REMARK minimizedAffinity -4.01562262
REMARK minimizedRMSD -1
REMARK  0 active torsions:
REMARK  status: ('A' for Active; 'I' for Inactive)
ROOT
ATOM      1  C   UNL d   1      -1.916  -2.338   2.140  0.00  0.00    -0.002 A 
ATOM      2  C1  UNL d   1      -2.681  -1.301   1.626  0.00  0.00     0.010 A 
ATOM      3  C2  UNL d   1      -2.096  -0.311   0.834  0.00  0.00     0.041 A 
ATOM      4  C3  UNL d   1      -0.715  -0.383   0.563  0.00  0.00    -0.075 A 
ATOM      5  S   UNL d   1       0.218   0.716  -0.382  0.00  0.00     0.015 SA
ATOM      6  C4  UNL d   1       1.654  -0.166  -0.127  0.00  0.00     0.022 A 
ATOM      7  C5  UNL d   1       1.445  -1.275   0.658  0.00  0.00     0.026 A 
ATOM      8  C6  UNL d   1       0.076  -1.419   1.069  0.00  0.00    -0.082 A 
ATOM      9  C7  UNL d   1      -0.547  -2.406   1.869  0.00  0.00     0.045 A 
ENDROOT
TORSDOF 0
ENDMDL
