MODEL 1
REMARK minimizedAffinity -2.47230911
REMARK minimizedRMSD -1
REMARK  0 active torsions:
REMARK  status: ('A' for Active; 'I' for Inactive)
ROOT
ATOM      1  C   UNL d   1      -0.713  -2.591   0.801  0.00  0.00    -0.002 A 
ATOM      2  C1  UNL d   1      -1.792  -1.818   1.205  0.00  0.00     0.010 A 
ATOM      3  C2  UNL d   1      -1.760  -0.428   1.073  0.00  0.00     0.041 A 
ATOM      4  C3  UNL d   1      -0.615   0.177   0.521  0.00  0.00    -0.075 A 
ATOM      5  S   UNL d   1      -0.352   1.862   0.261  0.00  0.00     0.015 SA
ATOM      6  C4  UNL d   1       1.199   1.595  -0.392  0.00  0.00     0.022 A 
ATOM      7  C5  UNL d   1       1.525   0.260  -0.420  0.00  0.00     0.026 A 
ATOM      8  C6  UNL d   1       0.485  -0.579   0.106  0.00  0.00    -0.082 A 
ATOM      9  C7  UNL d   1       0.422  -1.986   0.254  0.00  0.00     0.045 A 
ENDROOT
TORSDOF 0
ENDMDL
