MODEL 1
REMARK minimizedAffinity -2.64352012
REMARK minimizedRMSD -1
REMARK  0 active torsions:
REMARK  status: ('A' for Active; 'I' for Inactive)
ROOT
ATOM      1  C   UNL d   1      -0.044  -2.694   0.845  0.00  0.00    -0.002 A 
ATOM      2  C1  UNL d   1       1.140  -2.130   0.390  0.00  0.00     0.010 A 
ATOM      3  C2  UNL d   1       1.241  -0.751   0.196  0.00  0.00     0.041 A 
ATOM      4  C3  UNL d   1       0.123   0.060   0.473  0.00  0.00    -0.075 A 
ATOM      5  S   UNL d   1       0.016   1.773   0.310  0.00  0.00     0.015 SA
ATOM      6  C4  UNL d   1      -1.603   1.797   0.842  0.00  0.00     0.022 A 
ATOM      7  C5  UNL d   1      -2.067   0.538   1.141  0.00  0.00     0.026 A 
ATOM      8  C6  UNL d   1      -1.079  -0.484   0.933  0.00  0.00    -0.082 A 
ATOM      9  C7  UNL d   1      -1.151  -1.886   1.118  0.00  0.00     0.045 A 
ENDROOT
TORSDOF 0
ENDMDL
