MODEL 1
REMARK minimizedAffinity -3.54442191
REMARK minimizedRMSD -1
REMARK  0 active torsions:
REMARK  status: ('A' for Active; 'I' for Inactive)
ROOT
ATOM      1  C   UNL d   1      -1.555  -2.673   1.758  0.00  0.00    -0.002 A 
ATOM      2  C1  UNL d   1      -2.294  -1.506   1.885  0.00  0.00     0.010 A 
ATOM      3  C2  UNL d   1      -1.863  -0.323   1.281  0.00  0.00     0.041 A 
ATOM      4  C3  UNL d   1      -0.665  -0.334   0.539  0.00  0.00    -0.075 A 
ATOM      5  S   UNL d   1       0.057   0.994  -0.289  0.00  0.00     0.015 SA
ATOM      6  C4  UNL d   1       1.363   0.043  -0.831  0.00  0.00     0.022 A 
ATOM      7  C5  UNL d   1       1.267  -1.259  -0.400  0.00  0.00     0.026 A 
ATOM      8  C6  UNL d   1       0.096  -1.498   0.396  0.00  0.00    -0.082 A 
ATOM      9  C7  UNL d   1      -0.368  -2.681   1.021  0.00  0.00     0.045 A 
ENDROOT
TORSDOF 0
ENDMDL
