MODEL 1
REMARK minimizedAffinity -3.56476378
REMARK minimizedRMSD -1
REMARK  0 active torsions:
REMARK  status: ('A' for Active; 'I' for Inactive)
ROOT
ATOM      1  C   UNL d   1       0.413  -2.839   0.257  0.00  0.00    -0.002 A 
ATOM      2  C1  UNL d   1      -0.337  -2.350   1.318  0.00  0.00     0.010 A 
ATOM      3  C2  UNL d   1      -0.574  -0.980   1.448  0.00  0.00     0.041 A 
ATOM      4  C3  UNL d   1      -0.041  -0.101   0.484  0.00  0.00    -0.075 A 
ATOM      5  S   UNL d   1      -0.203   1.615   0.440  0.00  0.00     0.015 SA
ATOM      6  C4  UNL d   1       0.719   1.739  -0.988  0.00  0.00     0.022 A 
ATOM      7  C5  UNL d   1       1.148   0.511  -1.434  0.00  0.00     0.026 A 
ATOM      8  C6  UNL d   1       0.717  -0.570  -0.593  0.00  0.00    -0.082 A 
ATOM      9  C7  UNL d   1       0.940  -1.964  -0.696  0.00  0.00     0.045 A 
ENDROOT
TORSDOF 0
ENDMDL
