MODEL 1
REMARK minimizedAffinity -4.9112792
REMARK minimizedRMSD -1
REMARK  0 active torsions:
REMARK  status: ('A' for Active; 'I' for Inactive)
ROOT
ATOM      1  C   UNL d   1      -1.965  -1.971   1.795  0.00  0.00    -0.002 A 
ATOM      2  C1  UNL d   1      -2.587  -0.740   1.950  0.00  0.00     0.010 A 
ATOM      3  C2  UNL d   1      -2.000   0.421   1.444  0.00  0.00     0.041 A 
ATOM      4  C3  UNL d   1      -0.766   0.324   0.771  0.00  0.00    -0.075 A 
ATOM      5  S   UNL d   1       0.139   1.612   0.067  0.00  0.00     0.015 SA
ATOM      6  C4  UNL d   1       1.372   0.559  -0.457  0.00  0.00     0.022 A 
ATOM      7  C5  UNL d   1       1.116  -0.747  -0.112  0.00  0.00     0.026 A 
ATOM      8  C6  UNL d   1      -0.121  -0.904   0.601  0.00  0.00    -0.082 A 
ATOM      9  C7  UNL d   1      -0.741  -2.063   1.126  0.00  0.00     0.045 A 
ENDROOT
TORSDOF 0
ENDMDL
