MODEL 1
REMARK minimizedAffinity -5.09400892
REMARK minimizedRMSD -1
REMARK  0 active torsions:
REMARK  status: ('A' for Active; 'I' for Inactive)
ROOT
ATOM      1  C   UNL d   1      -3.160  -1.175   1.688  0.00  0.00    -0.002 A 
ATOM      2  C1  UNL d   1      -2.469  -2.377   1.758  0.00  0.00     0.010 A 
ATOM      3  C2  UNL d   1      -1.200  -2.501   1.191  0.00  0.00     0.041 A 
ATOM      4  C3  UNL d   1      -0.629  -1.385   0.547  0.00  0.00    -0.075 A 
ATOM      5  S   UNL d   1       0.914  -1.302  -0.218  0.00  0.00     0.015 SA
ATOM      6  C4  UNL d   1       0.693   0.330  -0.655  0.00  0.00     0.022 A 
ATOM      7  C5  UNL d   1      -0.522   0.817  -0.235  0.00  0.00     0.026 A 
ATOM      8  C6  UNL d   1      -1.304  -0.164   0.465  0.00  0.00    -0.082 A 
ATOM      9  C7  UNL d   1      -2.590  -0.070   1.049  0.00  0.00     0.045 A 
ENDROOT
TORSDOF 0
ENDMDL
