MODEL 1
REMARK minimizedAffinity -0.139443666
REMARK minimizedRMSD -1
REMARK  0 active torsions:
REMARK  status: ('A' for Active; 'I' for Inactive)
ROOT
ATOM      1  C   UNL d   1      -0.791  -2.851   1.405  0.00  0.00    -0.002 A 
ATOM      2  C1  UNL d   1      -1.903  -2.547   0.632  0.00  0.00     0.010 A 
ATOM      3  C2  UNL d   1      -1.885  -1.457  -0.239  0.00  0.00     0.041 A 
ATOM      4  C3  UNL d   1      -0.720  -0.670  -0.323  0.00  0.00    -0.075 A 
ATOM      5  S   UNL d   1      -0.469   0.713  -1.321  0.00  0.00     0.015 SA
ATOM      6  C4  UNL d   1       1.120   0.933  -0.746  0.00  0.00     0.022 A 
ATOM      7  C5  UNL d   1       1.467  -0.017   0.186  0.00  0.00     0.026 A 
ATOM      8  C6  UNL d   1       0.413  -0.956   0.444  0.00  0.00    -0.082 A 
ATOM      9  C7  UNL d   1       0.363  -2.068   1.319  0.00  0.00     0.045 A 
ENDROOT
TORSDOF 0
ENDMDL
