MODEL 1
REMARK minimizedAffinity -4.77961731
REMARK minimizedRMSD -1
REMARK  0 active torsions:
REMARK  status: ('A' for Active; 'I' for Inactive)
ROOT
ATOM      1  C   UNL d   1      -1.711  -2.605   1.719  0.00  0.00    -0.002 A 
ATOM      2  C1  UNL d   1      -2.602  -1.573   1.977  0.00  0.00     0.010 A 
ATOM      3  C2  UNL d   1      -2.332  -0.275   1.538  0.00  0.00     0.041 A 
ATOM      4  C3  UNL d   1      -1.141  -0.031   0.826  0.00  0.00    -0.075 A 
ATOM      5  S   UNL d   1      -0.601   1.478   0.191  0.00  0.00     0.015 SA
ATOM      6  C4  UNL d   1       0.824   0.788  -0.439  0.00  0.00     0.022 A 
ATOM      7  C5  UNL d   1       0.903  -0.560  -0.180  0.00  0.00     0.026 A 
ATOM      8  C6  UNL d   1      -0.229  -1.054   0.553  0.00  0.00    -0.082 A 
ATOM      9  C7  UNL d   1      -0.531  -2.359   1.013  0.00  0.00     0.045 A 
ENDROOT
TORSDOF 0
ENDMDL
