MODEL 1
REMARK minimizedAffinity -3.78226542
REMARK minimizedRMSD -1
REMARK  0 active torsions:
REMARK  status: ('A' for Active; 'I' for Inactive)
ROOT
ATOM      1  C   UNL d   1      -1.849  -2.523   1.457  0.00  0.00    -0.002 A 
ATOM      2  C1  UNL d   1      -2.627  -1.376   1.532  0.00  0.00     0.010 A 
ATOM      3  C2  UNL d   1      -2.129  -0.150   1.086  0.00  0.00     0.041 A 
ATOM      4  C3  UNL d   1      -0.824  -0.096   0.557  0.00  0.00    -0.075 A 
ATOM      5  S   UNL d   1      -0.006   1.294  -0.050  0.00  0.00     0.015 SA
ATOM      6  C4  UNL d   1       1.395   0.399  -0.423  0.00  0.00     0.022 A 
ATOM      7  C5  UNL d   1       1.259  -0.930  -0.099  0.00  0.00     0.026 A 
ATOM      8  C6  UNL d   1      -0.022  -1.238   0.471  0.00  0.00    -0.082 A 
ATOM      9  C7  UNL d   1      -0.556  -2.465   0.932  0.00  0.00     0.045 A 
ENDROOT
TORSDOF 0
ENDMDL
