MODEL 1
REMARK minimizedAffinity 12.0823755
REMARK minimizedRMSD -1
REMARK  2 active torsions:
REMARK  status: ('A' for Active; 'I' for Inactive)
REMARK    1  A    between atoms: C1_2  and  C2_3 
REMARK    2  A    between atoms: C2_3  and  C3_4 
ROOT
ATOM      1  C3  UNL d   1       2.966  -2.617  -0.861  0.00  0.00    -0.075 A 
ATOM      2  C4  UNL d   1       2.238  -2.754  -2.051  0.00  0.00     0.002 A 
ATOM      3  C5  UNL d   1       1.505  -1.682  -2.561  0.00  0.00     0.002 A 
ATOM      4  C6  UNL d   1       1.484  -0.464  -1.884  0.00  0.00    -0.004 A 
ATOM      5  C7  UNL d   1       2.191  -0.322  -0.692  0.00  0.00     0.002 A 
ATOM      6  C8  UNL d   1       2.928  -1.392  -0.181  0.00  0.00     0.002 A 
ENDROOT
BRANCH   1   7
ATOM      7  C2  UNL d   1       3.785  -3.765  -0.319  0.00  0.00     0.056 C 
BRANCH   7   8
ATOM      8  C1  UNL d   1       4.755  -4.373  -1.337  0.00  0.00     0.007 C 
ATOM      9  C   UNL d   1       4.685  -5.893  -1.399  0.00  0.00     0.009 C 
ENDBRANCH   7   8
ENDBRANCH   1   7
TORSDOF 2
ENDMDL
