MODEL 1
REMARK minimizedAffinity 11.9232368
REMARK minimizedRMSD -1
REMARK  2 active torsions:
REMARK  status: ('A' for Active; 'I' for Inactive)
REMARK    1  A    between atoms: C1_2  and  C2_3 
REMARK    2  A    between atoms: C2_3  and  C3_4 
ROOT
ATOM      1  C3  UNL d   1       2.532  -0.820  -1.210  0.00  0.00    -0.075 A 
ATOM      2  C4  UNL d   1       3.377  -1.689  -0.503  0.00  0.00     0.002 A 
ATOM      3  C5  UNL d   1       3.186  -3.069  -0.566  0.00  0.00     0.002 A 
ATOM      4  C6  UNL d   1       2.145  -3.598  -1.326  0.00  0.00    -0.004 A 
ATOM      5  C7  UNL d   1       1.290  -2.744  -2.018  0.00  0.00     0.002 A 
ATOM      6  C8  UNL d   1       1.481  -1.362  -1.961  0.00  0.00     0.002 A 
ENDROOT
BRANCH   1   7
ATOM      7  C2  UNL d   1       2.751   0.673  -1.170  0.00  0.00     0.056 C 
BRANCH   7   8
ATOM      8  C1  UNL d   1       3.754   1.128  -0.105  0.00  0.00     0.007 C 
ATOM      9  C   UNL d   1       4.998   1.781  -0.692  0.00  0.00     0.009 C 
ENDBRANCH   7   8
ENDBRANCH   1   7
TORSDOF 2
ENDMDL
