MODEL 1
REMARK minimizedAffinity -0.788270712
REMARK minimizedRMSD -1
REMARK  2 active torsions:
REMARK  status: ('A' for Active; 'I' for Inactive)
REMARK    1  A    between atoms: C1_2  and  C2_3 
REMARK    2  A    between atoms: C2_3  and  C3_4 
ROOT
ATOM      1  C3  UNL d   1       3.215  -3.934  -1.385  0.00  0.00    -0.075 A 
ATOM      2  C4  UNL d   1       3.357  -5.329  -1.407  0.00  0.00     0.002 A 
ATOM      3  C5  UNL d   1       3.582  -5.999  -2.610  0.00  0.00     0.002 A 
ATOM      4  C6  UNL d   1       3.658  -5.286  -3.804  0.00  0.00    -0.004 A 
ATOM      5  C7  UNL d   1       3.502  -3.902  -3.796  0.00  0.00     0.002 A 
ATOM      6  C8  UNL d   1       3.281  -3.228  -2.594  0.00  0.00     0.002 A 
ENDROOT
BRANCH   1   7
ATOM      7  C2  UNL d   1       3.000  -3.200  -0.083  0.00  0.00     0.056 C 
BRANCH   7   8
ATOM      8  C1  UNL d   1       3.333  -1.705  -0.147  0.00  0.00     0.007 C 
ATOM      9  C   UNL d   1       4.777  -1.396   0.222  0.00  0.00     0.009 C 
ENDBRANCH   7   8
ENDBRANCH   1   7
TORSDOF 2
ENDMDL
