MODEL 1
REMARK minimizedAffinity 16.388586
REMARK minimizedRMSD -1
REMARK  2 active torsions:
REMARK  status: ('A' for Active; 'I' for Inactive)
REMARK    1  A    between atoms: C1_2  and  C2_3 
REMARK    2  A    between atoms: C2_3  and  C3_4 
ROOT
ATOM      1  C3  UNL d   1      -3.586   1.380   3.732  0.00  0.00    -0.075 A 
ATOM      2  C4  UNL d   1      -4.699   2.234   3.729  0.00  0.00     0.002 A 
ATOM      3  C5  UNL d   1      -4.994   3.017   4.845  0.00  0.00     0.002 A 
ATOM      4  C6  UNL d   1      -4.189   2.950   5.979  0.00  0.00    -0.004 A 
ATOM      5  C7  UNL d   1      -3.090   2.093   6.000  0.00  0.00     0.002 A 
ATOM      6  C8  UNL d   1      -2.790   1.311   4.883  0.00  0.00     0.002 A 
ENDROOT
BRANCH   1   7
ATOM      7  C2  UNL d   1      -3.244   0.552   2.516  0.00  0.00     0.056 C 
BRANCH   7   8
ATOM      8  C1  UNL d   1      -3.686  -0.912   2.615  0.00  0.00     0.007 C 
ATOM      9  C   UNL d   1      -5.040  -1.175   1.970  0.00  0.00     0.009 C 
ENDBRANCH   7   8
ENDBRANCH   1   7
TORSDOF 2
ENDMDL
