MODEL 1
REMARK minimizedAffinity 7.74285889
REMARK minimizedRMSD -1
REMARK  2 active torsions:
REMARK  status: ('A' for Active; 'I' for Inactive)
REMARK    1  A    between atoms: C1_2  and  C2_3 
REMARK    2  A    between atoms: C2_3  and  C3_4 
ROOT
ATOM      1  C3  UNL d   1      -2.688   0.254   2.539  0.00  0.00    -0.075 A 
ATOM      2  C4  UNL d   1      -1.515  -0.514   2.517  0.00  0.00     0.002 A 
ATOM      3  C5  UNL d   1      -0.411  -0.144   3.287  0.00  0.00     0.002 A 
ATOM      4  C6  UNL d   1      -0.463   1.001   4.079  0.00  0.00    -0.004 A 
ATOM      5  C7  UNL d   1      -1.617   1.780   4.096  0.00  0.00     0.002 A 
ATOM      6  C8  UNL d   1      -2.724   1.410   3.330  0.00  0.00     0.002 A 
ENDROOT
BRANCH   1   7
ATOM      7  C2  UNL d   1      -3.895  -0.157   1.731  0.00  0.00     0.056 C 
BRANCH   7   8
ATOM      8  C1  UNL d   1      -4.819  -1.147   2.448  0.00  0.00     0.007 C 
ATOM      9  C   UNL d   1      -5.830  -1.806   1.520  0.00  0.00     0.009 C 
ENDBRANCH   7   8
ENDBRANCH   1   7
TORSDOF 2
ENDMDL
