MODEL 1
REMARK minimizedAffinity 17.1183739
REMARK minimizedRMSD -1
REMARK  2 active torsions:
REMARK  status: ('A' for Active; 'I' for Inactive)
REMARK    1  A    between atoms: C1_2  and  C2_3 
REMARK    2  A    between atoms: C2_3  and  C3_4 
ROOT
ATOM      1  C3  UNL d   1      -0.727   2.126   3.805  0.00  0.00    -0.075 A 
ATOM      2  C4  UNL d   1       0.431   1.543   3.271  0.00  0.00     0.002 A 
ATOM      3  C5  UNL d   1       1.512   1.231   4.095  0.00  0.00     0.002 A 
ATOM      4  C6  UNL d   1       1.454   1.507   5.460  0.00  0.00    -0.004 A 
ATOM      5  C7  UNL d   1       0.316   2.102   5.999  0.00  0.00     0.002 A 
ATOM      6  C8  UNL d   1      -0.770   2.411   5.177  0.00  0.00     0.002 A 
ENDROOT
BRANCH   1   7
ATOM      7  C2  UNL d   1      -1.912   2.440   2.923  0.00  0.00     0.056 C 
BRANCH   7   8
ATOM      8  C1  UNL d   1      -3.103   1.496   3.121  0.00  0.00     0.007 C 
ATOM      9  C   UNL d   1      -3.220   0.440   2.029  0.00  0.00     0.009 C 
ENDBRANCH   7   8
ENDBRANCH   1   7
TORSDOF 2
ENDMDL
