MODEL 1
REMARK minimizedAffinity 1.06523764
REMARK minimizedRMSD -1
REMARK  2 active torsions:
REMARK  status: ('A' for Active; 'I' for Inactive)
REMARK    1  A    between atoms: C1_2  and  C2_3 
REMARK    2  A    between atoms: C2_3  and  C3_4 
ROOT
ATOM      1  C3  UNL d   1       3.194  -3.534  -1.378  0.00  0.00    -0.075 A 
ATOM      2  C4  UNL d   1       4.034  -4.652  -1.484  0.00  0.00     0.002 A 
ATOM      3  C5  UNL d   1       4.154  -5.336  -2.694  0.00  0.00     0.002 A 
ATOM      4  C6  UNL d   1       3.428  -4.919  -3.808  0.00  0.00    -0.004 A 
ATOM      5  C7  UNL d   1       2.578  -3.820  -3.710  0.00  0.00     0.002 A 
ATOM      6  C8  UNL d   1       2.460  -3.131  -2.502  0.00  0.00     0.002 A 
ENDROOT
BRANCH   1   7
ATOM      7  C2  UNL d   1       3.083  -2.772  -0.080  0.00  0.00     0.056 C 
BRANCH   7   8
ATOM      8  C1  UNL d   1       3.797  -1.416  -0.090  0.00  0.00     0.007 C 
ATOM      9  C   UNL d   1       3.039  -0.344  -0.863  0.00  0.00     0.009 C 
ENDBRANCH   7   8
ENDBRANCH   1   7
TORSDOF 2
ENDMDL
