MODEL 1
REMARK minimizedAffinity 1.48521185
REMARK minimizedRMSD -1
REMARK  2 active torsions:
REMARK  status: ('A' for Active; 'I' for Inactive)
REMARK    1  A    between atoms: C1_2  and  C2_3 
REMARK    2  A    between atoms: C2_3  and  C3_4 
ROOT
ATOM      1  C3  UNL d   1       3.675  -4.521  -1.279  0.00  0.00    -0.075 A 
ATOM      2  C4  UNL d   1       2.410  -3.915  -1.290  0.00  0.00     0.002 A 
ATOM      3  C5  UNL d   1       1.777  -3.619  -2.497  0.00  0.00     0.002 A 
ATOM      4  C6  UNL d   1       2.403  -3.913  -3.706  0.00  0.00    -0.004 A 
ATOM      5  C7  UNL d   1       3.667  -4.500  -3.707  0.00  0.00     0.002 A 
ATOM      6  C8  UNL d   1       4.301  -4.802  -2.501  0.00  0.00     0.002 A 
ENDROOT
BRANCH   1   7
ATOM      7  C2  UNL d   1       4.352  -4.872   0.024  0.00  0.00     0.056 C 
BRANCH   7   8
ATOM      8  C1  UNL d   1       5.820  -4.438   0.101  0.00  0.00     0.007 C 
ATOM      9  C   UNL d   1       5.996  -2.987   0.527  0.00  0.00     0.009 C 
ENDBRANCH   7   8
ENDBRANCH   1   7
TORSDOF 2
ENDMDL
