MODEL 1
REMARK minimizedAffinity 9.27297401
REMARK minimizedRMSD -1
REMARK  2 active torsions:
REMARK  status: ('A' for Active; 'I' for Inactive)
REMARK    1  A    between atoms: C1_2  and  C2_3 
REMARK    2  A    between atoms: C2_3  and  C3_4 
ROOT
ATOM      1  C3  UNL d   1       4.201  -4.854  -2.437  0.00  0.00    -0.075 A 
ATOM      2  C4  UNL d   1       2.895  -4.351  -2.334  0.00  0.00     0.002 A 
ATOM      3  C5  UNL d   1       2.280  -3.748  -3.431  0.00  0.00     0.002 A 
ATOM      4  C6  UNL d   1       2.963  -3.631  -4.639  0.00  0.00    -0.004 A 
ATOM      5  C7  UNL d   1       4.266  -4.112  -4.748  0.00  0.00     0.002 A 
ATOM      6  C8  UNL d   1       4.883  -4.720  -3.654  0.00  0.00     0.002 A 
ENDROOT
BRANCH   1   7
ATOM      7  C2  UNL d   1       4.861  -5.535  -1.262  0.00  0.00     0.056 C 
BRANCH   7   8
ATOM      8  C1  UNL d   1       4.764  -4.749   0.050  0.00  0.00     0.007 C 
ATOM      9  C   UNL d   1       5.999  -3.906   0.338  0.00  0.00     0.009 C 
ENDBRANCH   7   8
ENDBRANCH   1   7
TORSDOF 2
ENDMDL
