MODEL 1
REMARK minimizedAffinity -3.31533265
REMARK minimizedRMSD -1
REMARK  2 active torsions:
REMARK  status: ('A' for Active; 'I' for Inactive)
REMARK    1  A    between atoms: C1_2  and  C2_3 
REMARK    2  A    between atoms: C2_3  and  C3_4 
ROOT
ATOM      1  C3  UNL d   1       3.250  -4.142  -3.725  0.00  0.00    -0.075 A 
ATOM      2  C4  UNL d   1       3.073  -3.447  -4.931  0.00  0.00     0.002 A 
ATOM      3  C5  UNL d   1       3.948  -3.648  -5.999  0.00  0.00     0.002 A 
ATOM      4  C6  UNL d   1       5.014  -4.535  -5.873  0.00  0.00    -0.004 A 
ATOM      5  C7  UNL d   1       5.210  -5.218  -4.674  0.00  0.00     0.002 A 
ATOM      6  C8  UNL d   1       4.333  -5.023  -3.605  0.00  0.00     0.002 A 
ENDROOT
BRANCH   1   7
ATOM      7  C2  UNL d   1       2.290  -3.951  -2.576  0.00  0.00     0.056 C 
BRANCH   7   8
ATOM      8  C1  UNL d   1       2.026  -2.484  -2.220  0.00  0.00     0.007 C 
ATOM      9  C   UNL d   1       2.498  -2.112  -0.821  0.00  0.00     0.009 C 
ENDBRANCH   7   8
ENDBRANCH   1   7
TORSDOF 2
ENDMDL
