MODEL 1
REMARK minimizedAffinity 5.39824247
REMARK minimizedRMSD -1
REMARK  2 active torsions:
REMARK  status: ('A' for Active; 'I' for Inactive)
REMARK    1  A    between atoms: C1_2  and  C2_3 
REMARK    2  A    between atoms: C2_3  and  C3_4 
ROOT
ATOM      1  C3  UNL d   1       1.929   0.915  -1.424  0.00  0.00    -0.075 A 
ATOM      2  C4  UNL d   1       2.149   0.050  -0.342  0.00  0.00     0.002 A 
ATOM      3  C5  UNL d   1       2.068  -1.332  -0.512  0.00  0.00     0.002 A 
ATOM      4  C6  UNL d   1       1.755  -1.866  -1.761  0.00  0.00    -0.004 A 
ATOM      5  C7  UNL d   1       1.518  -1.016  -2.838  0.00  0.00     0.002 A 
ATOM      6  C8  UNL d   1       1.603   0.367  -2.672  0.00  0.00     0.002 A 
ENDROOT
BRANCH   1   7
ATOM      7  C2  UNL d   1       2.045   2.411  -1.254  0.00  0.00     0.056 C 
BRANCH   7   8
ATOM      8  C1  UNL d   1       1.908   2.886   0.197  0.00  0.00     0.007 C 
ATOM      9  C   UNL d   1       1.316   4.284   0.318  0.00  0.00     0.009 C 
ENDBRANCH   7   8
ENDBRANCH   1   7
TORSDOF 2
ENDMDL
