MODEL 1
REMARK minimizedAffinity 2.65418792
REMARK minimizedRMSD -1
REMARK  2 active torsions:
REMARK  status: ('A' for Active; 'I' for Inactive)
REMARK    1  A    between atoms: C1_2  and  C2_3 
REMARK    2  A    between atoms: C2_3  and  C3_4 
ROOT
ATOM      1  C3  UNL d   1       3.496  -3.572  -1.201  0.00  0.00    -0.075 A 
ATOM      2  C4  UNL d   1       4.619  -4.354  -1.509  0.00  0.00     0.002 A 
ATOM      3  C5  UNL d   1       4.850  -4.777  -2.818  0.00  0.00     0.002 A 
ATOM      4  C6  UNL d   1       3.959  -4.433  -3.832  0.00  0.00    -0.004 A 
ATOM      5  C7  UNL d   1       2.831  -3.671  -3.535  0.00  0.00     0.002 A 
ATOM      6  C8  UNL d   1       2.600  -3.242  -2.226  0.00  0.00     0.002 A 
ENDROOT
BRANCH   1   7
ATOM      7  C2  UNL d   1       3.256  -3.086   0.208  0.00  0.00     0.056 C 
BRANCH   7   8
ATOM      8  C1  UNL d   1       3.917  -1.741   0.526  0.00  0.00     0.007 C 
ATOM      9  C   UNL d   1       3.047  -0.544   0.164  0.00  0.00     0.009 C 
ENDBRANCH   7   8
ENDBRANCH   1   7
TORSDOF 2
ENDMDL
