MODEL 1
REMARK minimizedAffinity 6.45327759
REMARK minimizedRMSD -1
REMARK  2 active torsions:
REMARK  status: ('A' for Active; 'I' for Inactive)
REMARK    1  A    between atoms: C1_2  and  C2_3 
REMARK    2  A    between atoms: C2_3  and  C3_4 
ROOT
ATOM      1  C3  UNL d   1      -3.581   0.267   3.695  0.00  0.00    -0.075 A 
ATOM      2  C4  UNL d   1      -3.955  -0.231   2.438  0.00  0.00     0.002 A 
ATOM      3  C5  UNL d   1      -4.359  -1.558   2.293  0.00  0.00     0.002 A 
ATOM      4  C6  UNL d   1      -4.386  -2.406   3.399  0.00  0.00    -0.004 A 
ATOM      5  C7  UNL d   1      -4.001  -1.927   4.649  0.00  0.00     0.002 A 
ATOM      6  C8  UNL d   1      -3.600  -0.598   4.797  0.00  0.00     0.002 A 
ENDROOT
BRANCH   1   7
ATOM      7  C2  UNL d   1      -3.171   1.710   3.863  0.00  0.00     0.056 C 
BRANCH   7   8
ATOM      8  C1  UNL d   1      -3.650   2.346   5.172  0.00  0.00     0.007 C 
ATOM      9  C   UNL d   1      -4.967   3.097   5.028  0.00  0.00     0.009 C 
ENDBRANCH   7   8
ENDBRANCH   1   7
TORSDOF 2
ENDMDL
