MODEL 1
REMARK minimizedAffinity -5.98742819
REMARK minimizedRMSD -1
REMARK  3 active torsions:
REMARK  status: ('A' for Active; 'I' for Inactive)
REMARK    1  A    between atoms: C3'_2  and  C2'_3 
REMARK    2  A    between atoms: C2'_3  and  C1'_4 
REMARK    3  A    between atoms: C1'_4  and  C1_5 
ROOT
ATOM      1  C1  N4B d   1      -0.417  -0.852   0.459  0.00  0.00    -0.075 A 
ATOM      2  C2  N4B d   1      -1.523  -0.729  -0.411  0.00  0.00     0.002 A 
ATOM      3  C3  N4B d   1      -2.597  -1.575  -0.279  0.00  0.00     0.002 A 
ATOM      4  C4  N4B d   1      -2.580  -2.558   0.698  0.00  0.00    -0.004 A 
ATOM      5  C5  N4B d   1      -1.519  -2.654   1.551  0.00  0.00     0.002 A 
ATOM      6  C6  N4B d   1      -0.435  -1.808   1.433  0.00  0.00     0.002 A 
ENDROOT
BRANCH   1   7
ATOM      7  C1' N4B d   1       0.817  -0.007   0.299  0.00  0.00     0.057 C 
BRANCH   7   8
ATOM      8  C2' N4B d   1       0.582   1.351   0.954  0.00  0.00     0.009 C 
BRANCH   8   9
ATOM      9  C3' N4B d   1       1.846   1.899   1.595  0.00  0.00     0.004 C 
ATOM     10  C4' N4B d   1       2.525   2.934   0.748  0.00  0.00     0.003 C 
ENDBRANCH   8   9
ENDBRANCH   7   8
ENDBRANCH   1   7
TORSDOF 3
ENDMDL
