MODEL 1
REMARK minimizedAffinity -3.94367933
REMARK minimizedRMSD -1
REMARK  3 active torsions:
REMARK  status: ('A' for Active; 'I' for Inactive)
REMARK    1  A    between atoms: C3'_2  and  C2'_3 
REMARK    2  A    between atoms: C2'_3  and  C1'_4 
REMARK    3  A    between atoms: C1'_4  and  C1_5 
ROOT
ATOM      1  C1  N4B d   1      -1.429  -0.786   0.696  0.00  0.00    -0.075 A 
ATOM      2  C2  N4B d   1      -1.000  -1.842   1.531  0.00  0.00     0.002 A 
ATOM      3  C3  N4B d   1      -1.721  -3.009   1.587  0.00  0.00     0.002 A 
ATOM      4  C4  N4B d   1      -2.880  -3.137   0.835  0.00  0.00    -0.004 A 
ATOM      5  C5  N4B d   1      -3.273  -2.122   0.011  0.00  0.00     0.002 A 
ATOM      6  C6  N4B d   1      -2.556  -0.945  -0.058  0.00  0.00     0.002 A 
ENDROOT
BRANCH   1   7
ATOM      7  C1' N4B d   1      -0.721   0.541   0.666  0.00  0.00     0.057 C 
BRANCH   7   8
ATOM      8  C2' N4B d   1       0.286   0.546  -0.480  0.00  0.00     0.009 C 
BRANCH   8   9
ATOM      9  C3' N4B d   1       1.699   0.270   0.004  0.00  0.00     0.004 C 
ATOM     10  C4' N4B d   1       2.467   1.523   0.301  0.00  0.00     0.003 C 
ENDBRANCH   8   9
ENDBRANCH   7   8
ENDBRANCH   1   7
TORSDOF 3
ENDMDL
