MODEL 1
REMARK minimizedAffinity -4.50594378
REMARK minimizedRMSD -1
REMARK  3 active torsions:
REMARK  status: ('A' for Active; 'I' for Inactive)
REMARK    1  A    between atoms: C3'_2  and  C2'_3 
REMARK    2  A    between atoms: C2'_3  and  C1'_4 
REMARK    3  A    between atoms: C1'_4  and  C1_5 
ROOT
ATOM      1  C1  N4B d   1       0.110  -0.157  -0.373  0.00  0.00    -0.075 A 
ATOM      2  C2  N4B d   1      -0.568  -1.109   0.419  0.00  0.00     0.002 A 
ATOM      3  C3  N4B d   1      -1.853  -1.476   0.101  0.00  0.00     0.002 A 
ATOM      4  C4  N4B d   1      -2.484  -0.892  -0.987  0.00  0.00    -0.004 A 
ATOM      5  C5  N4B d   1      -1.813   0.008  -1.762  0.00  0.00     0.002 A 
ATOM      6  C6  N4B d   1      -0.520   0.383  -1.457  0.00  0.00     0.002 A 
ENDROOT
BRANCH   1   7
ATOM      7  C1' N4B d   1       1.484   0.339  -0.015  0.00  0.00     0.057 C 
BRANCH   7   8
ATOM      8  C2' N4B d   1       1.358   1.652   0.753  0.00  0.00     0.009 C 
BRANCH   8   9
ATOM      9  C3' N4B d   1       2.715   2.256   1.072  0.00  0.00     0.004 C 
ATOM     10  C4' N4B d   1       2.631   3.703   1.454  0.00  0.00     0.003 C 
ENDBRANCH   8   9
ENDBRANCH   7   8
ENDBRANCH   1   7
TORSDOF 3
ENDMDL
