MODEL 1
REMARK minimizedAffinity -5.60099459
REMARK minimizedRMSD -1
REMARK  3 active torsions:
REMARK  status: ('A' for Active; 'I' for Inactive)
REMARK    1  A    between atoms: C3'_2  and  C2'_3 
REMARK    2  A    between atoms: C2'_3  and  C1'_4 
REMARK    3  A    between atoms: C1'_4  and  C1_5 
ROOT
ATOM      1  C1  N4B d   1      -1.045  -0.450   1.010  0.00  0.00    -0.075 A 
ATOM      2  C2  N4B d   1      -0.713  -1.783   1.336  0.00  0.00     0.002 A 
ATOM      3  C3  N4B d   1      -1.606  -2.795   1.079  0.00  0.00     0.002 A 
ATOM      4  C4  N4B d   1      -2.837  -2.496   0.516  0.00  0.00    -0.004 A 
ATOM      5  C5  N4B d   1      -3.139  -1.209   0.180  0.00  0.00     0.002 A 
ATOM      6  C6  N4B d   1      -2.250  -0.183   0.429  0.00  0.00     0.002 A 
ENDROOT
BRANCH   1   7
ATOM      7  C1' N4B d   1      -0.137   0.701   1.351  0.00  0.00     0.057 C 
BRANCH   7   8
ATOM      8  C2' N4B d   1       0.211   1.459   0.073  0.00  0.00     0.009 C 
BRANCH   8   9
ATOM      9  C3' N4B d   1       1.009   0.604  -0.896  0.00  0.00     0.004 C 
ATOM     10  C4' N4B d   1       0.313   0.413  -2.210  0.00  0.00     0.003 C 
ENDBRANCH   8   9
ENDBRANCH   7   8
ENDBRANCH   1   7
TORSDOF 3
ENDMDL
