MODEL 1
REMARK minimizedAffinity -5.29456854
REMARK minimizedRMSD -1
REMARK  3 active torsions:
REMARK  status: ('A' for Active; 'I' for Inactive)
REMARK    1  A    between atoms: C3'_2  and  C2'_3 
REMARK    2  A    between atoms: C2'_3  and  C1'_4 
REMARK    3  A    between atoms: C1'_4  and  C1_5 
ROOT
ATOM      1  C1  N4B d   1       0.060   0.014  -0.355  0.00  0.00    -0.075 A 
ATOM      2  C2  N4B d   1      -0.516   0.127  -1.639  0.00  0.00     0.002 A 
ATOM      3  C3  N4B d   1      -1.848  -0.155  -1.821  0.00  0.00     0.002 A 
ATOM      4  C4  N4B d   1      -2.615  -0.567  -0.741  0.00  0.00    -0.004 A 
ATOM      5  C5  N4B d   1      -2.057  -0.648   0.501  0.00  0.00     0.002 A 
ATOM      6  C6  N4B d   1      -0.720  -0.364   0.698  0.00  0.00     0.002 A 
ENDROOT
BRANCH   1   7
ATOM      7  C1' N4B d   1       1.531   0.228  -0.124  0.00  0.00     0.057 C 
BRANCH   7   8
ATOM      8  C2' N4B d   1       1.728   0.980   1.189  0.00  0.00     0.009 C 
BRANCH   8   9
ATOM      9  C3' N4B d   1       2.644   2.180   1.026  0.00  0.00     0.004 C 
ATOM     10  C4' N4B d   1       3.106   2.370  -0.389  0.00  0.00     0.003 C 
ENDBRANCH   8   9
ENDBRANCH   7   8
ENDBRANCH   1   7
TORSDOF 3
ENDMDL
