MODEL 1
REMARK minimizedAffinity -3.7574873
REMARK minimizedRMSD -1
REMARK  3 active torsions:
REMARK  status: ('A' for Active; 'I' for Inactive)
REMARK    1  A    between atoms: C3'_2  and  C2'_3 
REMARK    2  A    between atoms: C2'_3  and  C1'_4 
REMARK    3  A    between atoms: C1'_4  and  C1_5 
ROOT
ATOM      1  C1  N4B d   1      -0.473   0.051   0.338  0.00  0.00    -0.075 A 
ATOM      2  C2  N4B d   1      -0.757   0.264  -1.029  0.00  0.00     0.002 A 
ATOM      3  C3  N4B d   1      -2.005  -0.026  -1.523  0.00  0.00     0.002 A 
ATOM      4  C4  N4B d   1      -2.974  -0.545  -0.678  0.00  0.00    -0.004 A 
ATOM      5  C5  N4B d   1      -2.699  -0.725   0.646  0.00  0.00     0.002 A 
ATOM      6  C6  N4B d   1      -1.450  -0.434   1.158  0.00  0.00     0.002 A 
ENDROOT
BRANCH   1   7
ATOM      7  C1' N4B d   1       0.902   0.272   0.907  0.00  0.00     0.057 C 
BRANCH   7   8
ATOM      8  C2' N4B d   1       1.904   0.392  -0.238  0.00  0.00     0.009 C 
BRANCH   8   9
ATOM      9  C3' N4B d   1       2.829   1.584  -0.060  0.00  0.00     0.004 C 
ATOM     10  C4' N4B d   1       2.725   2.202   1.302  0.00  0.00     0.003 C 
ENDBRANCH   8   9
ENDBRANCH   7   8
ENDBRANCH   1   7
TORSDOF 3
ENDMDL
