MODEL 1
REMARK minimizedAffinity -4.84418297
REMARK minimizedRMSD -1
REMARK  3 active torsions:
REMARK  status: ('A' for Active; 'I' for Inactive)
REMARK    1  A    between atoms: C3'_2  and  C2'_3 
REMARK    2  A    between atoms: C2'_3  and  C1'_4 
REMARK    3  A    between atoms: C1'_4  and  C1_5 
ROOT
ATOM      1  C1  N4B d   1      -0.022  -0.530   0.022  0.00  0.00    -0.075 A 
ATOM      2  C2  N4B d   1      -0.731  -1.149   1.075  0.00  0.00     0.002 A 
ATOM      3  C3  N4B d   1      -2.076  -1.396   0.945  0.00  0.00     0.002 A 
ATOM      4  C4  N4B d   1      -2.734  -1.017  -0.216  0.00  0.00    -0.004 A 
ATOM      5  C5  N4B d   1      -2.036  -0.443  -1.238  0.00  0.00     0.002 A 
ATOM      6  C6  N4B d   1      -0.684  -0.192  -1.123  0.00  0.00     0.002 A 
ENDROOT
BRANCH   1   7
ATOM      7  C1' N4B d   1       1.431  -0.162   0.152  0.00  0.00     0.057 C 
BRANCH   7   8
ATOM      8  C2' N4B d   1       1.578   0.929   1.209  0.00  0.00     0.009 C 
BRANCH   8   9
ATOM      9  C3' N4B d   1       2.597   1.980   0.802  0.00  0.00     0.004 C 
ATOM     10  C4' N4B d   1       2.816   3.018   1.862  0.00  0.00     0.003 C 
ENDBRANCH   8   9
ENDBRANCH   7   8
ENDBRANCH   1   7
TORSDOF 3
ENDMDL
