MODEL 1
REMARK minimizedAffinity -4.82028818
REMARK minimizedRMSD -1
REMARK  3 active torsions:
REMARK  status: ('A' for Active; 'I' for Inactive)
REMARK    1  A    between atoms: C3'_2  and  C2'_3 
REMARK    2  A    between atoms: C2'_3  and  C1'_4 
REMARK    3  A    between atoms: C1'_4  and  C1_5 
ROOT
ATOM      1  C1  N4B d   1       0.074  -0.178  -0.060  0.00  0.00    -0.075 A 
ATOM      2  C2  N4B d   1      -0.161   0.749  -1.099  0.00  0.00     0.002 A 
ATOM      3  C3  N4B d   1      -1.370   0.756  -1.751  0.00  0.00     0.002 A 
ATOM      4  C4  N4B d   1      -2.347  -0.161  -1.395  0.00  0.00    -0.004 A 
ATOM      5  C5  N4B d   1      -2.121  -1.036  -0.373  0.00  0.00     0.002 A 
ATOM      6  C6  N4B d   1      -0.912  -1.052   0.294  0.00  0.00     0.002 A 
ENDROOT
BRANCH   1   7
ATOM      7  C1' N4B d   1       1.410  -0.281   0.624  0.00  0.00     0.057 C 
BRANCH   7   8
ATOM      8  C2' N4B d   1       2.239   0.957   0.294  0.00  0.00     0.009 C 
BRANCH   8   9
ATOM      9  C3' N4B d   1       2.569   1.767   1.536  0.00  0.00     0.004 C 
ATOM     10  C4' N4B d   1       2.802   3.218   1.238  0.00  0.00     0.003 C 
ENDBRANCH   8   9
ENDBRANCH   7   8
ENDBRANCH   1   7
TORSDOF 3
ENDMDL
