MODEL 1
REMARK minimizedAffinity -5.45526791
REMARK minimizedRMSD -1
REMARK  3 active torsions:
REMARK  status: ('A' for Active; 'I' for Inactive)
REMARK    1  A    between atoms: C3'_2  and  C2'_3 
REMARK    2  A    between atoms: C2'_3  and  C1'_4 
REMARK    3  A    between atoms: C1'_4  and  C1_5 
ROOT
ATOM      1  C1  N4B d   1      -1.933  -0.323  -0.163  0.00  0.00    -0.075 A 
ATOM      2  C2  N4B d   1      -1.683   0.043  -1.504  0.00  0.00     0.002 A 
ATOM      3  C3  N4B d   1      -0.431   0.466  -1.878  0.00  0.00     0.002 A 
ATOM      4  C4  N4B d   1       0.577   0.548  -0.930  0.00  0.00    -0.004 A 
ATOM      5  C5  N4B d   1       0.335   0.168   0.358  0.00  0.00     0.002 A 
ATOM      6  C6  N4B d   1      -0.918  -0.262   0.747  0.00  0.00     0.002 A 
ENDROOT
BRANCH   1   7
ATOM      7  C1' N4B d   1      -3.307  -0.709   0.312  0.00  0.00     0.057 C 
BRANCH   7   8
ATOM      8  C2' N4B d   1      -3.416  -2.231   0.343  0.00  0.00     0.009 C 
BRANCH   8   9
ATOM      9  C3' N4B d   1      -2.605  -2.836   1.475  0.00  0.00     0.004 C 
ATOM     10  C4' N4B d   1      -1.821  -4.041   1.049  0.00  0.00     0.003 C 
ENDBRANCH   8   9
ENDBRANCH   7   8
ENDBRANCH   1   7
TORSDOF 3
ENDMDL
