MODEL 1
REMARK minimizedAffinity 5.03817558
REMARK minimizedRMSD -1
REMARK  1 active torsions:
REMARK  status: ('A' for Active; 'I' for Inactive)
REMARK    1  A    between atoms: C1_2  and  C2_3 
ROOT
ATOM      1  C2  UNL d   1       0.219   1.740   0.867  0.00  0.00    -0.076 A 
ATOM      2  C3  UNL d   1       1.349   1.682   1.702  0.00  0.00     0.004 A 
ATOM      3  C4  UNL d   1       2.534   1.092   1.266  0.00  0.00    -0.003 A 
ATOM      4  C5  UNL d   1       2.609   0.551  -0.013  0.00  0.00     0.000 A 
ATOM      5  C6  UNL d   1       1.504   0.615  -0.861  0.00  0.00     0.000 A 
ATOM      6  C7  UNL d   1       0.306   1.221  -0.442  0.00  0.00    -0.073 A 
ATOM      7  C8  UNL d   1      -0.856   1.257  -1.396  0.00  0.00     0.078 C 
ENDROOT
BRANCH   1   8
ATOM      8  C1  UNL d   1      -1.047   2.368   1.404  0.00  0.00     0.053 C 
ATOM      9  C   UNL d   1      -0.871   3.842   1.737  0.00  0.00     0.018 C 
ENDBRANCH   1   8
TORSDOF 1
ENDMDL
