MODEL 1
REMARK minimizedAffinity 13.9810524
REMARK minimizedRMSD -1
REMARK  1 active torsions:
REMARK  status: ('A' for Active; 'I' for Inactive)
REMARK    1  A    between atoms: C1_2  and  C2_3 
ROOT
ATOM      1  C2  UNL d   1       3.939   0.297  -0.766  0.00  0.00    -0.076 A 
ATOM      2  C3  UNL d   1       4.063   0.701   0.575  0.00  0.00     0.004 A 
ATOM      3  C4  UNL d   1       5.085   1.560   0.974  0.00  0.00    -0.003 A 
ATOM      4  C5  UNL d   1       6.000   2.031   0.038  0.00  0.00     0.000 A 
ATOM      5  C6  UNL d   1       5.881   1.655  -1.299  0.00  0.00     0.000 A 
ATOM      6  C7  UNL d   1       4.847   0.802  -1.721  0.00  0.00    -0.073 A 
ATOM      7  C8  UNL d   1       4.770   0.424  -3.175  0.00  0.00     0.078 C 
ENDROOT
BRANCH   1   8
ATOM      8  C1  UNL d   1       2.826  -0.658  -1.134  0.00  0.00     0.053 C 
ATOM      9  C   UNL d   1       2.920  -1.978  -0.385  0.00  0.00     0.018 C 
ENDBRANCH   1   8
TORSDOF 1
ENDMDL
