MODEL 1
REMARK minimizedAffinity 17.2221794
REMARK minimizedRMSD -1
REMARK  1 active torsions:
REMARK  status: ('A' for Active; 'I' for Inactive)
REMARK    1  A    between atoms: C1_2  and  C2_3 
ROOT
ATOM      1  C2  UNL d   1      -5.235   2.272  -3.958  0.00  0.00    -0.076 A 
ATOM      2  C3  UNL d   1      -5.958   3.468  -4.110  0.00  0.00     0.004 A 
ATOM      3  C4  UNL d   1      -5.308   4.700  -4.144  0.00  0.00    -0.003 A 
ATOM      4  C5  UNL d   1      -3.923   4.756  -4.027  0.00  0.00     0.000 A 
ATOM      5  C6  UNL d   1      -3.189   3.579  -3.894  0.00  0.00     0.000 A 
ATOM      6  C7  UNL d   1      -3.828   2.327  -3.874  0.00  0.00    -0.073 A 
ATOM      7  C8  UNL d   1      -2.987   1.089  -3.722  0.00  0.00     0.078 C 
ENDROOT
BRANCH   1   8
ATOM      8  C1  UNL d   1      -5.998   0.968  -3.901  0.00  0.00     0.053 C 
ATOM      9  C   UNL d   1      -5.995   0.232  -5.232  0.00  0.00     0.018 C 
ENDBRANCH   1   8
TORSDOF 1
ENDMDL
