MODEL 1
REMARK minimizedAffinity 6.02680969
REMARK minimizedRMSD -1
REMARK  1 active torsions:
REMARK  status: ('A' for Active; 'I' for Inactive)
REMARK    1  A    between atoms: C1_2  and  C2_3 
ROOT
ATOM      1  C2  UNL d   1       0.152  -4.215   4.655  0.00  0.00    -0.076 A 
ATOM      2  C3  UNL d   1      -0.298  -5.495   4.290  0.00  0.00     0.004 A 
ATOM      3  C4  UNL d   1      -1.503  -5.999   4.780  0.00  0.00    -0.003 A 
ATOM      4  C5  UNL d   1      -2.276  -5.229   5.641  0.00  0.00     0.000 A 
ATOM      5  C6  UNL d   1      -1.854  -3.950   5.999  0.00  0.00     0.000 A 
ATOM      6  C7  UNL d   1      -0.650  -3.421   5.502  0.00  0.00    -0.073 A 
ATOM      7  C8  UNL d   1      -0.240  -2.037   5.926  0.00  0.00     0.078 C 
ENDROOT
BRANCH   1   8
ATOM      8  C1  UNL d   1       1.479  -3.732   4.114  0.00  0.00     0.053 C 
ATOM      9  C   UNL d   1       1.317  -2.725   2.986  0.00  0.00     0.018 C 
ENDBRANCH   1   8
TORSDOF 1
ENDMDL
