MODEL 1
REMARK minimizedAffinity 5.93715668
REMARK minimizedRMSD -1
REMARK  1 active torsions:
REMARK  status: ('A' for Active; 'I' for Inactive)
REMARK    1  A    between atoms: C1_2  and  C2_3 
ROOT
ATOM      1  C2  UNL d   1       2.219  -2.228  -0.555  0.00  0.00    -0.076 A 
ATOM      2  C3  UNL d   1       1.654  -2.101  -1.836  0.00  0.00     0.004 A 
ATOM      3  C4  UNL d   1       0.490  -2.788  -2.178  0.00  0.00    -0.003 A 
ATOM      4  C5  UNL d   1      -0.128  -3.612  -1.244  0.00  0.00     0.000 A 
ATOM      5  C6  UNL d   1       0.409  -3.736   0.037  0.00  0.00     0.000 A 
ATOM      6  C7  UNL d   1       1.572  -3.038   0.403  0.00  0.00    -0.073 A 
ATOM      7  C8  UNL d   1       2.111  -3.213   1.797  0.00  0.00     0.078 C 
ENDROOT
BRANCH   1   8
ATOM      8  C1  UNL d   1       3.497  -1.480  -0.250  0.00  0.00     0.053 C 
ATOM      9  C   UNL d   1       3.370   0.015  -0.496  0.00  0.00     0.018 C 
ENDBRANCH   1   8
TORSDOF 1
ENDMDL
