MODEL 1
REMARK minimizedAffinity 8.23672962
REMARK minimizedRMSD -1
REMARK  1 active torsions:
REMARK  status: ('A' for Active; 'I' for Inactive)
REMARK    1  A    between atoms: C1_2  and  C2_3 
ROOT
ATOM      1  C2  UNL d   1       4.333   0.289  -0.174  0.00  0.00    -0.076 A 
ATOM      2  C3  UNL d   1       3.112   0.497  -0.840  0.00  0.00     0.004 A 
ATOM      3  C4  UNL d   1       2.128  -0.489  -0.860  0.00  0.00    -0.003 A 
ATOM      4  C5  UNL d   1       2.348  -1.701  -0.213  0.00  0.00     0.000 A 
ATOM      5  C6  UNL d   1       3.546  -1.918   0.467  0.00  0.00     0.000 A 
ATOM      6  C7  UNL d   1       4.542  -0.927   0.510  0.00  0.00    -0.073 A 
ATOM      7  C8  UNL d   1       5.817  -1.217   1.254  0.00  0.00     0.078 C 
ENDROOT
BRANCH   1   8
ATOM      8  C1  UNL d   1       5.374   1.385  -0.210  0.00  0.00     0.053 C 
ATOM      9  C   UNL d   1       5.395   2.125  -1.539  0.00  0.00     0.018 C 
ENDBRANCH   1   8
TORSDOF 1
ENDMDL
