MODEL 1
REMARK minimizedAffinity 11.3804541
REMARK minimizedRMSD -1
REMARK  1 active torsions:
REMARK  status: ('A' for Active; 'I' for Inactive)
REMARK    1  A    between atoms: C1_2  and  C2_3 
ROOT
ATOM      1  C2  UNL d   1       1.357   0.489   0.351  0.00  0.00    -0.076 A 
ATOM      2  C3  UNL d   1       0.663   0.751  -0.844  0.00  0.00     0.004 A 
ATOM      3  C4  UNL d   1      -0.670   1.157  -0.825  0.00  0.00    -0.003 A 
ATOM      4  C5  UNL d   1      -1.332   1.308   0.389  0.00  0.00     0.000 A 
ATOM      5  C6  UNL d   1      -0.654   1.070   1.584  0.00  0.00     0.000 A 
ATOM      6  C7  UNL d   1       0.695   0.676   1.583  0.00  0.00    -0.073 A 
ATOM      7  C8  UNL d   1       1.375   0.426   2.902  0.00  0.00     0.078 C 
ENDROOT
BRANCH   1   8
ATOM      8  C1  UNL d   1       2.793   0.026   0.267  0.00  0.00     0.053 C 
ATOM      9  C   UNL d   1       3.535   0.636  -0.912  0.00  0.00     0.018 C 
ENDBRANCH   1   8
TORSDOF 1
ENDMDL
