MODEL 1
REMARK minimizedAffinity 6.77895498
REMARK minimizedRMSD -1
REMARK  1 active torsions:
REMARK  status: ('A' for Active; 'I' for Inactive)
REMARK    1  A    between atoms: C1_2  and  C2_3 
ROOT
ATOM      1  C2  UNL d   1      -3.331   0.877  -0.203  0.00  0.00    -0.076 A 
ATOM      2  C3  UNL d   1      -2.463   0.516  -1.248  0.00  0.00     0.004 A 
ATOM      3  C4  UNL d   1      -1.113   0.863  -1.212  0.00  0.00    -0.003 A 
ATOM      4  C5  UNL d   1      -0.610   1.576  -0.130  0.00  0.00     0.000 A 
ATOM      5  C6  UNL d   1      -1.452   1.927   0.924  0.00  0.00     0.000 A 
ATOM      6  C7  UNL d   1      -2.812   1.571   0.911  0.00  0.00    -0.073 A 
ATOM      7  C8  UNL d   1      -3.676   1.981   2.072  0.00  0.00     0.078 C 
ENDROOT
BRANCH   1   8
ATOM      8  C1  UNL d   1      -4.790   0.497  -0.310  0.00  0.00     0.053 C 
ATOM      9  C   UNL d   1      -5.689   1.699  -0.556  0.00  0.00     0.018 C 
ENDBRANCH   1   8
TORSDOF 1
ENDMDL
