MODEL 1
REMARK minimizedAffinity -3.95683408
REMARK minimizedRMSD -1
REMARK  0 active torsions:
REMARK  status: ('A' for Active; 'I' for Inactive)
ROOT
ATOM      1  C4' PXY d   1       1.164  -2.489  -1.119  0.00  0.00     0.077 C 
ATOM      2  C1' PXY d   1      -1.954   1.433   1.764  0.00  0.00     0.077 C 
ATOM      3  C1  PXY d   1      -1.144   0.406   0.998  0.00  0.00    -0.082 A 
ATOM      4  C2  PXY d   1      -0.439  -0.497   1.659  0.00  0.00     0.003 A 
ATOM      5  C3  PXY d   1       0.325  -1.413   0.982  0.00  0.00     0.003 A 
ATOM      6  C4  PXY d   1       0.324  -1.439  -0.387  0.00  0.00    -0.082 A 
ATOM      7  C5  PXY d   1      -0.401  -0.527  -1.069  0.00  0.00     0.003 A 
ATOM      8  C6  PXY d   1      -1.137   0.420  -0.363  0.00  0.00     0.003 A 
ENDROOT
TORSDOF 0
ENDMDL
