MODEL 1
REMARK minimizedAffinity -2.65326548
REMARK minimizedRMSD -1
REMARK  0 active torsions:
REMARK  status: ('A' for Active; 'I' for Inactive)
ROOT
ATOM      1  C4' PXY d   1      -1.558   2.918   2.001  0.00  0.00     0.077 C 
ATOM      2  C1' PXY d   1       0.995  -1.146  -1.221  0.00  0.00     0.077 C 
ATOM      3  C1  PXY d   1       0.334  -0.071  -0.381  0.00  0.00    -0.082 A 
ATOM      4  C2  PXY d   1      -0.331  -0.411   0.711  0.00  0.00     0.003 A 
ATOM      5  C3  PXY d   1      -0.962   0.544   1.465  0.00  0.00     0.003 A 
ATOM      6  C4  PXY d   1      -0.866   1.868   1.127  0.00  0.00    -0.082 A 
ATOM      7  C5  PXY d   1      -0.180   2.224   0.021  0.00  0.00     0.003 A 
ATOM      8  C6  PXY d   1       0.418   1.235  -0.754  0.00  0.00     0.003 A 
ENDROOT
TORSDOF 0
ENDMDL
