MODEL 1
REMARK minimizedAffinity -5.30595064
REMARK minimizedRMSD -1
REMARK  0 active torsions:
REMARK  status: ('A' for Active; 'I' for Inactive)
ROOT
ATOM      1  C4' PXY d   1      -1.926   2.025   1.565  0.00  0.00     0.077 C 
ATOM      2  C1' PXY d   1       1.527  -1.902  -0.900  0.00  0.00     0.077 C 
ATOM      3  C1  PXY d   1       0.616  -0.882  -0.246  0.00  0.00    -0.082 A 
ATOM      4  C2  PXY d   1       0.270   0.208  -0.912  0.00  0.00     0.003 A 
ATOM      5  C3  PXY d   1      -0.527   1.156  -0.324  0.00  0.00     0.003 A 
ATOM      6  C4  PXY d   1      -1.016   0.963   0.940  0.00  0.00    -0.082 A 
ATOM      7  C5  PXY d   1      -0.676  -0.151   1.622  0.00  0.00     0.003 A 
ATOM      8  C6  PXY d   1       0.167  -1.082   1.023  0.00  0.00     0.003 A 
ENDROOT
TORSDOF 0
ENDMDL
