MODEL 1
REMARK minimizedAffinity -4.16778708
REMARK minimizedRMSD -1
REMARK  0 active torsions:
REMARK  status: ('A' for Active; 'I' for Inactive)
ROOT
ATOM      1  C4' PXY d   1       0.444  -2.130  -1.028  0.00  0.00     0.077 C 
ATOM      2  C1' PXY d   1      -1.710   2.638   1.429  0.00  0.00     0.077 C 
ATOM      3  C1  PXY d   1      -1.136   1.387   0.794  0.00  0.00    -0.082 A 
ATOM      4  C2  PXY d   1      -1.299   1.177  -0.502  0.00  0.00     0.003 A 
ATOM      5  C3  PXY d   1      -0.814   0.035  -1.086  0.00  0.00     0.003 A 
ATOM      6  C4  PXY d   1      -0.110  -0.876  -0.346  0.00  0.00    -0.082 A 
ATOM      7  C5  PXY d   1       0.069  -0.664   0.975  0.00  0.00     0.003 A 
ATOM      8  C6  PXY d   1      -0.466   0.481   1.557  0.00  0.00     0.003 A 
ENDROOT
TORSDOF 0
ENDMDL
