MODEL 1
REMARK minimizedAffinity -3.36695933
REMARK minimizedRMSD -1
REMARK  0 active torsions:
REMARK  status: ('A' for Active; 'I' for Inactive)
ROOT
ATOM      1  C4' PXY d   1       0.779  -1.064  -0.244  0.00  0.00     0.077 C 
ATOM      2  C1' PXY d   1      -2.499   3.273   1.720  0.00  0.00     0.077 C 
ATOM      3  C1  PXY d   1      -1.638   2.131   1.217  0.00  0.00    -0.082 A 
ATOM      4  C2  PXY d   1      -0.938   2.280   0.104  0.00  0.00     0.003 A 
ATOM      5  C3  PXY d   1      -0.180   1.246  -0.382  0.00  0.00     0.003 A 
ATOM      6  C4  PXY d   1      -0.096   0.066   0.306  0.00  0.00    -0.082 A 
ATOM      7  C5  PXY d   1      -0.799  -0.091   1.448  0.00  0.00     0.003 A 
ATOM      8  C6  PXY d   1      -1.595   0.957   1.902  0.00  0.00     0.003 A 
ENDROOT
TORSDOF 0
ENDMDL
