MODEL 1
REMARK minimizedAffinity -4.42930984
REMARK minimizedRMSD -1
REMARK  0 active torsions:
REMARK  status: ('A' for Active; 'I' for Inactive)
ROOT
ATOM      1  C4' PXY d   1      -0.844   0.840   1.954  0.00  0.00     0.077 C 
ATOM      2  C1' PXY d   1       0.757  -2.284  -2.639  0.00  0.00     0.077 C 
ATOM      3  C1  PXY d   1       0.348  -1.469  -1.428  0.00  0.00    -0.082 A 
ATOM      4  C2  PXY d   1      -0.929  -1.186  -1.231  0.00  0.00     0.003 A 
ATOM      5  C3  PXY d   1      -1.313  -0.422  -0.159  0.00  0.00     0.003 A 
ATOM      6  C4  PXY d   1      -0.386   0.011   0.750  0.00  0.00    -0.082 A 
ATOM      7  C5  PXY d   1       0.918  -0.282   0.562  0.00  0.00     0.003 A 
ATOM      8  C6  PXY d   1       1.292  -1.023  -0.555  0.00  0.00     0.003 A 
ENDROOT
TORSDOF 0
ENDMDL
