MODEL 1
REMARK minimizedAffinity -5.66708946
REMARK minimizedRMSD -1
REMARK  0 active torsions:
REMARK  status: ('A' for Active; 'I' for Inactive)
ROOT
ATOM      1  C4' PXY d   1      -0.767  -0.751   2.488  0.00  0.00     0.077 C 
ATOM      2  C1' PXY d   1      -1.359   3.750  -1.090  0.00  0.00     0.077 C 
ATOM      3  C1  PXY d   1      -1.198   2.563  -0.162  0.00  0.00    -0.082 A 
ATOM      4  C2  PXY d   1      -1.997   2.439   0.885  0.00  0.00     0.003 A 
ATOM      5  C3  PXY d   1      -1.845   1.388   1.754  0.00  0.00     0.003 A 
ATOM      6  C4  PXY d   1      -0.899   0.427   1.518  0.00  0.00    -0.082 A 
ATOM      7  C5  PXY d   1      -0.087   0.541   0.446  0.00  0.00     0.003 A 
ATOM      8  C6  PXY d   1      -0.231   1.636  -0.400  0.00  0.00     0.003 A 
ENDROOT
TORSDOF 0
ENDMDL
