MODEL 1
REMARK minimizedAffinity -3.75366187
REMARK minimizedRMSD -1
REMARK  0 active torsions:
REMARK  status: ('A' for Active; 'I' for Inactive)
ROOT
ATOM      1  C4' PXY d   1       0.918  -1.516  -0.768  0.00  0.00     0.077 C 
ATOM      2  C1' PXY d   1      -1.439   3.147   1.706  0.00  0.00     0.077 C 
ATOM      3  C1  PXY d   1      -0.821   1.918   1.068  0.00  0.00    -0.082 A 
ATOM      4  C2  PXY d   1      -0.107   2.044  -0.039  0.00  0.00     0.003 A 
ATOM      5  C3  PXY d   1       0.432   0.939  -0.646  0.00  0.00     0.003 A 
ATOM      6  C4  PXY d   1       0.284  -0.301  -0.085  0.00  0.00    -0.082 A 
ATOM      7  C5  PXY d   1      -0.434  -0.437   1.050  0.00  0.00     0.003 A 
ATOM      8  C6  PXY d   1      -1.008   0.692   1.629  0.00  0.00     0.003 A 
ENDROOT
TORSDOF 0
ENDMDL
