MODEL 1
REMARK minimizedAffinity -3.13017607
REMARK minimizedRMSD -1
REMARK  0 active torsions:
REMARK  status: ('A' for Active; 'I' for Inactive)
ROOT
ATOM      1  C4' PXY d   1       1.444  -3.667  -3.158  0.00  0.00     0.077 C 
ATOM      2  C1' PXY d   1      -0.527   0.104   0.754  0.00  0.00     0.077 C 
ATOM      3  C1  PXY d   1      -0.019  -0.894  -0.268  0.00  0.00    -0.082 A 
ATOM      4  C2  PXY d   1       1.211  -0.775  -0.742  0.00  0.00     0.003 A 
ATOM      5  C3  PXY d   1       1.675  -1.650  -1.691  0.00  0.00     0.003 A 
ATOM      6  C4  PXY d   1       0.892  -2.688  -2.118  0.00  0.00    -0.082 A 
ATOM      7  C5  PXY d   1      -0.359  -2.822  -1.631  0.00  0.00     0.003 A 
ATOM      8  C6  PXY d   1      -0.827  -1.899  -0.699  0.00  0.00     0.003 A 
ENDROOT
TORSDOF 0
ENDMDL
