MODEL 1
REMARK minimizedAffinity -4.46961641
REMARK minimizedRMSD -1
REMARK  0 active torsions:
REMARK  status: ('A' for Active; 'I' for Inactive)
ROOT
ATOM      1  C4' PXY d   1      -2.149   3.716   1.232  0.00  0.00     0.077 C 
ATOM      2  C1' PXY d   1       1.142  -0.488  -0.983  0.00  0.00     0.077 C 
ATOM      3  C1  PXY d   1       0.288   0.623  -0.406  0.00  0.00    -0.082 A 
ATOM      4  C2  PXY d   1      -0.559   0.355   0.574  0.00  0.00     0.003 A 
ATOM      5  C3  PXY d   1      -1.363   1.341   1.086  0.00  0.00     0.003 A 
ATOM      6  C4  PXY d   1      -1.260   2.627   0.626  0.00  0.00    -0.082 A 
ATOM      7  C5  PXY d   1      -0.390   2.911  -0.367  0.00  0.00     0.003 A 
ATOM      8  C6  PXY d   1       0.387   1.887  -0.901  0.00  0.00     0.003 A 
ENDROOT
TORSDOF 0
ENDMDL
