MODEL 1
REMARK minimizedAffinity -2.72192001
REMARK minimizedRMSD -1
REMARK  0 active torsions:
REMARK  status: ('A' for Active; 'I' for Inactive)
ROOT
ATOM      1  C4' PXY d   1       1.448  -1.994  -0.778  0.00  0.00     0.077 C 
ATOM      2  C1' PXY d   1      -1.370   2.343   1.803  0.00  0.00     0.077 C 
ATOM      3  C1  PXY d   1      -0.632   1.212   1.114  0.00  0.00    -0.082 A 
ATOM      4  C2  PXY d   1      -0.611   0.011   1.670  0.00  0.00     0.003 A 
ATOM      5  C3  PXY d   1       0.078  -1.015   1.078  0.00  0.00     0.003 A 
ATOM      6  C4  PXY d   1       0.708  -0.824  -0.123  0.00  0.00    -0.082 A 
ATOM      7  C5  PXY d   1       0.682   0.395  -0.702  0.00  0.00     0.003 A 
ATOM      8  C6  PXY d   1       0.011   1.434  -0.064  0.00  0.00     0.003 A 
ENDROOT
TORSDOF 0
ENDMDL
