MODEL 1
REMARK minimizedAffinity -4.32109213
REMARK minimizedRMSD -1
REMARK  0 active torsions:
REMARK  status: ('A' for Active; 'I' for Inactive)
ROOT
ATOM      1  C4' PXY d   1      -0.882   0.954   1.646  0.00  0.00     0.077 C 
ATOM      2  C1' PXY d   1       0.417  -2.421  -2.863  0.00  0.00     0.077 C 
ATOM      3  C1  PXY d   1       0.084  -1.544  -1.673  0.00  0.00    -0.082 A 
ATOM      4  C2  PXY d   1      -1.021  -0.816  -1.686  0.00  0.00     0.003 A 
ATOM      5  C3  PXY d   1      -1.322   0.007  -0.631  0.00  0.00     0.003 A 
ATOM      6  C4  PXY d   1      -0.510   0.046   0.470  0.00  0.00    -0.082 A 
ATOM      7  C5  PXY d   1       0.614  -0.701   0.496  0.00  0.00     0.003 A 
ATOM      8  C6  PXY d   1       0.922  -1.499  -0.602  0.00  0.00     0.003 A 
ENDROOT
TORSDOF 0
ENDMDL
