MODEL 1
REMARK minimizedAffinity -4.74936867
REMARK minimizedRMSD -1
REMARK  0 active torsions:
REMARK  status: ('A' for Active; 'I' for Inactive)
ROOT
ATOM      1  C4' PXY d   1      -0.779   3.565  -0.547  0.00  0.00     0.077 C 
ATOM      2  C1' PXY d   1      -0.869  -1.550   2.145  0.00  0.00     0.077 C 
ATOM      3  C1  PXY d   1      -0.858  -0.207   1.442  0.00  0.00    -0.082 A 
ATOM      4  C2  PXY d   1       0.025   0.023   0.484  0.00  0.00     0.003 A 
ATOM      5  C3  PXY d   1       0.070   1.243  -0.140  0.00  0.00     0.003 A 
ATOM      6  C4  PXY d   1      -0.833   2.220   0.183  0.00  0.00    -0.082 A 
ATOM      7  C5  PXY d   1      -1.745   1.989   1.152  0.00  0.00     0.003 A 
ATOM      8  C6  PXY d   1      -1.747   0.759   1.802  0.00  0.00     0.003 A 
ENDROOT
TORSDOF 0
ENDMDL
