MODEL 1
REMARK minimizedAffinity -4.83545828
REMARK minimizedRMSD -1
REMARK  0 active torsions:
REMARK  status: ('A' for Active; 'I' for Inactive)
ROOT
ATOM      1  C4' PXY d   1       1.209  -1.384  -0.383  0.00  0.00     0.077 C 
ATOM      2  C1' PXY d   1      -2.273   2.862   1.424  0.00  0.00     0.077 C 
ATOM      3  C1  PXY d   1      -1.357   1.746   0.962  0.00  0.00    -0.082 A 
ATOM      4  C2  PXY d   1      -0.851   1.778  -0.260  0.00  0.00     0.003 A 
ATOM      5  C3  PXY d   1      -0.046   0.761  -0.704  0.00  0.00     0.003 A 
ATOM      6  C4  PXY d   1       0.287  -0.274   0.129  0.00  0.00    -0.082 A 
ATOM      7  C5  PXY d   1      -0.216  -0.308   1.381  0.00  0.00     0.003 A 
ATOM      8  C6  PXY d   1      -1.065   0.713   1.799  0.00  0.00     0.003 A 
ENDROOT
TORSDOF 0
ENDMDL
