MODEL 1
REMARK minimizedAffinity -2.55990148
REMARK minimizedRMSD -1
REMARK  0 active torsions:
REMARK  status: ('A' for Active; 'I' for Inactive)
ROOT
ATOM      1  C4' PXY d   1      -1.171   1.800   1.897  0.00  0.00     0.077 C 
ATOM      2  C1' PXY d   1       1.618  -2.159  -1.260  0.00  0.00     0.077 C 
ATOM      3  C1  PXY d   1       0.883  -1.130  -0.424  0.00  0.00    -0.082 A 
ATOM      4  C2  PXY d   1       0.488   0.004  -0.980  0.00  0.00     0.003 A 
ATOM      5  C3  PXY d   1      -0.150   0.959  -0.231  0.00  0.00     0.003 A 
ATOM      6  C4  PXY d   1      -0.433   0.729   1.089  0.00  0.00    -0.082 A 
ATOM      7  C5  PXY d   1      -0.043  -0.430   1.661  0.00  0.00     0.003 A 
ATOM      8  C6  PXY d   1       0.640  -1.369   0.894  0.00  0.00     0.003 A 
ENDROOT
TORSDOF 0
ENDMDL
