MODEL 1
REMARK minimizedAffinity -5.0461731
REMARK minimizedRMSD -1
REMARK  0 active torsions:
REMARK  status: ('A' for Active; 'I' for Inactive)
ROOT
ATOM      1  C4' PXY d   1      -0.813   3.512  -1.286  0.00  0.00     0.077 C 
ATOM      2  C1' PXY d   1      -0.147  -1.275   1.885  0.00  0.00     0.077 C 
ATOM      3  C1  PXY d   1      -0.333  -0.017   1.059  0.00  0.00    -0.082 A 
ATOM      4  C2  PXY d   1       0.272   0.092  -0.112  0.00  0.00     0.003 A 
ATOM      5  C3  PXY d   1       0.141   1.235  -0.857  0.00  0.00     0.003 A 
ATOM      6  C4  PXY d   1      -0.661   2.256  -0.423  0.00  0.00    -0.082 A 
ATOM      7  C5  PXY d   1      -1.290   2.149   0.767  0.00  0.00     0.003 A 
ATOM      8  C6  PXY d   1      -1.111   0.996   1.527  0.00  0.00     0.003 A 
ENDROOT
TORSDOF 0
ENDMDL
