MODEL 1
REMARK minimizedAffinity -4.73716974
REMARK minimizedRMSD -1
REMARK  0 active torsions:
REMARK  status: ('A' for Active; 'I' for Inactive)
ROOT
ATOM      1  C4' PXY d   1       0.219  -1.131   2.567  0.00  0.00     0.077 C 
ATOM      2  C1' PXY d   1      -1.194   3.809  -0.080  0.00  0.00     0.077 C 
ATOM      3  C1  PXY d   1      -0.824   2.508   0.603  0.00  0.00    -0.082 A 
ATOM      4  C2  PXY d   1      -1.070   2.353   1.894  0.00  0.00     0.003 A 
ATOM      5  C3  PXY d   1      -0.713   1.194   2.534  0.00  0.00     0.003 A 
ATOM      6  C4  PXY d   1      -0.146   0.163   1.835  0.00  0.00    -0.082 A 
ATOM      7  C5  PXY d   1       0.098   0.309   0.515  0.00  0.00     0.003 A 
ATOM      8  C6  PXY d   1      -0.235   1.508  -0.108  0.00  0.00     0.003 A 
ENDROOT
TORSDOF 0
ENDMDL
