MODEL 1
REMARK minimizedAffinity -5.43777418
REMARK minimizedRMSD -1
REMARK  0 active torsions:
REMARK  status: ('A' for Active; 'I' for Inactive)
ROOT
ATOM      1  C4' PXY d   1       1.487  -1.953  -1.212  0.00  0.00     0.077 C 
ATOM      2  C1' PXY d   1      -1.524   2.153   1.526  0.00  0.00     0.077 C 
ATOM      3  C1  PXY d   1      -0.730   1.072   0.819  0.00  0.00    -0.082 A 
ATOM      4  C2  PXY d   1      -0.363   1.247  -0.440  0.00  0.00     0.003 A 
ATOM      5  C3  PXY d   1       0.328   0.266  -1.104  0.00  0.00     0.003 A 
ATOM      6  C4  PXY d   1       0.692  -0.884  -0.456  0.00  0.00    -0.082 A 
ATOM      7  C5  PXY d   1       0.331  -1.066   0.832  0.00  0.00     0.003 A 
ATOM      8  C6  PXY d   1      -0.406  -0.075   1.475  0.00  0.00     0.003 A 
ENDROOT
TORSDOF 0
ENDMDL
