MODEL 1
REMARK minimizedAffinity -5.52244997
REMARK minimizedRMSD -1
REMARK  0 active torsions:
REMARK  status: ('A' for Active; 'I' for Inactive)
ROOT
ATOM      1  C4' PXY d   1      -1.958   2.586   1.499  0.00  0.00     0.077 C 
ATOM      2  C1' PXY d   1       0.934  -1.859  -0.803  0.00  0.00     0.077 C 
ATOM      3  C1  PXY d   1       0.182  -0.685  -0.208  0.00  0.00    -0.082 A 
ATOM      4  C2  PXY d   1      -0.287  -0.767   1.027  0.00  0.00     0.003 A 
ATOM      5  C3  PXY d   1      -0.998   0.273   1.569  0.00  0.00     0.003 A 
ATOM      6  C4  PXY d   1      -1.184   1.429   0.860  0.00  0.00    -0.082 A 
ATOM      7  C5  PXY d   1      -0.699   1.525  -0.396  0.00  0.00     0.003 A 
ATOM      8  C6  PXY d   1      -0.017   0.442  -0.944  0.00  0.00     0.003 A 
ENDROOT
TORSDOF 0
ENDMDL
