MODEL 1
REMARK minimizedAffinity -5.76195526
REMARK minimizedRMSD -1
REMARK  0 active torsions:
REMARK  status: ('A' for Active; 'I' for Inactive)
ROOT
ATOM      1  C4' PXY d   1      -0.733  -1.459   2.023  0.00  0.00     0.077 C 
ATOM      2  C1' PXY d   1      -0.855   3.924  -0.078  0.00  0.00     0.077 C 
ATOM      3  C1  PXY d   1      -0.825   2.517   0.485  0.00  0.00    -0.082 A 
ATOM      4  C2  PXY d   1      -0.234   1.551  -0.199  0.00  0.00     0.003 A 
ATOM      5  C3  PXY d   1      -0.225   0.267   0.280  0.00  0.00     0.003 A 
ATOM      6  C4  PXY d   1      -0.780  -0.022   1.498  0.00  0.00    -0.082 A 
ATOM      7  C5  PXY d   1      -1.375   0.960   2.207  0.00  0.00     0.003 A 
ATOM      8  C6  PXY d   1      -1.410   2.249   1.684  0.00  0.00     0.003 A 
ENDROOT
TORSDOF 0
ENDMDL
