MODEL 1
REMARK minimizedAffinity -2.2156868
REMARK minimizedRMSD -1
REMARK  2 active torsions:
REMARK  status: ('A' for Active; 'I' for Inactive)
REMARK    1  A    between atoms: C1_2  and  C2_3 
REMARK    2  A    between atoms: C2_3  and  C3_4 
ROOT
ATOM      1  C3  UNL d   1      -3.417   1.491  -4.883  0.00  0.00    -0.075 A 
ATOM      2  C4  UNL d   1      -4.323   2.262  -5.625  0.00  0.00     0.002 A 
ATOM      3  C5  UNL d   1      -4.004   3.568  -5.998  0.00  0.00     0.002 A 
ATOM      4  C6  UNL d   1      -2.781   4.123  -5.626  0.00  0.00    -0.004 A 
ATOM      5  C7  UNL d   1      -1.880   3.372  -4.875  0.00  0.00     0.002 A 
ATOM      6  C8  UNL d   1      -2.195   2.063  -4.504  0.00  0.00     0.002 A 
ENDROOT
BRANCH   1   7
ATOM      7  C2  UNL d   1      -3.744   0.068  -4.502  0.00  0.00     0.056 C 
BRANCH   7   8
ATOM      8  C1  UNL d   1      -4.517  -0.704  -5.577  0.00  0.00     0.007 C 
ATOM      9  C   UNL d   1      -4.605  -2.198  -5.297  0.00  0.00     0.009 C 
ENDBRANCH   7   8
ENDBRANCH   1   7
TORSDOF 2
ENDMDL
