MODEL 1
REMARK minimizedAffinity -4.12178707
REMARK minimizedRMSD -1
REMARK  2 active torsions:
REMARK  status: ('A' for Active; 'I' for Inactive)
REMARK    1  A    between atoms: C1_2  and  C2_3 
REMARK    2  A    between atoms: C2_3  and  C3_4 
ROOT
ATOM      1  C3  UNL d   1       3.590  -1.606  -1.834  0.00  0.00    -0.075 A 
ATOM      2  C4  UNL d   1       2.244  -1.497  -1.456  0.00  0.00     0.002 A 
ATOM      3  C5  UNL d   1       1.742  -0.292  -0.962  0.00  0.00     0.002 A 
ATOM      4  C6  UNL d   1       2.580   0.813  -0.830  0.00  0.00    -0.004 A 
ATOM      5  C7  UNL d   1       3.923   0.711  -1.187  0.00  0.00     0.002 A 
ATOM      6  C8  UNL d   1       4.426  -0.492  -1.686  0.00  0.00     0.002 A 
ENDROOT
BRANCH   1   7
ATOM      7  C2  UNL d   1       4.131  -2.898  -2.397  0.00  0.00     0.056 C 
BRANCH   7   8
ATOM      8  C1  UNL d   1       5.634  -2.866  -2.697  0.00  0.00     0.007 C 
ATOM      9  C   UNL d   1       5.948  -2.873  -4.187  0.00  0.00     0.009 C 
ENDBRANCH   7   8
ENDBRANCH   1   7
TORSDOF 2
ENDMDL
