MODEL 1
REMARK minimizedAffinity -2.89461827
REMARK minimizedRMSD -1
REMARK  2 active torsions:
REMARK  status: ('A' for Active; 'I' for Inactive)
REMARK    1  A    between atoms: C1_2  and  C2_3 
REMARK    2  A    between atoms: C2_3  and  C3_4 
ROOT
ATOM      1  C3  UNL d   1      -0.000  -0.729  -1.128  0.00  0.00    -0.075 A 
ATOM      2  C4  UNL d   1      -0.233  -1.012   0.225  0.00  0.00     0.002 A 
ATOM      3  C5  UNL d   1       0.227  -0.147   1.219  0.00  0.00     0.002 A 
ATOM      4  C6  UNL d   1       0.932   1.004   0.874  0.00  0.00    -0.004 A 
ATOM      5  C7  UNL d   1       1.183   1.287  -0.467  0.00  0.00     0.002 A 
ATOM      6  C8  UNL d   1       0.720   0.425  -1.464  0.00  0.00     0.002 A 
ENDROOT
BRANCH   1   7
ATOM      7  C2  UNL d   1      -0.521  -1.645  -2.210  0.00  0.00     0.056 C 
BRANCH   7   8
ATOM      8  C1  UNL d   1      -1.243  -0.919  -3.349  0.00  0.00     0.007 C 
ATOM      9  C   UNL d   1      -2.106  -1.842  -4.198  0.00  0.00     0.009 C 
ENDBRANCH   7   8
ENDBRANCH   1   7
TORSDOF 2
ENDMDL
