MODEL 1
REMARK minimizedAffinity 2.04695106
REMARK minimizedRMSD -1
REMARK  2 active torsions:
REMARK  status: ('A' for Active; 'I' for Inactive)
REMARK    1  A    between atoms: C1_2  and  C2_3 
REMARK    2  A    between atoms: C2_3  and  C3_4 
ROOT
ATOM      1  C3  UNL d   1      -3.624   4.498  -5.478  0.00  0.00    -0.075 A 
ATOM      2  C4  UNL d   1      -3.159   3.230  -5.858  0.00  0.00     0.002 A 
ATOM      3  C5  UNL d   1      -1.809   2.902  -5.728  0.00  0.00     0.002 A 
ATOM      4  C6  UNL d   1      -0.907   3.839  -5.227  0.00  0.00    -0.004 A 
ATOM      5  C7  UNL d   1      -1.355   5.106  -4.863  0.00  0.00     0.002 A 
ATOM      6  C8  UNL d   1      -2.706   5.436  -4.988  0.00  0.00     0.002 A 
ENDROOT
BRANCH   1   7
ATOM      7  C2  UNL d   1      -5.088   4.849  -5.589  0.00  0.00     0.056 C 
BRANCH   7   8
ATOM      8  C1  UNL d   1      -5.982   3.673  -5.998  0.00  0.00     0.007 C 
ATOM      9  C   UNL d   1      -5.503   2.336  -5.449  0.00  0.00     0.009 C 
ENDBRANCH   7   8
ENDBRANCH   1   7
TORSDOF 2
ENDMDL
