MODEL 1
REMARK minimizedAffinity 0.492109925
REMARK minimizedRMSD -1
REMARK  2 active torsions:
REMARK  status: ('A' for Active; 'I' for Inactive)
REMARK    1  A    between atoms: C1_2  and  C2_3 
REMARK    2  A    between atoms: C2_3  and  C3_4 
ROOT
ATOM      1  C3  UNL d   1       2.258   0.388  -0.412  0.00  0.00    -0.075 A 
ATOM      2  C4  UNL d   1       3.320  -0.428  -0.828  0.00  0.00     0.002 A 
ATOM      3  C5  UNL d   1       4.575   0.122  -1.091  0.00  0.00     0.002 A 
ATOM      4  C6  UNL d   1       4.781   1.493  -0.952  0.00  0.00    -0.004 A 
ATOM      5  C7  UNL d   1       3.728   2.315  -0.556  0.00  0.00     0.002 A 
ATOM      6  C8  UNL d   1       2.473   1.767  -0.288  0.00  0.00     0.002 A 
ENDROOT
BRANCH   1   7
ATOM      7  C2  UNL d   1       0.905  -0.205  -0.098  0.00  0.00     0.056 C 
BRANCH   7   8
ATOM      8  C1  UNL d   1      -0.058   0.768   0.590  0.00  0.00     0.007 C 
ATOM      9  C   UNL d   1       0.007   0.705   2.110  0.00  0.00     0.009 C 
ENDBRANCH   7   8
ENDBRANCH   1   7
TORSDOF 2
ENDMDL
