MODEL 1
REMARK minimizedAffinity -3.80928183
REMARK minimizedRMSD -1
REMARK  2 active torsions:
REMARK  status: ('A' for Active; 'I' for Inactive)
REMARK    1  A    between atoms: C1_2  and  C2_3 
REMARK    2  A    between atoms: C2_3  and  C3_4 
ROOT
ATOM      1  C3  UNL d   1      -4.149   2.608  -5.697  0.00  0.00    -0.075 A 
ATOM      2  C4  UNL d   1      -4.315   3.973  -5.973  0.00  0.00     0.002 A 
ATOM      3  C5  UNL d   1      -3.284   4.878  -5.716  0.00  0.00     0.002 A 
ATOM      4  C6  UNL d   1      -2.081   4.432  -5.173  0.00  0.00    -0.004 A 
ATOM      5  C7  UNL d   1      -1.912   3.080  -4.880  0.00  0.00     0.002 A 
ATOM      6  C8  UNL d   1      -2.940   2.173  -5.139  0.00  0.00     0.002 A 
ENDROOT
BRANCH   1   7
ATOM      7  C2  UNL d   1      -5.250   1.620  -5.999  0.00  0.00     0.056 C 
BRANCH   7   8
ATOM      8  C1  UNL d   1      -4.793   0.157  -5.999  0.00  0.00     0.007 C 
ATOM      9  C   UNL d   1      -5.948  -0.833  -5.941  0.00  0.00     0.009 C 
ENDBRANCH   7   8
ENDBRANCH   1   7
TORSDOF 2
ENDMDL
