MODEL 1
REMARK minimizedAffinity 4.03490686
REMARK minimizedRMSD -1
REMARK  2 active torsions:
REMARK  status: ('A' for Active; 'I' for Inactive)
REMARK    1  A    between atoms: C1_2  and  C2_3 
REMARK    2  A    between atoms: C2_3  and  C3_4 
ROOT
ATOM      1  C3  UNL d   1      -3.944   3.590  -5.914  0.00  0.00    -0.075 A 
ATOM      2  C4  UNL d   1      -2.551   3.437  -5.857  0.00  0.00     0.002 A 
ATOM      3  C5  UNL d   1      -1.715   4.554  -5.858  0.00  0.00     0.002 A 
ATOM      4  C6  UNL d   1      -2.259   5.835  -5.926  0.00  0.00    -0.004 A 
ATOM      5  C7  UNL d   1      -3.640   5.998  -6.000  0.00  0.00     0.002 A 
ATOM      6  C8  UNL d   1      -4.480   4.883  -5.994  0.00  0.00     0.002 A 
ENDROOT
BRANCH   1   7
ATOM      7  C2  UNL d   1      -4.856   2.387  -5.883  0.00  0.00     0.056 C 
BRANCH   7   8
ATOM      8  C1  UNL d   1      -4.985   1.738  -4.502  0.00  0.00     0.007 C 
ATOM      9  C   UNL d   1      -4.748   0.233  -4.520  0.00  0.00     0.009 C 
ENDBRANCH   7   8
ENDBRANCH   1   7
TORSDOF 2
ENDMDL
