MODEL 1
REMARK minimizedAffinity -3.34538174
REMARK minimizedRMSD -1
REMARK  2 active torsions:
REMARK  status: ('A' for Active; 'I' for Inactive)
REMARK    1  A    between atoms: C1_2  and  C2_3 
REMARK    2  A    between atoms: C2_3  and  C3_4 
ROOT
ATOM      1  C3  UNL d   1      -1.565  -3.694  -4.685  0.00  0.00    -0.075 A 
ATOM      2  C4  UNL d   1      -1.408  -5.056  -4.392  0.00  0.00     0.002 A 
ATOM      3  C5  UNL d   1      -2.297  -5.999  -4.909  0.00  0.00     0.002 A 
ATOM      4  C6  UNL d   1      -3.357  -5.592  -5.715  0.00  0.00    -0.004 A 
ATOM      5  C7  UNL d   1      -3.533  -4.240  -6.000  0.00  0.00     0.002 A 
ATOM      6  C8  UNL d   1      -2.642  -3.294  -5.488  0.00  0.00     0.002 A 
ENDROOT
BRANCH   1   7
ATOM      7  C2  UNL d   1      -0.590  -2.671  -4.153  0.00  0.00     0.056 C 
BRANCH   7   8
ATOM      8  C1  UNL d   1      -1.233  -1.333  -3.775  0.00  0.00     0.007 C 
ATOM      9  C   UNL d   1      -0.322  -0.444  -2.938  0.00  0.00     0.009 C 
ENDBRANCH   7   8
ENDBRANCH   1   7
TORSDOF 2
ENDMDL
