MODEL 1
REMARK minimizedAffinity -4.39870596
REMARK minimizedRMSD -1
REMARK  2 active torsions:
REMARK  status: ('A' for Active; 'I' for Inactive)
REMARK    1  A    between atoms: C1_2  and  C2_3 
REMARK    2  A    between atoms: C2_3  and  C3_4 
ROOT
ATOM      1  C3  UNL d   1       4.079  -2.119  -3.680  0.00  0.00    -0.075 A 
ATOM      2  C4  UNL d   1       3.740  -1.416  -4.845  0.00  0.00     0.002 A 
ATOM      3  C5  UNL d   1       4.515  -1.539  -5.998  0.00  0.00     0.002 A 
ATOM      4  C6  UNL d   1       5.643  -2.357  -5.998  0.00  0.00    -0.004 A 
ATOM      5  C7  UNL d   1       5.999  -3.047  -4.842  0.00  0.00     0.002 A 
ATOM      6  C8  UNL d   1       5.223  -2.929  -3.688  0.00  0.00     0.002 A 
ENDROOT
BRANCH   1   7
ATOM      7  C2  UNL d   1       3.227  -2.013  -2.438  0.00  0.00     0.056 C 
BRANCH   7   8
ATOM      8  C1  UNL d   1       2.673  -0.608  -2.180  0.00  0.00     0.007 C 
ATOM      9  C   UNL d   1       1.316  -0.616  -1.488  0.00  0.00     0.009 C 
ENDBRANCH   7   8
ENDBRANCH   1   7
TORSDOF 2
ENDMDL
