MODEL 1
REMARK minimizedAffinity 2.19039059
REMARK minimizedRMSD -1
REMARK  2 active torsions:
REMARK  status: ('A' for Active; 'I' for Inactive)
REMARK    1  A    between atoms: C1_2  and  C2_3 
REMARK    2  A    between atoms: C2_3  and  C3_4 
ROOT
ATOM      1  C3  UNL d   1      -4.892   2.007  -5.228  0.00  0.00    -0.075 A 
ATOM      2  C4  UNL d   1      -3.529   2.341  -5.245  0.00  0.00     0.002 A 
ATOM      3  C5  UNL d   1      -3.118   3.620  -5.620  0.00  0.00     0.002 A 
ATOM      4  C6  UNL d   1      -4.060   4.577  -5.992  0.00  0.00    -0.004 A 
ATOM      5  C7  UNL d   1      -5.414   4.252  -5.995  0.00  0.00     0.002 A 
ATOM      6  C8  UNL d   1      -5.829   2.974  -5.616  0.00  0.00     0.002 A 
ENDROOT
BRANCH   1   7
ATOM      7  C2  UNL d   1      -5.346   0.634  -4.795  0.00  0.00     0.056 C 
BRANCH   7   8
ATOM      8  C1  UNL d   1      -4.360  -0.487  -5.142  0.00  0.00     0.007 C 
ATOM      9  C   UNL d   1      -5.011  -1.863  -5.195  0.00  0.00     0.009 C 
ENDBRANCH   7   8
ENDBRANCH   1   7
TORSDOF 2
ENDMDL
