MODEL 1
REMARK minimizedAffinity -2.62299204
REMARK minimizedRMSD -1
REMARK  2 active torsions:
REMARK  status: ('A' for Active; 'I' for Inactive)
REMARK    1  A    between atoms: C1_2  and  C2_3 
REMARK    2  A    between atoms: C2_3  and  C3_4 
ROOT
ATOM      1  C3  UNL d   1      -3.197   0.266  -3.980  0.00  0.00    -0.075 A 
ATOM      2  C4  UNL d   1      -2.162   0.961  -3.336  0.00  0.00     0.002 A 
ATOM      3  C5  UNL d   1      -1.065   0.276  -2.815  0.00  0.00     0.002 A 
ATOM      4  C6  UNL d   1      -0.993  -1.112  -2.921  0.00  0.00    -0.004 A 
ATOM      5  C7  UNL d   1      -2.022  -1.814  -3.543  0.00  0.00     0.002 A 
ATOM      6  C8  UNL d   1      -3.119  -1.130  -4.069  0.00  0.00     0.002 A 
ENDROOT
BRANCH   1   7
ATOM      7  C2  UNL d   1      -4.373   1.005  -4.572  0.00  0.00     0.056 C 
BRANCH   7   8
ATOM      8  C1  UNL d   1      -3.995   1.990  -5.683  0.00  0.00     0.007 C 
ATOM      9  C   UNL d   1      -4.148   3.448  -5.271  0.00  0.00     0.009 C 
ENDBRANCH   7   8
ENDBRANCH   1   7
TORSDOF 2
ENDMDL
