MODEL 1
REMARK minimizedAffinity -2.46487927
REMARK minimizedRMSD -1
REMARK  0 active torsions:
REMARK  status: ('A' for Active; 'I' for Inactive)
ROOT
ATOM      1  C   UNL d   1       1.236  -0.026   0.110  0.00  0.00     0.124 A 
ATOM      2  C1  UNL d   1       0.717   1.260   0.042  0.00  0.00     0.062 A 
ATOM      3  C2  UNL d   1      -0.627   1.487   0.323  0.00  0.00     0.162 A 
ATOM      4  C3  UNL d   1      -1.462   0.426   0.675  0.00  0.00    -0.034 A 
ATOM      5  C4  UNL d   1      -0.933  -0.864   0.739  0.00  0.00     0.162 A 
ATOM      6  C5  UNL d   1       0.412  -1.086   0.458  0.00  0.00     0.062 A 
ATOM      7  F   UNL d   1       0.912  -2.329   0.523  0.00  0.00    -0.097 F 
ATOM      8  F1  UNL d   1      -1.707  -1.907   1.074  0.00  0.00    -0.096 F 
ATOM      9  I   UNL d   1      -3.472   0.762   1.096  0.00  0.00    -0.060 I 
ATOM     10  F2  UNL d   1      -1.102   2.739   0.251  0.00  0.00    -0.096 F 
ATOM     11  F3  UNL d   1       1.511   2.286  -0.295  0.00  0.00    -0.097 F 
ATOM     12  F4  UNL d   1       2.530  -0.242  -0.162  0.00  0.00    -0.092 F 
ENDROOT
TORSDOF 0
ENDMDL
