MODEL 1
REMARK minimizedAffinity 0.0653728247
REMARK minimizedRMSD -1
REMARK  0 active torsions:
REMARK  status: ('A' for Active; 'I' for Inactive)
ROOT
ATOM      1  C   UNL d   1      -2.298   1.490  -0.009  0.00  0.00     0.124 A 
ATOM      2  C1  UNL d   1      -1.614   1.270  -1.197  0.00  0.00     0.062 A 
ATOM      3  C2  UNL d   1      -0.557   0.366  -1.238  0.00  0.00     0.162 A 
ATOM      4  C3  UNL d   1      -0.177  -0.326  -0.088  0.00  0.00    -0.034 A 
ATOM      5  C4  UNL d   1      -0.869  -0.099   1.103  0.00  0.00     0.162 A 
ATOM      6  C5  UNL d   1      -1.925   0.806   1.139  0.00  0.00     0.062 A 
ATOM      7  F   UNL d   1      -2.584   1.017   2.287  0.00  0.00    -0.097 F 
ATOM      8  F1  UNL d   1      -0.530  -0.747   2.227  0.00  0.00    -0.096 F 
ATOM      9  I   UNL d   1       1.403  -1.679  -0.146  0.00  0.00    -0.060 I 
ATOM     10  F2  UNL d   1       0.086   0.173  -2.399  0.00  0.00    -0.096 F 
ATOM     11  F3  UNL d   1      -1.972   1.931  -2.307  0.00  0.00    -0.097 F 
ATOM     12  F4  UNL d   1      -3.314   2.362   0.029  0.00  0.00    -0.092 F 
ENDROOT
TORSDOF 0
ENDMDL
