MODEL 1
REMARK minimizedAffinity 2.51000476
REMARK minimizedRMSD -1
REMARK  0 active torsions:
REMARK  status: ('A' for Active; 'I' for Inactive)
ROOT
ATOM      1  C   UNL d   1       1.119  -1.227  -1.113  0.00  0.00     0.124 A 
ATOM      2  C1  UNL d   1       1.326  -0.872   0.213  0.00  0.00     0.062 A 
ATOM      3  C2  UNL d   1       0.294  -0.303   0.954  0.00  0.00     0.162 A 
ATOM      4  C3  UNL d   1      -0.955  -0.088   0.372  0.00  0.00    -0.034 A 
ATOM      5  C4  UNL d   1      -1.155  -0.447  -0.963  0.00  0.00     0.162 A 
ATOM      6  C5  UNL d   1      -0.120  -1.014  -1.699  0.00  0.00     0.062 A 
ATOM      7  F   UNL d   1      -0.322  -1.357  -2.980  0.00  0.00    -0.097 F 
ATOM      8  F1  UNL d   1      -2.343  -0.253  -1.554  0.00  0.00    -0.096 F 
ATOM      9  I   UNL d   1      -2.501   0.761   1.477  0.00  0.00    -0.060 I 
ATOM     10  F2  UNL d   1       0.522   0.030   2.233  0.00  0.00    -0.096 F 
ATOM     11  F3  UNL d   1       2.523  -1.075   0.781  0.00  0.00    -0.097 F 
ATOM     12  F4  UNL d   1       2.114  -1.772  -1.824  0.00  0.00    -0.092 F 
ENDROOT
TORSDOF 0
ENDMDL
