MODEL 1
REMARK minimizedAffinity 1.77500868
REMARK minimizedRMSD -1
REMARK  0 active torsions:
REMARK  status: ('A' for Active; 'I' for Inactive)
ROOT
ATOM      1  C   UNL d   1       2.064  -0.197  -0.164  0.00  0.00     0.124 A 
ATOM      2  C1  UNL d   1       1.241  -1.295  -0.372  0.00  0.00     0.062 A 
ATOM      3  C2  UNL d   1      -0.136  -1.128  -0.480  0.00  0.00     0.162 A 
ATOM      4  C3  UNL d   1      -0.700   0.144  -0.382  0.00  0.00    -0.034 A 
ATOM      5  C4  UNL d   1       0.133   1.244  -0.172  0.00  0.00     0.162 A 
ATOM      6  C5  UNL d   1       1.509   1.071  -0.064  0.00  0.00     0.062 A 
ATOM      7  F   UNL d   1       2.302   2.134   0.136  0.00  0.00    -0.097 F 
ATOM      8  F1  UNL d   1      -0.376   2.481  -0.073  0.00  0.00    -0.096 F 
ATOM      9  I   UNL d   1      -2.760   0.398  -0.543  0.00  0.00    -0.060 I 
ATOM     10  F2  UNL d   1      -0.907  -2.207  -0.681  0.00  0.00    -0.096 F 
ATOM     11  F3  UNL d   1       1.775  -2.522  -0.468  0.00  0.00    -0.097 F 
ATOM     12  F4  UNL d   1       3.389  -0.361  -0.060  0.00  0.00    -0.092 F 
ENDROOT
TORSDOF 0
ENDMDL
