MODEL 1
REMARK minimizedAffinity -4.49112415
REMARK minimizedRMSD -1
REMARK  0 active torsions:
REMARK  status: ('A' for Active; 'I' for Inactive)
ROOT
ATOM      1  C   UNL d   1       3.253  -0.628   0.034  0.00  0.00     0.124 A 
ATOM      2  C1  UNL d   1       2.284  -1.426  -0.556  0.00  0.00     0.062 A 
ATOM      3  C2  UNL d   1       0.957  -1.008  -0.590  0.00  0.00     0.162 A 
ATOM      4  C3  UNL d   1       0.591   0.217  -0.032  0.00  0.00    -0.034 A 
ATOM      5  C4  UNL d   1       1.571   1.015   0.561  0.00  0.00     0.162 A 
ATOM      6  C5  UNL d   1       2.896   0.592   0.592  0.00  0.00     0.062 A 
ATOM      7  F   UNL d   1       3.831   1.365   1.163  0.00  0.00    -0.097 F 
ATOM      8  F1  UNL d   1       1.254   2.198   1.107  0.00  0.00    -0.096 F 
ATOM      9  I   UNL d   1      -1.392   0.847  -0.080  0.00  0.00    -0.060 I 
ATOM     10  F2  UNL d   1       0.041  -1.800  -1.167  0.00  0.00    -0.096 F 
ATOM     11  F3  UNL d   1       2.626  -2.606  -1.095  0.00  0.00    -0.097 F 
ATOM     12  F4  UNL d   1       4.529  -1.033   0.066  0.00  0.00    -0.092 F 
ENDROOT
TORSDOF 0
ENDMDL
