MODEL 1
REMARK minimizedAffinity 4.15811062
REMARK minimizedRMSD -1
REMARK  0 active torsions:
REMARK  status: ('A' for Active; 'I' for Inactive)
ROOT
ATOM      1  C   UNL d   1       1.959   1.177   0.120  0.00  0.00     0.124 A 
ATOM      2  C1  UNL d   1       1.433   0.046   0.729  0.00  0.00     0.062 A 
ATOM      3  C2  UNL d   1       0.071  -0.228   0.639  0.00  0.00     0.162 A 
ATOM      4  C3  UNL d   1      -0.775   0.630  -0.063  0.00  0.00    -0.034 A 
ATOM      5  C4  UNL d   1      -0.239   1.767  -0.671  0.00  0.00     0.162 A 
ATOM      6  C5  UNL d   1       1.123   2.036  -0.579  0.00  0.00     0.062 A 
ATOM      7  F   UNL d   1       1.629   3.130  -1.167  0.00  0.00    -0.097 F 
ATOM      8  F1  UNL d   1      -1.024   2.614  -1.354  0.00  0.00    -0.096 F 
ATOM      9  I   UNL d   1      -2.811   0.224  -0.199  0.00  0.00    -0.060 I 
ATOM     10  F2  UNL d   1      -0.410  -1.329   1.237  0.00  0.00    -0.096 F 
ATOM     11  F3  UNL d   1       2.238  -0.786   1.406  0.00  0.00    -0.097 F 
ATOM     12  F4  UNL d   1       3.269   1.439   0.209  0.00  0.00    -0.092 F 
ENDROOT
TORSDOF 0
ENDMDL
