MODEL 1
REMARK minimizedAffinity -3.17277837
REMARK minimizedRMSD -1
REMARK  0 active torsions:
REMARK  status: ('A' for Active; 'I' for Inactive)
ROOT
ATOM      1  C   UNL d   1       2.622  -0.292   0.031  0.00  0.00     0.124 A 
ATOM      2  C1  UNL d   1       1.741  -1.304   0.384  0.00  0.00     0.062 A 
ATOM      3  C2  UNL d   1       0.367  -1.087   0.333  0.00  0.00     0.162 A 
ATOM      4  C3  UNL d   1      -0.134   0.149  -0.075  0.00  0.00    -0.034 A 
ATOM      5  C4  UNL d   1       0.758   1.163  -0.427  0.00  0.00     0.162 A 
ATOM      6  C5  UNL d   1       2.130   0.941  -0.374  0.00  0.00     0.062 A 
ATOM      7  F   UNL d   1       2.980   1.920  -0.716  0.00  0.00    -0.097 F 
ATOM      8  F1  UNL d   1       0.309   2.364  -0.823  0.00  0.00    -0.096 F 
ATOM      9  I   UNL d   1      -2.188   0.479  -0.153  0.00  0.00    -0.060 I 
ATOM     10  F2  UNL d   1      -0.461  -2.083   0.680  0.00  0.00    -0.096 F 
ATOM     11  F3  UNL d   1       2.214  -2.496   0.777  0.00  0.00    -0.097 F 
ATOM     12  F4  UNL d   1       3.943  -0.504   0.082  0.00  0.00    -0.092 F 
ENDROOT
TORSDOF 0
ENDMDL
