MODEL 1
REMARK minimizedAffinity 4.77623558
REMARK minimizedRMSD -1
REMARK  0 active torsions:
REMARK  status: ('A' for Active; 'I' for Inactive)
ROOT
ATOM      1  C   UNL d   1       1.192  -1.886  -0.697  0.00  0.00     0.124 A 
ATOM      2  C1  UNL d   1       2.239  -1.031  -1.010  0.00  0.00     0.062 A 
ATOM      3  C2  UNL d   1       2.086   0.345  -0.864  0.00  0.00     0.162 A 
ATOM      4  C3  UNL d   1       0.882   0.874  -0.401  0.00  0.00    -0.034 A 
ATOM      5  C4  UNL d   1      -0.167   0.007  -0.089  0.00  0.00     0.162 A 
ATOM      6  C5  UNL d   1      -0.010  -1.367  -0.237  0.00  0.00     0.062 A 
ATOM      7  F   UNL d   1      -1.022  -2.192   0.066  0.00  0.00    -0.097 F 
ATOM      8  F1  UNL d   1      -1.339   0.482   0.358  0.00  0.00    -0.096 F 
ATOM      9  I   UNL d   1       0.649   2.931  -0.181  0.00  0.00    -0.060 I 
ATOM     10  F2  UNL d   1       3.115   1.148  -1.174  0.00  0.00    -0.096 F 
ATOM     11  F3  UNL d   1       3.401  -1.530  -1.455  0.00  0.00    -0.097 F 
ATOM     12  F4  UNL d   1       1.341  -3.210  -0.839  0.00  0.00    -0.092 F 
ENDROOT
TORSDOF 0
ENDMDL
