MODEL 1
REMARK minimizedAffinity -2.05818653
REMARK minimizedRMSD -1
REMARK  1 active torsions:
REMARK  status: ('A' for Active; 'I' for Inactive)
REMARK    1  A    between atoms: N_2  and  C1_3 
ROOT
ATOM      1  C1  UNL d   1       0.396  -0.038  -1.407  0.00  0.00     0.143 A 
ATOM      2  C2  UNL d   1      -0.392  -0.444  -2.489  0.00  0.00    -0.057 A 
ATOM      3  C3  UNL d   1      -0.085  -0.054  -3.798  0.00  0.00     0.033 A 
ATOM      4  C4  UNL d   1       1.003   0.776  -4.045  0.00  0.00    -0.042 A 
ATOM      5  C5  UNL d   1       1.786   1.213  -2.982  0.00  0.00     0.033 A 
ATOM      6  C6  UNL d   1       1.478   0.814  -1.678  0.00  0.00    -0.057 A 
ENDROOT
BRANCH   1   7
ATOM      7  N   UNL d   1       0.085  -0.312  -0.073  0.00  0.00    -0.732 N 
ATOM      8  C   UNL d   1      -1.103   0.247   0.537  0.00  0.00     0.284 C 
ATOM      9  H3  UNL d   1       0.263  -1.282   0.176  0.00  0.00     0.395 HD
ENDBRANCH   1   7
TORSDOF 1
ENDMDL
