MODEL 1
REMARK minimizedAffinity -5.09520006
REMARK minimizedRMSD -1
REMARK  1 active torsions:
REMARK  status: ('A' for Active; 'I' for Inactive)
REMARK    1  A    between atoms: N_2  and  C1_3 
ROOT
ATOM      1  C1  UNL d   1       0.110   0.051  -0.173  0.00  0.00     0.143 A 
ATOM      2  C2  UNL d   1      -1.262   0.139   0.085  0.00  0.00    -0.057 A 
ATOM      3  C3  UNL d   1      -1.742   0.711   1.269  0.00  0.00     0.033 A 
ATOM      4  C4  UNL d   1      -0.855   1.181   2.232  0.00  0.00    -0.042 A 
ATOM      5  C5  UNL d   1       0.514   1.081   2.007  0.00  0.00     0.033 A 
ATOM      6  C6  UNL d   1       0.987   0.514   0.820  0.00  0.00    -0.057 A 
ENDROOT
BRANCH   1   7
ATOM      7  N   UNL d   1       0.652  -0.596  -1.287  0.00  0.00    -0.732 N 
ATOM      8  C   UNL d   1       1.074   0.161  -2.446  0.00  0.00     0.284 C 
ATOM      9  H3  UNL d   1       1.285  -1.349  -1.029  0.00  0.00     0.395 HD
ENDBRANCH   1   7
TORSDOF 1
ENDMDL
