MODEL 1
REMARK minimizedAffinity -4.05490446
REMARK minimizedRMSD -1
REMARK  1 active torsions:
REMARK  status: ('A' for Active; 'I' for Inactive)
REMARK    1  A    between atoms: N_2  and  C1_3 
ROOT
ATOM      1  C1  UNL d   1      -0.052  -0.079   0.183  0.00  0.00     0.143 A 
ATOM      2  C2  UNL d   1      -1.400   0.258   0.345  0.00  0.00    -0.057 A 
ATOM      3  C3  UNL d   1      -1.852   0.908   1.500  0.00  0.00     0.033 A 
ATOM      4  C4  UNL d   1      -0.966   1.207   2.529  0.00  0.00    -0.042 A 
ATOM      5  C5  UNL d   1       0.374   0.858   2.401  0.00  0.00     0.033 A 
ATOM      6  C6  UNL d   1       0.821   0.215   1.243  0.00  0.00    -0.057 A 
ENDROOT
BRANCH   1   7
ATOM      7  N   UNL d   1       0.442  -0.814  -0.898  0.00  0.00    -0.732 N 
ATOM      8  C   UNL d   1       0.845  -0.149  -2.118  0.00  0.00     0.284 C 
ATOM      9  H3  UNL d   1       1.067  -1.562  -0.606  0.00  0.00     0.395 HD
ENDBRANCH   1   7
TORSDOF 1
ENDMDL
