MODEL 1
REMARK minimizedAffinity -2.49194098
REMARK minimizedRMSD -1
REMARK  1 active torsions:
REMARK  status: ('A' for Active; 'I' for Inactive)
REMARK    1  A    between atoms: N_2  and  C1_3 
ROOT
ATOM      1  C1  UNL d   1      -0.104  -0.050  -0.228  0.00  0.00     0.143 A 
ATOM      2  C2  UNL d   1      -1.447   0.208   0.068  0.00  0.00    -0.057 A 
ATOM      3  C3  UNL d   1      -1.816   0.887   1.235  0.00  0.00     0.033 A 
ATOM      4  C4  UNL d   1      -0.847   1.296   2.145  0.00  0.00    -0.042 A 
ATOM      5  C5  UNL d   1       0.492   1.029   1.884  0.00  0.00     0.033 A 
ATOM      6  C6  UNL d   1       0.855   0.356   0.714  0.00  0.00    -0.057 A 
ENDROOT
BRANCH   1   7
ATOM      7  N   UNL d   1       0.320  -0.807  -1.322  0.00  0.00    -0.732 N 
ATOM      8  C   UNL d   1       0.737  -0.161  -2.548  0.00  0.00     0.284 C 
ATOM      9  H3  UNL d   1       0.904  -1.593  -1.048  0.00  0.00     0.395 HD
ENDBRANCH   1   7
TORSDOF 1
ENDMDL
