MODEL 1
REMARK minimizedAffinity -4.82343912
REMARK minimizedRMSD -1
REMARK  1 active torsions:
REMARK  status: ('A' for Active; 'I' for Inactive)
REMARK    1  A    between atoms: N_2  and  C1_3 
ROOT
ATOM      1  C1  UNL d   1      -0.142   0.626   1.249  0.00  0.00     0.143 A 
ATOM      2  C2  UNL d   1       1.074   0.250   0.668  0.00  0.00    -0.057 A 
ATOM      3  C3  UNL d   1       1.122  -0.318  -0.611  0.00  0.00     0.033 A 
ATOM      4  C4  UNL d   1      -0.051  -0.547  -1.322  0.00  0.00    -0.042 A 
ATOM      5  C5  UNL d   1      -1.273  -0.203  -0.754  0.00  0.00     0.033 A 
ATOM      6  C6  UNL d   1      -1.314   0.370   0.521  0.00  0.00    -0.057 A 
ENDROOT
BRANCH   1   7
ATOM      7  N   UNL d   1      -0.264   1.105   2.556  0.00  0.00    -0.732 N 
ATOM      8  C   UNL d   1      -1.397   0.729   3.375  0.00  0.00     0.284 C 
ATOM      9  H3  UNL d   1       0.624   1.111   3.052  0.00  0.00     0.395 HD
ENDBRANCH   1   7
TORSDOF 1
ENDMDL
