MODEL 1
REMARK minimizedAffinity -2.45093155
REMARK minimizedRMSD -1
REMARK  1 active torsions:
REMARK  status: ('A' for Active; 'I' for Inactive)
REMARK    1  A    between atoms: N_2  and  C1_3 
ROOT
ATOM      1  C1  UNL d   1       0.139   0.129   0.432  0.00  0.00     0.143 A 
ATOM      2  C2  UNL d   1      -1.009  -0.270  -0.262  0.00  0.00    -0.057 A 
ATOM      3  C3  UNL d   1      -2.289  -0.030   0.253  0.00  0.00     0.033 A 
ATOM      4  C4  UNL d   1      -2.443   0.588   1.490  0.00  0.00    -0.042 A 
ATOM      5  C5  UNL d   1      -1.316   0.970   2.208  0.00  0.00     0.033 A 
ATOM      6  C6  UNL d   1      -0.040   0.735   1.685  0.00  0.00    -0.057 A 
ENDROOT
BRANCH   1   7
ATOM      7  N   UNL d   1       1.440  -0.169   0.019  0.00  0.00    -0.732 N 
ATOM      8  C   UNL d   1       2.367  -0.824   0.917  0.00  0.00     0.284 C 
ATOM      9  H3  UNL d   1       1.474  -0.513  -0.938  0.00  0.00     0.395 HD
ENDBRANCH   1   7
TORSDOF 1
ENDMDL
