MODEL 1
REMARK minimizedAffinity -3.86415291
REMARK minimizedRMSD -1
REMARK  1 active torsions:
REMARK  status: ('A' for Active; 'I' for Inactive)
REMARK    1  A    between atoms: N_2  and  C1_3 
ROOT
ATOM      1  C1  UNL d   1       0.059  -0.137  -0.650  0.00  0.00     0.143 A 
ATOM      2  C2  UNL d   1       0.992  -0.371   0.366  0.00  0.00    -0.057 A 
ATOM      3  C3  UNL d   1       0.710  -0.048   1.699  0.00  0.00     0.033 A 
ATOM      4  C4  UNL d   1      -0.503   0.544   2.036  0.00  0.00    -0.042 A 
ATOM      5  C5  UNL d   1      -1.435   0.809   1.039  0.00  0.00     0.033 A 
ATOM      6  C6  UNL d   1      -1.151   0.478  -0.289  0.00  0.00    -0.057 A 
ENDROOT
BRANCH   1   7
ATOM      7  N   UNL d   1       0.318  -0.345  -2.007  0.00  0.00    -0.732 N 
ATOM      8  C   UNL d   1       1.049   0.638  -2.777  0.00  0.00     0.284 C 
ATOM      9  H3  UNL d   1       0.576  -1.308  -2.210  0.00  0.00     0.395 HD
ENDBRANCH   1   7
TORSDOF 1
ENDMDL
