MODEL 1
REMARK minimizedAffinity -1.2417618
REMARK minimizedRMSD -1
REMARK  1 active torsions:
REMARK  status: ('A' for Active; 'I' for Inactive)
REMARK    1  A    between atoms: N_2  and  C1_3 
ROOT
ATOM      1  C1  UNL d   1       0.813   0.316  -4.945  0.00  0.00     0.143 A 
ATOM      2  C2  UNL d   1       0.715   1.082  -3.778  0.00  0.00    -0.057 A 
ATOM      3  C3  UNL d   1       1.855   1.455  -3.057  0.00  0.00     0.033 A 
ATOM      4  C4  UNL d   1       3.116   1.043  -3.476  0.00  0.00    -0.042 A 
ATOM      5  C5  UNL d   1       3.235   0.261  -4.619  0.00  0.00     0.033 A 
ATOM      6  C6  UNL d   1       2.093  -0.103  -5.338  0.00  0.00    -0.057 A 
ENDROOT
BRANCH   1   7
ATOM      7  N   UNL d   1      -0.290  -0.170  -5.651  0.00  0.00    -0.732 N 
ATOM      8  C   UNL d   1      -0.787  -1.508  -5.413  0.00  0.00     0.284 C 
ATOM      9  H3  UNL d   1      -1.020   0.531  -5.762  0.00  0.00     0.395 HD
ENDBRANCH   1   7
TORSDOF 1
ENDMDL
