MODEL 1
REMARK minimizedAffinity -4.62002039
REMARK minimizedRMSD -1
REMARK  1 active torsions:
REMARK  status: ('A' for Active; 'I' for Inactive)
REMARK    1  A    between atoms: N_2  and  C1_3 
ROOT
ATOM      1  C1  UNL d   1       0.139  -0.014  -0.039  0.00  0.00     0.143 A 
ATOM      2  C2  UNL d   1       0.866   0.658   0.950  0.00  0.00    -0.057 A 
ATOM      3  C3  UNL d   1       0.220   1.335   1.991  0.00  0.00     0.033 A 
ATOM      4  C4  UNL d   1      -1.169   1.377   2.047  0.00  0.00    -0.042 A 
ATOM      5  C5  UNL d   1      -1.912   0.737   1.061  0.00  0.00     0.033 A 
ATOM      6  C6  UNL d   1      -1.262   0.056   0.027  0.00  0.00    -0.057 A 
ENDROOT
BRANCH   1   7
ATOM      7  N   UNL d   1       0.721  -0.622  -1.154  0.00  0.00    -0.732 N 
ATOM      8  C   UNL d   1       0.882   0.109  -2.392  0.00  0.00     0.284 C 
ATOM      9  H3  UNL d   1       1.518  -1.204  -0.907  0.00  0.00     0.395 HD
ENDBRANCH   1   7
TORSDOF 1
ENDMDL
