MODEL 1
REMARK minimizedAffinity -2.86432171
REMARK minimizedRMSD -1
REMARK  0 active torsions:
REMARK  status: ('A' for Active; 'I' for Inactive)
ROOT
ATOM      1  C2' OXE d   1      -0.113  -0.110  -0.953  0.00  0.00     0.078 C 
ATOM      2  C1' OXE d   1      -1.308   0.006   1.585  0.00  0.00     0.078 C 
ATOM      3  C1  OXE d   1      -0.076  -0.850   1.426  0.00  0.00    -0.078 A 
ATOM      4  C2  OXE d   1       0.475  -0.938   0.170  0.00  0.00    -0.078 A 
ATOM      5  C3  OXE d   1       1.643  -1.670  -0.021  0.00  0.00     0.003 A 
ATOM      6  C4  OXE d   1       2.175  -2.440   1.020  0.00  0.00    -0.002 A 
ATOM      7  C5  OXE d   1       1.606  -2.396   2.297  0.00  0.00    -0.002 A 
ATOM      8  C6  OXE d   1       0.508  -1.575   2.527  0.00  0.00     0.003 A 
ENDROOT
TORSDOF 0
ENDMDL
