MODEL 1
REMARK minimizedAffinity -2.41582704
REMARK minimizedRMSD -1
REMARK  0 active torsions:
REMARK  status: ('A' for Active; 'I' for Inactive)
ROOT
ATOM      1  C2' OXE d   1       0.552  -1.137   2.648  0.00  0.00     0.078 C 
ATOM      2  C1' OXE d   1      -1.795  -0.061   1.546  0.00  0.00     0.078 C 
ATOM      3  C1  OXE d   1      -0.675  -0.421   0.602  0.00  0.00    -0.078 A 
ATOM      4  C2  OXE d   1       0.487  -0.904   1.154  0.00  0.00    -0.078 A 
ATOM      5  C3  OXE d   1       1.531  -1.303   0.324  0.00  0.00     0.003 A 
ATOM      6  C4  OXE d   1       1.466  -1.075  -1.055  0.00  0.00    -0.002 A 
ATOM      7  C5  OXE d   1       0.307  -0.547  -1.634  0.00  0.00    -0.002 A 
ATOM      8  C6  OXE d   1      -0.786  -0.256  -0.826  0.00  0.00     0.003 A 
ENDROOT
TORSDOF 0
ENDMDL
