MODEL 1
REMARK minimizedAffinity -1.72437048
REMARK minimizedRMSD -1
REMARK  0 active torsions:
REMARK  status: ('A' for Active; 'I' for Inactive)
ROOT
ATOM      1  C2' OXE d   1      -0.234   0.417  -1.452  0.00  0.00     0.078 C 
ATOM      2  C1' OXE d   1       2.062  -1.001  -0.681  0.00  0.00     0.078 C 
ATOM      3  C1  OXE d   1       1.023  -0.719   0.374  0.00  0.00    -0.078 A 
ATOM      4  C2  OXE d   1      -0.075   0.017  -0.001  0.00  0.00    -0.078 A 
ATOM      5  C3  OXE d   1      -1.090   0.259   0.920  0.00  0.00     0.003 A 
ATOM      6  C4  OXE d   1      -0.931  -0.106   2.263  0.00  0.00    -0.002 A 
ATOM      7  C5  OXE d   1       0.198  -0.821   2.675  0.00  0.00    -0.002 A 
ATOM      8  C6  OXE d   1       1.163  -1.172   1.736  0.00  0.00     0.003 A 
ENDROOT
TORSDOF 0
ENDMDL
