MODEL 1
REMARK minimizedAffinity -4.78417349
REMARK minimizedRMSD -1
REMARK  0 active torsions:
REMARK  status: ('A' for Active; 'I' for Inactive)
ROOT
ATOM      1  C2' OXE d   1       2.566  -1.336   0.033  0.00  0.00     0.078 C 
ATOM      2  C1' OXE d   1       1.271  -0.676   2.435  0.00  0.00     0.078 C 
ATOM      3  C1  OXE d   1       0.598  -0.287   1.143  0.00  0.00    -0.078 A 
ATOM      4  C2  OXE d   1       1.261  -0.572  -0.027  0.00  0.00    -0.078 A 
ATOM      5  C3  OXE d   1       0.659  -0.284  -1.248  0.00  0.00     0.003 A 
ATOM      6  C4  OXE d   1      -0.544   0.431  -1.294  0.00  0.00    -0.002 A 
ATOM      7  C5  OXE d   1      -1.217   0.766  -0.115  0.00  0.00    -0.002 A 
ATOM      8  C6  OXE d   1      -0.682   0.378   1.109  0.00  0.00     0.003 A 
ENDROOT
TORSDOF 0
ENDMDL
