MODEL 1
REMARK minimizedAffinity 0.286497682
REMARK minimizedRMSD -1
REMARK  0 active torsions:
REMARK  status: ('A' for Active; 'I' for Inactive)
ROOT
ATOM      1  C2' OXE d   1       0.934  -0.250   0.299  0.00  0.00     0.078 C 
ATOM      2  C1' OXE d   1      -1.805  -0.803   0.033  0.00  0.00     0.078 C 
ATOM      3  C1  OXE d   1      -1.206   0.238  -0.879  0.00  0.00    -0.078 A 
ATOM      4  C2  OXE d   1       0.125   0.536  -0.710  0.00  0.00    -0.078 A 
ATOM      5  C3  OXE d   1       0.740   1.450  -1.561  0.00  0.00     0.003 A 
ATOM      6  C4  OXE d   1      -0.017   2.180  -2.484  0.00  0.00    -0.002 A 
ATOM      7  C5  OXE d   1      -1.382   1.920  -2.646  0.00  0.00    -0.002 A 
ATOM      8  C6  OXE d   1      -1.982   0.925  -1.882  0.00  0.00     0.003 A 
ENDROOT
TORSDOF 0
ENDMDL
