MODEL 1
REMARK minimizedAffinity -3.77227354
REMARK minimizedRMSD -1
REMARK  0 active torsions:
REMARK  status: ('A' for Active; 'I' for Inactive)
ROOT
ATOM      1  C2' OXE d   1      -1.860   0.378   1.564  0.00  0.00     0.078 C 
ATOM      2  C1' OXE d   1       0.113  -1.320   2.617  0.00  0.00     0.078 C 
ATOM      3  C1  OXE d   1       0.266  -0.864   1.187  0.00  0.00    -0.078 A 
ATOM      4  C2  OXE d   1      -0.728  -0.072   0.666  0.00  0.00    -0.078 A 
ATOM      5  C3  OXE d   1      -0.608   0.421  -0.631  0.00  0.00     0.003 A 
ATOM      6  C4  OXE d   1       0.436  -0.008  -1.458  0.00  0.00    -0.002 A 
ATOM      7  C5  OXE d   1       1.438  -0.847  -0.960  0.00  0.00    -0.002 A 
ATOM      8  C6  OXE d   1       1.391  -1.250   0.370  0.00  0.00     0.003 A 
ENDROOT
TORSDOF 0
ENDMDL
