MODEL 1
REMARK minimizedAffinity -4.86842012
REMARK minimizedRMSD -1
REMARK  0 active torsions:
REMARK  status: ('A' for Active; 'I' for Inactive)
ROOT
ATOM      1  C2' OXE d   1      -0.104   0.386  -0.200  0.00  0.00     0.078 C 
ATOM      2  C1' OXE d   1       1.610  -1.512  -1.359  0.00  0.00     0.078 C 
ATOM      3  C1  OXE d   1       1.657  -1.344   0.139  0.00  0.00    -0.078 A 
ATOM      4  C2  OXE d   1       0.849  -0.380   0.693  0.00  0.00    -0.078 A 
ATOM      5  C3  OXE d   1       0.813  -0.222   2.076  0.00  0.00     0.003 A 
ATOM      6  C4  OXE d   1       1.704  -0.927   2.893  0.00  0.00    -0.002 A 
ATOM      7  C5  OXE d   1       2.564  -1.885   2.345  0.00  0.00    -0.002 A 
ATOM      8  C6  OXE d   1       2.523  -2.135   0.978  0.00  0.00     0.003 A 
ENDROOT
TORSDOF 0
ENDMDL
