MODEL 1
REMARK minimizedAffinity -3.60345054
REMARK minimizedRMSD -1
REMARK  0 active torsions:
REMARK  status: ('A' for Active; 'I' for Inactive)
ROOT
ATOM      1  C2' OXE d   1      -2.173   0.713   1.905  0.00  0.00     0.078 C 
ATOM      2  C1' OXE d   1       0.082  -0.881   2.411  0.00  0.00     0.078 C 
ATOM      3  C1  OXE d   1      -0.124  -0.381   1.003  0.00  0.00    -0.078 A 
ATOM      4  C2  OXE d   1      -1.255   0.359   0.755  0.00  0.00    -0.078 A 
ATOM      5  C3  OXE d   1      -1.466   0.891  -0.514  0.00  0.00     0.003 A 
ATOM      6  C4  OXE d   1      -0.618   0.551  -1.575  0.00  0.00    -0.002 A 
ATOM      7  C5  OXE d   1       0.518  -0.234  -1.352  0.00  0.00    -0.002 A 
ATOM      8  C6  OXE d   1       0.802  -0.672  -0.063  0.00  0.00     0.003 A 
ENDROOT
TORSDOF 0
ENDMDL
