MODEL 1
REMARK minimizedAffinity -5.1082201
REMARK minimizedRMSD -1
REMARK  0 active torsions:
REMARK  status: ('A' for Active; 'I' for Inactive)
ROOT
ATOM      1  C2' OXE d   1      -2.252  -0.445   0.823  0.00  0.00     0.078 C 
ATOM      2  C1' OXE d   1      -0.386  -0.085  -1.243  0.00  0.00     0.078 C 
ATOM      3  C1  OXE d   1       0.107  -0.673   0.056  0.00  0.00    -0.078 A 
ATOM      4  C2  OXE d   1      -0.804  -0.802   1.077  0.00  0.00    -0.078 A 
ATOM      5  C3  OXE d   1      -0.414  -1.389   2.277  0.00  0.00     0.003 A 
ATOM      6  C4  OXE d   1       0.929  -1.708   2.508  0.00  0.00    -0.002 A 
ATOM      7  C5  OXE d   1       1.881  -1.547   1.495  0.00  0.00    -0.002 A 
ATOM      8  C6  OXE d   1       1.479  -1.072   0.251  0.00  0.00     0.003 A 
ENDROOT
TORSDOF 0
ENDMDL
