MODEL 1
REMARK minimizedAffinity -4.90357065
REMARK minimizedRMSD -1
REMARK  0 active torsions:
REMARK  status: ('A' for Active; 'I' for Inactive)
ROOT
ATOM      1  C2' OXE d   1       1.492  -1.492   2.730  0.00  0.00     0.078 C 
ATOM      2  C1' OXE d   1       2.743  -1.336   0.222  0.00  0.00     0.078 C 
ATOM      3  C1  OXE d   1       1.275  -0.995   0.299  0.00  0.00    -0.078 A 
ATOM      4  C2  OXE d   1       0.660  -1.119   1.521  0.00  0.00    -0.078 A 
ATOM      5  C3  OXE d   1      -0.679  -0.765   1.659  0.00  0.00     0.003 A 
ATOM      6  C4  OXE d   1      -1.442  -0.431   0.534  0.00  0.00    -0.002 A 
ATOM      7  C5  OXE d   1      -0.845  -0.338  -0.728  0.00  0.00    -0.002 A 
ATOM      8  C6  OXE d   1       0.519  -0.575  -0.855  0.00  0.00     0.003 A 
ENDROOT
TORSDOF 0
ENDMDL
