MODEL 1
REMARK minimizedAffinity -5.84582901
REMARK minimizedRMSD -1
REMARK  0 active torsions:
REMARK  status: ('A' for Active; 'I' for Inactive)
ROOT
ATOM      1  C2' OXE d   1       0.279  -0.894  -1.473  0.00  0.00     0.078 C 
ATOM      2  C1' OXE d   1       2.464  -2.301  -0.412  0.00  0.00     0.078 C 
ATOM      3  C1  OXE d   1       1.478  -1.698   0.557  0.00  0.00    -0.078 A 
ATOM      4  C2  OXE d   1       0.437  -0.972   0.030  0.00  0.00    -0.078 A 
ATOM      5  C3  OXE d   1      -0.532  -0.441   0.877  0.00  0.00     0.003 A 
ATOM      6  C4  OXE d   1      -0.373  -0.509   2.266  0.00  0.00    -0.002 A 
ATOM      7  C5  OXE d   1       0.701  -1.210   2.824  0.00  0.00    -0.002 A 
ATOM      8  C6  OXE d   1       1.610  -1.845   1.986  0.00  0.00     0.003 A 
ENDROOT
TORSDOF 0
ENDMDL
