MODEL 1
REMARK minimizedAffinity -3.77659059
REMARK minimizedRMSD -1
REMARK  1 active torsions:
REMARK  status: ('A' for Active; 'I' for Inactive)
REMARK    1  A    between atoms: C3_4  and  O_7 
ROOT
ATOM      1  C   UNL d   1      -0.160  -0.017   0.162  0.00  0.00    -0.033 A 
ATOM      2  C1  UNL d   1      -0.616   0.007  -1.157  0.00  0.00     0.039 A 
ATOM      3  C2  UNL d   1      -0.674  -1.174  -1.899  0.00  0.00    -0.080 A 
ATOM      4  C3  UNL d   1      -0.276  -2.371  -1.310  0.00  0.00     0.150 A 
ATOM      5  C4  UNL d   1       0.176  -2.403   0.005  0.00  0.00    -0.007 A 
ATOM      6  C5  UNL d   1       0.235  -1.222   0.744  0.00  0.00     0.039 A 
ENDROOT
BRANCH   4   7
ATOM      7  O   UNL d   1      -0.311  -3.549  -1.996  0.00  0.00    -0.526 OA
ATOM      8  H5  UNL d   1      -0.617  -3.369  -2.901  0.00  0.00     0.418 HD
ENDBRANCH   4   7
TORSDOF 1
ENDMDL
