MODEL 1
REMARK minimizedAffinity -3.86780787
REMARK minimizedRMSD -1
REMARK  1 active torsions:
REMARK  status: ('A' for Active; 'I' for Inactive)
REMARK    1  A    between atoms: C3_4  and  O_7 
ROOT
ATOM      1  C   UNL d   1      -0.692  -0.336   0.566  0.00  0.00    -0.033 A 
ATOM      2  C1  UNL d   1      -1.521   0.664   1.077  0.00  0.00     0.039 A 
ATOM      3  C2  UNL d   1      -1.318   1.996   0.710  0.00  0.00    -0.080 A 
ATOM      4  C3  UNL d   1      -0.285   2.314  -0.167  0.00  0.00     0.150 A 
ATOM      5  C4  UNL d   1       0.543   1.322  -0.682  0.00  0.00    -0.007 A 
ATOM      6  C5  UNL d   1       0.340  -0.008  -0.315  0.00  0.00     0.039 A 
ENDROOT
BRANCH   4   7
ATOM      7  O   UNL d   1      -0.045   3.600  -0.550  0.00  0.00    -0.526 OA
ATOM      8  H5  UNL d   1      -0.677   4.180  -0.092  0.00  0.00     0.418 HD
ENDBRANCH   4   7
TORSDOF 1
ENDMDL
