MODEL 1
REMARK minimizedAffinity -3.81101513
REMARK minimizedRMSD -1
REMARK  1 active torsions:
REMARK  status: ('A' for Active; 'I' for Inactive)
REMARK    1  A    between atoms: C3_4  and  O_7 
ROOT
ATOM      1  C   UNL d   1      -2.128   0.669  -0.132  0.00  0.00    -0.033 A 
ATOM      2  C1  UNL d   1      -1.684   1.972   0.099  0.00  0.00     0.039 A 
ATOM      3  C2  UNL d   1      -0.336   2.213   0.373  0.00  0.00    -0.080 A 
ATOM      4  C3  UNL d   1       0.555   1.145   0.413  0.00  0.00     0.150 A 
ATOM      5  C4  UNL d   1       0.120  -0.156   0.180  0.00  0.00    -0.007 A 
ATOM      6  C5  UNL d   1      -1.226  -0.395  -0.093  0.00  0.00     0.039 A 
ENDROOT
BRANCH   4   7
ATOM      7  O   UNL d   1       1.879   1.330   0.681  0.00  0.00    -0.526 OA
ATOM      8  H5  UNL d   1       2.029   2.276   0.849  0.00  0.00     0.418 HD
ENDBRANCH   4   7
TORSDOF 1
ENDMDL
