MODEL 1
REMARK minimizedAffinity -1.99661982
REMARK minimizedRMSD -1
REMARK  1 active torsions:
REMARK  status: ('A' for Active; 'I' for Inactive)
REMARK    1  A    between atoms: C3_4  and  O_7 
ROOT
ATOM      1  C   UNL d   1       0.797  -1.341   0.062  0.00  0.00    -0.033 A 
ATOM      2  C1  UNL d   1       1.846  -0.421   0.127  0.00  0.00     0.039 A 
ATOM      3  C2  UNL d   1       1.577   0.933   0.337  0.00  0.00    -0.080 A 
ATOM      4  C3  UNL d   1       0.258   1.354   0.481  0.00  0.00     0.150 A 
ATOM      5  C4  UNL d   1      -0.791   0.443   0.421  0.00  0.00    -0.007 A 
ATOM      6  C5  UNL d   1      -0.521  -0.909   0.211  0.00  0.00     0.039 A 
ENDROOT
BRANCH   4   7
ATOM      7  O   UNL d   1      -0.053   2.665   0.682  0.00  0.00    -0.526 OA
ATOM      8  H5  UNL d   1       0.770   3.182   0.672  0.00  0.00     0.418 HD
ENDBRANCH   4   7
TORSDOF 1
ENDMDL
