MODEL 1
REMARK minimizedAffinity -4.7299118
REMARK minimizedRMSD -1
REMARK  1 active torsions:
REMARK  status: ('A' for Active; 'I' for Inactive)
REMARK    1  A    between atoms: C3_4  and  O_7 
ROOT
ATOM      1  C   UNL d   1       0.510  -1.980   1.010  0.00  0.00    -0.033 A 
ATOM      2  C1  UNL d   1      -0.738  -1.411   1.273  0.00  0.00     0.039 A 
ATOM      3  C2  UNL d   1      -0.917  -0.031   1.151  0.00  0.00    -0.080 A 
ATOM      4  C3  UNL d   1       0.158   0.766   0.766  0.00  0.00     0.150 A 
ATOM      5  C4  UNL d   1       1.402   0.204   0.499  0.00  0.00    -0.007 A 
ATOM      6  C5  UNL d   1       1.579  -1.173   0.622  0.00  0.00     0.039 A 
ENDROOT
BRANCH   4   7
ATOM      7  O   UNL d   1       0.033   2.117   0.638  0.00  0.00    -0.526 OA
ATOM      8  H5  UNL d   1      -0.874   2.367   0.882  0.00  0.00     0.418 HD
ENDBRANCH   4   7
TORSDOF 1
ENDMDL
