MODEL 1
REMARK minimizedAffinity -4.67931795
REMARK minimizedRMSD -1
REMARK  1 active torsions:
REMARK  status: ('A' for Active; 'I' for Inactive)
REMARK    1  A    between atoms: C3_4  and  O_7 
ROOT
ATOM      1  C   UNL d   1      -0.623  -0.316   0.584  0.00  0.00    -0.033 A 
ATOM      2  C1  UNL d   1       0.661   0.033   0.159  0.00  0.00     0.039 A 
ATOM      3  C2  UNL d   1       0.950   1.356  -0.180  0.00  0.00    -0.080 A 
ATOM      4  C3  UNL d   1      -0.051   2.319  -0.090  0.00  0.00     0.150 A 
ATOM      5  C4  UNL d   1      -1.331   1.979   0.335  0.00  0.00    -0.007 A 
ATOM      6  C5  UNL d   1      -1.618   0.657   0.673  0.00  0.00     0.039 A 
ENDROOT
BRANCH   4   7
ATOM      7  O   UNL d   1       0.182   3.622  -0.416  0.00  0.00    -0.526 OA
ATOM      8  H5  UNL d   1       1.102   3.703  -0.720  0.00  0.00     0.418 HD
ENDBRANCH   4   7
TORSDOF 1
ENDMDL
