MODEL 1
REMARK minimizedAffinity -4.650177
REMARK minimizedRMSD -1
REMARK  1 active torsions:
REMARK  status: ('A' for Active; 'I' for Inactive)
REMARK    1  A    between atoms: C3_4  and  O_7 
ROOT
ATOM      1  C   UNL d   1      -0.660  -0.982   0.555  0.00  0.00    -0.033 A 
ATOM      2  C1  UNL d   1       0.606  -0.504   0.208  0.00  0.00     0.039 A 
ATOM      3  C2  UNL d   1       0.787   0.848  -0.088  0.00  0.00    -0.080 A 
ATOM      4  C3  UNL d   1      -0.304   1.712  -0.032  0.00  0.00     0.150 A 
ATOM      5  C4  UNL d   1      -1.567   1.244   0.316  0.00  0.00    -0.007 A 
ATOM      6  C5  UNL d   1      -1.746  -0.108   0.610  0.00  0.00     0.039 A 
ENDROOT
BRANCH   4   7
ATOM      7  O   UNL d   1      -0.177   3.039  -0.317  0.00  0.00    -0.526 OA
ATOM      8  H5  UNL d   1       0.745   3.213  -0.569  0.00  0.00     0.418 HD
ENDBRANCH   4   7
TORSDOF 1
ENDMDL
