MODEL 1
REMARK minimizedAffinity -3.39730453
REMARK minimizedRMSD -1
REMARK  1 active torsions:
REMARK  status: ('A' for Active; 'I' for Inactive)
REMARK    1  A    between atoms: C3_4  and  O_7 
ROOT
ATOM      1  C   UNL d   1      -0.483   1.926   0.566  0.00  0.00    -0.033 A 
ATOM      2  C1  UNL d   1      -1.587   1.110   0.818  0.00  0.00     0.039 A 
ATOM      3  C2  UNL d   1      -1.494  -0.271   0.632  0.00  0.00    -0.080 A 
ATOM      4  C3  UNL d   1      -0.293  -0.822   0.195  0.00  0.00     0.150 A 
ATOM      5  C4  UNL d   1       0.812  -0.015  -0.055  0.00  0.00    -0.007 A 
ATOM      6  C5  UNL d   1       0.717   1.364   0.131  0.00  0.00     0.039 A 
ENDROOT
BRANCH   4   7
ATOM      7  O   UNL d   1      -0.155  -2.163  -0.006  0.00  0.00    -0.526 OA
ATOM      8  H5  UNL d   1      -1.008  -2.591   0.179  0.00  0.00     0.418 HD
ENDBRANCH   4   7
TORSDOF 1
ENDMDL
