MODEL 1
REMARK minimizedAffinity -4.61324883
REMARK minimizedRMSD -1
REMARK  1 active torsions:
REMARK  status: ('A' for Active; 'I' for Inactive)
REMARK    1  A    between atoms: C3_4  and  O_7 
ROOT
ATOM      1  C   UNL d   1       0.067   2.481   0.250  0.00  0.00    -0.033 A 
ATOM      2  C1  UNL d   1       1.188   2.971   0.922  0.00  0.00     0.039 A 
ATOM      3  C2  UNL d   1       2.310   2.158   1.097  0.00  0.00    -0.080 A 
ATOM      4  C3  UNL d   1       2.298   0.860   0.593  0.00  0.00     0.150 A 
ATOM      5  C4  UNL d   1       1.186   0.367  -0.082  0.00  0.00    -0.007 A 
ATOM      6  C5  UNL d   1       0.066   1.180  -0.254  0.00  0.00     0.039 A 
ENDROOT
BRANCH   4   7
ATOM      7  O   UNL d   1       3.367   0.028   0.743  0.00  0.00    -0.526 OA
ATOM      8  H5  UNL d   1       4.051   0.493   1.253  0.00  0.00     0.418 HD
ENDBRANCH   4   7
TORSDOF 1
ENDMDL
