MODEL 1
REMARK minimizedAffinity -4.40760231
REMARK minimizedRMSD -1
REMARK  1 active torsions:
REMARK  status: ('A' for Active; 'I' for Inactive)
REMARK    1  A    between atoms: C3_4  and  O_7 
ROOT
ATOM      1  C   UNL d   1       1.182  -1.218   0.642  0.00  0.00    -0.033 A 
ATOM      2  C1  UNL d   1      -0.135  -0.767   0.542  0.00  0.00     0.039 A 
ATOM      3  C2  UNL d   1      -0.397   0.587   0.329  0.00  0.00    -0.080 A 
ATOM      4  C3  UNL d   1       0.666   1.479   0.217  0.00  0.00     0.150 A 
ATOM      5  C4  UNL d   1       1.981   1.036   0.312  0.00  0.00    -0.007 A 
ATOM      6  C5  UNL d   1       2.240  -0.317   0.525  0.00  0.00     0.039 A 
ENDROOT
BRANCH   4   7
ATOM      7  O   UNL d   1       0.460   2.811   0.013  0.00  0.00    -0.526 OA
ATOM      8  H5  UNL d   1      -0.498   2.976  -0.003  0.00  0.00     0.418 HD
ENDBRANCH   4   7
TORSDOF 1
ENDMDL
