MODEL 1
REMARK minimizedAffinity -5.50604343
REMARK minimizedRMSD -1
REMARK  1 active torsions:
REMARK  status: ('A' for Active; 'I' for Inactive)
REMARK    1  A    between atoms: C3_4  and  O_7 
ROOT
ATOM      1  C   UNL d   1       0.023  -0.285   0.301  0.00  0.00    -0.033 A 
ATOM      2  C1  UNL d   1       1.157   0.252  -0.311  0.00  0.00     0.039 A 
ATOM      3  C2  UNL d   1       1.262   1.631  -0.503  0.00  0.00    -0.080 A 
ATOM      4  C3  UNL d   1       0.228   2.461  -0.078  0.00  0.00     0.150 A 
ATOM      5  C4  UNL d   1      -0.903   1.933   0.536  0.00  0.00    -0.007 A 
ATOM      6  C5  UNL d   1      -1.006   0.555   0.726  0.00  0.00     0.039 A 
ENDROOT
BRANCH   4   7
ATOM      7  O   UNL d   1       0.283   3.812  -0.248  0.00  0.00    -0.526 OA
ATOM      8  H5  UNL d   1       1.109   4.031  -0.712  0.00  0.00     0.418 HD
ENDBRANCH   4   7
TORSDOF 1
ENDMDL
