MODEL 1
REMARK minimizedAffinity -5.02508688
REMARK minimizedRMSD -1
REMARK  1 active torsions:
REMARK  status: ('A' for Active; 'I' for Inactive)
REMARK    1  A    between atoms: C3_4  and  O_7 
ROOT
ATOM      1  C   UNL d   1       0.461   3.056   0.205  0.00  0.00    -0.033 A 
ATOM      2  C1  UNL d   1      -0.758   2.480   0.571  0.00  0.00     0.039 A 
ATOM      3  C2  UNL d   1      -0.941   1.101   0.460  0.00  0.00    -0.080 A 
ATOM      4  C3  UNL d   1       0.101   0.309  -0.016  0.00  0.00     0.150 A 
ATOM      5  C4  UNL d   1       1.319   0.876  -0.378  0.00  0.00    -0.007 A 
ATOM      6  C5  UNL d   1       1.499   2.254  -0.267  0.00  0.00     0.039 A 
ENDROOT
BRANCH   4   7
ATOM      7  O   UNL d   1      -0.032  -1.041  -0.146  0.00  0.00    -0.526 OA
ATOM      8  H5  UNL d   1      -0.935  -1.288   0.114  0.00  0.00     0.418 HD
ENDBRANCH   4   7
TORSDOF 1
ENDMDL
