MODEL 1
REMARK minimizedAffinity -2.20401192
REMARK minimizedRMSD -1
REMARK  1 active torsions:
REMARK  status: ('A' for Active; 'I' for Inactive)
REMARK    1  A    between atoms: C3_4  and  O_7 
ROOT
ATOM      1  C   UNL d   1      -0.866  -3.702  -2.583  0.00  0.00    -0.033 A 
ATOM      2  C1  UNL d   1      -1.807  -3.575  -1.560  0.00  0.00     0.039 A 
ATOM      3  C2  UNL d   1      -1.626  -2.622  -0.556  0.00  0.00    -0.080 A 
ATOM      4  C3  UNL d   1      -0.502  -1.801  -0.588  0.00  0.00     0.150 A 
ATOM      5  C4  UNL d   1       0.438  -1.919  -1.606  0.00  0.00    -0.007 A 
ATOM      6  C5  UNL d   1       0.256  -2.873  -2.607  0.00  0.00     0.039 A 
ENDROOT
BRANCH   4   7
ATOM      7  O   UNL d   1      -0.280  -0.860   0.372  0.00  0.00    -0.526 OA
ATOM      8  H5  UNL d   1      -0.996  -0.912   1.027  0.00  0.00     0.418 HD
ENDBRANCH   4   7
TORSDOF 1
ENDMDL
