MODEL 1
REMARK minimizedAffinity -4.64477062
REMARK minimizedRMSD -1
REMARK  1 active torsions:
REMARK  status: ('A' for Active; 'I' for Inactive)
REMARK    1  A    between atoms: C3_4  and  O_7 
ROOT
ATOM      1  C   UNL d   1       1.053   3.173  -0.043  0.00  0.00    -0.033 A 
ATOM      2  C1  UNL d   1      -0.015   3.403   0.826  0.00  0.00     0.039 A 
ATOM      3  C2  UNL d   1      -0.977   2.412   1.030  0.00  0.00    -0.080 A 
ATOM      4  C3  UNL d   1      -0.859   1.197   0.360  0.00  0.00     0.150 A 
ATOM      5  C4  UNL d   1       0.204   0.960  -0.504  0.00  0.00    -0.007 A 
ATOM      6  C5  UNL d   1       1.164   1.951  -0.708  0.00  0.00     0.039 A 
ENDROOT
BRANCH   4   7
ATOM      7  O   UNL d   1      -1.776   0.201   0.524  0.00  0.00    -0.526 OA
ATOM      8  H5  UNL d   1      -2.469   0.517   1.127  0.00  0.00     0.418 HD
ENDBRANCH   4   7
TORSDOF 1
ENDMDL
