MODEL 1
REMARK minimizedAffinity 3.23514295
REMARK minimizedRMSD -1
REMARK  1 active torsions:
REMARK  status: ('A' for Active; 'I' for Inactive)
REMARK    1  A    between atoms: C1_2  and  C2_3 
ROOT
ATOM      1  C2  UNL d   1       2.367  -0.708   2.491  0.00  0.00    -0.073 A 
ATOM      2  C3  UNL d   1       1.266  -1.349   1.911  0.00  0.00    -0.002 A 
ATOM      3  C4  UNL d   1       0.957  -2.667   2.251  0.00  0.00     0.004 A 
ATOM      4  C5  UNL d   1       1.740  -3.354   3.179  0.00  0.00    -0.004 A 
ATOM      5  C6  UNL d   1       2.837  -2.727   3.778  0.00  0.00    -0.075 A 
ATOM      6  C7  UNL d   1       3.691  -3.453   4.776  0.00  0.00     0.076 C 
ATOM      7  C8  UNL d   1       3.142  -1.404   3.429  0.00  0.00     0.001 A 
ENDROOT
BRANCH   1   8
ATOM      8  C1  UNL d   1       2.700   0.717   2.132  0.00  0.00     0.053 C 
ATOM      9  C   UNL d   1       3.477   0.809   0.828  0.00  0.00     0.018 C 
ENDBRANCH   1   8
TORSDOF 1
ENDMDL
