MODEL 1
REMARK minimizedAffinity 4.59503222
REMARK minimizedRMSD -1
REMARK  1 active torsions:
REMARK  status: ('A' for Active; 'I' for Inactive)
REMARK    1  A    between atoms: C1_2  and  C2_3 
ROOT
ATOM      1  C2  UNL d   1      -0.137   2.284   0.571  0.00  0.00    -0.073 A 
ATOM      2  C3  UNL d   1       1.209   2.639   0.424  0.00  0.00    -0.002 A 
ATOM      3  C4  UNL d   1       2.215   1.712   0.701  0.00  0.00     0.004 A 
ATOM      4  C5  UNL d   1       1.887   0.423   1.119  0.00  0.00    -0.004 A 
ATOM      5  C6  UNL d   1       0.548   0.046   1.260  0.00  0.00    -0.075 A 
ATOM      6  C7  UNL d   1       0.178  -1.336   1.711  0.00  0.00     0.076 C 
ATOM      7  C8  UNL d   1      -0.457   0.983   0.983  0.00  0.00     0.001 A 
ENDROOT
BRANCH   1   8
ATOM      8  C1  UNL d   1      -1.228   3.279   0.267  0.00  0.00     0.053 C 
ATOM      9  C   UNL d   1      -0.752   4.714   0.431  0.00  0.00     0.018 C 
ENDBRANCH   1   8
TORSDOF 1
ENDMDL
