MODEL 1
REMARK minimizedAffinity 0.311190546
REMARK minimizedRMSD -1
REMARK  1 active torsions:
REMARK  status: ('A' for Active; 'I' for Inactive)
REMARK    1  A    between atoms: C1_2  and  C2_3 
ROOT
ATOM      1  C2  UNL d   1       2.270   0.459   2.445  0.00  0.00    -0.073 A 
ATOM      2  C3  UNL d   1       2.568   1.142   3.629  0.00  0.00    -0.002 A 
ATOM      3  C4  UNL d   1       2.378   0.525   4.866  0.00  0.00     0.004 A 
ATOM      4  C5  UNL d   1       1.896  -0.782   4.931  0.00  0.00    -0.004 A 
ATOM      5  C6  UNL d   1       1.603  -1.486   3.759  0.00  0.00    -0.075 A 
ATOM      6  C7  UNL d   1       1.082  -2.892   3.812  0.00  0.00     0.076 C 
ATOM      7  C8  UNL d   1       1.794  -0.858   2.520  0.00  0.00     0.001 A 
ENDROOT
BRANCH   1   8
ATOM      8  C1  UNL d   1       2.479   1.119   1.106  0.00  0.00     0.053 C 
ATOM      9  C   UNL d   1       1.169   1.337   0.367  0.00  0.00     0.018 C 
ENDBRANCH   1   8
TORSDOF 1
ENDMDL
