MODEL 1
REMARK minimizedAffinity 0.235592142
REMARK minimizedRMSD -1
REMARK  1 active torsions:
REMARK  status: ('A' for Active; 'I' for Inactive)
REMARK    1  A    between atoms: C1_2  and  C2_3 
ROOT
ATOM      1  C2  UNL d   1       1.444  -1.636   3.399  0.00  0.00    -0.073 A 
ATOM      2  C3  UNL d   1       0.512  -2.321   2.611  0.00  0.00    -0.002 A 
ATOM      3  C4  UNL d   1       0.226  -1.884   1.317  0.00  0.00     0.004 A 
ATOM      4  C5  UNL d   1       0.873  -0.764   0.795  0.00  0.00    -0.004 A 
ATOM      5  C6  UNL d   1       1.817  -0.074   1.563  0.00  0.00    -0.075 A 
ATOM      6  C7  UNL d   1       2.520   1.134   1.017  0.00  0.00     0.076 C 
ATOM      7  C8  UNL d   1       2.096  -0.517   2.862  0.00  0.00     0.001 A 
ENDROOT
BRANCH   1   8
ATOM      8  C1  UNL d   1       1.761  -2.108   4.794  0.00  0.00     0.053 C 
ATOM      9  C   UNL d   1       1.416  -3.576   4.992  0.00  0.00     0.018 C 
ENDBRANCH   1   8
TORSDOF 1
ENDMDL
