MODEL 1
REMARK minimizedAffinity 4.68593025
REMARK minimizedRMSD -1
REMARK  1 active torsions:
REMARK  status: ('A' for Active; 'I' for Inactive)
REMARK    1  A    between atoms: C1_2  and  C2_3 
ROOT
ATOM      1  C2  UNL d   1       1.079  -0.563   1.736  0.00  0.00    -0.073 A 
ATOM      2  C3  UNL d   1       2.266   0.178   1.771  0.00  0.00    -0.002 A 
ATOM      3  C4  UNL d   1       2.374   1.370   1.053  0.00  0.00     0.004 A 
ATOM      4  C5  UNL d   1       1.297   1.836   0.301  0.00  0.00    -0.004 A 
ATOM      5  C6  UNL d   1       0.098   1.117   0.263  0.00  0.00    -0.075 A 
ATOM      6  C7  UNL d   1      -1.069   1.604  -0.544  0.00  0.00     0.076 C 
ATOM      7  C8  UNL d   1      -0.002  -0.081   0.984  0.00  0.00     0.001 A 
ENDROOT
BRANCH   1   8
ATOM      8  C1  UNL d   1       0.956  -1.847   2.515  0.00  0.00     0.053 C 
ATOM      9  C   UNL d   1       1.745  -1.805   3.813  0.00  0.00     0.018 C 
ENDBRANCH   1   8
TORSDOF 1
ENDMDL
