MODEL 1
REMARK minimizedAffinity -4.30663967
REMARK minimizedRMSD -1
REMARK  0 active torsions:
REMARK  status: ('A' for Active; 'I' for Inactive)
ROOT
ATOM      1  C   UNL d   1      -2.841  -0.931  -0.976  0.00  0.00     0.078 C 
ATOM      2  C1  UNL d   1      -1.469  -0.991  -0.373  0.00  0.00    -0.077 A 
ATOM      3  C2  UNL d   1      -1.162  -1.918   0.631  0.00  0.00    -0.001 A 
ATOM      4  C3  UNL d   1       0.116  -1.956   1.190  0.00  0.00     0.003 A 
ATOM      5  C4  UNL d   1       1.098  -1.068   0.752  0.00  0.00    -0.005 A 
ATOM      6  C5  UNL d   1       0.801  -0.141  -0.244  0.00  0.00     0.003 A 
ATOM      7  C6  UNL d   1      -0.477  -0.102  -0.804  0.00  0.00    -0.001 A 
ENDROOT
TORSDOF 0
ENDMDL
