MODEL 1
REMARK minimizedAffinity -4.85890627
REMARK minimizedRMSD -1
REMARK  0 active torsions:
REMARK  status: ('A' for Active; 'I' for Inactive)
ROOT
ATOM      1  C   UNL d   1       1.545   0.356   0.632  0.00  0.00     0.078 C 
ATOM      2  C1  UNL d   1       0.238   0.101  -0.057  0.00  0.00    -0.077 A 
ATOM      3  C2  UNL d   1       0.066   0.405  -1.413  0.00  0.00    -0.001 A 
ATOM      4  C3  UNL d   1      -1.160   0.172  -2.039  0.00  0.00     0.003 A 
ATOM      5  C4  UNL d   1      -2.224  -0.364  -1.316  0.00  0.00    -0.005 A 
ATOM      6  C5  UNL d   1      -2.063  -0.667   0.034  0.00  0.00     0.003 A 
ATOM      7  C6  UNL d   1      -0.838  -0.435   0.662  0.00  0.00    -0.001 A 
ENDROOT
TORSDOF 0
ENDMDL
