MODEL 1
REMARK minimizedAffinity -4.48494434
REMARK minimizedRMSD -1
REMARK  0 active torsions:
REMARK  status: ('A' for Active; 'I' for Inactive)
ROOT
ATOM      1  C   UNL d   1      -3.249  -0.819  -0.364  0.00  0.00     0.078 C 
ATOM      2  C1  UNL d   1      -1.796  -0.451  -0.382  0.00  0.00    -0.077 A 
ATOM      3  C2  UNL d   1      -1.208   0.110  -1.523  0.00  0.00    -0.001 A 
ATOM      4  C3  UNL d   1       0.148   0.438  -1.529  0.00  0.00     0.003 A 
ATOM      5  C4  UNL d   1       0.929   0.209  -0.397  0.00  0.00    -0.005 A 
ATOM      6  C5  UNL d   1       0.354  -0.351   0.741  0.00  0.00     0.003 A 
ATOM      7  C6  UNL d   1      -1.003  -0.680   0.749  0.00  0.00    -0.001 A 
ENDROOT
TORSDOF 0
ENDMDL
