MODEL 1
REMARK minimizedAffinity -4.43322372
REMARK minimizedRMSD -1
REMARK  0 active torsions:
REMARK  status: ('A' for Active; 'I' for Inactive)
ROOT
ATOM      1  C   UNL d   1      -2.811  -0.442   0.315  0.00  0.00     0.078 C 
ATOM      2  C1  UNL d   1      -1.314  -0.367   0.328  0.00  0.00    -0.077 A 
ATOM      3  C2  UNL d   1      -0.563  -1.090   1.264  0.00  0.00    -0.001 A 
ATOM      4  C3  UNL d   1       0.830  -1.003   1.271  0.00  0.00     0.003 A 
ATOM      5  C4  UNL d   1       1.485  -0.194   0.345  0.00  0.00    -0.005 A 
ATOM      6  C5  UNL d   1       0.746   0.531  -0.588  0.00  0.00     0.003 A 
ATOM      7  C6  UNL d   1      -0.647   0.446  -0.597  0.00  0.00    -0.001 A 
ENDROOT
TORSDOF 0
ENDMDL
