MODEL 1
REMARK minimizedAffinity -4.40241337
REMARK minimizedRMSD -1
REMARK  0 active torsions:
REMARK  status: ('A' for Active; 'I' for Inactive)
ROOT
ATOM      1  C   UNL d   1       1.913   0.997   0.148  0.00  0.00     0.078 C 
ATOM      2  C1  UNL d   1       0.604   0.461  -0.349  0.00  0.00    -0.077 A 
ATOM      3  C2  UNL d   1       0.110   0.819  -1.609  0.00  0.00    -0.001 A 
ATOM      4  C3  UNL d   1      -1.115   0.321  -2.055  0.00  0.00     0.003 A 
ATOM      5  C4  UNL d   1      -1.857  -0.539  -1.246  0.00  0.00    -0.005 A 
ATOM      6  C5  UNL d   1      -1.374  -0.900   0.010  0.00  0.00     0.003 A 
ATOM      7  C6  UNL d   1      -0.149  -0.402   0.457  0.00  0.00    -0.001 A 
ENDROOT
TORSDOF 0
ENDMDL
