MODEL 1
REMARK minimizedAffinity -2.42910147
REMARK minimizedRMSD -1
REMARK  0 active torsions:
REMARK  status: ('A' for Active; 'I' for Inactive)
ROOT
ATOM      1  C   UNL d   1       1.702   0.687   0.186  0.00  0.00     0.078 C 
ATOM      2  C1  UNL d   1       0.380   0.194  -0.320  0.00  0.00    -0.077 A 
ATOM      3  C2  UNL d   1      -0.068   0.522  -1.605  0.00  0.00    -0.001 A 
ATOM      4  C3  UNL d   1      -1.306   0.064  -2.060  0.00  0.00     0.003 A 
ATOM      5  C4  UNL d   1      -2.107  -0.724  -1.234  0.00  0.00    -0.005 A 
ATOM      6  C5  UNL d   1      -1.670  -1.053   0.047  0.00  0.00     0.003 A 
ATOM      7  C6  UNL d   1      -0.433  -0.596   0.503  0.00  0.00    -0.001 A 
ENDROOT
TORSDOF 0
ENDMDL
