MODEL 1
REMARK minimizedAffinity -5.62461662
REMARK minimizedRMSD -1
REMARK  0 active torsions:
REMARK  status: ('A' for Active; 'I' for Inactive)
ROOT
ATOM      1  C   UNL d   1      -3.619  -1.300  -0.044  0.00  0.00     0.078 C 
ATOM      2  C1  UNL d   1      -2.220  -0.843  -0.327  0.00  0.00    -0.077 A 
ATOM      3  C2  UNL d   1      -1.259  -0.789   0.690  0.00  0.00    -0.001 A 
ATOM      4  C3  UNL d   1       0.038  -0.352   0.414  0.00  0.00     0.003 A 
ATOM      5  C4  UNL d   1       0.385   0.036  -0.879  0.00  0.00    -0.005 A 
ATOM      6  C5  UNL d   1      -0.566  -0.011  -1.897  0.00  0.00     0.003 A 
ATOM      7  C6  UNL d   1      -1.862  -0.448  -1.623  0.00  0.00    -0.001 A 
ENDROOT
TORSDOF 0
ENDMDL
