MODEL 1
REMARK minimizedAffinity -4.2135005
REMARK minimizedRMSD -1
REMARK  0 active torsions:
REMARK  status: ('A' for Active; 'I' for Inactive)
ROOT
ATOM      1  C   UNL d   1       0.881   0.164   0.426  0.00  0.00     0.078 C 
ATOM      2  C1  UNL d   1      -0.364  -0.661   0.289  0.00  0.00    -0.077 A 
ATOM      3  C2  UNL d   1      -0.538  -1.831   1.038  0.00  0.00    -0.001 A 
ATOM      4  C3  UNL d   1      -1.698  -2.595   0.894  0.00  0.00     0.003 A 
ATOM      5  C4  UNL d   1      -2.690  -2.198   0.000  0.00  0.00    -0.005 A 
ATOM      6  C5  UNL d   1      -2.524  -1.037  -0.751  0.00  0.00     0.003 A 
ATOM      7  C6  UNL d   1      -1.366  -0.272  -0.608  0.00  0.00    -0.001 A 
ENDROOT
TORSDOF 0
ENDMDL
