MODEL 1
REMARK minimizedAffinity -5.50437498
REMARK minimizedRMSD -1
REMARK  0 active torsions:
REMARK  status: ('A' for Active; 'I' for Inactive)
ROOT
ATOM      1  C   UNL d   1       1.474   0.508   0.192  0.00  0.00     0.078 C 
ATOM      2  C1  UNL d   1       0.055   0.086  -0.047  0.00  0.00    -0.077 A 
ATOM      3  C2  UNL d   1      -0.456  -0.019  -1.346  0.00  0.00    -0.001 A 
ATOM      4  C3  UNL d   1      -1.782  -0.404  -1.554  0.00  0.00     0.003 A 
ATOM      5  C4  UNL d   1      -2.607  -0.684  -0.467  0.00  0.00    -0.005 A 
ATOM      6  C5  UNL d   1      -2.108  -0.580   0.829  0.00  0.00     0.003 A 
ATOM      7  C6  UNL d   1      -0.783  -0.196   1.039  0.00  0.00    -0.001 A 
ENDROOT
TORSDOF 0
ENDMDL
