MODEL 1
REMARK minimizedAffinity -5.06790447
REMARK minimizedRMSD -1
REMARK  0 active torsions:
REMARK  status: ('A' for Active; 'I' for Inactive)
ROOT
ATOM      1  C   UNL d   1       1.320  -0.001   0.190  0.00  0.00     0.078 C 
ATOM      2  C1  UNL d   1      -0.150  -0.090  -0.095  0.00  0.00    -0.077 A 
ATOM      3  C2  UNL d   1      -0.689   0.442  -1.273  0.00  0.00    -0.001 A 
ATOM      4  C3  UNL d   1      -2.060   0.361  -1.521  0.00  0.00     0.003 A 
ATOM      5  C4  UNL d   1      -2.904  -0.249  -0.595  0.00  0.00    -0.005 A 
ATOM      6  C5  UNL d   1      -2.377  -0.779   0.581  0.00  0.00     0.003 A 
ATOM      7  C6  UNL d   1      -1.006  -0.699   0.831  0.00  0.00    -0.001 A 
ENDROOT
TORSDOF 0
ENDMDL
