MODEL 1
REMARK minimizedAffinity -5.28119946
REMARK minimizedRMSD -1
REMARK  0 active torsions:
REMARK  status: ('A' for Active; 'I' for Inactive)
ROOT
ATOM      1  C   UNL d   1       0.933  -0.016   0.001  0.00  0.00     0.078 C 
ATOM      2  C1  UNL d   1      -0.551  -0.212  -0.097  0.00  0.00    -0.077 A 
ATOM      3  C2  UNL d   1      -1.303  -0.594   1.021  0.00  0.00    -0.001 A 
ATOM      4  C3  UNL d   1      -2.681  -0.783   0.914  0.00  0.00     0.003 A 
ATOM      5  C4  UNL d   1      -3.320  -0.593  -0.310  0.00  0.00    -0.005 A 
ATOM      6  C5  UNL d   1      -2.580  -0.215  -1.428  0.00  0.00     0.003 A 
ATOM      7  C6  UNL d   1      -1.201  -0.026  -1.323  0.00  0.00    -0.001 A 
ENDROOT
TORSDOF 0
ENDMDL
