MODEL 1
REMARK minimizedAffinity -3.1377995
REMARK minimizedRMSD -1
REMARK  0 active torsions:
REMARK  status: ('A' for Active; 'I' for Inactive)
ROOT
ATOM      1  C   UNL d   1      -3.261  -0.611  -0.402  0.00  0.00     0.078 C 
ATOM      2  C1  UNL d   1      -1.801  -0.271  -0.437  0.00  0.00    -0.077 A 
ATOM      3  C2  UNL d   1      -0.904  -0.849   0.470  0.00  0.00    -0.001 A 
ATOM      4  C3  UNL d   1       0.451  -0.516   0.432  0.00  0.00     0.003 A 
ATOM      5  C4  UNL d   1       0.921   0.397  -0.510  0.00  0.00    -0.005 A 
ATOM      6  C5  UNL d   1       0.035   0.979  -1.416  0.00  0.00     0.003 A 
ATOM      7  C6  UNL d   1      -1.320   0.647  -1.379  0.00  0.00    -0.001 A 
ENDROOT
TORSDOF 0
ENDMDL
