MODEL 1
REMARK minimizedAffinity -4.50779057
REMARK minimizedRMSD -1
REMARK  3 active torsions:
REMARK  status: ('A' for Active; 'I' for Inactive)
REMARK    1  A    between atoms: C3'_2  and  C2'_3 
REMARK    2  A    between atoms: C2'_3  and  C1'_4 
REMARK    3  A    between atoms: C1'_4  and  C1_5 
ROOT
ATOM      1  C1  N4B d   1       0.383  -0.806  -0.652  0.00  0.00    -0.075 A 
ATOM      2  C2  N4B d   1      -0.603  -0.962   0.347  0.00  0.00     0.002 A 
ATOM      3  C3  N4B d   1      -0.686  -2.137   1.053  0.00  0.00     0.002 A 
ATOM      4  C4  N4B d   1       0.190  -3.173   0.765  0.00  0.00    -0.004 A 
ATOM      5  C5  N4B d   1       1.155  -3.006  -0.184  0.00  0.00     0.002 A 
ATOM      6  C6  N4B d   1       1.253  -1.828  -0.898  0.00  0.00     0.002 A 
ENDROOT
BRANCH   1   7
ATOM      7  C1' N4B d   1       0.458   0.428  -1.509  0.00  0.00     0.057 C 
BRANCH   7   8
ATOM      8  C2' N4B d   1       0.121   1.649  -0.658  0.00  0.00     0.009 C 
BRANCH   8   9
ATOM      9  C3' N4B d   1       1.359   2.454  -0.303  0.00  0.00     0.004 C 
ATOM     10  C4' N4B d   1       1.067   3.583   0.640  0.00  0.00     0.003 C 
ENDBRANCH   8   9
ENDBRANCH   7   8
ENDBRANCH   1   7
TORSDOF 3
ENDMDL
