MODEL 1
REMARK minimizedAffinity -2.59269786
REMARK minimizedRMSD -1
REMARK  3 active torsions:
REMARK  status: ('A' for Active; 'I' for Inactive)
REMARK    1  A    between atoms: C3'_2  and  C2'_3 
REMARK    2  A    between atoms: C2'_3  and  C1'_4 
REMARK    3  A    between atoms: C1'_4  and  C1_5 
ROOT
ATOM      1  C1  N4B d   1      -0.154   0.518  -0.191  0.00  0.00    -0.075 A 
ATOM      2  C2  N4B d   1       0.265  -0.700  -0.768  0.00  0.00     0.002 A 
ATOM      3  C3  N4B d   1      -0.144  -1.894  -0.225  0.00  0.00     0.002 A 
ATOM      4  C4  N4B d   1      -0.953  -1.893   0.901  0.00  0.00    -0.004 A 
ATOM      5  C5  N4B d   1      -1.374  -0.711   1.437  0.00  0.00     0.002 A 
ATOM      6  C6  N4B d   1      -0.974   0.495   0.900  0.00  0.00     0.002 A 
ENDROOT
BRANCH   1   7
ATOM      7  C1' N4B d   1       0.337   1.847  -0.697  0.00  0.00     0.057 C 
BRANCH   7   8
ATOM      8  C2' N4B d   1       0.314   2.858   0.445  0.00  0.00     0.009 C 
BRANCH   8   9
ATOM      9  C3' N4B d   1       1.643   3.580   0.591  0.00  0.00     0.004 C 
ATOM     10  C4' N4B d   1       2.672   3.108  -0.392  0.00  0.00     0.003 C 
ENDBRANCH   8   9
ENDBRANCH   7   8
ENDBRANCH   1   7
TORSDOF 3
ENDMDL
