MODEL 1
REMARK minimizedAffinity -5.10266638
REMARK minimizedRMSD -1
REMARK  3 active torsions:
REMARK  status: ('A' for Active; 'I' for Inactive)
REMARK    1  A    between atoms: C3'_2  and  C2'_3 
REMARK    2  A    between atoms: C2'_3  and  C1'_4 
REMARK    3  A    between atoms: C1'_4  and  C1_5 
ROOT
ATOM      1  C1  N4B d   1       0.030   0.007   0.032  0.00  0.00    -0.075 A 
ATOM      2  C2  N4B d   1      -0.870  -0.469   1.012  0.00  0.00     0.002 A 
ATOM      3  C3  N4B d   1      -1.043  -1.820   1.186  0.00  0.00     0.002 A 
ATOM      4  C4  N4B d   1      -0.345  -2.710   0.384  0.00  0.00    -0.004 A 
ATOM      5  C5  N4B d   1       0.541  -2.243  -0.543  0.00  0.00     0.002 A 
ATOM      6  C6  N4B d   1       0.728  -0.887  -0.726  0.00  0.00     0.002 A 
ENDROOT
BRANCH   1   7
ATOM      7  C1' N4B d   1       0.188   1.475  -0.254  0.00  0.00     0.057 C 
BRANCH   7   8
ATOM      8  C2' N4B d   1       1.617   1.898   0.076  0.00  0.00     0.009 C 
BRANCH   8   9
ATOM      9  C3' N4B d   1       1.665   3.252   0.762  0.00  0.00     0.004 C 
ATOM     10  C4' N4B d   1       0.310   3.878   0.908  0.00  0.00     0.003 C 
ENDBRANCH   8   9
ENDBRANCH   7   8
ENDBRANCH   1   7
TORSDOF 3
ENDMDL
