MODEL 1
REMARK minimizedAffinity -4.88487625
REMARK minimizedRMSD -1
REMARK  3 active torsions:
REMARK  status: ('A' for Active; 'I' for Inactive)
REMARK    1  A    between atoms: C3'_2  and  C2'_3 
REMARK    2  A    between atoms: C2'_3  and  C1'_4 
REMARK    3  A    between atoms: C1'_4  and  C1_5 
ROOT
ATOM      1  C1  N4B d   1      -0.028  -0.441   0.534  0.00  0.00    -0.075 A 
ATOM      2  C2  N4B d   1       0.720  -1.294  -0.306  0.00  0.00     0.002 A 
ATOM      3  C3  N4B d   1       0.297  -2.581  -0.530  0.00  0.00     0.002 A 
ATOM      4  C4  N4B d   1      -0.855  -3.041   0.088  0.00  0.00    -0.004 A 
ATOM      5  C5  N4B d   1      -1.586  -2.204   0.878  0.00  0.00     0.002 A 
ATOM      6  C6  N4B d   1      -1.175  -0.906   1.109  0.00  0.00     0.002 A 
ENDROOT
BRANCH   1   7
ATOM      7  C1' N4B d   1       0.440   0.947   0.878  0.00  0.00     0.057 C 
BRANCH   7   8
ATOM      8  C2' N4B d   1       0.018   1.906  -0.231  0.00  0.00     0.009 C 
BRANCH   8   9
ATOM      9  C3' N4B d   1       0.412   3.340   0.078  0.00  0.00     0.004 C 
ATOM     10  C4' N4B d   1       1.867   3.482   0.416  0.00  0.00     0.003 C 
ENDBRANCH   8   9
ENDBRANCH   7   8
ENDBRANCH   1   7
TORSDOF 3
ENDMDL
