MODEL 1
REMARK minimizedAffinity 1.55354309
REMARK minimizedRMSD -1
REMARK  1 active torsions:
REMARK  status: ('A' for Active; 'I' for Inactive)
REMARK    1  A    between atoms: C1_2  and  C2_3 
ROOT
ATOM      1  C2  UNL d   1       2.071  -2.766   0.108  0.00  0.00    -0.076 A 
ATOM      2  C3  UNL d   1       1.120  -3.650  -0.431  0.00  0.00     0.004 A 
ATOM      3  C4  UNL d   1      -0.202  -3.253  -0.620  0.00  0.00    -0.003 A 
ATOM      4  C5  UNL d   1      -0.595  -1.964  -0.276  0.00  0.00     0.000 A 
ATOM      5  C6  UNL d   1       0.339  -1.068   0.243  0.00  0.00     0.000 A 
ATOM      6  C7  UNL d   1       1.680  -1.448   0.425  0.00  0.00    -0.073 A 
ATOM      7  C8  UNL d   1       2.643  -0.442   0.994  0.00  0.00     0.078 C 
ENDROOT
BRANCH   1   8
ATOM      8  C1  UNL d   1       3.484  -3.261   0.316  0.00  0.00     0.053 C 
ATOM      9  C   UNL d   1       3.614  -4.761   0.102  0.00  0.00     0.018 C 
ENDBRANCH   1   8
TORSDOF 1
ENDMDL
