MODEL 1
REMARK minimizedAffinity -4.90205526
REMARK minimizedRMSD -1
REMARK  1 active torsions:
REMARK  status: ('A' for Active; 'I' for Inactive)
REMARK    1  A    between atoms: C1_2  and  C2_3 
ROOT
ATOM      1  C2  UNL d   1       2.372  -3.017  -0.011  0.00  0.00    -0.076 A 
ATOM      2  C3  UNL d   1       1.328  -3.935  -0.223  0.00  0.00     0.004 A 
ATOM      3  C4  UNL d   1      -0.005  -3.535  -0.149  0.00  0.00    -0.003 A 
ATOM      4  C5  UNL d   1      -0.317  -2.211   0.138  0.00  0.00     0.000 A 
ATOM      5  C6  UNL d   1       0.706  -1.283   0.333  0.00  0.00     0.000 A 
ATOM      6  C7  UNL d   1       2.055  -1.666   0.246  0.00  0.00    -0.073 A 
ATOM      7  C8  UNL d   1       3.117  -0.625   0.472  0.00  0.00     0.078 C 
ENDROOT
BRANCH   1   8
ATOM      8  C1  UNL d   1       3.798  -3.514  -0.077  0.00  0.00     0.053 C 
ATOM      9  C   UNL d   1       3.888  -5.032  -0.057  0.00  0.00     0.018 C 
ENDBRANCH   1   8
TORSDOF 1
ENDMDL
