MODEL 1
REMARK minimizedAffinity 2.35218382
REMARK minimizedRMSD -1
REMARK  1 active torsions:
REMARK  status: ('A' for Active; 'I' for Inactive)
REMARK    1  A    between atoms: C1_2  and  C2_3 
ROOT
ATOM      1  C2  UNL d   1       2.590  -1.595   0.916  0.00  0.00    -0.076 A 
ATOM      2  C3  UNL d   1       1.674  -0.592   1.276  0.00  0.00     0.004 A 
ATOM      3  C4  UNL d   1       0.305  -0.851   1.312  0.00  0.00    -0.003 A 
ATOM      4  C5  UNL d   1      -0.170  -2.118   0.990  0.00  0.00     0.000 A 
ATOM      5  C6  UNL d   1       0.726  -3.130   0.648  0.00  0.00     0.000 A 
ATOM      6  C7  UNL d   1       2.111  -2.890   0.623  0.00  0.00    -0.073 A 
ATOM      7  C8  UNL d   1       3.032  -4.016   0.242  0.00  0.00     0.078 C 
ENDROOT
BRANCH   1   8
ATOM      8  C1  UNL d   1       4.061  -1.248   0.868  0.00  0.00     0.053 C 
ATOM      9  C   UNL d   1       4.591  -0.769   2.211  0.00  0.00     0.018 C 
ENDBRANCH   1   8
TORSDOF 1
ENDMDL
