MODEL 1
REMARK minimizedAffinity 0.340829164
REMARK minimizedRMSD -1
REMARK  1 active torsions:
REMARK  status: ('A' for Active; 'I' for Inactive)
REMARK    1  A    between atoms: C1_2  and  C2_3 
ROOT
ATOM      1  C2  UNL d   1       1.260  -2.586   0.002  0.00  0.00    -0.076 A 
ATOM      2  C3  UNL d   1      -0.089  -2.628   0.394  0.00  0.00     0.004 A 
ATOM      3  C4  UNL d   1      -0.617  -1.667   1.254  0.00  0.00    -0.003 A 
ATOM      4  C5  UNL d   1       0.196  -0.648   1.737  0.00  0.00     0.000 A 
ATOM      5  C6  UNL d   1       1.533  -0.580   1.344  0.00  0.00     0.000 A 
ATOM      6  C7  UNL d   1       2.076  -1.531   0.464  0.00  0.00    -0.073 A 
ATOM      7  C8  UNL d   1       3.525  -1.414   0.079  0.00  0.00     0.078 C 
ENDROOT
BRANCH   1   8
ATOM      8  C1  UNL d   1       1.783  -3.671  -0.912  0.00  0.00     0.053 C 
ATOM      9  C   UNL d   1       2.915  -4.468  -0.282  0.00  0.00     0.018 C 
ENDBRANCH   1   8
TORSDOF 1
ENDMDL
