MODEL 1
REMARK minimizedAffinity 1.02482164
REMARK minimizedRMSD -1
REMARK  1 active torsions:
REMARK  status: ('A' for Active; 'I' for Inactive)
REMARK    1  A    between atoms: C1_2  and  C2_3 
ROOT
ATOM      1  C2  UNL d   1       1.511  -1.818   0.637  0.00  0.00    -0.076 A 
ATOM      2  C3  UNL d   1       2.801  -1.264   0.563  0.00  0.00     0.004 A 
ATOM      3  C4  UNL d   1       3.910  -2.062   0.283  0.00  0.00    -0.003 A 
ATOM      4  C5  UNL d   1       3.746  -3.427   0.071  0.00  0.00     0.000 A 
ATOM      5  C6  UNL d   1       2.471  -3.990   0.124  0.00  0.00     0.000 A 
ATOM      6  C7  UNL d   1       1.341  -3.197   0.389  0.00  0.00    -0.073 A 
ATOM      7  C8  UNL d   1      -0.009  -3.858   0.439  0.00  0.00     0.078 C 
ENDROOT
BRANCH   1   8
ATOM      8  C1  UNL d   1       0.351  -0.908   0.971  0.00  0.00     0.053 C 
ATOM      9  C   UNL d   1       0.651   0.012   2.144  0.00  0.00     0.018 C 
ENDBRANCH   1   8
TORSDOF 1
ENDMDL
