MODEL 1
REMARK minimizedAffinity -3.33134079
REMARK minimizedRMSD -1
REMARK  1 active torsions:
REMARK  status: ('A' for Active; 'I' for Inactive)
REMARK    1  A    between atoms: C1_2  and  C2_3 
ROOT
ATOM      1  C2  UNL d   1       1.825  -1.476   0.595  0.00  0.00    -0.076 A 
ATOM      2  C3  UNL d   1       2.816  -2.454   0.407  0.00  0.00     0.004 A 
ATOM      3  C4  UNL d   1       2.475  -3.787   0.182  0.00  0.00    -0.003 A 
ATOM      4  C5  UNL d   1       1.137  -4.162   0.140  0.00  0.00     0.000 A 
ATOM      5  C6  UNL d   1       0.140  -3.202   0.306  0.00  0.00     0.000 A 
ATOM      6  C7  UNL d   1       0.466  -1.851   0.518  0.00  0.00    -0.073 A 
ATOM      7  C8  UNL d   1      -0.649  -0.858   0.697  0.00  0.00     0.078 C 
ENDROOT
BRANCH   1   8
ATOM      8  C1  UNL d   1       2.255  -0.051   0.862  0.00  0.00     0.053 C 
ATOM      9  C   UNL d   1       3.007   0.093   2.176  0.00  0.00     0.018 C 
ENDBRANCH   1   8
TORSDOF 1
ENDMDL
