MODEL 1
REMARK minimizedAffinity -2.80308294
REMARK minimizedRMSD -1
REMARK  1 active torsions:
REMARK  status: ('A' for Active; 'I' for Inactive)
REMARK    1  A    between atoms: C1_2  and  C2_3 
ROOT
ATOM      1  C2  UNL d   1       1.703  -1.473   0.457  0.00  0.00    -0.076 A 
ATOM      2  C3  UNL d   1       2.679  -2.458   0.225  0.00  0.00     0.004 A 
ATOM      3  C4  UNL d   1       2.319  -3.783  -0.013  0.00  0.00    -0.003 A 
ATOM      4  C5  UNL d   1       0.977  -4.146  -0.021  0.00  0.00     0.000 A 
ATOM      5  C6  UNL d   1      -0.006  -3.179   0.190  0.00  0.00     0.000 A 
ATOM      6  C7  UNL d   1       0.340  -1.835   0.414  0.00  0.00    -0.073 A 
ATOM      7  C8  UNL d   1      -0.761  -0.835   0.643  0.00  0.00     0.078 C 
ENDROOT
BRANCH   1   8
ATOM      8  C1  UNL d   1       2.154  -0.057   0.736  0.00  0.00     0.053 C 
ATOM      9  C   UNL d   1       3.022   0.044   1.981  0.00  0.00     0.018 C 
ENDBRANCH   1   8
TORSDOF 1
ENDMDL
