MODEL 1
REMARK minimizedAffinity -2.6766746
REMARK minimizedRMSD -1
REMARK  1 active torsions:
REMARK  status: ('A' for Active; 'I' for Inactive)
REMARK    1  A    between atoms: C1_2  and  C2_3 
ROOT
ATOM      1  C2  UNL d   1       1.424  -2.849   0.300  0.00  0.00    -0.076 A 
ATOM      2  C3  UNL d   1       2.181  -1.738   0.710  0.00  0.00     0.004 A 
ATOM      3  C4  UNL d   1       1.595  -0.480   0.840  0.00  0.00    -0.003 A 
ATOM      4  C5  UNL d   1       0.243  -0.312   0.562  0.00  0.00     0.000 A 
ATOM      5  C6  UNL d   1      -0.527  -1.407   0.172  0.00  0.00     0.000 A 
ATOM      6  C7  UNL d   1       0.044  -2.686   0.052  0.00  0.00    -0.073 A 
ATOM      7  C8  UNL d   1      -0.832  -3.830  -0.379  0.00  0.00     0.078 C 
ENDROOT
BRANCH   1   8
ATOM      8  C1  UNL d   1       2.119  -4.184   0.151  0.00  0.00     0.053 C 
ATOM      9  C   UNL d   1       3.634  -4.054   0.148  0.00  0.00     0.018 C 
ENDBRANCH   1   8
TORSDOF 1
ENDMDL
