MODEL 1
REMARK minimizedAffinity 11.3483391
REMARK minimizedRMSD -1
REMARK  1 active torsions:
REMARK  status: ('A' for Active; 'I' for Inactive)
REMARK    1  A    between atoms: C1_2  and  C2_3 
ROOT
ATOM      1  C2  UNL d   1      -2.541   1.873   3.805  0.00  0.00    -0.076 A 
ATOM      2  C3  UNL d   1      -2.454   1.110   4.983  0.00  0.00     0.004 A 
ATOM      3  C4  UNL d   1      -1.489   0.114   5.123  0.00  0.00    -0.003 A 
ATOM      4  C5  UNL d   1      -0.596  -0.136   4.087  0.00  0.00     0.000 A 
ATOM      5  C6  UNL d   1      -0.656   0.623   2.919  0.00  0.00     0.000 A 
ATOM      6  C7  UNL d   1      -1.612   1.642   2.768  0.00  0.00    -0.073 A 
ATOM      7  C8  UNL d   1      -1.637   2.425   1.484  0.00  0.00     0.078 C 
ENDROOT
BRANCH   1   8
ATOM      8  C1  UNL d   1      -3.626   2.921   3.700  0.00  0.00     0.053 C 
ATOM      9  C   UNL d   1      -4.642   2.824   4.827  0.00  0.00     0.018 C 
ENDBRANCH   1   8
TORSDOF 1
ENDMDL
