MODEL 1
REMARK minimizedAffinity 4.18912315
REMARK minimizedRMSD -1
REMARK  1 active torsions:
REMARK  status: ('A' for Active; 'I' for Inactive)
REMARK    1  A    between atoms: C1_2  and  C2_3 
ROOT
ATOM      1  C2  UNL d   1       2.253   3.664  -1.073  0.00  0.00    -0.076 A 
ATOM      2  C3  UNL d   1       1.745   2.982  -2.193  0.00  0.00     0.004 A 
ATOM      3  C4  UNL d   1       2.410   1.878  -2.723  0.00  0.00    -0.003 A 
ATOM      4  C5  UNL d   1       3.594   1.438  -2.142  0.00  0.00     0.000 A 
ATOM      5  C6  UNL d   1       4.103   2.092  -1.020  0.00  0.00     0.000 A 
ATOM      6  C7  UNL d   1       3.436   3.196  -0.463  0.00  0.00    -0.073 A 
ATOM      7  C8  UNL d   1       4.033   3.867   0.743  0.00  0.00     0.078 C 
ENDROOT
BRANCH   1   8
ATOM      8  C1  UNL d   1       1.502   4.872  -0.559  0.00  0.00     0.053 C 
ATOM      9  C   UNL d   1       0.473   4.510   0.502  0.00  0.00     0.018 C 
ENDBRANCH   1   8
TORSDOF 1
ENDMDL
