MODEL 1
REMARK minimizedAffinity 0.660636187
REMARK minimizedRMSD -1
REMARK  0 active torsions:
REMARK  status: ('A' for Active; 'I' for Inactive)
ROOT
ATOM      1  C4' PXY d   1      -6.000  -2.623   6.000  0.00  0.00     0.077 C 
ATOM      2  C1' PXY d   1      -4.444   0.451   1.359  0.00  0.00     0.077 C 
ATOM      3  C1  PXY d   1      -4.850  -0.366   2.569  0.00  0.00    -0.082 A 
ATOM      4  C2  PXY d   1      -5.641   0.169   3.485  0.00  0.00     0.003 A 
ATOM      5  C3  PXY d   1      -5.992  -0.545   4.601  0.00  0.00     0.003 A 
ATOM      6  C4  PXY d   1      -5.572  -1.839   4.757  0.00  0.00    -0.082 A 
ATOM      7  C5  PXY d   1      -4.773  -2.396   3.822  0.00  0.00     0.003 A 
ATOM      8  C6  PXY d   1      -4.395  -1.640   2.716  0.00  0.00     0.003 A 
ENDROOT
TORSDOF 0
ENDMDL
