MODEL 1
REMARK minimizedAffinity 11.7012739
REMARK minimizedRMSD -1
REMARK  0 active torsions:
REMARK  status: ('A' for Active; 'I' for Inactive)
ROOT
ATOM      1  C4' PXY d   1      -2.227   4.551  -3.075  0.00  0.00     0.077 C 
ATOM      2  C1' PXY d   1       1.467   2.614   0.927  0.00  0.00     0.077 C 
ATOM      3  C1  PXY d   1       0.495   3.131  -0.115  0.00  0.00    -0.082 A 
ATOM      4  C2  PXY d   1       0.011   2.304  -1.027  0.00  0.00     0.003 A 
ATOM      5  C3  PXY d   1      -0.844   2.762  -1.995  0.00  0.00     0.003 A 
ATOM      6  C4  PXY d   1      -1.250   4.070  -1.999  0.00  0.00    -0.082 A 
ATOM      7  C5  PXY d   1      -0.769   4.918  -1.065  0.00  0.00     0.003 A 
ATOM      8  C6  PXY d   1       0.130   4.442  -0.115  0.00  0.00     0.003 A 
ENDROOT
TORSDOF 0
ENDMDL
