MODEL 1
REMARK minimizedAffinity 12.9683447
REMARK minimizedRMSD -1
REMARK  0 active torsions:
REMARK  status: ('A' for Active; 'I' for Inactive)
ROOT
ATOM      1  C4' PXY d   1       1.194  -3.841  -4.187  0.00  0.00     0.077 C 
ATOM      2  C1' PXY d   1      -4.090  -5.551  -5.790  0.00  0.00     0.077 C 
ATOM      3  C1  PXY d   1      -2.707  -5.108  -5.358  0.00  0.00    -0.082 A 
ATOM      4  C2  PXY d   1      -2.110  -4.113  -5.995  0.00  0.00     0.003 A 
ATOM      5  C3  PXY d   1      -0.846  -3.720  -5.637  0.00  0.00     0.003 A 
ATOM      6  C4  PXY d   1      -0.207  -4.316  -4.583  0.00  0.00    -0.082 A 
ATOM      7  C5  PXY d   1      -0.813  -5.325  -3.922  0.00  0.00     0.003 A 
ATOM      8  C6  PXY d   1      -2.080  -5.736  -4.326  0.00  0.00     0.003 A 
ENDROOT
TORSDOF 0
ENDMDL
