MODEL 1
REMARK minimizedAffinity -1.80602443
REMARK minimizedRMSD -1
REMARK  0 active torsions:
REMARK  status: ('A' for Active; 'I' for Inactive)
ROOT
ATOM      1  C4' PXY d   1      -5.693  -5.851  -5.980  0.00  0.00     0.077 C 
ATOM      2  C1' PXY d   1      -0.399  -3.528  -5.971  0.00  0.00     0.077 C 
ATOM      3  C1  PXY d   1      -1.792  -4.126  -5.968  0.00  0.00    -0.082 A 
ATOM      4  C2  PXY d   1      -1.940  -5.441  -5.945  0.00  0.00     0.003 A 
ATOM      5  C3  PXY d   1      -3.192  -5.999  -5.974  0.00  0.00     0.003 A 
ATOM      6  C4  PXY d   1      -4.305  -5.203  -5.974  0.00  0.00    -0.082 A 
ATOM      7  C5  PXY d   1      -4.164  -3.860  -5.988  0.00  0.00     0.003 A 
ATOM      8  C6  PXY d   1      -2.883  -3.314  -5.999  0.00  0.00     0.003 A 
ENDROOT
TORSDOF 0
ENDMDL
