MODEL 1
REMARK minimizedAffinity 9.23480034
REMARK minimizedRMSD -1
REMARK  0 active torsions:
REMARK  status: ('A' for Active; 'I' for Inactive)
ROOT
ATOM      1  C4' PXY d   1      -0.651   6.000  -3.232  0.00  0.00     0.077 C 
ATOM      2  C1' PXY d   1      -0.415   2.239   1.151  0.00  0.00     0.077 C 
ATOM      3  C1  PXY d   1      -0.487   3.231   0.008  0.00  0.00    -0.082 A 
ATOM      4  C2  PXY d   1       0.015   2.906  -1.173  0.00  0.00     0.003 A 
ATOM      5  C3  PXY d   1      -0.013   3.804  -2.209  0.00  0.00     0.003 A 
ATOM      6  C4  PXY d   1      -0.609   5.026  -2.051  0.00  0.00    -0.082 A 
ATOM      7  C5  PXY d   1      -1.134   5.361  -0.853  0.00  0.00     0.003 A 
ATOM      8  C6  PXY d   1      -1.058   4.451   0.198  0.00  0.00     0.003 A 
ENDROOT
TORSDOF 0
ENDMDL
