MODEL 1
REMARK minimizedAffinity -3.37474489
REMARK minimizedRMSD -1
REMARK  0 active torsions:
REMARK  status: ('A' for Active; 'I' for Inactive)
ROOT
ATOM      1  C4' PXY d   1      -0.363  -3.404  -5.999  0.00  0.00     0.077 C 
ATOM      2  C1' PXY d   1      -5.515  -5.971  -5.473  0.00  0.00     0.077 C 
ATOM      3  C1  PXY d   1      -4.169  -5.288  -5.618  0.00  0.00    -0.082 A 
ATOM      4  C2  PXY d   1      -3.059  -5.999  -5.502  0.00  0.00     0.003 A 
ATOM      5  C3  PXY d   1      -1.834  -5.392  -5.598  0.00  0.00     0.003 A 
ATOM      6  C4  PXY d   1      -1.743  -4.053  -5.869  0.00  0.00    -0.082 A 
ATOM      7  C5  PXY d   1      -2.871  -3.323  -6.000  0.00  0.00     0.003 A 
ATOM      8  C6  PXY d   1      -4.105  -3.950  -5.857  0.00  0.00     0.003 A 
ENDROOT
TORSDOF 0
ENDMDL
