MODEL 1
REMARK minimizedAffinity 5.23014355
REMARK minimizedRMSD -1
REMARK  0 active torsions:
REMARK  status: ('A' for Active; 'I' for Inactive)
ROOT
ATOM      1  C4' PXY d   1      -0.395   5.269  -3.005  0.00  0.00     0.077 C 
ATOM      2  C1' PXY d   1      -0.297   2.188   1.886  0.00  0.00     0.077 C 
ATOM      3  C1  PXY d   1      -0.331   3.005   0.609  0.00  0.00    -0.082 A 
ATOM      4  C2  PXY d   1      -0.051   2.424  -0.546  0.00  0.00     0.003 A 
ATOM      5  C3  PXY d   1      -0.046   3.154  -1.707  0.00  0.00     0.003 A 
ATOM      6  C4  PXY d   1      -0.383   4.482  -1.691  0.00  0.00    -0.082 A 
ATOM      7  C5  PXY d   1      -0.680   5.079  -0.518  0.00  0.00     0.003 A 
ATOM      8  C6  PXY d   1      -0.639   4.329   0.654  0.00  0.00     0.003 A 
ENDROOT
TORSDOF 0
ENDMDL
