MODEL 1
REMARK minimizedAffinity 2.0283711
REMARK minimizedRMSD -1
REMARK  0 active torsions:
REMARK  status: ('A' for Active; 'I' for Inactive)
ROOT
ATOM      1  C4' PXY d   1      -0.436   6.000  -2.884  0.00  0.00     0.077 C 
ATOM      2  C1' PXY d   1      -0.378   2.443   1.672  0.00  0.00     0.077 C 
ATOM      3  C1  PXY d   1      -0.405   3.379   0.480  0.00  0.00    -0.082 A 
ATOM      4  C2  PXY d   1       0.392   3.150  -0.550  0.00  0.00     0.003 A 
ATOM      5  C3  PXY d   1       0.403   4.004  -1.623  0.00  0.00     0.003 A 
ATOM      6  C4  PXY d   1      -0.449   5.075  -1.663  0.00  0.00    -0.082 A 
ATOM      7  C5  PXY d   1      -1.273   5.310  -0.620  0.00  0.00     0.003 A 
ATOM      8  C6  PXY d   1      -1.239   4.454   0.476  0.00  0.00     0.003 A 
ENDROOT
TORSDOF 0
ENDMDL
