MODEL 1
REMARK minimizedAffinity 8.11171532
REMARK minimizedRMSD -1
REMARK  0 active torsions:
REMARK  status: ('A' for Active; 'I' for Inactive)
ROOT
ATOM      1  C4' PXY d   1       0.396  -1.906  -5.724  0.00  0.00     0.077 C 
ATOM      2  C1' PXY d   1      -3.681  -5.997  -5.965  0.00  0.00     0.077 C 
ATOM      3  C1  PXY d   1      -2.604  -4.932  -5.895  0.00  0.00    -0.082 A 
ATOM      4  C2  PXY d   1      -2.938  -3.656  -5.998  0.00  0.00     0.003 A 
ATOM      5  C3  PXY d   1      -1.973  -2.682  -5.969  0.00  0.00     0.003 A 
ATOM      6  C4  PXY d   1      -0.659  -3.015  -5.780  0.00  0.00    -0.082 A 
ATOM      7  C5  PXY d   1      -0.311  -4.314  -5.663  0.00  0.00     0.003 A 
ATOM      8  C6  PXY d   1      -1.301  -5.290  -5.737  0.00  0.00     0.003 A 
ENDROOT
TORSDOF 0
ENDMDL
