MODEL 1
REMARK minimizedAffinity -3.19074774
REMARK minimizedRMSD -1
REMARK  0 active torsions:
REMARK  status: ('A' for Active; 'I' for Inactive)
ROOT
ATOM      1  C4' PXY d   1      -5.933  -5.893  -5.969  0.00  0.00     0.077 C 
ATOM      2  C1' PXY d   1      -0.841  -3.157  -5.995  0.00  0.00     0.077 C 
ATOM      3  C1  PXY d   1      -2.171  -3.885  -5.993  0.00  0.00    -0.082 A 
ATOM      4  C2  PXY d   1      -3.297  -3.190  -5.996  0.00  0.00     0.003 A 
ATOM      5  C3  PXY d   1      -4.508  -3.832  -5.962  0.00  0.00     0.003 A 
ATOM      6  C4  PXY d   1      -4.568  -5.200  -5.980  0.00  0.00    -0.082 A 
ATOM      7  C5  PXY d   1      -3.423  -5.916  -5.988  0.00  0.00     0.003 A 
ATOM      8  C6  PXY d   1      -2.204  -5.245  -5.980  0.00  0.00     0.003 A 
ENDROOT
TORSDOF 0
ENDMDL
