MODEL 1
REMARK minimizedAffinity 11.9771709
REMARK minimizedRMSD -1
REMARK  2 active torsions:
REMARK  status: ('A' for Active; 'I' for Inactive)
REMARK    1  A    between atoms: C1_2  and  C2_3 
REMARK    2  A    between atoms: C2_3  and  C3_4 
ROOT
ATOM      1  C3  UNL d   1       3.898  -1.853   3.305  0.00  0.00    -0.075 A 
ATOM      2  C4  UNL d   1       2.864  -2.373   4.097  0.00  0.00     0.002 A 
ATOM      3  C5  UNL d   1       1.554  -1.919   3.939  0.00  0.00     0.002 A 
ATOM      4  C6  UNL d   1       1.264  -0.935   2.997  0.00  0.00    -0.004 A 
ATOM      5  C7  UNL d   1       2.286  -0.399   2.217  0.00  0.00     0.002 A 
ATOM      6  C8  UNL d   1       3.596  -0.854   2.369  0.00  0.00     0.002 A 
ENDROOT
BRANCH   1   7
ATOM      7  C2  UNL d   1       5.313  -2.360   3.450  0.00  0.00     0.056 C 
BRANCH   7   8
ATOM      8  C1  UNL d   1       6.000  -1.930   4.750  0.00  0.00     0.007 C 
ATOM      9  C   UNL d   1       5.283  -2.422   6.000  0.00  0.00     0.009 C 
ENDBRANCH   7   8
ENDBRANCH   1   7
TORSDOF 2
ENDMDL
