MODEL 1
REMARK minimizedAffinity -0.117709167
REMARK minimizedRMSD -1
REMARK  2 active torsions:
REMARK  status: ('A' for Active; 'I' for Inactive)
REMARK    1  A    between atoms: C1_2  and  C2_3 
REMARK    2  A    between atoms: C2_3  and  C3_4 
ROOT
ATOM      1  C3  UNL d   1       3.478  -0.983   3.925  0.00  0.00    -0.075 A 
ATOM      2  C4  UNL d   1       2.954  -1.476   5.129  0.00  0.00     0.002 A 
ATOM      3  C5  UNL d   1       3.753  -2.220   5.997  0.00  0.00     0.002 A 
ATOM      4  C6  UNL d   1       5.080  -2.490   5.669  0.00  0.00    -0.004 A 
ATOM      5  C7  UNL d   1       5.606  -2.020   4.468  0.00  0.00     0.002 A 
ATOM      6  C8  UNL d   1       4.810  -1.271   3.599  0.00  0.00     0.002 A 
ENDROOT
BRANCH   1   7
ATOM      7  C2  UNL d   1       2.626  -0.152   2.995  0.00  0.00     0.056 C 
BRANCH   7   8
ATOM      8  C1  UNL d   1       3.370   1.023   2.352  0.00  0.00     0.007 C 
ATOM      9  C   UNL d   1       2.998   2.372   2.955  0.00  0.00     0.009 C 
ENDBRANCH   7   8
ENDBRANCH   1   7
TORSDOF 2
ENDMDL
