MODEL 1
REMARK minimizedAffinity 3.62630534
REMARK minimizedRMSD -1
REMARK  2 active torsions:
REMARK  status: ('A' for Active; 'I' for Inactive)
REMARK    1  A    between atoms: C1_2  and  C2_3 
REMARK    2  A    between atoms: C2_3  and  C3_4 
ROOT
ATOM      1  C3  UNL d   1       3.445  -1.893   4.093  0.00  0.00    -0.075 A 
ATOM      2  C4  UNL d   1       3.592  -2.286   5.431  0.00  0.00     0.002 A 
ATOM      3  C5  UNL d   1       4.858  -2.539   5.960  0.00  0.00     0.002 A 
ATOM      4  C6  UNL d   1       5.990  -2.413   5.157  0.00  0.00    -0.004 A 
ATOM      5  C7  UNL d   1       5.854  -2.039   3.822  0.00  0.00     0.002 A 
ATOM      6  C8  UNL d   1       4.589  -1.781   3.291  0.00  0.00     0.002 A 
ENDROOT
BRANCH   1   7
ATOM      7  C2  UNL d   1       2.080  -1.589   3.523  0.00  0.00     0.056 C 
BRANCH   7   8
ATOM      8  C1  UNL d   1       2.096  -0.575   2.374  0.00  0.00     0.007 C 
ATOM      9  C   UNL d   1       2.250   0.865   2.846  0.00  0.00     0.009 C 
ENDBRANCH   7   8
ENDBRANCH   1   7
TORSDOF 2
ENDMDL
