MODEL 1
REMARK minimizedAffinity 2.5740087
REMARK minimizedRMSD -1
REMARK  2 active torsions:
REMARK  status: ('A' for Active; 'I' for Inactive)
REMARK    1  A    between atoms: C1_2  and  C2_3 
REMARK    2  A    between atoms: C2_3  and  C3_4 
ROOT
ATOM      1  C3  UNL d   1       2.640  -0.518   3.411  0.00  0.00    -0.075 A 
ATOM      2  C4  UNL d   1       3.508   0.572   3.256  0.00  0.00     0.002 A 
ATOM      3  C5  UNL d   1       3.288   1.516   2.252  0.00  0.00     0.002 A 
ATOM      4  C6  UNL d   1       2.205   1.377   1.386  0.00  0.00    -0.004 A 
ATOM      5  C7  UNL d   1       1.346   0.289   1.521  0.00  0.00     0.002 A 
ATOM      6  C8  UNL d   1       1.561  -0.655   2.527  0.00  0.00     0.002 A 
ENDROOT
BRANCH   1   7
ATOM      7  C2  UNL d   1       2.856  -1.527   4.514  0.00  0.00     0.056 C 
BRANCH   7   8
ATOM      8  C1  UNL d   1       4.329  -1.866   4.768  0.00  0.00     0.007 C 
ATOM      9  C   UNL d   1       4.539  -2.737   6.000  0.00  0.00     0.009 C 
ENDBRANCH   7   8
ENDBRANCH   1   7
TORSDOF 2
ENDMDL
