MODEL 1
REMARK minimizedAffinity 1.09630406
REMARK minimizedRMSD -1
REMARK  2 active torsions:
REMARK  status: ('A' for Active; 'I' for Inactive)
REMARK    1  A    between atoms: C1_2  and  C2_3 
REMARK    2  A    between atoms: C2_3  and  C3_4 
ROOT
ATOM      1  C3  UNL d   1       1.897  -2.105   3.770  0.00  0.00    -0.075 A 
ATOM      2  C4  UNL d   1       1.543  -0.795   4.122  0.00  0.00     0.002 A 
ATOM      3  C5  UNL d   1       1.540   0.220   3.165  0.00  0.00     0.002 A 
ATOM      4  C6  UNL d   1       1.901  -0.059   1.848  0.00  0.00    -0.004 A 
ATOM      5  C7  UNL d   1       2.271  -1.354   1.491  0.00  0.00     0.002 A 
ATOM      6  C8  UNL d   1       2.270  -2.372   2.446  0.00  0.00     0.002 A 
ENDROOT
BRANCH   1   7
ATOM      7  C2  UNL d   1       1.874  -3.214   4.795  0.00  0.00     0.056 C 
BRANCH   7   8
ATOM      8  C1  UNL d   1       0.641  -4.119   4.707  0.00  0.00     0.007 C 
ATOM      9  C   UNL d   1       0.355  -4.872   5.999  0.00  0.00     0.009 C 
ENDBRANCH   7   8
ENDBRANCH   1   7
TORSDOF 2
ENDMDL
