MODEL 1
REMARK minimizedAffinity 2.96582246
REMARK minimizedRMSD -1
REMARK  2 active torsions:
REMARK  status: ('A' for Active; 'I' for Inactive)
REMARK    1  A    between atoms: C1_2  and  C2_3 
REMARK    2  A    between atoms: C2_3  and  C3_4 
ROOT
ATOM      1  C3  UNL d   1       2.323  -3.178   5.290  0.00  0.00    -0.075 A 
ATOM      2  C4  UNL d   1       3.006  -4.403   5.311  0.00  0.00     0.002 A 
ATOM      3  C5  UNL d   1       2.340  -5.579   5.659  0.00  0.00     0.002 A 
ATOM      4  C6  UNL d   1       0.990  -5.544   5.998  0.00  0.00    -0.004 A 
ATOM      5  C7  UNL d   1       0.306  -4.330   5.996  0.00  0.00     0.002 A 
ATOM      6  C8  UNL d   1       0.968  -3.153   5.645  0.00  0.00     0.002 A 
ENDROOT
BRANCH   1   7
ATOM      7  C2  UNL d   1       3.031  -1.907   4.886  0.00  0.00     0.056 C 
BRANCH   7   8
ATOM      8  C1  UNL d   1       2.086  -0.758   4.515  0.00  0.00     0.007 C 
ATOM      9  C   UNL d   1       2.197  -0.337   3.056  0.00  0.00     0.009 C 
ENDBRANCH   7   8
ENDBRANCH   1   7
TORSDOF 2
ENDMDL
