MODEL 1
REMARK minimizedAffinity 10.5525723
REMARK minimizedRMSD -1
REMARK  2 active torsions:
REMARK  status: ('A' for Active; 'I' for Inactive)
REMARK    1  A    between atoms: C1_2  and  C2_3 
REMARK    2  A    between atoms: C2_3  and  C3_4 
ROOT
ATOM      1  C3  UNL d   1       2.745   1.500   1.743  0.00  0.00    -0.075 A 
ATOM      2  C4  UNL d   1       1.593   2.277   1.932  0.00  0.00     0.002 A 
ATOM      3  C5  UNL d   1       1.303   3.334   1.069  0.00  0.00     0.002 A 
ATOM      4  C6  UNL d   1       2.163   3.633   0.014  0.00  0.00    -0.004 A 
ATOM      5  C7  UNL d   1       3.319   2.878  -0.173  0.00  0.00     0.002 A 
ATOM      6  C8  UNL d   1       3.609   1.817   0.687  0.00  0.00     0.002 A 
ENDROOT
BRANCH   1   7
ATOM      7  C2  UNL d   1       3.050   0.336   2.656  0.00  0.00     0.056 C 
BRANCH   7   8
ATOM      8  C1  UNL d   1       1.839  -0.554   2.957  0.00  0.00     0.007 C 
ATOM      9  C   UNL d   1       1.639  -0.812   4.445  0.00  0.00     0.009 C 
ENDBRANCH   7   8
ENDBRANCH   1   7
TORSDOF 2
ENDMDL
