MODEL 1
REMARK minimizedAffinity 9.15051746
REMARK minimizedRMSD -1
REMARK  0 active torsions:
REMARK  status: ('A' for Active; 'I' for Inactive)
ROOT
ATOM      1  C2' OXE d   1      -5.437   3.167  -3.722  0.00  0.00     0.078 C 
ATOM      2  C1' OXE d   1      -4.388   1.539  -5.754  0.00  0.00     0.078 C 
ATOM      3  C1  OXE d   1      -3.857   1.348  -4.355  0.00  0.00    -0.078 A 
ATOM      4  C2  OXE d   1      -4.342   2.181  -3.376  0.00  0.00    -0.078 A 
ATOM      5  C3  OXE d   1      -3.927   2.011  -2.058  0.00  0.00     0.003 A 
ATOM      6  C4  OXE d   1      -2.906   1.104  -1.749  0.00  0.00    -0.002 A 
ATOM      7  C5  OXE d   1      -2.370   0.273  -2.738  0.00  0.00    -0.002 A 
ATOM      8  C6  OXE d   1      -2.864   0.353  -4.036  0.00  0.00     0.003 A 
ENDROOT
TORSDOF 0
ENDMDL
