MODEL 1
REMARK minimizedAffinity 3.02789736
REMARK minimizedRMSD -1
REMARK  0 active torsions:
REMARK  status: ('A' for Active; 'I' for Inactive)
ROOT
ATOM      1  C2' OXE d   1       3.243  -5.107   4.701  0.00  0.00     0.078 C 
ATOM      2  C1' OXE d   1       4.431  -2.681   5.463  0.00  0.00     0.078 C 
ATOM      3  C1  OXE d   1       3.372  -2.639   4.391  0.00  0.00    -0.078 A 
ATOM      4  C2  OXE d   1       2.829  -3.836   3.991  0.00  0.00    -0.078 A 
ATOM      5  C3  OXE d   1       1.809  -3.849   3.044  0.00  0.00     0.003 A 
ATOM      6  C4  OXE d   1       1.439  -2.671   2.384  0.00  0.00    -0.002 A 
ATOM      7  C5  OXE d   1       2.008  -1.445   2.748  0.00  0.00    -0.002 A 
ATOM      8  C6  OXE d   1       2.943  -1.406   3.777  0.00  0.00     0.003 A 
ENDROOT
TORSDOF 0
ENDMDL
