MODEL 1
REMARK minimizedAffinity 4.09950829
REMARK minimizedRMSD -1
REMARK  0 active torsions:
REMARK  status: ('A' for Active; 'I' for Inactive)
ROOT
ATOM      1  C2' OXE d   1       1.564  -5.992  -3.464  0.00  0.00     0.078 C 
ATOM      2  C1' OXE d   1       4.105  -5.977  -2.272  0.00  0.00     0.078 C 
ATOM      3  C1  OXE d   1       2.902  -5.979  -1.363  0.00  0.00    -0.078 A 
ATOM      4  C2  OXE d   1       1.662  -5.939  -1.955  0.00  0.00    -0.078 A 
ATOM      5  C3  OXE d   1       0.518  -5.995  -1.164  0.00  0.00     0.003 A 
ATOM      6  C4  OXE d   1       0.618  -5.936   0.231  0.00  0.00    -0.002 A 
ATOM      7  C5  OXE d   1       1.870  -5.936   0.854  0.00  0.00    -0.002 A 
ATOM      8  C6  OXE d   1       3.019  -6.000   0.074  0.00  0.00     0.003 A 
ENDROOT
TORSDOF 0
ENDMDL
