MODEL 1
REMARK minimizedAffinity 1.79198277
REMARK minimizedRMSD -1
REMARK  0 active torsions:
REMARK  status: ('A' for Active; 'I' for Inactive)
ROOT
ATOM      1  C2' OXE d   1       1.861  -5.994   2.042  0.00  0.00     0.078 C 
ATOM      2  C1' OXE d   1      -0.485  -5.974   0.501  0.00  0.00     0.078 C 
ATOM      3  C1  OXE d   1       0.835  -5.979  -0.228  0.00  0.00    -0.078 A 
ATOM      4  C2  OXE d   1       1.978  -5.941   0.534  0.00  0.00    -0.078 A 
ATOM      5  C3  OXE d   1       3.223  -5.999  -0.086  0.00  0.00     0.003 A 
ATOM      6  C4  OXE d   1       3.322  -5.941  -1.482  0.00  0.00    -0.002 A 
ATOM      7  C5  OXE d   1       2.171  -5.938  -2.276  0.00  0.00    -0.002 A 
ATOM      8  C6  OXE d   1       0.922  -6.000  -1.667  0.00  0.00     0.003 A 
ENDROOT
TORSDOF 0
ENDMDL
