MODEL 1
REMARK minimizedAffinity 8.88196659
REMARK minimizedRMSD -1
REMARK  0 active torsions:
REMARK  status: ('A' for Active; 'I' for Inactive)
ROOT
ATOM      1  C2' OXE d   1       2.087  -5.413  -4.354  0.00  0.00     0.078 C 
ATOM      2  C1' OXE d   1       4.841  -5.674  -4.832  0.00  0.00     0.078 C 
ATOM      3  C1  OXE d   1       4.364  -5.757  -3.404  0.00  0.00    -0.078 A 
ATOM      4  C2  OXE d   1       3.021  -5.581  -3.175  0.00  0.00    -0.078 A 
ATOM      5  C3  OXE d   1       2.520  -5.702  -1.882  0.00  0.00     0.003 A 
ATOM      6  C4  OXE d   1       3.391  -5.848  -0.795  0.00  0.00    -0.002 A 
ATOM      7  C5  OXE d   1       4.768  -5.989  -1.003  0.00  0.00    -0.002 A 
ATOM      8  C6  OXE d   1       5.265  -5.988  -2.301  0.00  0.00     0.003 A 
ENDROOT
TORSDOF 0
ENDMDL
