MODEL 1
REMARK minimizedAffinity 0.164693132
REMARK minimizedRMSD -1
REMARK  0 active torsions:
REMARK  status: ('A' for Active; 'I' for Inactive)
ROOT
ATOM      1  C2' OXE d   1       2.338  -4.427   3.703  0.00  0.00     0.078 C 
ATOM      2  C1' OXE d   1       1.283  -2.411   5.347  0.00  0.00     0.078 C 
ATOM      3  C1  OXE d   1       1.544  -2.074   3.900  0.00  0.00    -0.078 A 
ATOM      4  C2  OXE d   1       2.103  -3.053   3.114  0.00  0.00    -0.078 A 
ATOM      5  C3  OXE d   1       2.313  -2.812   1.759  0.00  0.00     0.003 A 
ATOM      6  C4  OXE d   1       2.103  -1.535   1.225  0.00  0.00    -0.002 A 
ATOM      7  C5  OXE d   1       1.570  -0.513   2.018  0.00  0.00    -0.002 A 
ATOM      8  C6  OXE d   1       1.246  -0.778   3.344  0.00  0.00     0.003 A 
ENDROOT
TORSDOF 0
ENDMDL
