MODEL 1
REMARK minimizedAffinity 6.81523228
REMARK minimizedRMSD -1
REMARK  0 active torsions:
REMARK  status: ('A' for Active; 'I' for Inactive)
ROOT
ATOM      1  C2' OXE d   1      -0.095  -1.280  -0.765  0.00  0.00     0.078 C 
ATOM      2  C1' OXE d   1       2.428  -0.132  -1.212  0.00  0.00     0.078 C 
ATOM      3  C1  OXE d   1       1.472   0.601  -0.303  0.00  0.00    -0.078 A 
ATOM      4  C2  OXE d   1       0.223   0.056  -0.128  0.00  0.00    -0.078 A 
ATOM      5  C3  OXE d   1      -0.678   0.662   0.743  0.00  0.00     0.003 A 
ATOM      6  C4  OXE d   1      -0.379   1.902   1.321  0.00  0.00    -0.002 A 
ATOM      7  C5  OXE d   1       0.873   2.495   1.124  0.00  0.00    -0.002 A 
ATOM      8  C6  OXE d   1       1.823   1.837   0.350  0.00  0.00     0.003 A 
ENDROOT
TORSDOF 0
ENDMDL
