MODEL 1
REMARK minimizedAffinity -3.88880992
REMARK minimizedRMSD -1
REMARK  3 active torsions:
REMARK  status: ('A' for Active; 'I' for Inactive)
REMARK    1  A    between atoms: C3'_2  and  C2'_3 
REMARK    2  A    between atoms: C2'_3  and  C1'_4 
REMARK    3  A    between atoms: C1'_4  and  C1_5 
ROOT
ATOM      1  C1  N4B d   1       5.089  -3.139   5.772  0.00  0.00    -0.075 A 
ATOM      2  C2  N4B d   1       5.999  -4.195   6.000  0.00  0.00     0.002 A 
ATOM      3  C3  N4B d   1       5.577  -5.498   5.903  0.00  0.00     0.002 A 
ATOM      4  C4  N4B d   1       4.251  -5.769   5.600  0.00  0.00    -0.004 A 
ATOM      5  C5  N4B d   1       3.385  -4.744   5.355  0.00  0.00     0.002 A 
ATOM      6  C6  N4B d   1       3.796  -3.429   5.445  0.00  0.00     0.002 A 
ENDROOT
BRANCH   1   7
ATOM      7  C1' N4B d   1       5.483  -1.699   5.950  0.00  0.00     0.057 C 
BRANCH   7   8
ATOM      8  C2' N4B d   1       6.000  -1.153   4.622  0.00  0.00     0.009 C 
BRANCH   8   9
ATOM      9  C3' N4B d   1       4.867  -0.777   3.683  0.00  0.00     0.004 C 
ATOM     10  C4' N4B d   1       5.022  -1.377   2.317  0.00  0.00     0.003 C 
ENDBRANCH   8   9
ENDBRANCH   7   8
ENDBRANCH   1   7
TORSDOF 3
ENDMDL
