MODEL 1
REMARK minimizedAffinity -1.28658044
REMARK minimizedRMSD -1
REMARK  3 active torsions:
REMARK  status: ('A' for Active; 'I' for Inactive)
REMARK    1  A    between atoms: C3'_2  and  C2'_3 
REMARK    2  A    between atoms: C2'_3  and  C1'_4 
REMARK    3  A    between atoms: C1'_4  and  C1_5 
ROOT
ATOM      1  C1  N4B d   1      -4.787   1.989   5.225  0.00  0.00    -0.075 A 
ATOM      2  C2  N4B d   1      -5.520   0.940   5.821  0.00  0.00     0.002 A 
ATOM      3  C3  N4B d   1      -5.871  -0.161   5.079  0.00  0.00     0.002 A 
ATOM      4  C4  N4B d   1      -5.518  -0.226   3.739  0.00  0.00    -0.004 A 
ATOM      5  C5  N4B d   1      -4.788   0.780   3.177  0.00  0.00     0.002 A 
ATOM      6  C6  N4B d   1      -4.425   1.891   3.912  0.00  0.00     0.002 A 
ENDROOT
BRANCH   1   7
ATOM      7  C1' N4B d   1      -4.455   3.251   5.973  0.00  0.00     0.057 C 
BRANCH   7   8
ATOM      8  C2' N4B d   1      -4.079   4.341   4.974  0.00  0.00     0.009 C 
BRANCH   8   9
ATOM      9  C3' N4B d   1      -3.829   5.675   5.656  0.00  0.00     0.004 C 
ATOM     10  C4' N4B d   1      -2.370   5.990   5.800  0.00  0.00     0.003 C 
ENDBRANCH   8   9
ENDBRANCH   7   8
ENDBRANCH   1   7
TORSDOF 3
ENDMDL
