MODEL 1
REMARK minimizedAffinity 12.327033
REMARK minimizedRMSD -1
REMARK  3 active torsions:
REMARK  status: ('A' for Active; 'I' for Inactive)
REMARK    1  A    between atoms: C3'_2  and  C2'_3 
REMARK    2  A    between atoms: C2'_3  and  C1'_4 
REMARK    3  A    between atoms: C1'_4  and  C1_5 
ROOT
ATOM      1  C1  N4B d   1       2.592   3.198  -2.040  0.00  0.00    -0.075 A 
ATOM      2  C2  N4B d   1       2.592   1.799  -1.846  0.00  0.00     0.002 A 
ATOM      3  C3  N4B d   1       1.643   1.021  -2.464  0.00  0.00     0.002 A 
ATOM      4  C4  N4B d   1       0.677   1.619  -3.259  0.00  0.00    -0.004 A 
ATOM      5  C5  N4B d   1       0.700   2.968  -3.461  0.00  0.00     0.002 A 
ATOM      6  C6  N4B d   1       1.650   3.762  -2.851  0.00  0.00     0.002 A 
ENDROOT
BRANCH   1   7
ATOM      7  C1' N4B d   1       3.556   4.099  -1.318  0.00  0.00     0.057 C 
BRANCH   7   8
ATOM      8  C2' N4B d   1       2.948   4.514   0.019  0.00  0.00     0.009 C 
BRANCH   8   9
ATOM      9  C3' N4B d   1       3.875   4.208   1.183  0.00  0.00     0.004 C 
ATOM     10  C4' N4B d   1       5.266   4.726   0.970  0.00  0.00     0.003 C 
ENDBRANCH   8   9
ENDBRANCH   7   8
ENDBRANCH   1   7
TORSDOF 3
ENDMDL
