MODEL 1
REMARK minimizedAffinity 3.4829278
REMARK minimizedRMSD -1
REMARK  3 active torsions:
REMARK  status: ('A' for Active; 'I' for Inactive)
REMARK    1  A    between atoms: C3'_2  and  C2'_3 
REMARK    2  A    between atoms: C2'_3  and  C1'_4 
REMARK    3  A    between atoms: C1'_4  and  C1_5 
ROOT
ATOM      1  C1  N4B d   1      -3.269   3.740   3.334  0.00  0.00    -0.075 A 
ATOM      2  C2  N4B d   1      -3.841   4.877   2.722  0.00  0.00     0.002 A 
ATOM      3  C3  N4B d   1      -4.107   5.998   3.469  0.00  0.00     0.002 A 
ATOM      4  C4  N4B d   1      -3.829   5.999   4.828  0.00  0.00    -0.004 A 
ATOM      5  C5  N4B d   1      -3.253   4.906   5.406  0.00  0.00     0.002 A 
ATOM      6  C6  N4B d   1      -2.976   3.774   4.666  0.00  0.00     0.002 A 
ENDROOT
BRANCH   1   7
ATOM      7  C1' N4B d   1      -3.039   2.461   2.576  0.00  0.00     0.057 C 
BRANCH   7   8
ATOM      8  C2' N4B d   1      -2.661   1.358   3.559  0.00  0.00     0.009 C 
BRANCH   8   9
ATOM      9  C3' N4B d   1      -3.103  -0.012   3.073  0.00  0.00     0.004 C 
ATOM     10  C4' N4B d   1      -4.184  -0.609   3.924  0.00  0.00     0.003 C 
ENDBRANCH   8   9
ENDBRANCH   7   8
ENDBRANCH   1   7
TORSDOF 3
ENDMDL
