MODEL 1
REMARK minimizedAffinity -1.8960197
REMARK minimizedRMSD -1
REMARK  3 active torsions:
REMARK  status: ('A' for Active; 'I' for Inactive)
REMARK    1  A    between atoms: C3'_2  and  C2'_3 
REMARK    2  A    between atoms: C2'_3  and  C1'_4 
REMARK    3  A    between atoms: C1'_4  and  C1_5 
ROOT
ATOM      1  C1  N4B d   1       2.030   1.287  -3.317  0.00  0.00    -0.075 A 
ATOM      2  C2  N4B d   1       2.888   1.460  -4.426  0.00  0.00     0.002 A 
ATOM      3  C3  N4B d   1       2.519   2.289  -5.456  0.00  0.00     0.002 A 
ATOM      4  C4  N4B d   1       1.294   2.938  -5.410  0.00  0.00    -0.004 A 
ATOM      5  C5  N4B d   1       0.482   2.785  -4.324  0.00  0.00     0.002 A 
ATOM      6  C6  N4B d   1       0.842   1.958  -3.279  0.00  0.00     0.002 A 
ENDROOT
BRANCH   1   7
ATOM      7  C1' N4B d   1       2.351   0.324  -2.207  0.00  0.00     0.057 C 
BRANCH   7   8
ATOM      8  C2' N4B d   1       1.205  -0.673  -2.061  0.00  0.00     0.009 C 
BRANCH   8   9
ATOM      9  C3' N4B d   1       1.007  -1.499  -3.320  0.00  0.00     0.004 C 
ATOM     10  C4' N4B d   1       1.251  -2.962  -3.098  0.00  0.00     0.003 C 
ENDBRANCH   8   9
ENDBRANCH   7   8
ENDBRANCH   1   7
TORSDOF 3
ENDMDL
