MODEL 1
REMARK minimizedAffinity 13.5634222
REMARK minimizedRMSD -1
REMARK  3 active torsions:
REMARK  status: ('A' for Active; 'I' for Inactive)
REMARK    1  A    between atoms: C3'_2  and  C2'_3 
REMARK    2  A    between atoms: C2'_3  and  C1'_4 
REMARK    3  A    between atoms: C1'_4  and  C1_5 
ROOT
ATOM      1  C1  N4B d   1       0.886  -0.107  -2.384  0.00  0.00    -0.075 A 
ATOM      2  C2  N4B d   1       2.225   0.038  -1.959  0.00  0.00     0.002 A 
ATOM      3  C3  N4B d   1       3.028   0.992  -2.533  0.00  0.00     0.002 A 
ATOM      4  C4  N4B d   1       2.522   1.798  -3.542  0.00  0.00    -0.004 A 
ATOM      5  C5  N4B d   1       1.220   1.669  -3.929  0.00  0.00     0.002 A 
ATOM      6  C6  N4B d   1       0.400   0.716  -3.358  0.00  0.00     0.002 A 
ENDROOT
BRANCH   1   7
ATOM      7  C1' N4B d   1      -0.005  -1.193  -1.846  0.00  0.00     0.057 C 
BRANCH   7   8
ATOM      8  C2' N4B d   1      -0.837  -0.635  -0.695  0.00  0.00     0.009 C 
BRANCH   8   9
ATOM      9  C3' N4B d   1      -1.922  -1.603  -0.256  0.00  0.00     0.004 C 
ATOM     10  C4' N4B d   1      -2.682  -1.120   0.943  0.00  0.00     0.003 C 
ENDBRANCH   8   9
ENDBRANCH   7   8
ENDBRANCH   1   7
TORSDOF 3
ENDMDL
