MODEL 1
REMARK minimizedAffinity -3.12545443
REMARK minimizedRMSD -1
REMARK  0 active torsions:
REMARK  status: ('A' for Active; 'I' for Inactive)
ROOT
ATOM      1  C   UNL d   1      -2.139   0.334   0.429  0.00  0.00     0.020 A 
ATOM      2  C1  UNL d   1      -1.256   1.392   0.644  0.00  0.00     0.020 A 
ATOM      3  C2  UNL d   1       0.021   1.362   0.079  0.00  0.00     0.034 A 
ATOM      4  C3  UNL d   1       0.418   0.272  -0.704  0.00  0.00     0.017 A 
ATOM      5  C4  UNL d   1      -0.468  -0.789  -0.920  0.00  0.00     0.017 A 
ATOM      6  C5  UNL d   1      -1.746  -0.754  -0.351  0.00  0.00     0.034 A 
ATOM      7 Cl   UNL d   1      -0.050  -2.167  -1.874  0.00  0.00    -0.070 Cl
ATOM      8 Cl1  UNL d   1       2.011   0.302  -1.372  0.00  0.00    -0.070 Cl
ENDROOT
TORSDOF 0
ENDMDL
