MODEL 1
REMARK minimizedAffinity -2.99436951
REMARK minimizedRMSD -1
REMARK  0 active torsions:
REMARK  status: ('A' for Active; 'I' for Inactive)
ROOT
ATOM      1  C   UNL d   1       0.815  -1.042   0.666  0.00  0.00     0.020 A 
ATOM      2  C1  UNL d   1       1.515  -0.716  -0.495  0.00  0.00     0.020 A 
ATOM      3  C2  UNL d   1       1.148   0.407  -1.239  0.00  0.00     0.034 A 
ATOM      4  C3  UNL d   1       0.080   1.209  -0.823  0.00  0.00     0.017 A 
ATOM      5  C4  UNL d   1      -0.622   0.882   0.343  0.00  0.00     0.017 A 
ATOM      6  C5  UNL d   1      -0.250  -0.244   1.085  0.00  0.00     0.034 A 
ATOM      7 Cl   UNL d   1      -1.951   1.824   0.921  0.00  0.00    -0.070 Cl
ATOM      8 Cl1  UNL d   1      -0.319   2.583  -1.791  0.00  0.00    -0.070 Cl
ENDROOT
TORSDOF 0
ENDMDL
