MODEL 1
REMARK minimizedAffinity 0.0628993511
REMARK minimizedRMSD -1
REMARK  0 active torsions:
REMARK  status: ('A' for Active; 'I' for Inactive)
ROOT
ATOM      1  C   UNL d   1      -1.029  -0.384   2.127  0.00  0.00     0.020 A 
ATOM      2  C1  UNL d   1      -0.811   0.993   2.136  0.00  0.00     0.020 A 
ATOM      3  C2  UNL d   1      -0.278   1.623   1.009  0.00  0.00     0.034 A 
ATOM      4  C3  UNL d   1       0.038   0.875  -0.132  0.00  0.00     0.017 A 
ATOM      5  C4  UNL d   1      -0.181  -0.507  -0.140  0.00  0.00     0.017 A 
ATOM      6  C5  UNL d   1      -0.715  -1.132   0.992  0.00  0.00     0.034 A 
ATOM      7 Cl   UNL d   1       0.184  -1.495  -1.509  0.00  0.00    -0.070 Cl
ATOM      8 Cl1  UNL d   1       0.693   1.720  -1.489  0.00  0.00    -0.070 Cl
ENDROOT
TORSDOF 0
ENDMDL
