MODEL 1
REMARK minimizedAffinity -3.59795117
REMARK minimizedRMSD -1
REMARK  0 active torsions:
REMARK  status: ('A' for Active; 'I' for Inactive)
ROOT
ATOM      1  C   UNL d   1      -2.397   1.379   2.017  0.00  0.00     0.020 A 
ATOM      2  C1  UNL d   1      -1.754   0.212   2.426  0.00  0.00     0.020 A 
ATOM      3  C2  UNL d   1      -0.742  -0.341   1.639  0.00  0.00     0.034 A 
ATOM      4  C3  UNL d   1      -0.371   0.273   0.437  0.00  0.00     0.017 A 
ATOM      5  C4  UNL d   1      -1.016   1.445   0.027  0.00  0.00     0.017 A 
ATOM      6  C5  UNL d   1      -2.029   1.994   0.820  0.00  0.00     0.034 A 
ATOM      7 Cl   UNL d   1      -0.612   2.260  -1.443  0.00  0.00    -0.070 Cl
ATOM      8 Cl1  UNL d   1       0.889  -0.466  -0.487  0.00  0.00    -0.070 Cl
ENDROOT
TORSDOF 0
ENDMDL
