MODEL 1
REMARK minimizedAffinity 0.850453377
REMARK minimizedRMSD -1
REMARK  0 active torsions:
REMARK  status: ('A' for Active; 'I' for Inactive)
ROOT
ATOM      1  C   UNL d   1      -2.564  -2.195   5.864  0.00  0.00     0.020 A 
ATOM      2  C1  UNL d   1      -3.946  -2.071   5.999  0.00  0.00     0.020 A 
ATOM      3  C2  UNL d   1      -4.762  -2.076   4.866  0.00  0.00     0.034 A 
ATOM      4  C3  UNL d   1      -4.197  -2.205   3.592  0.00  0.00     0.017 A 
ATOM      5  C4  UNL d   1      -2.809  -2.331   3.457  0.00  0.00     0.017 A 
ATOM      6  C5  UNL d   1      -1.997  -2.325   4.595  0.00  0.00     0.034 A 
ATOM      7 Cl   UNL d   1      -2.039  -2.495   1.919  0.00  0.00    -0.070 Cl
ATOM      8 Cl1  UNL d   1      -5.266  -2.204   2.235  0.00  0.00    -0.070 Cl
ENDROOT
TORSDOF 0
ENDMDL
