MODEL 1
REMARK minimizedAffinity -0.16597724
REMARK minimizedRMSD -1
REMARK  0 active torsions:
REMARK  status: ('A' for Active; 'I' for Inactive)
ROOT
ATOM      1  C   UNL d   1      -1.905  -2.246   5.410  0.00  0.00     0.020 A 
ATOM      2  C1  UNL d   1      -1.776  -2.349   4.026  0.00  0.00     0.020 A 
ATOM      3  C2  UNL d   1      -2.912  -2.500   3.228  0.00  0.00     0.034 A 
ATOM      4  C3  UNL d   1      -4.182  -2.550   3.814  0.00  0.00     0.017 A 
ATOM      5  C4  UNL d   1      -4.311  -2.446   5.204  0.00  0.00     0.017 A 
ATOM      6  C5  UNL d   1      -3.170  -2.295   5.998  0.00  0.00     0.034 A 
ATOM      7 Cl   UNL d   1      -5.844  -2.499   6.000  0.00  0.00    -0.070 Cl
ATOM      8 Cl1  UNL d   1      -5.544  -2.739   2.767  0.00  0.00    -0.070 Cl
ENDROOT
TORSDOF 0
ENDMDL
