MODEL 1
REMARK minimizedAffinity 0.236352026
REMARK minimizedRMSD -1
REMARK  0 active torsions:
REMARK  status: ('A' for Active; 'I' for Inactive)
ROOT
ATOM      1  C   UNL d   1       1.578  -4.384  -0.911  0.00  0.00     0.020 A 
ATOM      2  C1  UNL d   1       0.987  -4.950  -2.041  0.00  0.00     0.020 A 
ATOM      3  C2  UNL d   1       0.076  -4.209  -2.797  0.00  0.00     0.034 A 
ATOM      4  C3  UNL d   1      -0.247  -2.899  -2.425  0.00  0.00     0.017 A 
ATOM      5  C4  UNL d   1       0.347  -2.332  -1.292  0.00  0.00     0.017 A 
ATOM      6  C5  UNL d   1       1.258  -3.078  -0.538  0.00  0.00     0.034 A 
ATOM      7 Cl   UNL d   1      -0.002  -0.722  -0.770  0.00  0.00    -0.070 Cl
ATOM      8 Cl1  UNL d   1      -1.381  -2.042  -3.407  0.00  0.00    -0.070 Cl
ENDROOT
TORSDOF 0
ENDMDL
