MODEL 1
REMARK minimizedAffinity 2.14268327
REMARK minimizedRMSD -1
REMARK  0 active torsions:
REMARK  status: ('A' for Active; 'I' for Inactive)
ROOT
ATOM      1  C   UNL d   1       1.283   0.134  -0.710  0.00  0.00     0.020 A 
ATOM      2  C1  UNL d   1       1.563  -0.823   0.265  0.00  0.00     0.020 A 
ATOM      3  C2  UNL d   1       1.319  -2.173   0.007  0.00  0.00     0.034 A 
ATOM      4  C3  UNL d   1       0.793  -2.571  -1.228  0.00  0.00     0.017 A 
ATOM      5  C4  UNL d   1       0.513  -1.609  -2.205  0.00  0.00     0.017 A 
ATOM      6  C5  UNL d   1       0.759  -0.258  -1.942  0.00  0.00     0.034 A 
ATOM      7 Cl   UNL d   1      -0.137  -2.023  -3.753  0.00  0.00    -0.070 Cl
ATOM      8 Cl1  UNL d   1       0.517  -4.258  -1.478  0.00  0.00    -0.070 Cl
ENDROOT
TORSDOF 0
ENDMDL
