MODEL 1
REMARK minimizedAffinity -0.925310671
REMARK minimizedRMSD -1
REMARK  0 active torsions:
REMARK  status: ('A' for Active; 'I' for Inactive)
ROOT
ATOM      1  C   UNL d   1       0.565  -3.352  -1.305  0.00  0.00     0.020 A 
ATOM      2  C1  UNL d   1      -0.668  -2.702  -1.345  0.00  0.00     0.020 A 
ATOM      3  C2  UNL d   1      -0.748  -1.338  -1.057  0.00  0.00     0.034 A 
ATOM      4  C3  UNL d   1       0.407  -0.619  -0.728  0.00  0.00     0.017 A 
ATOM      5  C4  UNL d   1       1.644  -1.272  -0.688  0.00  0.00     0.017 A 
ATOM      6  C5  UNL d   1       1.718  -2.638  -0.977  0.00  0.00     0.034 A 
ATOM      7 Cl   UNL d   1       3.112  -0.453  -0.289  0.00  0.00    -0.070 Cl
ATOM      8 Cl1  UNL d   1       0.234   1.065  -0.383  0.00  0.00    -0.070 Cl
ENDROOT
TORSDOF 0
ENDMDL
