MODEL 1
REMARK minimizedAffinity -2.87459874
REMARK minimizedRMSD -1
REMARK  0 active torsions:
REMARK  status: ('A' for Active; 'I' for Inactive)
ROOT
ATOM      1  C   UNL d   1      -1.547  -1.288   0.748  0.00  0.00     0.020 A 
ATOM      2  C1  UNL d   1      -1.003  -0.061   1.126  0.00  0.00     0.020 A 
ATOM      3  C2  UNL d   1       0.068   0.478   0.411  0.00  0.00     0.034 A 
ATOM      4  C3  UNL d   1       0.599  -0.210  -0.686  0.00  0.00     0.017 A 
ATOM      5  C4  UNL d   1       0.053  -1.442  -1.065  0.00  0.00     0.017 A 
ATOM      6  C5  UNL d   1      -1.020  -1.976  -0.345  0.00  0.00     0.034 A 
ATOM      7 Cl   UNL d   1       0.654  -2.349  -2.407  0.00  0.00    -0.070 Cl
ATOM      8 Cl1  UNL d   1       1.924   0.516  -1.525  0.00  0.00    -0.070 Cl
ENDROOT
TORSDOF 0
ENDMDL
