MODEL 1
REMARK minimizedAffinity -4.09979582
REMARK minimizedRMSD -1
REMARK  0 active torsions:
REMARK  status: ('A' for Active; 'I' for Inactive)
ROOT
ATOM      1  C   UNL d   1       0.513  -4.504  -1.506  0.00  0.00     0.020 A 
ATOM      2  C1  UNL d   1       1.501  -3.862  -0.762  0.00  0.00     0.020 A 
ATOM      3  C2  UNL d   1       1.436  -2.482  -0.559  0.00  0.00     0.034 A 
ATOM      4  C3  UNL d   1       0.380  -1.740  -1.101  0.00  0.00     0.017 A 
ATOM      5  C4  UNL d   1      -0.611  -2.386  -1.848  0.00  0.00     0.017 A 
ATOM      6  C5  UNL d   1      -0.541  -3.768  -2.048  0.00  0.00     0.034 A 
ATOM      7 Cl   UNL d   1      -1.945  -1.537  -2.548  0.00  0.00    -0.070 Cl
ATOM      8 Cl1  UNL d   1       0.363  -0.037  -0.810  0.00  0.00    -0.070 Cl
ENDROOT
TORSDOF 0
ENDMDL
