MODEL 1
REMARK minimizedAffinity -3.65014076
REMARK minimizedRMSD -1
REMARK  0 active torsions:
REMARK  status: ('A' for Active; 'I' for Inactive)
ROOT
ATOM      1  C   UNL d   1       0.679   1.417  -0.621  0.00  0.00     0.020 A 
ATOM      2  C1  UNL d   1      -0.592   1.352  -0.050  0.00  0.00     0.020 A 
ATOM      3  C2  UNL d   1      -1.187   0.111   0.188  0.00  0.00     0.034 A 
ATOM      4  C3  UNL d   1      -0.513  -1.069  -0.145  0.00  0.00     0.017 A 
ATOM      5  C4  UNL d   1       0.763  -1.002  -0.718  0.00  0.00     0.017 A 
ATOM      6  C5  UNL d   1       1.354   0.243  -0.954  0.00  0.00     0.034 A 
ATOM      7 Cl   UNL d   1       1.657  -2.415  -1.156  0.00  0.00    -0.070 Cl
ATOM      8 Cl1  UNL d   1      -1.309  -2.568   0.177  0.00  0.00    -0.070 Cl
ENDROOT
TORSDOF 0
ENDMDL
