MODEL 1
REMARK minimizedAffinity -3.07199121
REMARK minimizedRMSD -1
REMARK  0 active torsions:
REMARK  status: ('A' for Active; 'I' for Inactive)
ROOT
ATOM      1  C   UNL d   1      -1.242   0.738  -0.991  0.00  0.00     0.020 A 
ATOM      2  C1  UNL d   1      -0.385  -0.362  -0.995  0.00  0.00     0.020 A 
ATOM      3  C2  UNL d   1       0.213  -0.785   0.194  0.00  0.00     0.034 A 
ATOM      4  C3  UNL d   1      -0.045  -0.108   1.391  0.00  0.00     0.017 A 
ATOM      5  C4  UNL d   1      -0.906   0.996   1.394  0.00  0.00     0.017 A 
ATOM      6  C5  UNL d   1      -1.502   1.415   0.201  0.00  0.00     0.034 A 
ATOM      7 Cl   UNL d   1      -1.273   1.882   2.832  0.00  0.00    -0.070 Cl
ATOM      8 Cl1  UNL d   1       0.729  -0.686   2.824  0.00  0.00    -0.070 Cl
ENDROOT
TORSDOF 0
ENDMDL
