MODEL 1
REMARK minimizedAffinity -4.13812685
REMARK minimizedRMSD -1
REMARK  0 active torsions:
REMARK  status: ('A' for Active; 'I' for Inactive)
ROOT
ATOM      1  C   UNL d   1      -0.582   0.470  -0.777  0.00  0.00     0.020 A 
ATOM      2  C1  UNL d   1      -0.056  -0.821  -0.732  0.00  0.00     0.020 A 
ATOM      3  C2  UNL d   1       0.232  -1.415   0.498  0.00  0.00     0.034 A 
ATOM      4  C3  UNL d   1      -0.005  -0.720   1.689  0.00  0.00     0.017 A 
ATOM      5  C4  UNL d   1      -0.534   0.575   1.643  0.00  0.00     0.017 A 
ATOM      6  C5  UNL d   1      -0.821   1.166   0.409  0.00  0.00     0.034 A 
ATOM      7 Cl   UNL d   1      -0.854   1.496   3.071  0.00  0.00    -0.070 Cl
ATOM      8 Cl1  UNL d   1       0.375  -1.517   3.174  0.00  0.00    -0.070 Cl
ENDROOT
TORSDOF 0
ENDMDL
