MODEL 1
REMARK minimizedAffinity 2.97061133
REMARK minimizedRMSD -1
REMARK  3 active torsions:
REMARK  status: ('A' for Active; 'I' for Inactive)
REMARK    1  A    between atoms: C3'_2  and  C2'_3 
REMARK    2  A    between atoms: C2'_3  and  C1'_4 
REMARK    3  A    between atoms: C1'_4  and  C1_5 
ROOT
ATOM      1  C1  N4B d   1       5.908   0.440   3.718  0.00  0.00    -0.075 A 
ATOM      2  C2  N4B d   1       5.887  -0.900   3.271  0.00  0.00     0.002 A 
ATOM      3  C3  N4B d   1       5.889  -1.928   4.181  0.00  0.00     0.002 A 
ATOM      4  C4  N4B d   1       5.931  -1.642   5.538  0.00  0.00    -0.004 A 
ATOM      5  C5  N4B d   1       5.925  -0.346   5.962  0.00  0.00     0.002 A 
ATOM      6  C6  N4B d   1       5.919   0.698   5.058  0.00  0.00     0.002 A 
ENDROOT
BRANCH   1   7
ATOM      7  C1' N4B d   1       5.993   1.596   2.759  0.00  0.00     0.057 C 
BRANCH   7   8
ATOM      8  C2' N4B d   1       4.782   2.502   2.959  0.00  0.00     0.009 C 
BRANCH   8   9
ATOM      9  C3' N4B d   1       5.047   3.919   2.479  0.00  0.00     0.004 C 
ATOM     10  C4' N4B d   1       5.992   4.667   3.371  0.00  0.00     0.003 C 
ENDBRANCH   8   9
ENDBRANCH   7   8
ENDBRANCH   1   7
TORSDOF 3
ENDMDL
