MODEL 1
REMARK minimizedAffinity 8.08786392
REMARK minimizedRMSD -1
REMARK  3 active torsions:
REMARK  status: ('A' for Active; 'I' for Inactive)
REMARK    1  A    between atoms: C3'_2  and  C2'_3 
REMARK    2  A    between atoms: C2'_3  and  C1'_4 
REMARK    3  A    between atoms: C1'_4  and  C1_5 
ROOT
ATOM      1  C1  N4B d   1       5.278   4.464   2.507  0.00  0.00    -0.075 A 
ATOM      2  C2  N4B d   1       5.633   5.766   2.921  0.00  0.00     0.002 A 
ATOM      3  C3  N4B d   1       5.995   5.997   4.226  0.00  0.00     0.002 A 
ATOM      4  C4  N4B d   1       5.991   4.949   5.134  0.00  0.00    -0.004 A 
ATOM      5  C5  N4B d   1       5.671   3.689   4.720  0.00  0.00     0.002 A 
ATOM      6  C6  N4B d   1       5.309   3.442   3.411  0.00  0.00     0.002 A 
ENDROOT
BRANCH   1   7
ATOM      7  C1' N4B d   1       4.792   4.179   1.112  0.00  0.00     0.057 C 
BRANCH   7   8
ATOM      8  C2' N4B d   1       3.779   3.039   1.157  0.00  0.00     0.009 C 
BRANCH   8   9
ATOM      9  C3' N4B d   1       2.781   3.121   0.015  0.00  0.00     0.004 C 
ATOM     10  C4' N4B d   1       3.081   4.237  -0.940  0.00  0.00     0.003 C 
ENDBRANCH   8   9
ENDBRANCH   7   8
ENDBRANCH   1   7
TORSDOF 3
ENDMDL
