MODEL 1
REMARK minimizedAffinity -2.93446565
REMARK minimizedRMSD -1
REMARK  3 active torsions:
REMARK  status: ('A' for Active; 'I' for Inactive)
REMARK    1  A    between atoms: C3'_2  and  C2'_3 
REMARK    2  A    between atoms: C2'_3  and  C1'_4 
REMARK    3  A    between atoms: C1'_4  and  C1_5 
ROOT
ATOM      1  C1  N4B d   1       5.919   1.711   4.656  0.00  0.00    -0.075 A 
ATOM      2  C2  N4B d   1       5.784   1.090   5.917  0.00  0.00     0.002 A 
ATOM      3  C3  N4B d   1       5.634  -0.273   5.998  0.00  0.00     0.002 A 
ATOM      4  C4  N4B d   1       5.597  -1.029   4.837  0.00  0.00    -0.004 A 
ATOM      5  C5  N4B d   1       5.754  -0.424   3.624  0.00  0.00     0.002 A 
ATOM      6  C6  N4B d   1       5.910   0.944   3.527  0.00  0.00     0.002 A 
ENDROOT
BRANCH   1   7
ATOM      7  C1' N4B d   1       5.999   3.207   4.512  0.00  0.00     0.057 C 
BRANCH   7   8
ATOM      8  C2' N4B d   1       5.864   3.576   3.038  0.00  0.00     0.009 C 
BRANCH   8   9
ATOM      9  C3' N4B d   1       5.715   5.074   2.838  0.00  0.00     0.004 C 
ATOM     10  C4' N4B d   1       5.995   5.857   4.087  0.00  0.00     0.003 C 
ENDBRANCH   8   9
ENDBRANCH   7   8
ENDBRANCH   1   7
TORSDOF 3
ENDMDL
