MODEL 1
REMARK minimizedAffinity -2.44590735
REMARK minimizedRMSD -1
REMARK  3 active torsions:
REMARK  status: ('A' for Active; 'I' for Inactive)
REMARK    1  A    between atoms: C3'_2  and  C2'_3 
REMARK    2  A    between atoms: C2'_3  and  C1'_4 
REMARK    3  A    between atoms: C1'_4  and  C1_5 
ROOT
ATOM      1  C1  N4B d   1       5.832   1.740   3.921  0.00  0.00    -0.075 A 
ATOM      2  C2  N4B d   1       5.991   0.601   3.102  0.00  0.00     0.002 A 
ATOM      3  C3  N4B d   1       5.912  -0.656   3.652  0.00  0.00     0.002 A 
ATOM      4  C4  N4B d   1       5.694  -0.796   5.014  0.00  0.00    -0.004 A 
ATOM      5  C5  N4B d   1       5.515   0.310   5.793  0.00  0.00     0.002 A 
ATOM      6  C6  N4B d   1       5.588   1.578   5.254  0.00  0.00     0.002 A 
ENDROOT
BRANCH   1   7
ATOM      7  C1' N4B d   1       5.996   3.135   3.381  0.00  0.00     0.057 C 
BRANCH   7   8
ATOM      8  C2' N4B d   1       5.640   4.140   4.473  0.00  0.00     0.009 C 
BRANCH   8   9
ATOM      9  C3' N4B d   1       5.681   5.570   3.964  0.00  0.00     0.004 C 
ATOM     10  C4' N4B d   1       5.463   5.667   2.483  0.00  0.00     0.003 C 
ENDBRANCH   8   9
ENDBRANCH   7   8
ENDBRANCH   1   7
TORSDOF 3
ENDMDL
