MODEL 1
REMARK minimizedAffinity -2.67366195
REMARK minimizedRMSD -1
REMARK  3 active torsions:
REMARK  status: ('A' for Active; 'I' for Inactive)
REMARK    1  A    between atoms: C3'_2  and  C2'_3 
REMARK    2  A    between atoms: C2'_3  and  C1'_4 
REMARK    3  A    between atoms: C1'_4  and  C1_5 
ROOT
ATOM      1  C1  N4B d   1       5.189   3.659   3.712  0.00  0.00    -0.075 A 
ATOM      2  C2  N4B d   1       5.586   4.771   4.487  0.00  0.00     0.002 A 
ATOM      3  C3  N4B d   1       5.979   5.933   3.868  0.00  0.00     0.002 A 
ATOM      4  C4  N4B d   1       6.000   5.999   2.483  0.00  0.00    -0.004 A 
ATOM      5  C5  N4B d   1       5.590   4.929   1.743  0.00  0.00     0.002 A 
ATOM      6  C6  N4B d   1       5.189   3.756   2.351  0.00  0.00     0.002 A 
ENDROOT
BRANCH   1   7
ATOM      7  C1' N4B d   1       4.834   2.339   4.341  0.00  0.00     0.057 C 
BRANCH   7   8
ATOM      8  C2' N4B d   1       5.997   1.369   4.162  0.00  0.00     0.009 C 
BRANCH   8   9
ATOM      9  C3' N4B d   1       5.978   0.259   5.199  0.00  0.00     0.004 C 
ATOM     10  C4' N4B d   1       5.908  -1.107   4.585  0.00  0.00     0.003 C 
ENDBRANCH   8   9
ENDBRANCH   7   8
ENDBRANCH   1   7
TORSDOF 3
ENDMDL
