MODEL 1
REMARK minimizedAffinity 3.54828238
REMARK minimizedRMSD -1
REMARK  3 active torsions:
REMARK  status: ('A' for Active; 'I' for Inactive)
REMARK    1  A    between atoms: C3'_2  and  C2'_3 
REMARK    2  A    between atoms: C2'_3  and  C1'_4 
REMARK    3  A    between atoms: C1'_4  and  C1_5 
ROOT
ATOM      1  C1  N4B d   1       5.856   2.297   3.384  0.00  0.00    -0.075 A 
ATOM      2  C2  N4B d   1       5.881   2.363   4.795  0.00  0.00     0.002 A 
ATOM      3  C3  N4B d   1       5.829   3.582   5.426  0.00  0.00     0.002 A 
ATOM      4  C4  N4B d   1       5.771   4.743   4.670  0.00  0.00    -0.004 A 
ATOM      5  C5  N4B d   1       5.721   4.669   3.309  0.00  0.00     0.002 A 
ATOM      6  C6  N4B d   1       5.768   3.451   2.662  0.00  0.00     0.002 A 
ENDROOT
BRANCH   1   7
ATOM      7  C1' N4B d   1       5.997   0.992   2.648  0.00  0.00     0.057 C 
BRANCH   7   8
ATOM      8  C2' N4B d   1       5.713  -0.158   3.609  0.00  0.00     0.009 C 
BRANCH   8   9
ATOM      9  C3' N4B d   1       5.980   0.228   5.053  0.00  0.00     0.004 C 
ATOM     10  C4' N4B d   1       5.859  -0.932   5.997  0.00  0.00     0.003 C 
ENDBRANCH   8   9
ENDBRANCH   7   8
ENDBRANCH   1   7
TORSDOF 3
ENDMDL
