MODEL 1
REMARK minimizedAffinity -3.57674527
REMARK minimizedRMSD -1
REMARK  3 active torsions:
REMARK  status: ('A' for Active; 'I' for Inactive)
REMARK    1  A    between atoms: C3'_2  and  C2'_3 
REMARK    2  A    between atoms: C2'_3  and  C1'_4 
REMARK    3  A    between atoms: C1'_4  and  C1_5 
ROOT
ATOM      1  C1  N4B d   1       5.752   1.710   4.403  0.00  0.00    -0.075 A 
ATOM      2  C2  N4B d   1       5.830   0.805   3.322  0.00  0.00     0.002 A 
ATOM      3  C3  N4B d   1       5.688  -0.543   3.544  0.00  0.00     0.002 A 
ATOM      4  C4  N4B d   1       5.488  -1.008   4.835  0.00  0.00    -0.004 A 
ATOM      5  C5  N4B d   1       5.389  -0.125   5.871  0.00  0.00     0.002 A 
ATOM      6  C6  N4B d   1       5.526   1.233   5.662  0.00  0.00     0.002 A 
ENDROOT
BRANCH   1   7
ATOM      7  C1' N4B d   1       5.987   3.185   4.222  0.00  0.00     0.057 C 
BRANCH   7   8
ATOM      8  C2' N4B d   1       5.987   3.513   2.732  0.00  0.00     0.009 C 
BRANCH   8   9
ATOM      9  C3' N4B d   1       5.995   5.011   2.479  0.00  0.00     0.004 C 
ATOM     10  C4' N4B d   1       5.992   5.813   3.746  0.00  0.00     0.003 C 
ENDBRANCH   8   9
ENDBRANCH   7   8
ENDBRANCH   1   7
TORSDOF 3
ENDMDL
