MODEL 1
REMARK minimizedAffinity -3.04289603
REMARK minimizedRMSD -1
REMARK  3 active torsions:
REMARK  status: ('A' for Active; 'I' for Inactive)
REMARK    1  A    between atoms: C3'_2  and  C2'_3 
REMARK    2  A    between atoms: C2'_3  and  C1'_4 
REMARK    3  A    between atoms: C1'_4  and  C1_5 
ROOT
ATOM      1  C1  N4B d   1       5.147   2.115   4.404  0.00  0.00    -0.075 A 
ATOM      2  C2  N4B d   1       5.050   1.545   5.692  0.00  0.00     0.002 A 
ATOM      3  C3  N4B d   1       5.371   0.223   5.883  0.00  0.00     0.002 A 
ATOM      4  C4  N4B d   1       5.771  -0.549   4.803  0.00  0.00    -0.004 A 
ATOM      5  C5  N4B d   1       5.887   0.017   3.567  0.00  0.00     0.002 A 
ATOM      6  C6  N4B d   1       5.571   1.345   3.361  0.00  0.00     0.002 A 
ENDROOT
BRANCH   1   7
ATOM      7  C1' N4B d   1       4.725   3.533   4.130  0.00  0.00     0.057 C 
BRANCH   7   8
ATOM      8  C2' N4B d   1       5.835   4.247   3.365  0.00  0.00     0.009 C 
BRANCH   8   9
ATOM      9  C3' N4B d   1       5.999   5.689   3.814  0.00  0.00     0.004 C 
ATOM     10  C4' N4B d   1       5.999   5.836   5.306  0.00  0.00     0.003 C 
ENDBRANCH   8   9
ENDBRANCH   7   8
ENDBRANCH   1   7
TORSDOF 3
ENDMDL
