MODEL 1
REMARK minimizedAffinity -0.864062667
REMARK minimizedRMSD -1
REMARK  3 active torsions:
REMARK  status: ('A' for Active; 'I' for Inactive)
REMARK    1  A    between atoms: C3'_2  and  C2'_3 
REMARK    2  A    between atoms: C2'_3  and  C1'_4 
REMARK    3  A    between atoms: C1'_4  and  C1_5 
ROOT
ATOM      1  C1  N4B d   1      -1.526   1.367   3.474  0.00  0.00    -0.075 A 
ATOM      2  C2  N4B d   1      -0.974   2.397   2.681  0.00  0.00     0.002 A 
ATOM      3  C3  N4B d   1      -1.118   3.709   3.063  0.00  0.00     0.002 A 
ATOM      4  C4  N4B d   1      -1.821   4.014   4.219  0.00  0.00    -0.004 A 
ATOM      5  C5  N4B d   1      -2.328   3.012   4.992  0.00  0.00     0.002 A 
ATOM      6  C6  N4B d   1      -2.189   1.689   4.623  0.00  0.00     0.002 A 
ENDROOT
BRANCH   1   7
ATOM      7  C1' N4B d   1      -1.469  -0.076   3.053  0.00  0.00     0.057 C 
BRANCH   7   8
ATOM      8  C2' N4B d   1      -2.622  -0.833   3.704  0.00  0.00     0.009 C 
BRANCH   8   9
ATOM      9  C3' N4B d   1      -3.740  -1.124   2.717  0.00  0.00     0.004 C 
ATOM     10  C4' N4B d   1      -5.098  -1.102   3.355  0.00  0.00     0.003 C 
ENDBRANCH   8   9
ENDBRANCH   7   8
ENDBRANCH   1   7
TORSDOF 3
ENDMDL
