MODEL 1
REMARK minimizedAffinity 3.99357343
REMARK minimizedRMSD -1
REMARK  3 active torsions:
REMARK  status: ('A' for Active; 'I' for Inactive)
REMARK    1  A    between atoms: C3'_2  and  C2'_3 
REMARK    2  A    between atoms: C2'_3  and  C1'_4 
REMARK    3  A    between atoms: C1'_4  and  C1_5 
ROOT
ATOM      1  C1  N4B d   1       5.777   3.281   3.660  0.00  0.00    -0.075 A 
ATOM      2  C2  N4B d   1       5.858   4.196   4.734  0.00  0.00     0.002 A 
ATOM      3  C3  N4B d   1       5.949   5.543   4.483  0.00  0.00     0.002 A 
ATOM      4  C4  N4B d   1       5.979   5.996   3.172  0.00  0.00    -0.004 A 
ATOM      5  C5  N4B d   1       5.875   5.108   2.142  0.00  0.00     0.002 A 
ATOM      6  C6  N4B d   1       5.779   3.752   2.379  0.00  0.00     0.002 A 
ENDROOT
BRANCH   1   7
ATOM      7  C1' N4B d   1       5.764   1.794   3.883  0.00  0.00     0.057 C 
BRANCH   7   8
ATOM      8  C2' N4B d   1       5.981   1.085   2.549  0.00  0.00     0.009 C 
BRANCH   8   9
ATOM      9  C3' N4B d   1       5.040  -0.094   2.372  0.00  0.00     0.004 C 
ATOM     10  C4' N4B d   1       4.656  -0.731   3.674  0.00  0.00     0.003 C 
ENDBRANCH   8   9
ENDBRANCH   7   8
ENDBRANCH   1   7
TORSDOF 3
ENDMDL
