MODEL 1
REMARK minimizedAffinity -2.0711112
REMARK minimizedRMSD -1
REMARK  3 active torsions:
REMARK  status: ('A' for Active; 'I' for Inactive)
REMARK    1  A    between atoms: C3'_2  and  C2'_3 
REMARK    2  A    between atoms: C2'_3  and  C1'_4 
REMARK    3  A    between atoms: C1'_4  and  C1_5 
ROOT
ATOM      1  C1  N4B d   1       5.936   1.401   4.220  0.00  0.00    -0.075 A 
ATOM      2  C2  N4B d   1       5.925   0.386   3.238  0.00  0.00     0.002 A 
ATOM      3  C3  N4B d   1       5.947  -0.934   3.615  0.00  0.00     0.002 A 
ATOM      4  C4  N4B d   1       6.000  -1.262   4.961  0.00  0.00    -0.004 A 
ATOM      5  C5  N4B d   1       5.985  -0.277   5.904  0.00  0.00     0.002 A 
ATOM      6  C6  N4B d   1       5.958   1.054   5.540  0.00  0.00     0.002 A 
ENDROOT
BRANCH   1   7
ATOM      7  C1' N4B d   1       5.999   2.859   3.855  0.00  0.00     0.057 C 
BRANCH   7   8
ATOM      8  C2' N4B d   1       4.582   3.382   3.637  0.00  0.00     0.009 C 
BRANCH   8   9
ATOM      9  C3' N4B d   1       4.544   4.513   2.623  0.00  0.00     0.004 C 
ATOM     10  C4' N4B d   1       5.778   5.364   2.655  0.00  0.00     0.003 C 
ENDBRANCH   8   9
ENDBRANCH   7   8
ENDBRANCH   1   7
TORSDOF 3
ENDMDL
