MODEL 1
REMARK minimizedAffinity -0.137486994
REMARK minimizedRMSD -1
REMARK  3 active torsions:
REMARK  status: ('A' for Active; 'I' for Inactive)
REMARK    1  A    between atoms: C3'_2  and  C2'_3 
REMARK    2  A    between atoms: C2'_3  and  C1'_4 
REMARK    3  A    between atoms: C1'_4  and  C1_5 
ROOT
ATOM      1  C1  N4B d   1       5.567   1.276   5.038  0.00  0.00    -0.075 A 
ATOM      2  C2  N4B d   1       5.476   0.160   5.898  0.00  0.00     0.002 A 
ATOM      3  C3  N4B d   1       5.645  -1.108   5.397  0.00  0.00     0.002 A 
ATOM      4  C4  N4B d   1       5.885  -1.284   4.043  0.00  0.00    -0.004 A 
ATOM      5  C5  N4B d   1       5.997  -0.199   3.223  0.00  0.00     0.002 A 
ATOM      6  C6  N4B d   1       5.834   1.081   3.713  0.00  0.00     0.002 A 
ENDROOT
BRANCH   1   7
ATOM      7  C1' N4B d   1       5.305   2.676   5.523  0.00  0.00     0.057 C 
BRANCH   7   8
ATOM      8  C2' N4B d   1       5.944   3.669   4.556  0.00  0.00     0.009 C 
BRANCH   8   9
ATOM      9  C3' N4B d   1       5.372   3.545   3.154  0.00  0.00     0.004 C 
ATOM     10  C4' N4B d   1       5.998   4.503   2.185  0.00  0.00     0.003 C 
ENDBRANCH   8   9
ENDBRANCH   7   8
ENDBRANCH   1   7
TORSDOF 3
ENDMDL
