MODEL 1
REMARK minimizedAffinity -0.638041675
REMARK minimizedRMSD -1
REMARK  3 active torsions:
REMARK  status: ('A' for Active; 'I' for Inactive)
REMARK    1  A    between atoms: C3'_2  and  C2'_3 
REMARK    2  A    between atoms: C2'_3  and  C1'_4 
REMARK    3  A    between atoms: C1'_4  and  C1_5 
ROOT
ATOM      1  C1  N4B d   1       5.794   2.336   3.834  0.00  0.00    -0.075 A 
ATOM      2  C2  N4B d   1       5.605   2.346   5.233  0.00  0.00     0.002 A 
ATOM      3  C3  N4B d   1       5.615   1.166   5.936  0.00  0.00     0.002 A 
ATOM      4  C4  N4B d   1       5.793  -0.032   5.261  0.00  0.00    -0.004 A 
ATOM      5  C5  N4B d   1       6.000  -0.031   3.913  0.00  0.00     0.002 A 
ATOM      6  C6  N4B d   1       5.996   1.148   3.194  0.00  0.00     0.002 A 
ENDROOT
BRANCH   1   7
ATOM      7  C1' N4B d   1       5.705   3.593   3.012  0.00  0.00     0.057 C 
BRANCH   7   8
ATOM      8  C2' N4B d   1       4.866   4.624   3.761  0.00  0.00     0.009 C 
BRANCH   8   9
ATOM      9  C3' N4B d   1       5.660   5.879   4.079  0.00  0.00     0.004 C 
ATOM     10  C4' N4B d   1       5.998   5.999   5.535  0.00  0.00     0.003 C 
ENDBRANCH   8   9
ENDBRANCH   7   8
ENDBRANCH   1   7
TORSDOF 3
ENDMDL
