MODEL 1
REMARK minimizedAffinity 1.10745633
REMARK minimizedRMSD -1
REMARK  3 active torsions:
REMARK  status: ('A' for Active; 'I' for Inactive)
REMARK    1  A    between atoms: C3'_2  and  C2'_3 
REMARK    2  A    between atoms: C2'_3  and  C1'_4 
REMARK    3  A    between atoms: C1'_4  and  C1_5 
ROOT
ATOM      1  C1  N4B d   1       4.508   4.563   1.898  0.00  0.00    -0.075 A 
ATOM      2  C2  N4B d   1       5.609   5.417   2.130  0.00  0.00     0.002 A 
ATOM      3  C3  N4B d   1       5.779   5.999   3.362  0.00  0.00     0.002 A 
ATOM      4  C4  N4B d   1       4.856   5.757   4.368  0.00  0.00    -0.004 A 
ATOM      5  C5  N4B d   1       3.810   4.911   4.144  0.00  0.00     0.002 A 
ATOM      6  C6  N4B d   1       3.628   4.316   2.912  0.00  0.00     0.002 A 
ENDROOT
BRANCH   1   7
ATOM      7  C1' N4B d   1       4.233   3.972   0.543  0.00  0.00     0.057 C 
BRANCH   7   8
ATOM      8  C2' N4B d   1       4.170   5.094  -0.489  0.00  0.00     0.009 C 
BRANCH   8   9
ATOM      9  C3' N4B d   1       4.157   4.559  -1.911  0.00  0.00     0.004 C 
ATOM     10  C4' N4B d   1       4.413   5.624  -2.935  0.00  0.00     0.003 C 
ENDBRANCH   8   9
ENDBRANCH   7   8
ENDBRANCH   1   7
TORSDOF 3
ENDMDL
