MODEL 1
REMARK minimizedAffinity 9.63500881
REMARK minimizedRMSD -1
REMARK  0 active torsions:
REMARK  status: ('A' for Active; 'I' for Inactive)
ROOT
ATOM      1  C   UNL d   1       0.602  -2.245   2.277  0.00  0.00     0.020 A 
ATOM      2  C1  UNL d   1      -0.131  -1.100   1.969  0.00  0.00     0.020 A 
ATOM      3  C2  UNL d   1       0.525   0.050   1.523  0.00  0.00     0.034 A 
ATOM      4  C3  UNL d   1       1.918   0.056   1.384  0.00  0.00     0.017 A 
ATOM      5  C4  UNL d   1       2.652  -1.095   1.693  0.00  0.00     0.017 A 
ATOM      6  C5  UNL d   1       1.990  -2.243   2.139  0.00  0.00     0.034 A 
ATOM      7 Cl   UNL d   1       4.373  -1.164   1.546  0.00  0.00    -0.070 Cl
ATOM      8 Cl1  UNL d   1       2.663   1.512   0.826  0.00  0.00    -0.070 Cl
ENDROOT
TORSDOF 0
ENDMDL
