MODEL 1
REMARK minimizedAffinity 5.46018457
REMARK minimizedRMSD -1
REMARK  0 active torsions:
REMARK  status: ('A' for Active; 'I' for Inactive)
ROOT
ATOM      1  C   UNL d   1       0.933  -2.204   2.576  0.00  0.00     0.020 A 
ATOM      2  C1  UNL d   1       0.424  -1.420   3.611  0.00  0.00     0.020 A 
ATOM      3  C2  UNL d   1       0.738  -0.061   3.675  0.00  0.00     0.034 A 
ATOM      4  C3  UNL d   1       1.563   0.518   2.704  0.00  0.00     0.017 A 
ATOM      5  C4  UNL d   1       2.073  -0.270   1.666  0.00  0.00     0.017 A 
ATOM      6  C5  UNL d   1       1.755  -1.630   1.606  0.00  0.00     0.034 A 
ATOM      7 Cl   UNL d   1       3.097   0.373   0.431  0.00  0.00    -0.070 Cl
ATOM      8 Cl1  UNL d   1       1.910   2.205   2.846  0.00  0.00    -0.070 Cl
ENDROOT
TORSDOF 0
ENDMDL
