MODEL 1
REMARK minimizedAffinity 3.1562624
REMARK minimizedRMSD -1
REMARK  0 active torsions:
REMARK  status: ('A' for Active; 'I' for Inactive)
ROOT
ATOM      1  C   UNL d   1      -5.139  -5.964  -5.569  0.00  0.00     0.020 A 
ATOM      2  C1  UNL d   1      -4.151  -5.972  -4.585  0.00  0.00     0.020 A 
ATOM      3  C2  UNL d   1      -3.718  -4.770  -4.022  0.00  0.00     0.034 A 
ATOM      4  C3  UNL d   1      -4.272  -3.555  -4.442  0.00  0.00     0.017 A 
ATOM      5  C4  UNL d   1      -5.264  -3.549  -5.430  0.00  0.00     0.017 A 
ATOM      6  C5  UNL d   1      -5.694  -4.755  -5.990  0.00  0.00     0.034 A 
ATOM      7 Cl   UNL d   1      -5.995  -2.090  -5.999  0.00  0.00    -0.070 Cl
ATOM      8 Cl1  UNL d   1      -3.689  -2.107  -3.702  0.00  0.00    -0.070 Cl
ENDROOT
TORSDOF 0
ENDMDL
