MODEL 1
REMARK minimizedAffinity 6.12417078
REMARK minimizedRMSD -1
REMARK  0 active torsions:
REMARK  status: ('A' for Active; 'I' for Inactive)
ROOT
ATOM      1  C   UNL d   1      -5.982  -3.979  -5.994  0.00  0.00     0.020 A 
ATOM      2  C1  UNL d   1      -5.511  -5.291  -5.995  0.00  0.00     0.020 A 
ATOM      3  C2  UNL d   1      -4.493  -5.669  -5.117  0.00  0.00     0.034 A 
ATOM      4  C3  UNL d   1      -3.943  -4.733  -4.233  0.00  0.00     0.017 A 
ATOM      5  C4  UNL d   1      -4.416  -3.416  -4.232  0.00  0.00     0.017 A 
ATOM      6  C5  UNL d   1      -5.436  -3.043  -5.114  0.00  0.00     0.034 A 
ATOM      7 Cl   UNL d   1      -3.787  -2.205  -3.171  0.00  0.00    -0.070 Cl
ATOM      8 Cl1  UNL d   1      -2.688  -5.270  -3.174  0.00  0.00    -0.070 Cl
ENDROOT
TORSDOF 0
ENDMDL
