MODEL 1
REMARK minimizedAffinity 7.76975822
REMARK minimizedRMSD -1
REMARK  0 active torsions:
REMARK  status: ('A' for Active; 'I' for Inactive)
ROOT
ATOM      1  C   UNL d   1      -4.959  -5.872  -5.754  0.00  0.00     0.020 A 
ATOM      2  C1  UNL d   1      -3.761  -5.881  -5.040  0.00  0.00     0.020 A 
ATOM      3  C2  UNL d   1      -3.231  -4.686  -4.551  0.00  0.00     0.034 A 
ATOM      4  C3  UNL d   1      -3.898  -3.476  -4.775  0.00  0.00     0.017 A 
ATOM      5  C4  UNL d   1      -5.100  -3.468  -5.491  0.00  0.00     0.017 A 
ATOM      6  C5  UNL d   1      -5.627  -4.668  -5.979  0.00  0.00     0.034 A 
ATOM      7 Cl   UNL d   1      -5.981  -2.015  -5.808  0.00  0.00    -0.070 Cl
ATOM      8 Cl1  UNL d   1      -3.185  -2.036  -4.140  0.00  0.00    -0.070 Cl
ENDROOT
TORSDOF 0
ENDMDL
