MODEL 1
REMARK minimizedAffinity 14.7198467
REMARK minimizedRMSD -1
REMARK  0 active torsions:
REMARK  status: ('A' for Active; 'I' for Inactive)
ROOT
ATOM      1  C   UNL d   1       1.595   2.396   3.399  0.00  0.00     0.020 A 
ATOM      2  C1  UNL d   1       2.515   3.063   2.590  0.00  0.00     0.020 A 
ATOM      3  C2  UNL d   1       3.028   2.435   1.452  0.00  0.00     0.034 A 
ATOM      4  C3  UNL d   1       2.622   1.138   1.121  0.00  0.00     0.017 A 
ATOM      5  C4  UNL d   1       1.699   0.469   1.933  0.00  0.00     0.017 A 
ATOM      6  C5  UNL d   1       1.188   1.102   3.071  0.00  0.00     0.034 A 
ATOM      7 Cl   UNL d   1       1.150  -1.133   1.589  0.00  0.00    -0.070 Cl
ATOM      8 Cl1  UNL d   1       3.297   0.423  -0.300  0.00  0.00    -0.070 Cl
ENDROOT
TORSDOF 0
ENDMDL
