MODEL 1
REMARK minimizedAffinity 12.9290657
REMARK minimizedRMSD -1
REMARK  0 active torsions:
REMARK  status: ('A' for Active; 'I' for Inactive)
ROOT
ATOM      1  C   UNL d   1      -2.360   2.735  -0.248  0.00  0.00     0.020 A 
ATOM      2  C1  UNL d   1      -2.013   1.393  -0.098  0.00  0.00     0.020 A 
ATOM      3  C2  UNL d   1      -2.316   0.476  -1.107  0.00  0.00     0.034 A 
ATOM      4  C3  UNL d   1      -2.968   0.900  -2.271  0.00  0.00     0.017 A 
ATOM      5  C4  UNL d   1      -3.315   2.248  -2.421  0.00  0.00     0.017 A 
ATOM      6  C5  UNL d   1      -3.009   3.161  -1.407  0.00  0.00     0.034 A 
ATOM      7 Cl   UNL d   1      -4.120   2.846  -3.828  0.00  0.00    -0.070 Cl
ATOM      8 Cl1  UNL d   1      -3.311  -0.288  -3.478  0.00  0.00    -0.070 Cl
ENDROOT
TORSDOF 0
ENDMDL
