MODEL 1
REMARK minimizedAffinity 8.91386223
REMARK minimizedRMSD -1
REMARK  0 active torsions:
REMARK  status: ('A' for Active; 'I' for Inactive)
ROOT
ATOM      1  C   UNL d   1      -4.561   2.742  -4.052  0.00  0.00     0.020 A 
ATOM      2  C1  UNL d   1      -5.801   2.105  -3.998  0.00  0.00     0.020 A 
ATOM      3  C2  UNL d   1      -6.000   1.039  -3.120  0.00  0.00     0.034 A 
ATOM      4  C3  UNL d   1      -4.958   0.605  -2.291  0.00  0.00     0.017 A 
ATOM      5  C4  UNL d   1      -3.715   1.244  -2.346  0.00  0.00     0.017 A 
ATOM      6  C5  UNL d   1      -3.521   2.312  -3.228  0.00  0.00     0.034 A 
ATOM      7 Cl   UNL d   1      -2.382   0.766  -1.355  0.00  0.00    -0.070 Cl
ATOM      8 Cl1  UNL d   1      -5.275  -0.720  -1.229  0.00  0.00    -0.070 Cl
ENDROOT
TORSDOF 0
ENDMDL
