MODEL 1
REMARK minimizedAffinity 8.87507725
REMARK minimizedRMSD -1
REMARK  0 active torsions:
REMARK  status: ('A' for Active; 'I' for Inactive)
ROOT
ATOM      1  C   UNL d   1      -0.452  -0.618   1.858  0.00  0.00     0.020 A 
ATOM      2  C1  UNL d   1       0.929  -0.588   1.672  0.00  0.00     0.020 A 
ATOM      3  C2  UNL d   1       1.658  -1.779   1.664  0.00  0.00     0.034 A 
ATOM      4  C3  UNL d   1       1.006  -3.005   1.842  0.00  0.00     0.017 A 
ATOM      5  C4  UNL d   1      -0.381  -3.033   2.029  0.00  0.00     0.017 A 
ATOM      6  C5  UNL d   1      -1.106  -1.838   2.036  0.00  0.00     0.034 A 
ATOM      7 Cl   UNL d   1      -1.255  -4.507   2.256  0.00  0.00    -0.070 Cl
ATOM      8 Cl1  UNL d   1       1.970  -4.439   1.821  0.00  0.00    -0.070 Cl
ENDROOT
TORSDOF 0
ENDMDL
