MODEL 1
REMARK minimizedAffinity 1.08430123
REMARK minimizedRMSD -1
REMARK  0 active torsions:
REMARK  status: ('A' for Active; 'I' for Inactive)
ROOT
ATOM      1  C1  DEN d   1      -3.373  -5.998  -3.636  0.00  0.00     0.130 A 
ATOM      2  C2  DEN d   1      -3.301  -5.999  -2.177  0.00  0.00    -0.031 A 
ATOM      3  C3  DEN d   1      -1.890  -5.803  -1.789  0.00  0.00     0.027 A 
ATOM      4  C4  DEN d   1       0.179  -5.496  -3.298  0.00  0.00     0.027 A 
ATOM      5  C5  DEN d   1       0.619  -5.436  -4.602  0.00  0.00    -0.003 A 
ATOM      6  C6  DEN d   1      -0.229  -5.592  -5.666  0.00  0.00     0.001 A 
ATOM      7  C7  DEN d   1      -1.569  -5.770  -5.446  0.00  0.00     0.017 A 
ATOM      8  C8  DEN d   1      -2.019  -5.840  -4.134  0.00  0.00    -0.094 A 
ATOM      9  C9  DEN d   1      -1.148  -5.668  -3.072  0.00  0.00    -0.072 A 
ENDROOT
TORSDOF 0
ENDMDL
