MODEL 1
REMARK minimizedAffinity 5.78373575
REMARK minimizedRMSD -1
REMARK  0 active torsions:
REMARK  status: ('A' for Active; 'I' for Inactive)
ROOT
ATOM      1  C1  DEN d   1       1.427  -5.921  -4.184  0.00  0.00     0.130 A 
ATOM      2  C2  DEN d   1       1.327  -5.951  -5.641  0.00  0.00    -0.031 A 
ATOM      3  C3  DEN d   1      -0.105  -5.988  -5.999  0.00  0.00     0.027 A 
ATOM      4  C4  DEN d   1      -2.166  -5.998  -4.448  0.00  0.00     0.027 A 
ATOM      5  C5  DEN d   1      -2.583  -5.992  -3.135  0.00  0.00    -0.003 A 
ATOM      6  C6  DEN d   1      -1.699  -5.997  -2.088  0.00  0.00     0.001 A 
ATOM      7  C7  DEN d   1      -0.353  -5.962  -2.337  0.00  0.00     0.017 A 
ATOM      8  C8  DEN d   1       0.075  -5.975  -3.658  0.00  0.00    -0.094 A 
ATOM      9  C9  DEN d   1      -0.834  -5.957  -4.702  0.00  0.00    -0.072 A 
ENDROOT
TORSDOF 0
ENDMDL
