MODEL 1
REMARK minimizedAffinity -2.01746535
REMARK minimizedRMSD -1
REMARK  0 active torsions:
REMARK  status: ('A' for Active; 'I' for Inactive)
ROOT
ATOM      1  C1  DEN d   1      -0.674  -5.994  -5.988  0.00  0.00     0.130 A 
ATOM      2  C2  DEN d   1       0.786  -5.958  -5.975  0.00  0.00    -0.031 A 
ATOM      3  C3  DEN d   1       1.230  -5.944  -4.567  0.00  0.00     0.027 A 
ATOM      4  C4  DEN d   1      -0.193  -5.979  -2.416  0.00  0.00     0.027 A 
ATOM      5  C5  DEN d   1      -1.478  -5.999  -1.920  0.00  0.00    -0.003 A 
ATOM      6  C6  DEN d   1      -2.576  -5.984  -2.739  0.00  0.00     0.001 A 
ATOM      7  C7  DEN d   1      -2.410  -5.994  -4.098  0.00  0.00     0.017 A 
ATOM      8  C8  DEN d   1      -1.117  -5.967  -4.605  0.00  0.00    -0.094 A 
ATOM      9  C9  DEN d   1      -0.020  -5.995  -3.762  0.00  0.00    -0.072 A 
ENDROOT
TORSDOF 0
ENDMDL
