MODEL 1
REMARK minimizedAffinity 1.74321747
REMARK minimizedRMSD -1
REMARK  0 active torsions:
REMARK  status: ('A' for Active; 'I' for Inactive)
ROOT
ATOM      1  C1  DEN d   1      -0.434  -5.983  -2.508  0.00  0.00     0.130 A 
ATOM      2  C2  DEN d   1      -1.783  -5.960  -3.068  0.00  0.00    -0.031 A 
ATOM      3  C3  DEN d   1      -1.667  -5.957  -4.540  0.00  0.00     0.027 A 
ATOM      4  C4  DEN d   1       0.459  -5.989  -6.000  0.00  0.00     0.027 A 
ATOM      5  C5  DEN d   1       1.836  -6.000  -5.977  0.00  0.00    -0.003 A 
ATOM      6  C6  DEN d   1       2.548  -5.971  -4.807  0.00  0.00     0.001 A 
ATOM      7  C7  DEN d   1       1.884  -5.976  -3.609  0.00  0.00     0.017 A 
ATOM      8  C8  DEN d   1       0.495  -5.958  -3.624  0.00  0.00    -0.094 A 
ATOM      9  C9  DEN d   1      -0.206  -6.000  -4.817  0.00  0.00    -0.072 A 
ENDROOT
TORSDOF 0
ENDMDL
