MODEL 1
REMARK minimizedAffinity 4.13744783
REMARK minimizedRMSD -1
REMARK  0 active torsions:
REMARK  status: ('A' for Active; 'I' for Inactive)
ROOT
ATOM      1  C1  DEN d   1      -0.106  -5.945  -1.946  0.00  0.00     0.130 A 
ATOM      2  C2  DEN d   1      -1.565  -6.000  -1.981  0.00  0.00    -0.031 A 
ATOM      3  C3  DEN d   1      -1.988  -5.998  -3.396  0.00  0.00     0.027 A 
ATOM      4  C4  DEN d   1      -0.533  -5.922  -5.525  0.00  0.00     0.027 A 
ATOM      5  C5  DEN d   1       0.758  -5.856  -6.000  0.00  0.00    -0.003 A 
ATOM      6  C6  DEN d   1       1.841  -5.782  -5.165  0.00  0.00     0.001 A 
ATOM      7  C7  DEN d   1       1.655  -5.817  -3.808  0.00  0.00     0.017 A 
ATOM      8  C8  DEN d   1       0.356  -5.875  -3.321  0.00  0.00    -0.094 A 
ATOM      9  C9  DEN d   1      -0.725  -5.962  -4.182  0.00  0.00    -0.072 A 
ENDROOT
TORSDOF 0
ENDMDL
