MODEL 1
REMARK minimizedAffinity 7.7736516
REMARK minimizedRMSD -1
REMARK  0 active torsions:
REMARK  status: ('A' for Active; 'I' for Inactive)
ROOT
ATOM      1  C1  DEN d   1       0.081  -1.324   4.628  0.00  0.00     0.130 A 
ATOM      2  C2  DEN d   1      -0.739  -2.459   5.041  0.00  0.00    -0.031 A 
ATOM      3  C3  DEN d   1      -0.979  -3.304   3.854  0.00  0.00     0.027 A 
ATOM      4  C4  DEN d   1      -0.161  -2.969   1.431  0.00  0.00     0.027 A 
ATOM      5  C5  DEN d   1       0.555  -2.144   0.592  0.00  0.00    -0.003 A 
ATOM      6  C6  DEN d   1       1.130  -0.980   1.029  0.00  0.00     0.001 A 
ATOM      7  C7  DEN d   1       1.037  -0.631   2.350  0.00  0.00     0.017 A 
ATOM      8  C8  DEN d   1       0.310  -1.454   3.201  0.00  0.00    -0.094 A 
ATOM      9  C9  DEN d   1      -0.253  -2.633   2.743  0.00  0.00    -0.072 A 
ENDROOT
TORSDOF 0
ENDMDL
