MODEL 1
REMARK minimizedAffinity -1.86980927
REMARK minimizedRMSD -1
REMARK  0 active torsions:
REMARK  status: ('A' for Active; 'I' for Inactive)
ROOT
ATOM      1  C1  DEN d   1      -3.082  -5.961  -3.682  0.00  0.00     0.130 A 
ATOM      2  C2  DEN d   1      -2.918  -5.641  -2.267  0.00  0.00    -0.031 A 
ATOM      3  C3  DEN d   1      -1.508  -5.264  -2.044  0.00  0.00     0.027 A 
ATOM      4  C4  DEN d   1       0.427  -5.141  -3.746  0.00  0.00     0.027 A 
ATOM      5  C5  DEN d   1       0.776  -5.332  -5.064  0.00  0.00    -0.003 A 
ATOM      6  C6  DEN d   1      -0.121  -5.776  -6.000  0.00  0.00     0.001 A 
ATOM      7  C7  DEN d   1      -1.424  -5.999  -5.639  0.00  0.00     0.017 A 
ATOM      8  C8  DEN d   1      -1.781  -5.816  -4.310  0.00  0.00    -0.094 A 
ATOM      9  C9  DEN d   1      -0.863  -5.355  -3.382  0.00  0.00    -0.072 A 
ENDROOT
TORSDOF 0
ENDMDL
