MODEL 1
REMARK minimizedAffinity 4.03712559
REMARK minimizedRMSD -1
REMARK  0 active torsions:
REMARK  status: ('A' for Active; 'I' for Inactive)
ROOT
ATOM      1  C1  DEN d   1       1.430   0.377   0.503  0.00  0.00     0.130 A 
ATOM      2  C2  DEN d   1       1.659   0.501  -0.934  0.00  0.00    -0.031 A 
ATOM      3  C3  DEN d   1       1.322  -0.791  -1.564  0.00  0.00     0.027 A 
ATOM      4  C4  DEN d   1       0.466  -2.960  -0.460  0.00  0.00     0.027 A 
ATOM      5  C5  DEN d   1       0.128  -3.552   0.736  0.00  0.00    -0.003 A 
ATOM      6  C6  DEN d   1       0.231  -2.894   1.933  0.00  0.00     0.001 A 
ATOM      7  C7  DEN d   1       0.641  -1.587   1.955  0.00  0.00     0.017 A 
ATOM      8  C8  DEN d   1       0.991  -0.985   0.753  0.00  0.00    -0.094 A 
ATOM      9  C9  DEN d   1       0.868  -1.664  -0.447  0.00  0.00    -0.072 A 
ENDROOT
TORSDOF 0
ENDMDL
