MODEL 1
REMARK minimizedAffinity -2.74085736
REMARK minimizedRMSD -1
REMARK  0 active torsions:
REMARK  status: ('A' for Active; 'I' for Inactive)
ROOT
ATOM      1  C1  DEN d   1      -2.099  -6.000  -2.191  0.00  0.00     0.130 A 
ATOM      2  C2  DEN d   1      -3.528  -5.999  -2.493  0.00  0.00    -0.031 A 
ATOM      3  C3  DEN d   1      -3.686  -5.857  -3.955  0.00  0.00     0.027 A 
ATOM      4  C4  DEN d   1      -1.866  -5.645  -5.770  0.00  0.00     0.027 A 
ATOM      5  C5  DEN d   1      -0.509  -5.584  -5.997  0.00  0.00    -0.003 A 
ATOM      6  C6  DEN d   1       0.405  -5.622  -4.978  0.00  0.00     0.001 A 
ATOM      7  C7  DEN d   1      -0.026  -5.771  -3.686  0.00  0.00     0.017 A 
ATOM      8  C8  DEN d   1      -1.393  -5.826  -3.448  0.00  0.00    -0.094 A 
ATOM      9  C9  DEN d   1      -2.301  -5.797  -4.493  0.00  0.00    -0.072 A 
ENDROOT
TORSDOF 0
ENDMDL
