MODEL 1
REMARK minimizedAffinity -0.0171578471
REMARK minimizedRMSD -1
REMARK  0 active torsions:
REMARK  status: ('A' for Active; 'I' for Inactive)
ROOT
ATOM      1  C1  DEN d   1       1.052  -5.830  -4.610  0.00  0.00     0.130 A 
ATOM      2  C2  DEN d   1       0.603  -5.860  -5.999  0.00  0.00    -0.031 A 
ATOM      3  C3  DEN d   1      -0.872  -5.932  -6.000  0.00  0.00     0.027 A 
ATOM      4  C4  DEN d   1      -2.495  -5.993  -3.996  0.00  0.00     0.027 A 
ATOM      5  C5  DEN d   1      -2.581  -6.000  -2.621  0.00  0.00    -0.003 A 
ATOM      6  C6  DEN d   1      -1.471  -5.985  -1.819  0.00  0.00     0.001 A 
ATOM      7  C7  DEN d   1      -0.225  -5.917  -2.386  0.00  0.00     0.017 A 
ATOM      8  C8  DEN d   1      -0.130  -5.917  -3.772  0.00  0.00    -0.094 A 
ATOM      9  C9  DEN d   1      -1.265  -5.920  -4.565  0.00  0.00    -0.072 A 
ENDROOT
TORSDOF 0
ENDMDL
