MODEL 1
REMARK minimizedAffinity -1.72664773
REMARK minimizedRMSD -1
REMARK  0 active torsions:
REMARK  status: ('A' for Active; 'I' for Inactive)
ROOT
ATOM      1  C1  DEN d   1       0.076  -5.944  -6.000  0.00  0.00     0.130 A 
ATOM      2  C2  DEN d   1       1.504  -5.878  -5.703  0.00  0.00    -0.031 A 
ATOM      3  C3  DEN d   1       1.666  -5.867  -4.236  0.00  0.00     0.027 A 
ATOM      4  C4  DEN d   1      -0.147  -5.948  -2.403  0.00  0.00     0.027 A 
ATOM      5  C5  DEN d   1      -1.503  -5.998  -2.166  0.00  0.00    -0.003 A 
ATOM      6  C6  DEN d   1      -2.422  -5.998  -3.182  0.00  0.00     0.001 A 
ATOM      7  C7  DEN d   1      -1.994  -5.994  -4.484  0.00  0.00     0.017 A 
ATOM      8  C8  DEN d   1      -0.629  -5.937  -4.730  0.00  0.00    -0.094 A 
ATOM      9  C9  DEN d   1       0.284  -5.949  -3.689  0.00  0.00    -0.072 A 
ENDROOT
TORSDOF 0
ENDMDL
