MODEL 1
REMARK minimizedAffinity 11.021637
REMARK minimizedRMSD -1
REMARK  0 active torsions:
REMARK  status: ('A' for Active; 'I' for Inactive)
ROOT
ATOM      1  C1  DEN d   1       0.533  -0.058   0.565  0.00  0.00     0.130 A 
ATOM      2  C2  DEN d   1       1.664  -0.978   0.474  0.00  0.00    -0.031 A 
ATOM      3  C3  DEN d   1       2.882  -0.180   0.226  0.00  0.00     0.027 A 
ATOM      4  C4  DEN d   1       3.126   2.375  -0.021  0.00  0.00     0.027 A 
ATOM      5  C5  DEN d   1       2.444   3.572  -0.032  0.00  0.00    -0.003 A 
ATOM      6  C6  DEN d   1       1.085   3.640   0.121  0.00  0.00     0.001 A 
ATOM      7  C7  DEN d   1       0.368   2.492   0.336  0.00  0.00     0.017 A 
ATOM      8  C8  DEN d   1       1.047   1.281   0.340  0.00  0.00    -0.094 A 
ATOM      9  C9  DEN d   1       2.424   1.235   0.196  0.00  0.00    -0.072 A 
ENDROOT
TORSDOF 0
ENDMDL
