MODEL 1
REMARK minimizedAffinity 0.049196519
REMARK minimizedRMSD -1
REMARK  0 active torsions:
REMARK  status: ('A' for Active; 'I' for Inactive)
ROOT
ATOM      1  C1  DEN d   1      -1.932  -5.997  -3.916  0.00  0.00     0.130 A 
ATOM      2  C2  DEN d   1      -1.837  -5.998  -2.459  0.00  0.00    -0.031 A 
ATOM      3  C3  DEN d   1      -0.406  -5.966  -2.095  0.00  0.00     0.027 A 
ATOM      4  C4  DEN d   1       1.660  -5.911  -3.639  0.00  0.00     0.027 A 
ATOM      5  C5  DEN d   1       2.082  -5.909  -4.950  0.00  0.00    -0.003 A 
ATOM      6  C6  DEN d   1       1.204  -5.971  -6.000  0.00  0.00     0.001 A 
ATOM      7  C7  DEN d   1      -0.144  -5.991  -5.757  0.00  0.00     0.017 A 
ATOM      8  C8  DEN d   1      -0.577  -6.000  -4.437  0.00  0.00    -0.094 A 
ATOM      9  C9  DEN d   1       0.326  -5.925  -3.390  0.00  0.00    -0.072 A 
ENDROOT
TORSDOF 0
ENDMDL
