MODEL 1
REMARK minimizedAffinity 7.86499643
REMARK minimizedRMSD -1
REMARK  0 active torsions:
REMARK  status: ('A' for Active; 'I' for Inactive)
ROOT
ATOM      1  C1  DEN d   1      -0.744  -1.855   0.245  0.00  0.00     0.130 A 
ATOM      2  C2  DEN d   1      -0.393  -3.049   1.010  0.00  0.00    -0.031 A 
ATOM      3  C3  DEN d   1       0.989  -2.885   1.503  0.00  0.00     0.027 A 
ATOM      4  C4  DEN d   1       2.610  -0.908   1.164  0.00  0.00     0.027 A 
ATOM      5  C5  DEN d   1       2.765   0.328   0.576  0.00  0.00    -0.003 A 
ATOM      6  C6  DEN d   1       1.783   0.903  -0.185  0.00  0.00     0.001 A 
ATOM      7  C7  DEN d   1       0.582   0.262  -0.342  0.00  0.00     0.017 A 
ATOM      8  C8  DEN d   1       0.421  -0.988   0.242  0.00  0.00    -0.094 A 
ATOM      9  C9  DEN d   1       1.422  -1.547   1.018  0.00  0.00    -0.072 A 
ENDROOT
TORSDOF 0
ENDMDL
