MODEL 1
REMARK minimizedAffinity 8.29424381
REMARK minimizedRMSD -1
REMARK  0 active torsions:
REMARK  status: ('A' for Active; 'I' for Inactive)
ROOT
ATOM      1  C1  DEN d   1       0.904  -3.255   1.446  0.00  0.00     0.130 A 
ATOM      2  C2  DEN d   1      -0.516  -3.415   1.145  0.00  0.00    -0.031 A 
ATOM      3  C3  DEN d   1      -1.000  -2.157   0.542  0.00  0.00     0.027 A 
ATOM      4  C4  DEN d   1       0.306   0.011   0.044  0.00  0.00     0.027 A 
ATOM      5  C5  DEN d   1       1.534   0.627   0.135  0.00  0.00    -0.003 A 
ATOM      6  C6  DEN d   1       2.621   0.010   0.695  0.00  0.00     0.001 A 
ATOM      7  C7  DEN d   1       2.513  -1.279   1.146  0.00  0.00     0.017 A 
ATOM      8  C8  DEN d   1       1.275  -1.904   1.064  0.00  0.00    -0.094 A 
ATOM      9  C9  DEN d   1       0.192  -1.268   0.484  0.00  0.00    -0.072 A 
ENDROOT
TORSDOF 0
ENDMDL
