MODEL 1
REMARK minimizedAffinity 1.92220461
REMARK minimizedRMSD -1
REMARK  0 active torsions:
REMARK  status: ('A' for Active; 'I' for Inactive)
ROOT
ATOM      1  C1  DEN d   1       0.800  -5.939  -2.530  0.00  0.00     0.130 A 
ATOM      2  C2  DEN d   1       2.134  -5.967  -3.123  0.00  0.00    -0.031 A 
ATOM      3  C3  DEN d   1       1.982  -5.996  -4.591  0.00  0.00     0.027 A 
ATOM      4  C4  DEN d   1      -0.180  -5.995  -5.998  0.00  0.00     0.027 A 
ATOM      5  C5  DEN d   1      -1.557  -5.989  -5.941  0.00  0.00    -0.003 A 
ATOM      6  C6  DEN d   1      -2.238  -6.000  -4.753  0.00  0.00     0.001 A 
ATOM      7  C7  DEN d   1      -1.545  -5.972  -3.572  0.00  0.00     0.017 A 
ATOM      8  C8  DEN d   1      -0.157  -5.986  -3.621  0.00  0.00    -0.094 A 
ATOM      9  C9  DEN d   1       0.514  -5.962  -4.832  0.00  0.00    -0.072 A 
ENDROOT
TORSDOF 0
ENDMDL
