MODEL 1
REMARK minimizedAffinity -4.16832113
REMARK minimizedRMSD -1
REMARK  0 active torsions:
REMARK  status: ('A' for Active; 'I' for Inactive)
ROOT
ATOM      1  C   UNL d   1       0.291   0.108  -0.964  0.00  0.00     0.078 C 
ATOM      2  C1  UNL d   1      -0.013  -0.095   0.490  0.00  0.00    -0.077 A 
ATOM      3  C2  UNL d   1      -1.087  -0.896   0.898  0.00  0.00    -0.001 A 
ATOM      4  C3  UNL d   1      -1.365  -1.069   2.255  0.00  0.00     0.003 A 
ATOM      5  C4  UNL d   1      -0.574  -0.442   3.215  0.00  0.00    -0.005 A 
ATOM      6  C5  UNL d   1       0.496   0.359   2.820  0.00  0.00     0.003 A 
ATOM      7  C6  UNL d   1       0.775   0.532   1.463  0.00  0.00    -0.001 A 
ENDROOT
TORSDOF 0
ENDMDL
