MODEL 1
REMARK minimizedAffinity -4.14969969
REMARK minimizedRMSD -1
REMARK  0 active torsions:
REMARK  status: ('A' for Active; 'I' for Inactive)
ROOT
ATOM      1  C   UNL d   1       0.461  -1.512  -0.400  0.00  0.00     0.078 C 
ATOM      2  C1  UNL d   1      -0.356  -0.867   0.680  0.00  0.00    -0.077 A 
ATOM      3  C2  UNL d   1      -1.180   0.230   0.402  0.00  0.00    -0.001 A 
ATOM      4  C3  UNL d   1      -1.928   0.826   1.419  0.00  0.00     0.003 A 
ATOM      5  C4  UNL d   1      -1.857   0.333   2.721  0.00  0.00    -0.005 A 
ATOM      6  C5  UNL d   1      -1.037  -0.757   3.007  0.00  0.00     0.003 A 
ATOM      7  C6  UNL d   1      -0.289  -1.355   1.991  0.00  0.00    -0.001 A 
ENDROOT
TORSDOF 0
ENDMDL
