MODEL 1
REMARK minimizedAffinity -0.758613229
REMARK minimizedRMSD -1
REMARK  0 active torsions:
REMARK  status: ('A' for Active; 'I' for Inactive)
ROOT
ATOM      1  C   UNL d   1      -5.264  -5.986   0.036  0.00  0.00     0.078 C 
ATOM      2  C1  UNL d   1      -4.473  -5.388   1.161  0.00  0.00    -0.077 A 
ATOM      3  C2  UNL d   1      -3.712  -4.229   0.971  0.00  0.00    -0.001 A 
ATOM      4  C3  UNL d   1      -2.973  -3.689   2.024  0.00  0.00     0.003 A 
ATOM      5  C4  UNL d   1      -2.987  -4.302   3.276  0.00  0.00    -0.005 A 
ATOM      6  C5  UNL d   1      -3.740  -5.457   3.474  0.00  0.00     0.003 A 
ATOM      7  C6  UNL d   1      -4.480  -5.999   2.421  0.00  0.00    -0.001 A 
ENDROOT
TORSDOF 0
ENDMDL
