MODEL 1
REMARK minimizedAffinity -1.23634994
REMARK minimizedRMSD -1
REMARK  0 active torsions:
REMARK  status: ('A' for Active; 'I' for Inactive)
ROOT
ATOM      1  C   UNL d   1      -5.609   2.610   2.735  0.00  0.00     0.078 C 
ATOM      2  C1  UNL d   1      -4.147   2.504   3.055  0.00  0.00    -0.077 A 
ATOM      3  C2  UNL d   1      -3.618   3.091   4.211  0.00  0.00    -0.001 A 
ATOM      4  C3  UNL d   1      -2.254   2.994   4.491  0.00  0.00     0.003 A 
ATOM      5  C4  UNL d   1      -1.408   2.311   3.620  0.00  0.00    -0.005 A 
ATOM      6  C5  UNL d   1      -1.925   1.725   2.466  0.00  0.00     0.003 A 
ATOM      7  C6  UNL d   1      -3.289   1.822   2.184  0.00  0.00    -0.001 A 
ENDROOT
TORSDOF 0
ENDMDL
