MODEL 1
REMARK minimizedAffinity 2.16924453
REMARK minimizedRMSD -1
REMARK  0 active torsions:
REMARK  status: ('A' for Active; 'I' for Inactive)
ROOT
ATOM      1  C   UNL d   1      -1.134   2.726   3.480  0.00  0.00     0.078 C 
ATOM      2  C1  UNL d   1      -0.853   1.696   2.426  0.00  0.00    -0.077 A 
ATOM      3  C2  UNL d   1       0.439   1.520   1.917  0.00  0.00    -0.001 A 
ATOM      4  C3  UNL d   1       0.685   0.565   0.929  0.00  0.00     0.003 A 
ATOM      5  C4  UNL d   1      -0.358  -0.221   0.442  0.00  0.00    -0.005 A 
ATOM      6  C5  UNL d   1      -1.647  -0.052   0.941  0.00  0.00     0.003 A 
ATOM      7  C6  UNL d   1      -1.895   0.903   1.929  0.00  0.00    -0.001 A 
ENDROOT
TORSDOF 0
ENDMDL
