MODEL 1
REMARK minimizedAffinity -1.58124888
REMARK minimizedRMSD -1
REMARK  0 active torsions:
REMARK  status: ('A' for Active; 'I' for Inactive)
ROOT
ATOM      1  C   UNL d   1      -3.355  -5.250   4.495  0.00  0.00     0.078 C 
ATOM      2  C1  UNL d   1      -4.006  -5.503   3.168  0.00  0.00    -0.077 A 
ATOM      3  C2  UNL d   1      -3.264  -5.463   1.982  0.00  0.00    -0.001 A 
ATOM      4  C3  UNL d   1      -3.885  -5.690   0.752  0.00  0.00     0.003 A 
ATOM      5  C4  UNL d   1      -5.252  -5.959   0.698  0.00  0.00    -0.005 A 
ATOM      6  C5  UNL d   1      -5.999  -5.999   1.873  0.00  0.00     0.003 A 
ATOM      7  C6  UNL d   1      -5.379  -5.772   3.103  0.00  0.00    -0.001 A 
ENDROOT
TORSDOF 0
ENDMDL
