MODEL 1
REMARK minimizedAffinity -4.81091785
REMARK minimizedRMSD -1
REMARK  0 active torsions:
REMARK  status: ('A' for Active; 'I' for Inactive)
ROOT
ATOM      1  C   UNL d   1       0.259   0.963  -1.066  0.00  0.00     0.078 C 
ATOM      2  C1  UNL d   1       0.214   0.599   0.388  0.00  0.00    -0.077 A 
ATOM      3  C2  UNL d   1      -0.993   0.252   1.008  0.00  0.00    -0.001 A 
ATOM      4  C3  UNL d   1      -1.021  -0.075   2.365  0.00  0.00     0.003 A 
ATOM      5  C4  UNL d   1       0.154  -0.058   3.113  0.00  0.00    -0.005 A 
ATOM      6  C5  UNL d   1       1.359   0.287   2.505  0.00  0.00     0.003 A 
ATOM      7  C6  UNL d   1       1.390   0.615   1.149  0.00  0.00    -0.001 A 
ENDROOT
TORSDOF 0
ENDMDL
