MODEL 1
REMARK minimizedAffinity -5.13079834
REMARK minimizedRMSD -1
REMARK  0 active torsions:
REMARK  status: ('A' for Active; 'I' for Inactive)
ROOT
ATOM      1  C   UNL d   1       0.714   0.486  -1.087  0.00  0.00     0.078 C 
ATOM      2  C1  UNL d   1       0.398   0.273   0.364  0.00  0.00    -0.077 A 
ATOM      3  C2  UNL d   1       1.016   1.043   1.357  0.00  0.00    -0.001 A 
ATOM      4  C3  UNL d   1       0.719   0.828   2.704  0.00  0.00     0.003 A 
ATOM      5  C4  UNL d   1      -0.196  -0.158   3.070  0.00  0.00    -0.005 A 
ATOM      6  C5  UNL d   1      -0.814  -0.930   2.089  0.00  0.00     0.003 A 
ATOM      7  C6  UNL d   1      -0.518  -0.717   0.741  0.00  0.00    -0.001 A 
ENDROOT
TORSDOF 0
ENDMDL
