MODEL 1
REMARK minimizedAffinity -4.62104845
REMARK minimizedRMSD -1
REMARK  0 active torsions:
REMARK  status: ('A' for Active; 'I' for Inactive)
ROOT
ATOM      1  C   UNL d   1       0.826  -0.588  -0.776  0.00  0.00     0.078 C 
ATOM      2  C1  UNL d   1       0.403  -0.308   0.635  0.00  0.00    -0.077 A 
ATOM      3  C2  UNL d   1       1.303   0.227   1.565  0.00  0.00    -0.001 A 
ATOM      4  C3  UNL d   1       0.899   0.473   2.878  0.00  0.00     0.003 A 
ATOM      5  C4  UNL d   1      -0.406   0.188   3.273  0.00  0.00    -0.005 A 
ATOM      6  C5  UNL d   1      -1.308  -0.347   2.356  0.00  0.00     0.003 A 
ATOM      7  C6  UNL d   1      -0.906  -0.594   1.043  0.00  0.00    -0.001 A 
ENDROOT
TORSDOF 0
ENDMDL
