MODEL 1
REMARK minimizedAffinity -4.99336529
REMARK minimizedRMSD -1
REMARK  0 active torsions:
REMARK  status: ('A' for Active; 'I' for Inactive)
ROOT
ATOM      1  C   UNL d   1       0.757   0.700  -0.926  0.00  0.00     0.078 C 
ATOM      2  C1  UNL d   1       0.325   0.256   0.440  0.00  0.00    -0.077 A 
ATOM      3  C2  UNL d   1       1.072   0.591   1.577  0.00  0.00    -0.001 A 
ATOM      4  C3  UNL d   1       0.663   0.163   2.841  0.00  0.00     0.003 A 
ATOM      5  C4  UNL d   1      -0.492  -0.603   2.981  0.00  0.00    -0.005 A 
ATOM      6  C5  UNL d   1      -1.241  -0.942   1.855  0.00  0.00     0.003 A 
ATOM      7  C6  UNL d   1      -0.834  -0.515   0.590  0.00  0.00    -0.001 A 
ENDROOT
TORSDOF 0
ENDMDL
