MODEL 1
REMARK minimizedAffinity -1.71639836
REMARK minimizedRMSD -1
REMARK  0 active torsions:
REMARK  status: ('A' for Active; 'I' for Inactive)
ROOT
ATOM      1  C   UNL d   1       1.099  -0.430  -1.727  0.00  0.00     0.078 C 
ATOM      2  C1  UNL d   1       0.917  -0.153  -0.264  0.00  0.00    -0.077 A 
ATOM      3  C2  UNL d   1      -0.022   0.785   0.181  0.00  0.00    -0.001 A 
ATOM      4  C3  UNL d   1      -0.174   1.039   1.545  0.00  0.00     0.003 A 
ATOM      5  C4  UNL d   1       0.610   0.359   2.475  0.00  0.00    -0.005 A 
ATOM      6  C5  UNL d   1       1.548  -0.575   2.041  0.00  0.00     0.003 A 
ATOM      7  C6  UNL d   1       1.702  -0.830   0.678  0.00  0.00    -0.001 A 
ENDROOT
TORSDOF 0
ENDMDL
