MODEL 1
REMARK minimizedAffinity -3.9819057
REMARK minimizedRMSD -1
REMARK  0 active torsions:
REMARK  status: ('A' for Active; 'I' for Inactive)
ROOT
ATOM      1  C   UNL d   1       0.352  -0.083  -1.390  0.00  0.00     0.078 C 
ATOM      2  C1  UNL d   1       0.216  -0.023   0.102  0.00  0.00    -0.077 A 
ATOM      3  C2  UNL d   1       1.193   0.596   0.891  0.00  0.00    -0.001 A 
ATOM      4  C3  UNL d   1       1.059   0.636   2.279  0.00  0.00     0.003 A 
ATOM      5  C4  UNL d   1      -0.052   0.058   2.892  0.00  0.00    -0.005 A 
ATOM      6  C5  UNL d   1      -1.029  -0.561   2.115  0.00  0.00     0.003 A 
ATOM      7  C6  UNL d   1      -0.896  -0.603   0.726  0.00  0.00    -0.001 A 
ENDROOT
TORSDOF 0
ENDMDL
