MODEL 1
REMARK minimizedAffinity 6.79376888
REMARK minimizedRMSD -1
REMARK  0 active torsions:
REMARK  status: ('A' for Active; 'I' for Inactive)
ROOT
ATOM      1  C   UNL d   1       0.335  -3.119  -4.006  0.00  0.00     0.078 C 
ATOM      2  C1  UNL d   1       1.283  -2.094  -3.458  0.00  0.00    -0.077 A 
ATOM      3  C2  UNL d   1       2.632  -2.087  -3.832  0.00  0.00    -0.001 A 
ATOM      4  C3  UNL d   1       3.505  -1.133  -3.306  0.00  0.00     0.003 A 
ATOM      5  C4  UNL d   1       3.038  -0.179  -2.404  0.00  0.00    -0.005 A 
ATOM      6  C5  UNL d   1       1.698  -0.180  -2.025  0.00  0.00     0.003 A 
ATOM      7  C6  UNL d   1       0.823  -1.133  -2.549  0.00  0.00    -0.001 A 
ENDROOT
TORSDOF 0
ENDMDL
