MODEL 1
REMARK minimizedAffinity -0.331685126
REMARK minimizedRMSD -1
REMARK  0 active torsions:
REMARK  status: ('A' for Active; 'I' for Inactive)
ROOT
ATOM      1  C   UNL d   1       1.193  -3.666   3.141  0.00  0.00     0.078 C 
ATOM      2  C1  UNL d   1       2.273  -2.625   3.149  0.00  0.00    -0.077 A 
ATOM      3  C2  UNL d   1       2.682  -2.000   1.965  0.00  0.00    -0.001 A 
ATOM      4  C3  UNL d   1       3.695  -1.040   1.987  0.00  0.00     0.003 A 
ATOM      5  C4  UNL d   1       4.309  -0.698   3.190  0.00  0.00    -0.005 A 
ATOM      6  C5  UNL d   1       3.910  -1.316   4.373  0.00  0.00     0.003 A 
ATOM      7  C6  UNL d   1       2.897  -2.276   4.354  0.00  0.00    -0.001 A 
ENDROOT
TORSDOF 0
ENDMDL
