MODEL 1
REMARK minimizedAffinity -3.89386606
REMARK minimizedRMSD -1
REMARK  0 active torsions:
REMARK  status: ('A' for Active; 'I' for Inactive)
ROOT
ATOM      1  C   UNL d   1       5.375   1.410  -3.859  0.00  0.00     0.078 C 
ATOM      2  C1  UNL d   1       4.213   0.619  -3.337  0.00  0.00    -0.077 A 
ATOM      3  C2  UNL d   1       3.892  -0.633  -3.877  0.00  0.00    -0.001 A 
ATOM      4  C3  UNL d   1       2.802  -1.354  -3.388  0.00  0.00     0.003 A 
ATOM      5  C4  UNL d   1       2.022  -0.831  -2.358  0.00  0.00    -0.005 A 
ATOM      6  C5  UNL d   1       2.332   0.415  -1.817  0.00  0.00     0.003 A 
ATOM      7  C6  UNL d   1       3.422   1.137  -2.304  0.00  0.00    -0.001 A 
ENDROOT
TORSDOF 0
ENDMDL
