MODEL 1
REMARK minimizedAffinity 10.397809
REMARK minimizedRMSD -1
REMARK  0 active torsions:
REMARK  status: ('A' for Active; 'I' for Inactive)
ROOT
ATOM      1  C   UNL d   1      -1.274  -5.977  -2.006  0.00  0.00     0.078 C 
ATOM      2  C1  UNL d   1      -1.741  -5.992  -0.581  0.00  0.00    -0.077 A 
ATOM      3  C2  UNL d   1      -3.106  -5.994  -0.269  0.00  0.00    -0.001 A 
ATOM      4  C3  UNL d   1      -3.526  -5.999   1.062  0.00  0.00     0.003 A 
ATOM      5  C4  UNL d   1      -2.587  -6.000   2.092  0.00  0.00    -0.005 A 
ATOM      6  C5  UNL d   1      -1.227  -5.995   1.792  0.00  0.00     0.003 A 
ATOM      7  C6  UNL d   1      -0.805  -5.991   0.461  0.00  0.00    -0.001 A 
ENDROOT
TORSDOF 0
ENDMDL
