MODEL 1
REMARK minimizedAffinity 12.347209
REMARK minimizedRMSD -1
REMARK  0 active torsions:
REMARK  status: ('A' for Active; 'I' for Inactive)
ROOT
ATOM      1  C   UNL d   1       0.777  -0.997  -1.553  0.00  0.00     0.078 C 
ATOM      2  C1  UNL d   1       2.060  -0.517  -2.161  0.00  0.00    -0.077 A 
ATOM      3  C2  UNL d   1       2.288   0.846  -2.383  0.00  0.00    -0.001 A 
ATOM      4  C3  UNL d   1       3.484   1.278  -2.959  0.00  0.00     0.003 A 
ATOM      5  C4  UNL d   1       4.461   0.352  -3.319  0.00  0.00    -0.005 A 
ATOM      6  C5  UNL d   1       4.243  -1.007  -3.105  0.00  0.00     0.003 A 
ATOM      7  C6  UNL d   1       3.047  -1.441  -2.529  0.00  0.00    -0.001 A 
ENDROOT
TORSDOF 0
ENDMDL
