MODEL 1
REMARK minimizedAffinity 1.20525169
REMARK minimizedRMSD -1
REMARK  1 active torsions:
REMARK  status: ('A' for Active; 'I' for Inactive)
REMARK    1  A    between atoms: C1_2  and  C2_3 
ROOT
ATOM      1  C2  UNL d   1       0.956  -2.654   0.240  0.00  0.00    -0.076 A 
ATOM      2  C3  UNL d   1      -0.297  -2.849   0.848  0.00  0.00     0.004 A 
ATOM      3  C4  UNL d   1      -0.959  -1.798   1.480  0.00  0.00    -0.003 A 
ATOM      4  C5  UNL d   1      -0.379  -0.534   1.514  0.00  0.00     0.000 A 
ATOM      5  C6  UNL d   1       0.854  -0.319   0.901  0.00  0.00     0.000 A 
ATOM      6  C7  UNL d   1       1.527  -1.364   0.245  0.00  0.00    -0.073 A 
ATOM      7  C8  UNL d   1       2.858  -1.077  -0.394  0.00  0.00     0.078 C 
ENDROOT
BRANCH   1   8
ATOM      8  C1  UNL d   1       1.639  -3.838  -0.407  0.00  0.00     0.053 C 
ATOM      9  C   UNL d   1       3.078  -4.003   0.055  0.00  0.00     0.018 C 
ENDBRANCH   1   8
TORSDOF 1
ENDMDL
