MODEL 1
REMARK minimizedAffinity -1.39172852
REMARK minimizedRMSD -1
REMARK  1 active torsions:
REMARK  status: ('A' for Active; 'I' for Inactive)
REMARK    1  A    between atoms: C1_2  and  C2_3 
ROOT
ATOM      1  C2  UNL d   1       1.097  -2.708   0.140  0.00  0.00    -0.076 A 
ATOM      2  C3  UNL d   1      -0.258  -2.395   0.341  0.00  0.00     0.004 A 
ATOM      3  C4  UNL d   1      -0.644  -1.132   0.786  0.00  0.00    -0.003 A 
ATOM      4  C5  UNL d   1       0.319  -0.161   1.036  0.00  0.00     0.000 A 
ATOM      5  C6  UNL d   1       1.667  -0.449   0.825  0.00  0.00     0.000 A 
ATOM      6  C7  UNL d   1       2.072  -1.712   0.361  0.00  0.00    -0.073 A 
ATOM      7  C8  UNL d   1       3.540  -1.970   0.157  0.00  0.00     0.078 C 
ENDROOT
BRANCH   1   8
ATOM      8  C1  UNL d   1       1.458  -4.104  -0.317  0.00  0.00     0.053 C 
ATOM      9  C   UNL d   1       2.896  -4.472   0.013  0.00  0.00     0.018 C 
ENDBRANCH   1   8
TORSDOF 1
ENDMDL
