MODEL 1
REMARK minimizedAffinity -1.12714899
REMARK minimizedRMSD -1
REMARK  1 active torsions:
REMARK  status: ('A' for Active; 'I' for Inactive)
REMARK    1  A    between atoms: C1_2  and  C2_3 
ROOT
ATOM      1  C2  UNL d   1       1.195  -2.294   0.196  0.00  0.00    -0.076 A 
ATOM      2  C3  UNL d   1      -0.023  -2.861   0.611  0.00  0.00     0.004 A 
ATOM      3  C4  UNL d   1      -1.012  -2.080   1.206  0.00  0.00    -0.003 A 
ATOM      4  C5  UNL d   1      -0.800  -0.719   1.396  0.00  0.00     0.000 A 
ATOM      5  C6  UNL d   1       0.395  -0.137   0.975  0.00  0.00     0.000 A 
ATOM      6  C7  UNL d   1       1.396  -0.907   0.358  0.00  0.00    -0.073 A 
ATOM      7  C8  UNL d   1       2.667  -0.227  -0.071  0.00  0.00     0.078 C 
ENDROOT
BRANCH   1   8
ATOM      8  C1  UNL d   1       2.241  -3.195  -0.419  0.00  0.00     0.053 C 
ATOM      9  C   UNL d   1       2.047  -4.656  -0.041  0.00  0.00     0.018 C 
ENDBRANCH   1   8
TORSDOF 1
ENDMDL
