MODEL 1
REMARK minimizedAffinity -4.46300888
REMARK minimizedRMSD -1
REMARK  1 active torsions:
REMARK  status: ('A' for Active; 'I' for Inactive)
REMARK    1  A    between atoms: C1_2  and  C2_3 
ROOT
ATOM      1  C2  UNL d   1       2.220  -1.637   0.188  0.00  0.00    -0.076 A 
ATOM      2  C3  UNL d   1       1.377  -0.556   0.498  0.00  0.00     0.004 A 
ATOM      3  C4  UNL d   1       0.042  -0.763   0.843  0.00  0.00    -0.003 A 
ATOM      4  C5  UNL d   1      -0.471  -2.055   0.883  0.00  0.00     0.000 A 
ATOM      5  C6  UNL d   1       0.356  -3.140   0.596  0.00  0.00     0.000 A 
ATOM      6  C7  UNL d   1       1.708  -2.950   0.262  0.00  0.00    -0.073 A 
ATOM      7  C8  UNL d   1       2.553  -4.156  -0.045  0.00  0.00     0.078 C 
ENDROOT
BRANCH   1   8
ATOM      8  C1  UNL d   1       3.651  -1.349  -0.206  0.00  0.00     0.053 C 
ATOM      9  C   UNL d   1       4.570  -1.210   0.999  0.00  0.00     0.018 C 
ENDBRANCH   1   8
TORSDOF 1
ENDMDL
