MODEL 1
REMARK minimizedAffinity -3.3227663
REMARK minimizedRMSD -1
REMARK  1 active torsions:
REMARK  status: ('A' for Active; 'I' for Inactive)
REMARK    1  A    between atoms: C1_2  and  C2_3 
ROOT
ATOM      1  C2  UNL d   1       1.143  -2.222   0.057  0.00  0.00    -0.076 A 
ATOM      2  C3  UNL d   1       1.040  -3.606  -0.165  0.00  0.00     0.004 A 
ATOM      3  C4  UNL d   1       2.178  -4.406  -0.253  0.00  0.00    -0.003 A 
ATOM      4  C5  UNL d   1       3.439  -3.834  -0.120  0.00  0.00     0.000 A 
ATOM      5  C6  UNL d   1       3.559  -2.465   0.118  0.00  0.00     0.000 A 
ATOM      6  C7  UNL d   1       2.421  -1.647   0.225  0.00  0.00    -0.073 A 
ATOM      7  C8  UNL d   1       2.609  -0.176   0.476  0.00  0.00     0.078 C 
ENDROOT
BRANCH   1   8
ATOM      8  C1  UNL d   1      -0.126  -1.402   0.115  0.00  0.00     0.053 C 
ATOM      9  C   UNL d   1      -0.588  -1.144   1.541  0.00  0.00     0.018 C 
ENDBRANCH   1   8
TORSDOF 1
ENDMDL
