MODEL 1
REMARK minimizedAffinity 3.97029948
REMARK minimizedRMSD -1
REMARK  1 active torsions:
REMARK  status: ('A' for Active; 'I' for Inactive)
REMARK    1  A    between atoms: C1_2  and  C2_3 
ROOT
ATOM      1  C2  UNL d   1       3.591   2.868  -2.236  0.00  0.00    -0.076 A 
ATOM      2  C3  UNL d   1       3.054   3.672  -3.257  0.00  0.00     0.004 A 
ATOM      3  C4  UNL d   1       2.366   3.106  -4.328  0.00  0.00    -0.003 A 
ATOM      4  C5  UNL d   1       2.202   1.727  -4.396  0.00  0.00     0.000 A 
ATOM      5  C6  UNL d   1       2.713   0.915  -3.384  0.00  0.00     0.000 A 
ATOM      6  C7  UNL d   1       3.395   1.471  -2.288  0.00  0.00    -0.073 A 
ATOM      7  C8  UNL d   1       3.930   0.549  -1.227  0.00  0.00     0.078 C 
ENDROOT
BRANCH   1   8
ATOM      8  C1  UNL d   1       4.352   3.535  -1.113  0.00  0.00     0.053 C 
ATOM      9  C   UNL d   1       4.755   4.963  -1.450  0.00  0.00     0.018 C 
ENDBRANCH   1   8
TORSDOF 1
ENDMDL
