MODEL 1
REMARK minimizedAffinity -2.82141137
REMARK minimizedRMSD -1
REMARK  1 active torsions:
REMARK  status: ('A' for Active; 'I' for Inactive)
REMARK    1  A    between atoms: C1_2  and  C2_3 
ROOT
ATOM      1  C2  UNL d   1       1.204  -2.302  -0.001  0.00  0.00    -0.076 A 
ATOM      2  C3  UNL d   1      -0.036  -2.631   0.573  0.00  0.00     0.004 A 
ATOM      3  C4  UNL d   1      -0.727  -1.715   1.365  0.00  0.00    -0.003 A 
ATOM      4  C5  UNL d   1      -0.189  -0.454   1.594  0.00  0.00     0.000 A 
ATOM      5  C6  UNL d   1       1.032  -0.103   1.018  0.00  0.00     0.000 A 
ATOM      6  C7  UNL d   1       1.733  -1.010   0.204  0.00  0.00    -0.073 A 
ATOM      7  C8  UNL d   1       3.048  -0.581  -0.387  0.00  0.00     0.078 C 
ENDROOT
BRANCH   1   8
ATOM      8  C1  UNL d   1       1.919  -3.346  -0.828  0.00  0.00     0.053 C 
ATOM      9  C   UNL d   1       2.999  -4.073  -0.041  0.00  0.00     0.018 C 
ENDBRANCH   1   8
TORSDOF 1
ENDMDL
