MODEL 1
REMARK minimizedAffinity -0.338638186
REMARK minimizedRMSD -1
REMARK  1 active torsions:
REMARK  status: ('A' for Active; 'I' for Inactive)
REMARK    1  A    between atoms: C1_2  and  C2_3 
ROOT
ATOM      1  C2  UNL d   1       0.973  -1.702   0.105  0.00  0.00    -0.076 A 
ATOM      2  C3  UNL d   1      -0.283  -1.126   0.368  0.00  0.00     0.004 A 
ATOM      3  C4  UNL d   1      -0.388   0.087   1.046  0.00  0.00    -0.003 A 
ATOM      4  C5  UNL d   1       0.761   0.745   1.471  0.00  0.00     0.000 A 
ATOM      5  C6  UNL d   1       2.015   0.198   1.203  0.00  0.00     0.000 A 
ATOM      6  C7  UNL d   1       2.139  -1.017   0.507  0.00  0.00    -0.073 A 
ATOM      7  C8  UNL d   1       3.516  -1.564   0.251  0.00  0.00     0.078 C 
ENDROOT
BRANCH   1   8
ATOM      8  C1  UNL d   1       1.023  -3.033  -0.610  0.00  0.00     0.053 C 
ATOM      9  C   UNL d   1       1.516  -4.158   0.287  0.00  0.00     0.018 C 
ENDBRANCH   1   8
TORSDOF 1
ENDMDL
