MODEL 1
REMARK minimizedAffinity 2.70040679
REMARK minimizedRMSD -1
REMARK  1 active torsions:
REMARK  status: ('A' for Active; 'I' for Inactive)
REMARK    1  A    between atoms: C1_2  and  C2_3 
ROOT
ATOM      1  C2  UNL d   1       0.856  -2.402   0.611  0.00  0.00    -0.076 A 
ATOM      2  C3  UNL d   1      -0.431  -2.649   0.102  0.00  0.00     0.004 A 
ATOM      3  C4  UNL d   1      -1.407  -1.653   0.104  0.00  0.00    -0.003 A 
ATOM      4  C5  UNL d   1      -1.111  -0.394   0.614  0.00  0.00     0.000 A 
ATOM      5  C6  UNL d   1       0.166  -0.126   1.107  0.00  0.00     0.000 A 
ATOM      6  C7  UNL d   1       1.166  -1.114   1.097  0.00  0.00    -0.073 A 
ATOM      7  C8  UNL d   1       2.523  -0.771   1.647  0.00  0.00     0.078 C 
ENDROOT
BRANCH   1   8
ATOM      8  C1  UNL d   1       1.864  -3.528   0.608  0.00  0.00     0.053 C 
ATOM      9  C   UNL d   1       1.452  -4.678  -0.298  0.00  0.00     0.018 C 
ENDBRANCH   1   8
TORSDOF 1
ENDMDL
