MODEL 1
REMARK minimizedAffinity -3.52543068
REMARK minimizedRMSD -1
REMARK  1 active torsions:
REMARK  status: ('A' for Active; 'I' for Inactive)
REMARK    1  A    between atoms: C1_2  and  C2_3 
ROOT
ATOM      1  C2  UNL d   1       0.881  -1.798   0.465  0.00  0.00    -0.076 A 
ATOM      2  C3  UNL d   1       0.794  -3.139   0.053  0.00  0.00     0.004 A 
ATOM      3  C4  UNL d   1       1.941  -3.912  -0.121  0.00  0.00    -0.003 A 
ATOM      4  C5  UNL d   1       3.194  -3.356   0.116  0.00  0.00     0.000 A 
ATOM      5  C6  UNL d   1       3.298  -2.032   0.542  0.00  0.00     0.000 A 
ATOM      6  C7  UNL d   1       2.150  -1.244   0.738  0.00  0.00    -0.073 A 
ATOM      7  C8  UNL d   1       2.321   0.179   1.193  0.00  0.00     0.078 C 
ENDROOT
BRANCH   1   8
ATOM      8  C1  UNL d   1      -0.396  -1.001   0.611  0.00  0.00     0.053 C 
ATOM      9  C   UNL d   1      -0.481  -0.275   1.945  0.00  0.00     0.018 C 
ENDBRANCH   1   8
TORSDOF 1
ENDMDL
