MODEL 1
REMARK minimizedAffinity -2.62934089
REMARK minimizedRMSD -1
REMARK  1 active torsions:
REMARK  status: ('A' for Active; 'I' for Inactive)
REMARK    1  A    between atoms: C1_2  and  C2_3 
ROOT
ATOM      1  C2  UNL d   1      -0.104  -1.043   0.982  0.00  0.00    -0.076 A 
ATOM      2  C3  UNL d   1      -0.722  -2.219   0.521  0.00  0.00     0.004 A 
ATOM      3  C4  UNL d   1       0.020  -3.225  -0.095  0.00  0.00    -0.003 A 
ATOM      4  C5  UNL d   1       1.392  -3.072  -0.261  0.00  0.00     0.000 A 
ATOM      5  C6  UNL d   1       2.024  -1.919   0.205  0.00  0.00     0.000 A 
ATOM      6  C7  UNL d   1       1.293  -0.903   0.844  0.00  0.00    -0.073 A 
ATOM      7  C8  UNL d   1       2.025   0.321   1.322  0.00  0.00     0.078 C 
ENDROOT
BRANCH   1   8
ATOM      8  C1  UNL d   1      -0.964   0.026   1.618  0.00  0.00     0.053 C 
ATOM      9  C   UNL d   1      -2.240   0.290   0.834  0.00  0.00     0.018 C 
ENDBRANCH   1   8
TORSDOF 1
ENDMDL
