MODEL 1
REMARK minimizedAffinity -3.4515264
REMARK minimizedRMSD -1
REMARK  1 active torsions:
REMARK  status: ('A' for Active; 'I' for Inactive)
REMARK    1  A    between atoms: C1_2  and  C2_3 
ROOT
ATOM      1  C2  UNL d   1       1.804  -2.086   0.437  0.00  0.00    -0.076 A 
ATOM      2  C3  UNL d   1       1.946  -0.784   0.949  0.00  0.00     0.004 A 
ATOM      3  C4  UNL d   1       0.830  -0.007   1.253  0.00  0.00    -0.003 A 
ATOM      4  C5  UNL d   1      -0.447  -0.518   1.050  0.00  0.00     0.000 A 
ATOM      5  C6  UNL d   1      -0.607  -1.814   0.559  0.00  0.00     0.000 A 
ATOM      6  C7  UNL d   1       0.508  -2.617   0.263  0.00  0.00    -0.073 A 
ATOM      7  C8  UNL d   1       0.277  -4.004  -0.270  0.00  0.00     0.078 C 
ENDROOT
BRANCH   1   8
ATOM      8  C1  UNL d   1       3.051  -2.872   0.100  0.00  0.00     0.053 C 
ATOM      9  C   UNL d   1       4.307  -2.255   0.695  0.00  0.00     0.018 C 
ENDBRANCH   1   8
TORSDOF 1
ENDMDL
