MODEL 1
REMARK minimizedAffinity -5.42418718
REMARK minimizedRMSD -1
REMARK  1 active torsions:
REMARK  status: ('A' for Active; 'I' for Inactive)
REMARK    1  A    between atoms: C1_2  and  C2_3 
ROOT
ATOM      1  C2  UNL d   1       1.496  -1.414   0.560  0.00  0.00    -0.076 A 
ATOM      2  C3  UNL d   1       2.891  -1.584   0.539  0.00  0.00     0.004 A 
ATOM      3  C4  UNL d   1       3.457  -2.836   0.305  0.00  0.00    -0.003 A 
ATOM      4  C5  UNL d   1       2.637  -3.938   0.087  0.00  0.00     0.000 A 
ATOM      5  C6  UNL d   1       1.251  -3.784   0.086  0.00  0.00     0.000 A 
ATOM      6  C7  UNL d   1       0.664  -2.525   0.305  0.00  0.00    -0.073 A 
ATOM      7  C8  UNL d   1      -0.836  -2.417   0.299  0.00  0.00     0.078 C 
ENDROOT
BRANCH   1   8
ATOM      8  C1  UNL d   1       0.939  -0.037   0.846  0.00  0.00     0.053 C 
ATOM      9  C   UNL d   1      -0.016  -0.030   2.030  0.00  0.00     0.018 C 
ENDBRANCH   1   8
TORSDOF 1
ENDMDL
