MODEL 1
REMARK minimizedAffinity 2.96982336
REMARK minimizedRMSD -1
REMARK  0 active torsions:
REMARK  status: ('A' for Active; 'I' for Inactive)
ROOT
ATOM      1  O1  BZF d   1      -3.527   3.766   2.106  0.00  0.00    -0.204 OA
ATOM      2  C2  BZF d   1      -2.862   4.954   2.339  0.00  0.00     0.174 A 
ATOM      3  C3  BZF d   1      -1.585   4.880   1.912  0.00  0.00    -0.012 A 
ATOM      4  C3A BZF d   1      -1.469   3.594   1.294  0.00  0.00    -0.107 A 
ATOM      5  C4  BZF d   1      -0.446   2.943   0.666  0.00  0.00     0.055 A 
ATOM      6  C5  BZF d   1      -0.639   1.667   0.239  0.00  0.00    -0.016 A 
ATOM      7  C6  BZF d   1      -1.838   1.012   0.427  0.00  0.00     0.022 A 
ATOM      8  C7  BZF d   1      -2.884   1.619   1.040  0.00  0.00     0.029 A 
ATOM      9  C7A BZF d   1      -2.703   2.919   1.443  0.00  0.00     0.058 A 
ENDROOT
TORSDOF 0
ENDMDL
