MODEL 1
REMARK minimizedAffinity 7.00203705
REMARK minimizedRMSD -1
REMARK  0 active torsions:
REMARK  status: ('A' for Active; 'I' for Inactive)
ROOT
ATOM      1  O1  BZF d   1       1.333   4.079   2.616  0.00  0.00    -0.204 OA
ATOM      2  C2  BZF d   1       2.311   3.212   3.065  0.00  0.00     0.174 A 
ATOM      3  C3  BZF d   1       1.975   1.933   2.801  0.00  0.00    -0.012 A 
ATOM      4  C3A BZF d   1       0.752   2.011   2.063  0.00  0.00    -0.107 A 
ATOM      5  C4  BZF d   1      -0.068   1.073   1.503  0.00  0.00     0.055 A 
ATOM      6  C5  BZF d   1      -1.225   1.474   0.914  0.00  0.00    -0.016 A 
ATOM      7  C6  BZF d   1      -1.595   2.802   0.870  0.00  0.00     0.022 A 
ATOM      8  C7  BZF d   1      -0.812   3.769   1.407  0.00  0.00     0.029 A 
ATOM      9  C7A BZF d   1       0.374   3.370   1.974  0.00  0.00     0.058 A 
ENDROOT
TORSDOF 0
ENDMDL
