MODEL 1
REMARK minimizedAffinity 11.6415472
REMARK minimizedRMSD -1
REMARK  0 active torsions:
REMARK  status: ('A' for Active; 'I' for Inactive)
ROOT
ATOM      1  O1  BZF d   1       2.013   0.319  -0.703  0.00  0.00    -0.204 OA
ATOM      2  C2  BZF d   1       1.959  -1.058  -0.618  0.00  0.00     0.174 A 
ATOM      3  C3  BZF d   1       3.198  -1.590  -0.666  0.00  0.00    -0.012 A 
ATOM      4  C3A BZF d   1       4.087  -0.470  -0.697  0.00  0.00    -0.107 A 
ATOM      5  C4  BZF d   1       5.447  -0.351  -0.734  0.00  0.00     0.055 A 
ATOM      6  C5  BZF d   1       6.000   0.886  -0.831  0.00  0.00    -0.016 A 
ATOM      7  C6  BZF d   1       5.224   2.025  -0.899  0.00  0.00     0.022 A 
ATOM      8  C7  BZF d   1       3.871   1.958  -0.861  0.00  0.00     0.029 A 
ATOM      9  C7A BZF d   1       3.310   0.711  -0.730  0.00  0.00     0.058 A 
ENDROOT
TORSDOF 0
ENDMDL
