MODEL 1
REMARK minimizedAffinity 6.12247801
REMARK minimizedRMSD -1
REMARK  0 active torsions:
REMARK  status: ('A' for Active; 'I' for Inactive)
ROOT
ATOM      1  O1  BZF d   1       2.236  -0.240  -0.645  0.00  0.00    -0.204 OA
ATOM      2  C2  BZF d   1       2.453  -1.601  -0.742  0.00  0.00     0.174 A 
ATOM      3  C3  BZF d   1       3.753  -1.863  -0.984  0.00  0.00    -0.012 A 
ATOM      4  C3A BZF d   1       4.405  -0.589  -0.951  0.00  0.00    -0.107 A 
ATOM      5  C4  BZF d   1       5.704  -0.195  -1.106  0.00  0.00     0.055 A 
ATOM      6  C5  BZF d   1       5.997   1.132  -1.089  0.00  0.00    -0.016 A 
ATOM      7  C6  BZF d   1       5.019   2.090  -0.926  0.00  0.00     0.022 A 
ATOM      8  C7  BZF d   1       3.718   1.747  -0.763  0.00  0.00     0.029 A 
ATOM      9  C7A BZF d   1       3.422   0.406  -0.747  0.00  0.00     0.058 A 
ENDROOT
TORSDOF 0
ENDMDL
