MODEL 1
REMARK minimizedAffinity 3.12150359
REMARK minimizedRMSD -1
REMARK  0 active torsions:
REMARK  status: ('A' for Active; 'I' for Inactive)
ROOT
ATOM      1  O1  BZF d   1       4.473   0.916  -2.030  0.00  0.00    -0.204 OA
ATOM      2  C2  BZF d   1       4.168  -0.055  -1.095  0.00  0.00     0.174 A 
ATOM      3  C3  BZF d   1       4.543   0.336   0.140  0.00  0.00    -0.012 A 
ATOM      4  C3A BZF d   1       5.035   1.670  -0.021  0.00  0.00    -0.107 A 
ATOM      5  C4  BZF d   1       5.537   2.596   0.848  0.00  0.00     0.055 A 
ATOM      6  C5  BZF d   1       5.997   3.778   0.360  0.00  0.00    -0.016 A 
ATOM      7  C6  BZF d   1       5.975   4.064  -0.989  0.00  0.00     0.022 A 
ATOM      8  C7  BZF d   1       5.481   3.179  -1.889  0.00  0.00     0.029 A 
ATOM      9  C7A BZF d   1       4.985   1.997  -1.395  0.00  0.00     0.058 A 
ENDROOT
TORSDOF 0
ENDMDL
