MODEL 1
REMARK minimizedAffinity 4.12795973
REMARK minimizedRMSD -1
REMARK  0 active torsions:
REMARK  status: ('A' for Active; 'I' for Inactive)
ROOT
ATOM      1  O1  BZF d   1      -0.759  -3.041   3.791  0.00  0.00    -0.204 OA
ATOM      2  C2  BZF d   1       0.356  -2.399   3.289  0.00  0.00     0.174 A 
ATOM      3  C3  BZF d   1       1.486  -2.978   3.742  0.00  0.00    -0.012 A 
ATOM      4  C3A BZF d   1       1.051  -4.107   4.506  0.00  0.00    -0.107 A 
ATOM      5  C4  BZF d   1       1.709  -5.085   5.196  0.00  0.00     0.055 A 
ATOM      6  C5  BZF d   1       0.987  -6.000   5.894  0.00  0.00    -0.016 A 
ATOM      7  C6  BZF d   1      -0.391  -5.964   5.930  0.00  0.00     0.022 A 
ATOM      8  C7  BZF d   1      -1.089  -5.017   5.257  0.00  0.00     0.029 A 
ATOM      9  C7A BZF d   1      -0.363  -4.110   4.523  0.00  0.00     0.058 A 
ENDROOT
TORSDOF 0
ENDMDL
