MODEL 1
REMARK minimizedAffinity 6.83085108
REMARK minimizedRMSD -1
REMARK  0 active torsions:
REMARK  status: ('A' for Active; 'I' for Inactive)
ROOT
ATOM      1  O1  BZF d   1       1.587  -3.873  -0.478  0.00  0.00    -0.204 OA
ATOM      2  C2  BZF d   1       0.650  -3.797  -1.490  0.00  0.00     0.174 A 
ATOM      3  C3  BZF d   1       0.717  -2.604  -2.115  0.00  0.00    -0.012 A 
ATOM      4  C3A BZF d   1       1.823  -1.925  -1.513  0.00  0.00    -0.107 A 
ATOM      5  C4  BZF d   1       2.400  -0.704  -1.718  0.00  0.00     0.055 A 
ATOM      6  C5  BZF d   1       3.421  -0.312  -0.911  0.00  0.00    -0.016 A 
ATOM      7  C6  BZF d   1       3.886  -1.112   0.112  0.00  0.00     0.022 A 
ATOM      8  C7  BZF d   1       3.349  -2.334   0.351  0.00  0.00     0.029 A 
ATOM      9  C7A BZF d   1       2.339  -2.746  -0.484  0.00  0.00     0.058 A 
ENDROOT
TORSDOF 0
ENDMDL
