MODEL 1
REMARK minimizedAffinity 10.3706636
REMARK minimizedRMSD -1
REMARK  0 active torsions:
REMARK  status: ('A' for Active; 'I' for Inactive)
ROOT
ATOM      1  O1  BZF d   1       2.861   0.208  -1.345  0.00  0.00    -0.204 OA
ATOM      2  C2  BZF d   1       4.029  -0.039  -0.650  0.00  0.00     0.174 A 
ATOM      3  C3  BZF d   1       3.848   0.152   0.672  0.00  0.00    -0.012 A 
ATOM      4  C3A BZF d   1       2.457   0.453   0.822  0.00  0.00    -0.107 A 
ATOM      5  C4  BZF d   1       1.667   0.726   1.902  0.00  0.00     0.055 A 
ATOM      6  C5  BZF d   1       0.363   1.051   1.701  0.00  0.00    -0.016 A 
ATOM      7  C6  BZF d   1      -0.182   1.118   0.435  0.00  0.00     0.022 A 
ATOM      8  C7  BZF d   1       0.562   0.851  -0.666  0.00  0.00     0.029 A 
ATOM      9  C7A BZF d   1       1.871   0.490  -0.464  0.00  0.00     0.058 A 
ENDROOT
TORSDOF 0
ENDMDL
