MODEL 1
REMARK minimizedAffinity 4.76170063
REMARK minimizedRMSD -1
REMARK  0 active torsions:
REMARK  status: ('A' for Active; 'I' for Inactive)
ROOT
ATOM      1  O1  BZF d   1       5.435   2.448   1.579  0.00  0.00    -0.204 OA
ATOM      2  C2  BZF d   1       6.000   3.393   0.744  0.00  0.00     0.174 A 
ATOM      3  C3  BZF d   1       5.773   3.086  -0.549  0.00  0.00    -0.012 A 
ATOM      4  C3A BZF d   1       4.941   1.922  -0.519  0.00  0.00    -0.107 A 
ATOM      5  C4  BZF d   1       4.368   1.153  -1.491  0.00  0.00     0.055 A 
ATOM      6  C5  BZF d   1       3.673   0.042  -1.130  0.00  0.00    -0.016 A 
ATOM      7  C6  BZF d   1       3.536  -0.331   0.191  0.00  0.00     0.022 A 
ATOM      8  C7  BZF d   1       4.083   0.403   1.191  0.00  0.00     0.029 A 
ATOM      9  C7A BZF d   1       4.758   1.544   0.831  0.00  0.00     0.058 A 
ENDROOT
TORSDOF 0
ENDMDL
