MODEL 1
REMARK minimizedAffinity -3.77561116
REMARK minimizedRMSD -1
REMARK  0 active torsions:
REMARK  status: ('A' for Active; 'I' for Inactive)
ROOT
ATOM      1  C   UNL d   1       0.635  -0.355   1.481  0.00  0.00     0.172 C 
ATOM      2  N   UNL d   1      -0.114   0.858   1.251  0.00  0.00    -0.070 N 
ATOM      3  C1  UNL d   1      -0.809   1.162   0.111  0.00  0.00    -0.004 A 
ATOM      4  C2  UNL d   1      -1.383   2.402   0.285  0.00  0.00    -0.047 A 
ATOM      5  C3  UNL d   1      -1.019   2.860   1.574  0.00  0.00    -0.047 A 
ATOM      6  C4  UNL d   1      -0.233   1.885   2.149  0.00  0.00    -0.004 A 
ENDROOT
TORSDOF 0
ENDMDL
