MODEL 1
REMARK minimizedAffinity -3.79265857
REMARK minimizedRMSD -1
REMARK  0 active torsions:
REMARK  status: ('A' for Active; 'I' for Inactive)
ROOT
ATOM      1  C   UNL d   1       0.735  -0.174   1.056  0.00  0.00     0.172 C 
ATOM      2  N   UNL d   1       0.040   1.088   0.964  0.00  0.00    -0.070 N 
ATOM      3  C1  UNL d   1       0.131   2.117   1.864  0.00  0.00    -0.004 A 
ATOM      4  C2  UNL d   1      -0.680   3.139   1.421  0.00  0.00    -0.047 A 
ATOM      5  C3  UNL d   1      -1.281   2.709   0.214  0.00  0.00    -0.047 A 
ATOM      6  C4  UNL d   1      -0.818   1.436  -0.045  0.00  0.00    -0.004 A 
ENDROOT
TORSDOF 0
ENDMDL
