MODEL 1
REMARK minimizedAffinity -2.78490615
REMARK minimizedRMSD -1
REMARK  0 active torsions:
REMARK  status: ('A' for Active; 'I' for Inactive)
ROOT
ATOM      1  C   UNL d   1       0.582  -1.137  -0.732  0.00  0.00     0.172 C 
ATOM      2  N   UNL d   1       0.215  -0.091   0.193  0.00  0.00    -0.070 N 
ATOM      3  C1  UNL d   1      -0.096   1.200  -0.144  0.00  0.00    -0.004 A 
ATOM      4  C2  UNL d   1      -0.389   1.880   1.018  0.00  0.00    -0.047 A 
ATOM      5  C3  UNL d   1      -0.247   0.968   2.090  0.00  0.00    -0.047 A 
ATOM      6  C4  UNL d   1       0.127  -0.245   1.551  0.00  0.00    -0.004 A 
ENDROOT
TORSDOF 0
ENDMDL
