MODEL 1
REMARK minimizedAffinity -2.85622573
REMARK minimizedRMSD -1
REMARK  0 active torsions:
REMARK  status: ('A' for Active; 'I' for Inactive)
ROOT
ATOM      1  C   UNL d   1      -0.033   1.231   1.955  0.00  0.00     0.172 C 
ATOM      2  N   UNL d   1       0.241   0.450   0.772  0.00  0.00    -0.070 N 
ATOM      3  C1  UNL d   1       1.113  -0.603   0.696  0.00  0.00    -0.004 A 
ATOM      4  C2  UNL d   1       1.088  -1.078  -0.598  0.00  0.00    -0.047 A 
ATOM      5  C3  UNL d   1       0.170  -0.283  -1.324  0.00  0.00    -0.047 A 
ATOM      6  C4  UNL d   1      -0.340   0.655  -0.451  0.00  0.00    -0.004 A 
ENDROOT
TORSDOF 0
ENDMDL
