MODEL 1
REMARK minimizedAffinity -1.63442755
REMARK minimizedRMSD -1
REMARK  0 active torsions:
REMARK  status: ('A' for Active; 'I' for Inactive)
ROOT
ATOM      1  C   UNL d   1      -0.107   0.439  -1.549  0.00  0.00     0.172 C 
ATOM      2  N   UNL d   1       0.143   0.461  -0.127  0.00  0.00    -0.070 N 
ATOM      3  C1  UNL d   1      -0.292   1.423   0.745  0.00  0.00    -0.004 A 
ATOM      4  C2  UNL d   1       0.151   1.082   2.005  0.00  0.00    -0.047 A 
ATOM      5  C3  UNL d   1       0.878  -0.126   1.885  0.00  0.00    -0.047 A 
ATOM      6  C4  UNL d   1       0.857  -0.488   0.555  0.00  0.00    -0.004 A 
ENDROOT
TORSDOF 0
ENDMDL
