MODEL 1
REMARK minimizedAffinity 1.0169239
REMARK minimizedRMSD -1
REMARK  0 active torsions:
REMARK  status: ('A' for Active; 'I' for Inactive)
ROOT
ATOM      1  C   UNL d   1       0.481   2.152   2.110  0.00  0.00     0.172 C 
ATOM      2  N   UNL d   1       1.191   3.321   1.646  0.00  0.00    -0.070 N 
ATOM      3  C1  UNL d   1       0.841   4.092   0.569  0.00  0.00    -0.004 A 
ATOM      4  C2  UNL d   1       1.767   5.107   0.458  0.00  0.00    -0.047 A 
ATOM      5  C3  UNL d   1       2.706   4.939   1.504  0.00  0.00    -0.047 A 
ATOM      6  C4  UNL d   1       2.325   3.827   2.223  0.00  0.00    -0.004 A 
ENDROOT
TORSDOF 0
ENDMDL
