MODEL 1
REMARK minimizedAffinity -3.62900686
REMARK minimizedRMSD -1
REMARK  0 active torsions:
REMARK  status: ('A' for Active; 'I' for Inactive)
ROOT
ATOM      1  C   UNL d   1       0.272  -0.503  -0.708  0.00  0.00     0.172 C 
ATOM      2  N   UNL d   1      -0.233   0.463   0.240  0.00  0.00    -0.070 N 
ATOM      3  C1  UNL d   1      -1.415   1.146   0.131  0.00  0.00    -0.004 A 
ATOM      4  C2  UNL d   1      -1.532   1.966   1.233  0.00  0.00    -0.047 A 
ATOM      5  C3  UNL d   1      -0.380   1.769   2.031  0.00  0.00    -0.047 A 
ATOM      6  C4  UNL d   1       0.407   0.834   1.393  0.00  0.00    -0.004 A 
ENDROOT
TORSDOF 0
ENDMDL
