MODEL 1
REMARK minimizedAffinity -3.65181828
REMARK minimizedRMSD -1
REMARK  0 active torsions:
REMARK  status: ('A' for Active; 'I' for Inactive)
ROOT
ATOM      1  C   UNL d   1       0.720  -0.089   0.376  0.00  0.00     0.172 C 
ATOM      2  N   UNL d   1      -0.087   0.908   1.039  0.00  0.00    -0.070 N 
ATOM      3  C1  UNL d   1      -0.220   2.215   0.652  0.00  0.00    -0.004 A 
ATOM      4  C2  UNL d   1      -1.073   2.833   1.541  0.00  0.00    -0.047 A 
ATOM      5  C3  UNL d   1      -1.466   1.865   2.495  0.00  0.00    -0.047 A 
ATOM      6  C4  UNL d   1      -0.841   0.682   2.161  0.00  0.00    -0.004 A 
ENDROOT
TORSDOF 0
ENDMDL
