MODEL 1
REMARK minimizedAffinity -5.32733679
REMARK minimizedRMSD -1
REMARK  1 active torsions:
REMARK  status: ('A' for Active; 'I' for Inactive)
REMARK    1  A    between atoms: C1_2  and  C2_3 
ROOT
ATOM      1  C2  UNL d   1       0.355  -0.013  -0.072  0.00  0.00    -0.073 A 
ATOM      2  C3  UNL d   1       1.499   0.707   0.290  0.00  0.00    -0.002 A 
ATOM      3  C4  UNL d   1       1.846   0.850   1.634  0.00  0.00     0.004 A 
ATOM      4  C5  UNL d   1       1.058   0.269   2.628  0.00  0.00    -0.004 A 
ATOM      5  C6  UNL d   1      -0.082  -0.464   2.285  0.00  0.00    -0.075 A 
ATOM      6  C7  UNL d   1      -0.942  -1.092   3.343  0.00  0.00     0.076 C 
ATOM      7  C8  UNL d   1      -0.426  -0.600   0.934  0.00  0.00     0.001 A 
ENDROOT
BRANCH   1   8
ATOM      8  C1  UNL d   1      -0.021  -0.175  -1.523  0.00  0.00     0.053 C 
ATOM      9  C   UNL d   1       0.741  -1.312  -2.185  0.00  0.00     0.018 C 
ENDBRANCH   1   8
TORSDOF 1
ENDMDL
