MODEL 1
REMARK minimizedAffinity -1.42127275
REMARK minimizedRMSD -1
REMARK  1 active torsions:
REMARK  status: ('A' for Active; 'I' for Inactive)
REMARK    1  A    between atoms: C1_2  and  C2_3 
ROOT
ATOM      1  C2  UNL d   1       0.133  -0.735  -2.314  0.00  0.00    -0.073 A 
ATOM      2  C3  UNL d   1       1.276   0.037  -2.079  0.00  0.00    -0.002 A 
ATOM      3  C4  UNL d   1       1.392   0.786  -0.907  0.00  0.00     0.004 A 
ATOM      4  C5  UNL d   1       0.372   0.765   0.043  0.00  0.00    -0.004 A 
ATOM      5  C6  UNL d   1      -0.773  -0.010  -0.168  0.00  0.00    -0.075 A 
ATOM      6  C7  UNL d   1      -1.881  -0.042   0.843  0.00  0.00     0.076 C 
ATOM      7  C8  UNL d   1      -0.884  -0.757  -1.349  0.00  0.00     0.001 A 
ENDROOT
BRANCH   1   8
ATOM      8  C1  UNL d   1       0.006  -1.550  -3.575  0.00  0.00     0.053 C 
ATOM      9  C   UNL d   1       1.361  -1.859  -4.193  0.00  0.00     0.018 C 
ENDBRANCH   1   8
TORSDOF 1
ENDMDL
