MODEL 1
REMARK minimizedAffinity 4.90101719
REMARK minimizedRMSD -1
REMARK  1 active torsions:
REMARK  status: ('A' for Active; 'I' for Inactive)
REMARK    1  A    between atoms: C1_2  and  C2_3 
ROOT
ATOM      1  C2  UNL d   1       2.568  -1.416  -4.717  0.00  0.00    -0.073 A 
ATOM      2  C3  UNL d   1       2.431  -1.603  -3.336  0.00  0.00    -0.002 A 
ATOM      3  C4  UNL d   1       1.241  -2.105  -2.808  0.00  0.00     0.004 A 
ATOM      4  C5  UNL d   1       0.181  -2.432  -3.653  0.00  0.00    -0.004 A 
ATOM      5  C6  UNL d   1       0.303  -2.263  -5.036  0.00  0.00    -0.075 A 
ATOM      6  C7  UNL d   1      -0.829  -2.608  -5.959  0.00  0.00     0.076 C 
ATOM      7  C8  UNL d   1       1.500  -1.756  -5.559  0.00  0.00     0.001 A 
ENDROOT
BRANCH   1   8
ATOM      8  C1  UNL d   1       3.854  -0.880  -5.292  0.00  0.00     0.053 C 
ATOM      9  C   UNL d   1       4.100   0.566  -4.889  0.00  0.00     0.018 C 
ENDBRANCH   1   8
TORSDOF 1
ENDMDL
