MODEL 1
REMARK minimizedAffinity -3.40416646
REMARK minimizedRMSD -1
REMARK  1 active torsions:
REMARK  status: ('A' for Active; 'I' for Inactive)
REMARK    1  A    between atoms: C1_2  and  C2_3 
ROOT
ATOM      1  C2  UNL d   1       0.358  -0.094  -1.302  0.00  0.00    -0.073 A 
ATOM      2  C3  UNL d   1      -1.001   0.094  -1.578  0.00  0.00    -0.002 A 
ATOM      3  C4  UNL d   1      -1.924   0.199  -0.537  0.00  0.00     0.004 A 
ATOM      4  C5  UNL d   1      -1.498   0.123   0.789  0.00  0.00    -0.004 A 
ATOM      5  C6  UNL d   1      -0.142  -0.053   1.086  0.00  0.00    -0.075 A 
ATOM      6  C7  UNL d   1       0.332  -0.139   2.507  0.00  0.00     0.076 C 
ATOM      7  C8  UNL d   1       0.778  -0.160   0.034  0.00  0.00     0.001 A 
ENDROOT
BRANCH   1   8
ATOM      8  C1  UNL d   1       1.360  -0.201  -2.423  0.00  0.00     0.053 C 
ATOM      9  C   UNL d   1       1.225  -1.509  -3.185  0.00  0.00     0.018 C 
ENDBRANCH   1   8
TORSDOF 1
ENDMDL
