MODEL 1
REMARK minimizedAffinity -4.01213026
REMARK minimizedRMSD -1
REMARK  1 active torsions:
REMARK  status: ('A' for Active; 'I' for Inactive)
REMARK    1  A    between atoms: C1_2  and  C2_3 
ROOT
ATOM      1  C2  UNL d   1      -1.481   0.749   1.303  0.00  0.00    -0.073 A 
ATOM      2  C3  UNL d   1      -0.718   0.693   2.475  0.00  0.00    -0.002 A 
ATOM      3  C4  UNL d   1       0.667   0.530   2.408  0.00  0.00     0.004 A 
ATOM      4  C5  UNL d   1       1.302   0.429   1.171  0.00  0.00    -0.004 A 
ATOM      5  C6  UNL d   1       0.559   0.495  -0.012  0.00  0.00    -0.075 A 
ATOM      6  C7  UNL d   1       1.227   0.385  -1.351  0.00  0.00     0.076 C 
ATOM      7  C8  UNL d   1      -0.831   0.656   0.064  0.00  0.00     0.001 A 
ENDROOT
BRANCH   1   8
ATOM      8  C1  UNL d   1      -2.975   0.931   1.370  0.00  0.00     0.053 C 
ATOM      9  C   UNL d   1      -3.421   1.487   2.713  0.00  0.00     0.018 C 
ENDBRANCH   1   8
TORSDOF 1
ENDMDL
