MODEL 1
REMARK minimizedAffinity -2.86160016
REMARK minimizedRMSD -1
REMARK  1 active torsions:
REMARK  status: ('A' for Active; 'I' for Inactive)
REMARK    1  A    between atoms: C1_2  and  C2_3 
ROOT
ATOM      1  C2  UNL d   1       0.059   0.257  -0.091  0.00  0.00    -0.073 A 
ATOM      2  C3  UNL d   1       1.179   1.034   0.223  0.00  0.00    -0.002 A 
ATOM      3  C4  UNL d   1       1.543   1.241   1.554  0.00  0.00     0.004 A 
ATOM      4  C5  UNL d   1       0.796   0.668   2.584  0.00  0.00    -0.004 A 
ATOM      5  C6  UNL d   1      -0.320  -0.122   2.290  0.00  0.00    -0.075 A 
ATOM      6  C7  UNL d   1      -1.135  -0.743   3.386  0.00  0.00     0.076 C 
ATOM      7  C8  UNL d   1      -0.681  -0.323   0.951  0.00  0.00     0.001 A 
ENDROOT
BRANCH   1   8
ATOM      8  C1  UNL d   1      -0.335   0.025  -1.527  0.00  0.00     0.053 C 
ATOM      9  C   UNL d   1       0.874  -0.217  -2.417  0.00  0.00     0.018 C 
ENDBRANCH   1   8
TORSDOF 1
ENDMDL
