MODEL 1
REMARK minimizedAffinity 0.523302436
REMARK minimizedRMSD -1
REMARK  1 active torsions:
REMARK  status: ('A' for Active; 'I' for Inactive)
REMARK    1  A    between atoms: C1_2  and  C2_3 
ROOT
ATOM      1  C2  UNL d   1       0.510   0.805   2.433  0.00  0.00    -0.073 A 
ATOM      2  C3  UNL d   1      -0.602   0.054   2.832  0.00  0.00    -0.002 A 
ATOM      3  C4  UNL d   1      -1.337  -0.670   1.892  0.00  0.00     0.004 A 
ATOM      4  C5  UNL d   1      -0.964  -0.658   0.548  0.00  0.00    -0.004 A 
ATOM      5  C6  UNL d   1       0.150   0.077   0.132  0.00  0.00    -0.075 A 
ATOM      6  C7  UNL d   1       0.563   0.103  -1.310  0.00  0.00     0.076 C 
ATOM      7  C8  UNL d   1       0.882   0.805   1.081  0.00  0.00     0.001 A 
ENDROOT
BRANCH   1   8
ATOM      8  C1  UNL d   1       1.310   1.584   3.445  0.00  0.00     0.053 C 
ATOM      9  C   UNL d   1       0.536   2.773   3.990  0.00  0.00     0.018 C 
ENDBRANCH   1   8
TORSDOF 1
ENDMDL
