MODEL 1
REMARK minimizedAffinity -1.14854848
REMARK minimizedRMSD -1
REMARK  1 active torsions:
REMARK  status: ('A' for Active; 'I' for Inactive)
REMARK    1  A    between atoms: C1_2  and  C2_3 
ROOT
ATOM      1  C2  UNL d   1       0.328  -0.273  -2.333  0.00  0.00    -0.073 A 
ATOM      2  C3  UNL d   1      -0.909   0.378  -2.404  0.00  0.00    -0.002 A 
ATOM      3  C4  UNL d   1      -1.519   0.860  -1.246  0.00  0.00     0.004 A 
ATOM      4  C5  UNL d   1      -0.898   0.704  -0.007  0.00  0.00    -0.004 A 
ATOM      5  C6  UNL d   1       0.344   0.067   0.083  0.00  0.00    -0.075 A 
ATOM      6  C7  UNL d   1       1.025  -0.111   1.408  0.00  0.00     0.076 C 
ATOM      7  C8  UNL d   1       0.950  -0.418  -1.084  0.00  0.00     0.001 A 
ENDROOT
BRANCH   1   8
ATOM      8  C1  UNL d   1       0.995  -0.790  -3.581  0.00  0.00     0.053 C 
ATOM      9  C   UNL d   1       0.799  -2.288  -3.753  0.00  0.00     0.018 C 
ENDBRANCH   1   8
TORSDOF 1
ENDMDL
