MODEL 1
REMARK minimizedAffinity -6.04140091
REMARK minimizedRMSD -1
REMARK  1 active torsions:
REMARK  status: ('A' for Active; 'I' for Inactive)
REMARK    1  A    between atoms: C1_2  and  C2_3 
ROOT
ATOM      1  C2  UNL d   1      -0.611  -0.100   2.148  0.00  0.00    -0.073 A 
ATOM      2  C3  UNL d   1       0.545   0.337   2.805  0.00  0.00    -0.002 A 
ATOM      3  C4  UNL d   1       1.665   0.730   2.072  0.00  0.00     0.004 A 
ATOM      4  C5  UNL d   1       1.640   0.697   0.678  0.00  0.00    -0.004 A 
ATOM      5  C6  UNL d   1       0.489   0.275   0.004  0.00  0.00    -0.075 A 
ATOM      6  C7  UNL d   1       0.446   0.232  -1.496  0.00  0.00     0.076 C 
ATOM      7  C8  UNL d   1      -0.631  -0.121   0.746  0.00  0.00     0.001 A 
ENDROOT
BRANCH   1   8
ATOM      8  C1  UNL d   1      -1.826  -0.520   2.935  0.00  0.00     0.053 C 
ATOM      9  C   UNL d   1      -3.109   0.051   2.351  0.00  0.00     0.018 C 
ENDBRANCH   1   8
TORSDOF 1
ENDMDL
