MODEL 1
REMARK minimizedAffinity -3.12456989
REMARK minimizedRMSD -1
REMARK  1 active torsions:
REMARK  status: ('A' for Active; 'I' for Inactive)
REMARK    1  A    between atoms: C1_2  and  C2_3 
ROOT
ATOM      1  C2  UNL d   1      -0.915  -0.219   2.237  0.00  0.00    -0.073 A 
ATOM      2  C3  UNL d   1       0.242   0.230   2.885  0.00  0.00    -0.002 A 
ATOM      3  C4  UNL d   1       1.400   0.498   2.153  0.00  0.00     0.004 A 
ATOM      4  C5  UNL d   1       1.411   0.327   0.769  0.00  0.00    -0.004 A 
ATOM      5  C6  UNL d   1       0.261  -0.109   0.103  0.00  0.00    -0.075 A 
ATOM      6  C7  UNL d   1       0.258  -0.300  -1.386  0.00  0.00     0.076 C 
ATOM      7  C8  UNL d   1      -0.897  -0.379   0.844  0.00  0.00     0.001 A 
ENDROOT
BRANCH   1   8
ATOM      8  C1  UNL d   1      -2.170  -0.503   3.022  0.00  0.00     0.053 C 
ATOM      9  C   UNL d   1      -3.392   0.153   2.400  0.00  0.00     0.018 C 
ENDBRANCH   1   8
TORSDOF 1
ENDMDL
