MODEL 1
REMARK minimizedAffinity -4.37314129
REMARK minimizedRMSD -1
REMARK  1 active torsions:
REMARK  status: ('A' for Active; 'I' for Inactive)
REMARK    1  A    between atoms: C1_2  and  C2_3 
ROOT
ATOM      1  C2  UNL d   1       0.114  -0.284  -1.284  0.00  0.00    -0.073 A 
ATOM      2  C3  UNL d   1      -0.274  -1.499  -1.861  0.00  0.00    -0.002 A 
ATOM      3  C4  UNL d   1       0.376  -1.978  -2.999  0.00  0.00     0.004 A 
ATOM      4  C5  UNL d   1       1.423  -1.253  -3.567  0.00  0.00    -0.004 A 
ATOM      5  C6  UNL d   1       1.833  -0.043  -2.999  0.00  0.00    -0.075 A 
ATOM      6  C7  UNL d   1       2.956   0.750  -3.600  0.00  0.00     0.076 C 
ATOM      7  C8  UNL d   1       1.174   0.433  -1.858  0.00  0.00     0.001 A 
ENDROOT
BRANCH   1   8
ATOM      8  C1  UNL d   1      -0.580   0.234  -0.051  0.00  0.00     0.053 C 
ATOM      9  C   UNL d   1       0.374   0.375   1.124  0.00  0.00     0.018 C 
ENDBRANCH   1   8
TORSDOF 1
ENDMDL
