MODEL 1
REMARK minimizedAffinity -1.7467047
REMARK minimizedRMSD -1
REMARK  1 active torsions:
REMARK  status: ('A' for Active; 'I' for Inactive)
REMARK    1  A    between atoms: C1_2  and  C2_3 
ROOT
ATOM      1  C2  UNL d   1       0.536   0.192  -0.251  0.00  0.00    -0.073 A 
ATOM      2  C3  UNL d   1      -0.849   0.006  -0.183  0.00  0.00    -0.002 A 
ATOM      3  C4  UNL d   1      -1.530   0.212   1.018  0.00  0.00     0.004 A 
ATOM      4  C5  UNL d   1      -0.835   0.614   2.158  0.00  0.00    -0.004 A 
ATOM      5  C6  UNL d   1       0.548   0.817   2.107  0.00  0.00    -0.075 A 
ATOM      6  C7  UNL d   1       1.310   1.247   3.326  0.00  0.00     0.076 C 
ATOM      7  C8  UNL d   1       1.225   0.604   0.899  0.00  0.00     0.001 A 
ENDROOT
BRANCH   1   8
ATOM      8  C1  UNL d   1       1.275  -0.024  -1.547  0.00  0.00     0.053 C 
ATOM      9  C   UNL d   1       0.902  -1.344  -2.202  0.00  0.00     0.018 C 
ENDBRANCH   1   8
TORSDOF 1
ENDMDL
