MODEL 1
REMARK minimizedAffinity -1.20270455
REMARK minimizedRMSD -1
REMARK  3 active torsions:
REMARK  status: ('A' for Active; 'I' for Inactive)
REMARK    1  A    between atoms: C3'_2  and  C2'_3 
REMARK    2  A    between atoms: C2'_3  and  C1'_4 
REMARK    3  A    between atoms: C1'_4  and  C1_5 
ROOT
ATOM      1  C1  N4B d   1       0.379  -0.291  -0.515  0.00  0.00    -0.075 A 
ATOM      2  C2  N4B d   1       1.159  -1.399  -0.116  0.00  0.00     0.002 A 
ATOM      3  C3  N4B d   1       0.889  -2.646  -0.624  0.00  0.00     0.002 A 
ATOM      4  C4  N4B d   1      -0.163  -2.813  -1.512  0.00  0.00    -0.004 A 
ATOM      5  C5  N4B d   1      -0.895  -1.733  -1.911  0.00  0.00     0.002 A 
ATOM      6  C6  N4B d   1      -0.633  -0.473  -1.412  0.00  0.00     0.002 A 
ENDROOT
BRANCH   1   7
ATOM      7  C1' N4B d   1       0.581   1.077   0.078  0.00  0.00     0.057 C 
BRANCH   7   8
ATOM      8  C2' N4B d   1       1.948   1.608  -0.342  0.00  0.00     0.009 C 
BRANCH   8   9
ATOM      9  C3' N4B d   1       2.901   0.487  -0.721  0.00  0.00     0.004 C 
ATOM     10  C4' N4B d   1       4.276   0.982  -1.057  0.00  0.00     0.003 C 
ENDBRANCH   8   9
ENDBRANCH   7   8
ENDBRANCH   1   7
TORSDOF 3
ENDMDL
