MODEL 1
REMARK minimizedAffinity -0.366437197
REMARK minimizedRMSD -1
REMARK  3 active torsions:
REMARK  status: ('A' for Active; 'I' for Inactive)
REMARK    1  A    between atoms: C3'_2  and  C2'_3 
REMARK    2  A    between atoms: C2'_3  and  C1'_4 
REMARK    3  A    between atoms: C1'_4  and  C1_5 
ROOT
ATOM      1  C1  N4B d   1      -0.851   0.729   0.588  0.00  0.00    -0.075 A 
ATOM      2  C2  N4B d   1      -2.152   0.191   0.476  0.00  0.00     0.002 A 
ATOM      3  C3  N4B d   1      -3.119   0.537   1.389  0.00  0.00     0.002 A 
ATOM      4  C4  N4B d   1      -2.804   1.401   2.427  0.00  0.00    -0.004 A 
ATOM      5  C5  N4B d   1      -1.552   1.936   2.513  0.00  0.00     0.002 A 
ATOM      6  C6  N4B d   1      -0.572   1.600   1.601  0.00  0.00     0.002 A 
ENDROOT
BRANCH   1   7
ATOM      7  C1' N4B d   1       0.262   0.313  -0.335  0.00  0.00     0.057 C 
BRANCH   7   8
ATOM      8  C2' N4B d   1      -0.231  -0.814  -1.238  0.00  0.00     0.009 C 
BRANCH   8   9
ATOM      9  C3' N4B d   1       0.216  -2.177  -0.739  0.00  0.00     0.004 C 
ATOM     10  C4' N4B d   1       1.697  -2.260  -0.522  0.00  0.00     0.003 C 
ENDBRANCH   8   9
ENDBRANCH   7   8
ENDBRANCH   1   7
TORSDOF 3
ENDMDL
