MODEL 1
REMARK minimizedAffinity 1.80866075
REMARK minimizedRMSD -1
REMARK  3 active torsions:
REMARK  status: ('A' for Active; 'I' for Inactive)
REMARK    1  A    between atoms: C3'_2  and  C2'_3 
REMARK    2  A    between atoms: C2'_3  and  C1'_4 
REMARK    3  A    between atoms: C1'_4  and  C1_5 
ROOT
ATOM      1  C1  N4B d   1       2.363   0.209  -1.124  0.00  0.00    -0.075 A 
ATOM      2  C2  N4B d   1       2.666  -1.153  -1.346  0.00  0.00     0.002 A 
ATOM      3  C3  N4B d   1       3.928  -1.519  -1.747  0.00  0.00     0.002 A 
ATOM      4  C4  N4B d   1       4.893  -0.544  -1.950  0.00  0.00    -0.004 A 
ATOM      5  C5  N4B d   1       4.600   0.766  -1.708  0.00  0.00     0.002 A 
ATOM      6  C6  N4B d   1       3.337   1.148  -1.301  0.00  0.00     0.002 A 
ENDROOT
BRANCH   1   7
ATOM      7  C1' N4B d   1       0.975   0.665  -0.768  0.00  0.00     0.057 C 
BRANCH   7   8
ATOM      8  C2' N4B d   1       0.036  -0.537  -0.772  0.00  0.00     0.009 C 
BRANCH   8   9
ATOM      9  C3' N4B d   1      -0.691  -0.686  -2.098  0.00  0.00     0.004 C 
ATOM     10  C4' N4B d   1      -0.722  -2.103  -2.587  0.00  0.00     0.003 C 
ENDBRANCH   8   9
ENDBRANCH   7   8
ENDBRANCH   1   7
TORSDOF 3
ENDMDL
