MODEL 1
REMARK minimizedAffinity 2.79600358
REMARK minimizedRMSD -1
REMARK  3 active torsions:
REMARK  status: ('A' for Active; 'I' for Inactive)
REMARK    1  A    between atoms: C3'_2  and  C2'_3 
REMARK    2  A    between atoms: C2'_3  and  C1'_4 
REMARK    3  A    between atoms: C1'_4  and  C1_5 
ROOT
ATOM      1  C1  N4B d   1       3.800  -0.894  -1.887  0.00  0.00    -0.075 A 
ATOM      2  C2  N4B d   1       3.789   0.285  -1.110  0.00  0.00     0.002 A 
ATOM      3  C3  N4B d   1       4.879   1.120  -1.114  0.00  0.00     0.002 A 
ATOM      4  C4  N4B d   1       5.993   0.790  -1.871  0.00  0.00    -0.004 A 
ATOM      5  C5  N4B d   1       5.986  -0.338  -2.639  0.00  0.00     0.002 A 
ATOM      6  C6  N4B d   1       4.896  -1.185  -2.647  0.00  0.00     0.002 A 
ENDROOT
BRANCH   1   7
ATOM      7  C1' N4B d   1       2.666  -1.882  -1.848  0.00  0.00     0.057 C 
BRANCH   7   8
ATOM      8  C2' N4B d   1       1.921  -1.737  -0.524  0.00  0.00     0.009 C 
BRANCH   8   9
ATOM      9  C3' N4B d   1       0.539  -1.136  -0.713  0.00  0.00     0.004 C 
ATOM     10  C4' N4B d   1       0.474   0.308  -0.314  0.00  0.00     0.003 C 
ENDBRANCH   8   9
ENDBRANCH   7   8
ENDBRANCH   1   7
TORSDOF 3
ENDMDL
