MODEL 1
REMARK minimizedAffinity 12.35431
REMARK minimizedRMSD -1
REMARK  0 active torsions:
REMARK  status: ('A' for Active; 'I' for Inactive)
ROOT
ATOM      1  C2' OXE d   1      -2.453   0.179  -2.977  0.00  0.00     0.078 C 
ATOM      2  C1' OXE d   1      -0.588  -1.873  -3.413  0.00  0.00     0.078 C 
ATOM      3  C1  OXE d   1      -1.281  -1.825  -2.074  0.00  0.00    -0.078 A 
ATOM      4  C2  OXE d   1      -2.158  -0.790  -1.853  0.00  0.00    -0.078 A 
ATOM      5  C3  OXE d   1      -2.865  -0.731  -0.655  0.00  0.00     0.003 A 
ATOM      6  C4  OXE d   1      -2.579  -1.625   0.383  0.00  0.00    -0.002 A 
ATOM      7  C5  OXE d   1      -1.660  -2.663   0.192  0.00  0.00    -0.002 A 
ATOM      8  C6  OXE d   1      -1.036  -2.802  -1.042  0.00  0.00     0.003 A 
ENDROOT
TORSDOF 0
ENDMDL
