MODEL 1
REMARK minimizedAffinity 20.3609161
REMARK minimizedRMSD -1
REMARK  0 active torsions:
REMARK  status: ('A' for Active; 'I' for Inactive)
ROOT
ATOM      1  C2' OXE d   1      -1.432  -0.646  -2.491  0.00  0.00     0.078 C 
ATOM      2  C1' OXE d   1       1.239   0.126  -2.878  0.00  0.00     0.078 C 
ATOM      3  C1  OXE d   1       0.159   1.065  -3.355  0.00  0.00    -0.078 A 
ATOM      4  C2  OXE d   1      -1.145   0.658  -3.203  0.00  0.00    -0.078 A 
ATOM      5  C3  OXE d   1      -2.181   1.509  -3.577  0.00  0.00     0.003 A 
ATOM      6  C4  OXE d   1      -1.907   2.709  -4.244  0.00  0.00    -0.002 A 
ATOM      7  C5  OXE d   1      -0.586   3.124  -4.444  0.00  0.00    -0.002 A 
ATOM      8  C6  OXE d   1       0.456   2.336  -3.969  0.00  0.00     0.003 A 
ENDROOT
TORSDOF 0
ENDMDL
