MODEL 1
REMARK minimizedAffinity 16.0377178
REMARK minimizedRMSD -1
REMARK  0 active torsions:
REMARK  status: ('A' for Active; 'I' for Inactive)
ROOT
ATOM      1  C2' OXE d   1       0.408   3.474  -4.605  0.00  0.00     0.078 C 
ATOM      2  C1' OXE d   1      -1.980   2.053  -4.206  0.00  0.00     0.078 C 
ATOM      3  C1  OXE d   1      -0.685   1.371  -3.840  0.00  0.00    -0.078 A 
ATOM      4  C2  OXE d   1       0.481   2.056  -4.082  0.00  0.00    -0.078 A 
ATOM      5  C3  OXE d   1       1.700   1.495  -3.712  0.00  0.00     0.003 A 
ATOM      6  C4  OXE d   1       1.759   0.179  -3.238  0.00  0.00    -0.002 A 
ATOM      7  C5  OXE d   1       0.586  -0.552  -3.022  0.00  0.00    -0.002 A 
ATOM      8  C6  OXE d   1      -0.644   0.044  -3.277  0.00  0.00     0.003 A 
ENDROOT
TORSDOF 0
ENDMDL
