MODEL 1
REMARK minimizedAffinity 18.211132
REMARK minimizedRMSD -1
REMARK  0 active torsions:
REMARK  status: ('A' for Active; 'I' for Inactive)
ROOT
ATOM      1  C2' OXE d   1      -0.161   3.290  -4.856  0.00  0.00     0.078 C 
ATOM      2  C1' OXE d   1      -2.885   3.409  -4.188  0.00  0.00     0.078 C 
ATOM      3  C1  OXE d   1      -2.112   2.183  -3.772  0.00  0.00    -0.078 A 
ATOM      4  C2  OXE d   1      -0.791   2.112  -4.144  0.00  0.00    -0.078 A 
ATOM      5  C3  OXE d   1      -0.017   1.028  -3.739  0.00  0.00     0.003 A 
ATOM      6  C4  OXE d   1      -0.610  -0.061  -3.089  0.00  0.00    -0.002 A 
ATOM      7  C5  OXE d   1      -1.963  -0.028  -2.736  0.00  0.00    -0.002 A 
ATOM      8  C6  OXE d   1      -2.716   1.103  -3.032  0.00  0.00     0.003 A 
ENDROOT
TORSDOF 0
ENDMDL
