MODEL 1
REMARK minimizedAffinity 7.83844614
REMARK minimizedRMSD -1
REMARK  0 active torsions:
REMARK  status: ('A' for Active; 'I' for Inactive)
ROOT
ATOM      1  C2' OXE d   1      -2.269  -2.412   0.372  0.00  0.00     0.078 C 
ATOM      2  C1' OXE d   1      -3.099  -2.980   2.992  0.00  0.00     0.078 C 
ATOM      3  C1  OXE d   1      -2.148  -3.946   2.330  0.00  0.00    -0.078 A 
ATOM      4  C2  OXE d   1      -1.784  -3.684   1.031  0.00  0.00    -0.078 A 
ATOM      5  C3  OXE d   1      -0.866  -4.513   0.392  0.00  0.00     0.003 A 
ATOM      6  C4  OXE d   1      -0.430  -5.694   1.006  0.00  0.00    -0.002 A 
ATOM      7  C5  OXE d   1      -0.820  -6.000   2.314  0.00  0.00    -0.002 A 
ATOM      8  C6  OXE d   1      -1.643  -5.117   3.004  0.00  0.00     0.003 A 
ENDROOT
TORSDOF 0
ENDMDL
