MODEL 1
REMARK minimizedAffinity 11.0191746
REMARK minimizedRMSD -1
REMARK  0 active torsions:
REMARK  status: ('A' for Active; 'I' for Inactive)
ROOT
ATOM      1  C2' OXE d   1      -1.450  -0.719  -2.744  0.00  0.00     0.078 C 
ATOM      2  C1' OXE d   1       1.241  -0.205  -3.354  0.00  0.00     0.078 C 
ATOM      3  C1  OXE d   1       0.227   0.856  -3.701  0.00  0.00    -0.078 A 
ATOM      4  C2  OXE d   1      -1.094   0.576  -3.442  0.00  0.00    -0.078 A 
ATOM      5  C3  OXE d   1      -2.065   1.541  -3.693  0.00  0.00     0.003 A 
ATOM      6  C4  OXE d   1      -1.728   2.732  -4.348  0.00  0.00    -0.002 A 
ATOM      7  C5  OXE d   1      -0.394   3.020  -4.657  0.00  0.00    -0.002 A 
ATOM      8  C6  OXE d   1       0.598   2.113  -4.302  0.00  0.00     0.003 A 
ENDROOT
TORSDOF 0
ENDMDL
