MODEL 1
REMARK minimizedAffinity 10.0923519
REMARK minimizedRMSD -1
REMARK  0 active torsions:
REMARK  status: ('A' for Active; 'I' for Inactive)
ROOT
ATOM      1  C2' OXE d   1      -1.401  -1.855  -0.917  0.00  0.00     0.078 C 
ATOM      2  C1' OXE d   1      -1.198  -3.632  -3.081  0.00  0.00     0.078 C 
ATOM      3  C1  OXE d   1      -0.963  -4.181  -1.696  0.00  0.00    -0.078 A 
ATOM      4  C2  OXE d   1      -1.018  -3.294  -0.647  0.00  0.00    -0.078 A 
ATOM      5  C3  OXE d   1      -0.863  -3.758   0.656  0.00  0.00     0.003 A 
ATOM      6  C4  OXE d   1      -0.499  -5.088   0.896  0.00  0.00    -0.002 A 
ATOM      7  C5  OXE d   1      -0.398  -5.999  -0.161  0.00  0.00    -0.002 A 
ATOM      8  C6  OXE d   1      -0.668  -5.572  -1.456  0.00  0.00     0.003 A 
ENDROOT
TORSDOF 0
ENDMDL
