MODEL 1
REMARK minimizedAffinity 18.321022
REMARK minimizedRMSD -1
REMARK  0 active torsions:
REMARK  status: ('A' for Active; 'I' for Inactive)
ROOT
ATOM      1  C2' OXE d   1      -0.374  -3.682   0.792  0.00  0.00     0.078 C 
ATOM      2  C1' OXE d   1      -0.533  -5.504  -1.338  0.00  0.00     0.078 C 
ATOM      3  C1  OXE d   1      -0.836  -4.055  -1.627  0.00  0.00    -0.078 A 
ATOM      4  C2  OXE d   1      -0.801  -3.178  -0.569  0.00  0.00    -0.078 A 
ATOM      5  C3  OXE d   1      -1.018  -1.821  -0.791  0.00  0.00     0.003 A 
ATOM      6  C4  OXE d   1      -1.422  -1.365  -2.051  0.00  0.00    -0.002 A 
ATOM      7  C5  OXE d   1      -1.503  -2.247  -3.134  0.00  0.00    -0.002 A 
ATOM      8  C6  OXE d   1      -1.172  -3.585  -2.948  0.00  0.00     0.003 A 
ENDROOT
TORSDOF 0
ENDMDL
