MODEL 1
REMARK minimizedAffinity 22.7136135
REMARK minimizedRMSD -1
REMARK  0 active torsions:
REMARK  status: ('A' for Active; 'I' for Inactive)
ROOT
ATOM      1  C2' OXE d   1      -0.287  -4.550   1.519  0.00  0.00     0.078 C 
ATOM      2  C1' OXE d   1      -2.418  -3.443   2.973  0.00  0.00     0.078 C 
ATOM      3  C1  OXE d   1      -2.176  -2.928   1.576  0.00  0.00    -0.078 A 
ATOM      4  C2  OXE d   1      -1.103  -3.442   0.889  0.00  0.00    -0.078 A 
ATOM      5  C3  OXE d   1      -0.868  -3.042  -0.423  0.00  0.00     0.003 A 
ATOM      6  C4  OXE d   1      -1.621  -2.009  -0.995  0.00  0.00    -0.002 A 
ATOM      7  C5  OXE d   1      -2.694  -1.444  -0.298  0.00  0.00    -0.002 A 
ATOM      8  C6  OXE d   1      -3.011  -1.920   0.969  0.00  0.00     0.003 A 
ENDROOT
TORSDOF 0
ENDMDL
