MODEL 1
REMARK minimizedAffinity 7.59827662
REMARK minimizedRMSD -1
REMARK  0 active torsions:
REMARK  status: ('A' for Active; 'I' for Inactive)
ROOT
ATOM      1  C2' OXE d   1      -4.035   2.148  -6.000  0.00  0.00     0.078 C 
ATOM      2  C1' OXE d   1      -2.308   3.433  -4.199  0.00  0.00     0.078 C 
ATOM      3  C1  OXE d   1      -3.605   4.123  -4.545  0.00  0.00    -0.078 A 
ATOM      4  C2  OXE d   1      -4.422   3.509  -5.462  0.00  0.00    -0.078 A 
ATOM      5  C3  OXE d   1      -5.655   4.075  -5.776  0.00  0.00     0.003 A 
ATOM      6  C4  OXE d   1      -6.000   5.339  -5.282  0.00  0.00    -0.002 A 
ATOM      7  C5  OXE d   1      -5.164   6.000  -4.376  0.00  0.00    -0.002 A 
ATOM      8  C6  OXE d   1      -3.985   5.388  -3.965  0.00  0.00     0.003 A 
ENDROOT
TORSDOF 0
ENDMDL
