MODEL 1
REMARK minimizedAffinity 7.121737
REMARK minimizedRMSD -1
REMARK  0 active torsions:
REMARK  status: ('A' for Active; 'I' for Inactive)
ROOT
ATOM      1  C2' OXE d   1      -2.099  -1.563   0.295  0.00  0.00     0.078 C 
ATOM      2  C1' OXE d   1      -2.397  -2.570   2.898  0.00  0.00     0.078 C 
ATOM      3  C1  OXE d   1      -1.761  -3.467   1.866  0.00  0.00    -0.078 A 
ATOM      4  C2  OXE d   1      -1.661  -2.983   0.583  0.00  0.00    -0.078 A 
ATOM      5  C3  OXE d   1      -1.032  -3.748  -0.395  0.00  0.00     0.003 A 
ATOM      6  C4  OXE d   1      -0.639  -5.064  -0.122  0.00  0.00    -0.002 A 
ATOM      7  C5  OXE d   1      -0.768  -5.590   1.167  0.00  0.00    -0.002 A 
ATOM      8  C6  OXE d   1      -1.286  -4.792   2.181  0.00  0.00     0.003 A 
ENDROOT
TORSDOF 0
ENDMDL
