MODEL 1
REMARK minimizedAffinity 2.1738956
REMARK minimizedRMSD -1
REMARK  0 active torsions:
REMARK  status: ('A' for Active; 'I' for Inactive)
ROOT
ATOM      1  C2' OXE d   1      -2.614   1.565  -3.405  0.00  0.00     0.078 C 
ATOM      2  C1' OXE d   1      -3.620   3.338  -5.336  0.00  0.00     0.078 C 
ATOM      3  C1  OXE d   1      -2.122   3.243  -5.180  0.00  0.00    -0.078 A 
ATOM      4  C2  OXE d   1      -1.640   2.408  -4.201  0.00  0.00    -0.078 A 
ATOM      5  C3  OXE d   1      -0.266   2.242  -4.051  0.00  0.00     0.003 A 
ATOM      6  C4  OXE d   1       0.627   3.032  -4.784  0.00  0.00    -0.002 A 
ATOM      7  C5  OXE d   1       0.156   3.918  -5.759  0.00  0.00    -0.002 A 
ATOM      8  C6  OXE d   1      -1.211   4.004  -5.998  0.00  0.00     0.003 A 
ENDROOT
TORSDOF 0
ENDMDL
