MODEL 1
REMARK minimizedAffinity 16.8557129
REMARK minimizedRMSD -1
REMARK  0 active torsions:
REMARK  status: ('A' for Active; 'I' for Inactive)
ROOT
ATOM      1  C2' OXE d   1      -3.117  -2.273   1.022  0.00  0.00     0.078 C 
ATOM      2  C1' OXE d   1      -0.864  -3.822   0.387  0.00  0.00     0.078 C 
ATOM      3  C1  OXE d   1      -1.254  -2.723  -0.570  0.00  0.00    -0.078 A 
ATOM      4  C2  OXE d   1      -2.385  -2.000  -0.274  0.00  0.00    -0.078 A 
ATOM      5  C3  OXE d   1      -2.759  -0.939  -1.094  0.00  0.00     0.003 A 
ATOM      6  C4  OXE d   1      -2.083  -0.700  -2.297  0.00  0.00    -0.002 A 
ATOM      7  C5  OXE d   1      -0.952  -1.450  -2.637  0.00  0.00    -0.002 A 
ATOM      8  C6  OXE d   1      -0.500  -2.435  -1.765  0.00  0.00     0.003 A 
ENDROOT
TORSDOF 0
ENDMDL
