MODEL 1
REMARK minimizedAffinity 7.46228313
REMARK minimizedRMSD -1
REMARK  0 active torsions:
REMARK  status: ('A' for Active; 'I' for Inactive)
ROOT
ATOM      1  C2' OXE d   1       2.437  -5.989   3.053  0.00  0.00     0.078 C 
ATOM      2  C1' OXE d   1      -0.069  -6.000   4.317  0.00  0.00     0.078 C 
ATOM      3  C1  OXE d   1      -0.041  -5.899   2.813  0.00  0.00    -0.078 A 
ATOM      4  C2  OXE d   1       1.191  -5.848   2.206  0.00  0.00    -0.078 A 
ATOM      5  C3  OXE d   1       1.274  -5.810   0.817  0.00  0.00     0.003 A 
ATOM      6  C4  OXE d   1       0.117  -5.670   0.041  0.00  0.00    -0.002 A 
ATOM      7  C5  OXE d   1      -1.147  -5.680   0.642  0.00  0.00    -0.002 A 
ATOM      8  C6  OXE d   1      -1.244  -5.837   2.020  0.00  0.00     0.003 A 
ENDROOT
TORSDOF 0
ENDMDL
