MODEL 1
REMARK minimizedAffinity 20.6573296
REMARK minimizedRMSD -1
REMARK  0 active torsions:
REMARK  status: ('A' for Active; 'I' for Inactive)
ROOT
ATOM      1  C2' OXE d   1      -2.889   0.397  -2.711  0.00  0.00     0.078 C 
ATOM      2  C1' OXE d   1      -0.209  -0.310  -3.159  0.00  0.00     0.078 C 
ATOM      3  C1  OXE d   1      -0.678   1.031  -3.667  0.00  0.00    -0.078 A 
ATOM      4  C2  OXE d   1      -2.002   1.348  -3.485  0.00  0.00    -0.078 A 
ATOM      5  C3  OXE d   1      -2.473   2.595  -3.886  0.00  0.00     0.003 A 
ATOM      6  C4  OXE d   1      -1.649   3.465  -4.609  0.00  0.00    -0.002 A 
ATOM      7  C5  OXE d   1      -0.307   3.144  -4.841  0.00  0.00    -0.002 A 
ATOM      8  C6  OXE d   1       0.204   1.952  -4.340  0.00  0.00     0.003 A 
ENDROOT
TORSDOF 0
ENDMDL
