MODEL 1
REMARK minimizedAffinity 18.1824799
REMARK minimizedRMSD -1
REMARK  0 active torsions:
REMARK  status: ('A' for Active; 'I' for Inactive)
ROOT
ATOM      1  C2' OXE d   1       3.055   2.563  -1.170  0.00  0.00     0.078 C 
ATOM      2  C1' OXE d   1       3.236   2.624   1.631  0.00  0.00     0.078 C 
ATOM      3  C1  OXE d   1       3.764   3.812   0.866  0.00  0.00    -0.078 A 
ATOM      4  C2  OXE d   1       3.714   3.753  -0.506  0.00  0.00    -0.078 A 
ATOM      5  C3  OXE d   1       4.137   4.845  -1.258  0.00  0.00     0.003 A 
ATOM      6  C4  OXE d   1       4.754   5.938  -0.637  0.00  0.00    -0.002 A 
ATOM      7  C5  OXE d   1       4.851   6.000   0.757  0.00  0.00    -0.002 A 
ATOM      8  C6  OXE d   1       4.324   4.966   1.524  0.00  0.00     0.003 A 
ENDROOT
TORSDOF 0
ENDMDL
