MODEL 1
REMARK minimizedAffinity 4.6849494
REMARK minimizedRMSD -1
REMARK  0 active torsions:
REMARK  status: ('A' for Active; 'I' for Inactive)
ROOT
ATOM      1  C2' OXE d   1      -0.272  -5.185  -0.656  0.00  0.00     0.078 C 
ATOM      2  C1' OXE d   1      -1.833  -3.372   0.812  0.00  0.00     0.078 C 
ATOM      3  C1  OXE d   1      -0.892  -4.268   1.576  0.00  0.00    -0.078 A 
ATOM      4  C2  OXE d   1      -0.166  -5.185   0.854  0.00  0.00    -0.078 A 
ATOM      5  C3  OXE d   1       0.758  -5.999   1.504  0.00  0.00     0.003 A 
ATOM      6  C4  OXE d   1       0.842  -6.000   2.902  0.00  0.00    -0.002 A 
ATOM      7  C5  OXE d   1       0.083  -5.102   3.659  0.00  0.00    -0.002 A 
ATOM      8  C6  OXE d   1      -0.756  -4.202   3.010  0.00  0.00     0.003 A 
ENDROOT
TORSDOF 0
ENDMDL
