MODEL 1
REMARK minimizedAffinity 7.58307123
REMARK minimizedRMSD -1
REMARK  0 active torsions:
REMARK  status: ('A' for Active; 'I' for Inactive)
ROOT
ATOM      1  C2' OXE d   1      -2.308  -1.612   0.572  0.00  0.00     0.078 C 
ATOM      2  C1' OXE d   1      -2.858  -2.563   3.156  0.00  0.00     0.078 C 
ATOM      3  C1  OXE d   1      -2.089  -3.465   2.223  0.00  0.00    -0.078 A 
ATOM      4  C2  OXE d   1      -1.865  -3.011   0.946  0.00  0.00    -0.078 A 
ATOM      5  C3  OXE d   1      -1.114  -3.780   0.062  0.00  0.00     0.003 A 
ATOM      6  C4  OXE d   1      -0.717  -5.076   0.412  0.00  0.00    -0.002 A 
ATOM      7  C5  OXE d   1      -0.969  -5.574   1.695  0.00  0.00    -0.002 A 
ATOM      8  C6  OXE d   1      -1.616  -4.767   2.624  0.00  0.00     0.003 A 
ENDROOT
TORSDOF 0
ENDMDL
