MODEL 1
REMARK minimizedAffinity 10.3615904
REMARK minimizedRMSD -1
REMARK  0 active torsions:
REMARK  status: ('A' for Active; 'I' for Inactive)
ROOT
ATOM      1  C2' OXE d   1      -1.997  -2.236   0.355  0.00  0.00     0.078 C 
ATOM      2  C1' OXE d   1      -2.824  -2.834   2.970  0.00  0.00     0.078 C 
ATOM      3  C1  OXE d   1      -1.967  -3.848   2.254  0.00  0.00    -0.078 A 
ATOM      4  C2  OXE d   1      -1.606  -3.567   0.958  0.00  0.00    -0.078 A 
ATOM      5  C3  OXE d   1      -0.770  -4.443   0.270  0.00  0.00     0.003 A 
ATOM      6  C4  OXE d   1      -0.421  -5.677   0.832  0.00  0.00    -0.002 A 
ATOM      7  C5  OXE d   1      -0.811  -6.000   2.136  0.00  0.00    -0.002 A 
ATOM      8  C6  OXE d   1      -1.547  -5.080   2.874  0.00  0.00     0.003 A 
ENDROOT
TORSDOF 0
ENDMDL
