MODEL 1
REMARK minimizedAffinity 10.1709728
REMARK minimizedRMSD -1
REMARK  0 active torsions:
REMARK  status: ('A' for Active; 'I' for Inactive)
ROOT
ATOM      1  C2' OXE d   1      -0.528  -4.954   1.059  0.00  0.00     0.078 C 
ATOM      2  C1' OXE d   1      -2.259  -3.333   2.560  0.00  0.00     0.078 C 
ATOM      3  C1  OXE d   1      -1.938  -2.903   1.151  0.00  0.00    -0.078 A 
ATOM      4  C2  OXE d   1      -1.053  -3.678   0.440  0.00  0.00    -0.078 A 
ATOM      5  C3  OXE d   1      -0.765  -3.357  -0.884  0.00  0.00     0.003 A 
ATOM      6  C4  OXE d   1      -1.248  -2.169  -1.446  0.00  0.00    -0.002 A 
ATOM      7  C5  OXE d   1      -2.119  -1.345  -0.726  0.00  0.00    -0.002 A 
ATOM      8  C6  OXE d   1      -2.507  -1.719   0.556  0.00  0.00     0.003 A 
ENDROOT
TORSDOF 0
ENDMDL
