MODEL 1
REMARK minimizedAffinity 26.1265297
REMARK minimizedRMSD -1
REMARK  0 active torsions:
REMARK  status: ('A' for Active; 'I' for Inactive)
ROOT
ATOM      1  C   UNL d   1       4.088   4.902   3.096  0.00  0.00     0.124 A 
ATOM      2  C1  UNL d   1       3.939   4.691   1.732  0.00  0.00     0.062 A 
ATOM      3  C2  UNL d   1       4.475   3.553   1.137  0.00  0.00     0.162 A 
ATOM      4  C3  UNL d   1       5.165   2.615   1.906  0.00  0.00    -0.034 A 
ATOM      5  C4  UNL d   1       5.311   2.834   3.277  0.00  0.00     0.162 A 
ATOM      6  C5  UNL d   1       4.773   3.974   3.867  0.00  0.00     0.062 A 
ATOM      7  F   UNL d   1       4.918   4.175   5.185  0.00  0.00    -0.097 F 
ATOM      8  F1  UNL d   1       5.968   1.953   4.046  0.00  0.00    -0.096 F 
ATOM      9  I   UNL d   1       5.968   0.912   1.020  0.00  0.00    -0.060 I 
ATOM     10  F2  UNL d   1       4.316   3.375  -0.182  0.00  0.00    -0.096 F 
ATOM     11  F3  UNL d   1       3.278   5.586   0.985  0.00  0.00    -0.097 F 
ATOM     12  F4  UNL d   1       3.571   5.998   3.666  0.00  0.00    -0.092 F 
ENDROOT
TORSDOF 0
ENDMDL
