MODEL 1
REMARK minimizedAffinity 25.2900581
REMARK minimizedRMSD -1
REMARK  0 active torsions:
REMARK  status: ('A' for Active; 'I' for Inactive)
ROOT
ATOM      1  C   UNL d   1       2.609  -0.817   3.779  0.00  0.00     0.124 A 
ATOM      2  C1  UNL d   1       1.720  -1.876   3.906  0.00  0.00     0.062 A 
ATOM      3  C2  UNL d   1       0.464  -1.811   3.309  0.00  0.00     0.162 A 
ATOM      4  C3  UNL d   1       0.090  -0.683   2.578  0.00  0.00    -0.034 A 
ATOM      5  C4  UNL d   1       0.989   0.378   2.456  0.00  0.00     0.162 A 
ATOM      6  C5  UNL d   1       2.242   0.308   3.055  0.00  0.00     0.062 A 
ATOM      7  F   UNL d   1       3.099   1.332   2.931  0.00  0.00    -0.097 F 
ATOM      8  F1  UNL d   1       0.661   1.477   1.761  0.00  0.00    -0.096 F 
ATOM      9  I   UNL d   1      -1.787  -0.583   1.684  0.00  0.00    -0.060 I 
ATOM     10  F2  UNL d   1      -0.374  -2.849   3.447  0.00  0.00    -0.096 F 
ATOM     11  F3  UNL d   1       2.071  -2.964   4.606  0.00  0.00    -0.097 F 
ATOM     12  F4  UNL d   1       3.816  -0.882   4.356  0.00  0.00    -0.092 F 
ENDROOT
TORSDOF 0
ENDMDL
