MODEL 1
REMARK minimizedAffinity 13.1497583
REMARK minimizedRMSD -1
REMARK  0 active torsions:
REMARK  status: ('A' for Active; 'I' for Inactive)
ROOT
ATOM      1  C   UNL d   1       1.642  -0.803   3.796  0.00  0.00     0.124 A 
ATOM      2  C1  UNL d   1       1.094  -1.395   2.666  0.00  0.00     0.062 A 
ATOM      3  C2  UNL d   1       0.002  -0.813   2.029  0.00  0.00     0.162 A 
ATOM      4  C3  UNL d   1      -0.550   0.370   2.520  0.00  0.00    -0.034 A 
ATOM      5  C4  UNL d   1       0.005   0.960   3.657  0.00  0.00     0.162 A 
ATOM      6  C5  UNL d   1       1.097   0.374   4.290  0.00  0.00     0.062 A 
ATOM      7  F   UNL d   1       1.624   0.948   5.381  0.00  0.00    -0.097 F 
ATOM      8  F1  UNL d   1      -0.501   2.097   4.156  0.00  0.00    -0.096 F 
ATOM      9  I   UNL d   1      -2.183   1.244   1.571  0.00  0.00    -0.060 I 
ATOM     10  F2  UNL d   1      -0.506  -1.408   0.940  0.00  0.00    -0.096 F 
ATOM     11  F3  UNL d   1       1.619  -2.533   2.187  0.00  0.00    -0.097 F 
ATOM     12  F4  UNL d   1       2.692  -1.366   4.407  0.00  0.00    -0.092 F 
ENDROOT
TORSDOF 0
ENDMDL
