MODEL 1
REMARK minimizedAffinity 16.8574276
REMARK minimizedRMSD -1
REMARK  0 active torsions:
REMARK  status: ('A' for Active; 'I' for Inactive)
ROOT
ATOM      1  C   UNL d   1      -1.970  -4.803  -3.535  0.00  0.00     0.124 A 
ATOM      2  C1  UNL d   1      -1.663  -4.136  -2.357  0.00  0.00     0.062 A 
ATOM      3  C2  UNL d   1      -1.036  -2.894  -2.400  0.00  0.00     0.162 A 
ATOM      4  C3  UNL d   1      -0.712  -2.311  -3.625  0.00  0.00    -0.034 A 
ATOM      5  C4  UNL d   1      -1.023  -2.989  -4.805  0.00  0.00     0.162 A 
ATOM      6  C5  UNL d   1      -1.650  -4.230  -4.757  0.00  0.00     0.062 A 
ATOM      7  F   UNL d   1      -1.945  -4.873  -5.896  0.00  0.00    -0.097 F 
ATOM      8  F1  UNL d   1      -0.725  -2.457  -6.000  0.00  0.00    -0.096 F 
ATOM      9  I   UNL d   1       0.227  -0.454  -3.693  0.00  0.00    -0.060 I 
ATOM     10  F2  UNL d   1      -0.751  -2.271  -1.247  0.00  0.00    -0.096 F 
ATOM     11  F3  UNL d   1      -1.971  -4.688  -1.175  0.00  0.00    -0.097 F 
ATOM     12  F4  UNL d   1      -2.573  -5.999  -3.491  0.00  0.00    -0.092 F 
ENDROOT
TORSDOF 0
ENDMDL
