MODEL 1
REMARK minimizedAffinity 21.0576019
REMARK minimizedRMSD -1
REMARK  0 active torsions:
REMARK  status: ('A' for Active; 'I' for Inactive)
ROOT
ATOM      1  C   UNL d   1       4.307   3.761   0.921  0.00  0.00     0.124 A 
ATOM      2  C1  UNL d   1       4.850   2.619   1.493  0.00  0.00     0.062 A 
ATOM      3  C2  UNL d   1       5.198   2.608   2.840  0.00  0.00     0.162 A 
ATOM      4  C3  UNL d   1       5.003   3.744   3.626  0.00  0.00    -0.034 A 
ATOM      5  C4  UNL d   1       4.458   4.889   3.044  0.00  0.00     0.162 A 
ATOM      6  C5  UNL d   1       4.112   4.895   1.696  0.00  0.00     0.062 A 
ATOM      7  F   UNL d   1       3.587   5.999   1.145  0.00  0.00    -0.097 F 
ATOM      8  F1  UNL d   1       4.257   5.999   3.770  0.00  0.00    -0.096 F 
ATOM      9  I   UNL d   1       5.522   3.733   5.642  0.00  0.00    -0.060 I 
ATOM     10  F2  UNL d   1       5.721   1.491   3.367  0.00  0.00    -0.096 F 
ATOM     11  F3  UNL d   1       5.041   1.522   0.745  0.00  0.00    -0.097 F 
ATOM     12  F4  UNL d   1       3.974   3.768  -0.377  0.00  0.00    -0.092 F 
ENDROOT
TORSDOF 0
ENDMDL
