MODEL 1
REMARK minimizedAffinity 34.0744781
REMARK minimizedRMSD -1
REMARK  0 active torsions:
REMARK  status: ('A' for Active; 'I' for Inactive)
ROOT
ATOM      1  C   UNL d   1      -3.731  -0.468  -0.681  0.00  0.00     0.124 A 
ATOM      2  C1  UNL d   1      -3.552   0.302   0.459  0.00  0.00     0.062 A 
ATOM      3  C2  UNL d   1      -4.198   1.529   0.585  0.00  0.00     0.162 A 
ATOM      4  C3  UNL d   1      -5.031   1.992  -0.434  0.00  0.00    -0.034 A 
ATOM      5  C4  UNL d   1      -5.205   1.213  -1.578  0.00  0.00     0.162 A 
ATOM      6  C5  UNL d   1      -4.557  -0.012  -1.699  0.00  0.00     0.062 A 
ATOM      7  F   UNL d   1      -4.731  -0.755  -2.802  0.00  0.00    -0.097 F 
ATOM      8  F1  UNL d   1      -5.999   1.629  -2.577  0.00  0.00    -0.096 F 
ATOM      9  I   UNL d   1      -5.999   3.825  -0.250  0.00  0.00    -0.060 I 
ATOM     10  F2  UNL d   1      -4.007   2.252   1.698  0.00  0.00    -0.096 F 
ATOM     11  F3  UNL d   1      -2.753  -0.135   1.444  0.00  0.00    -0.097 F 
ATOM     12  F4  UNL d   1      -3.107  -1.647  -0.800  0.00  0.00    -0.092 F 
ENDROOT
TORSDOF 0
ENDMDL
