MODEL 1
REMARK minimizedAffinity 14.1246128
REMARK minimizedRMSD -1
REMARK  0 active torsions:
REMARK  status: ('A' for Active; 'I' for Inactive)
ROOT
ATOM      1  C   UNL d   1       0.669  -3.854   4.127  0.00  0.00     0.124 A 
ATOM      2  C1  UNL d   1       1.457  -2.807   3.672  0.00  0.00     0.062 A 
ATOM      3  C2  UNL d   1       2.809  -2.755   3.999  0.00  0.00     0.162 A 
ATOM      4  C3  UNL d   1       3.382  -3.754   4.786  0.00  0.00    -0.034 A 
ATOM      5  C4  UNL d   1       2.582  -4.804   5.241  0.00  0.00     0.162 A 
ATOM      6  C5  UNL d   1       1.231  -4.852   4.911  0.00  0.00     0.062 A 
ATOM      7  F   UNL d   1       0.471  -5.864   5.352  0.00  0.00    -0.097 F 
ATOM      8  F1  UNL d   1       3.100  -5.781   6.000  0.00  0.00    -0.096 F 
ATOM      9  I   UNL d   1       5.403  -3.680   5.278  0.00  0.00    -0.060 I 
ATOM     10  F2  UNL d   1       3.547  -1.731   3.545  0.00  0.00    -0.096 F 
ATOM     11  F3  UNL d   1       0.916  -1.842   2.915  0.00  0.00    -0.097 F 
ATOM     12  F4  UNL d   1      -0.632  -3.902   3.811  0.00  0.00    -0.092 F 
ENDROOT
TORSDOF 0
ENDMDL
