MODEL 1
REMARK minimizedAffinity 21.2299538
REMARK minimizedRMSD -1
REMARK  0 active torsions:
REMARK  status: ('A' for Active; 'I' for Inactive)
ROOT
ATOM      1  C   UNL d   1       2.581  -1.625   4.423  0.00  0.00     0.124 A 
ATOM      2  C1  UNL d   1       1.568  -2.573   4.380  0.00  0.00     0.062 A 
ATOM      3  C2  UNL d   1       0.398  -2.315   3.671  0.00  0.00     0.162 A 
ATOM      4  C3  UNL d   1       0.236  -1.104   2.998  0.00  0.00    -0.034 A 
ATOM      5  C4  UNL d   1       1.259  -0.156   3.047  0.00  0.00     0.162 A 
ATOM      6  C5  UNL d   1       2.426  -0.418   3.756  0.00  0.00     0.062 A 
ATOM      7  F   UNL d   1       3.404   0.498   3.797  0.00  0.00    -0.097 F 
ATOM      8  F1  UNL d   1       1.136   1.019   2.410  0.00  0.00    -0.096 F 
ATOM      9  I   UNL d   1      -1.512  -0.715   1.937  0.00  0.00    -0.060 I 
ATOM     10  F2  UNL d   1      -0.565  -3.248   3.647  0.00  0.00    -0.096 F 
ATOM     11  F3  UNL d   1       1.715  -3.739   5.025  0.00  0.00    -0.097 F 
ATOM     12  F4  UNL d   1       3.705  -1.876   5.107  0.00  0.00    -0.092 F 
ENDROOT
TORSDOF 0
ENDMDL
