MODEL 1
REMARK minimizedAffinity 17.9501228
REMARK minimizedRMSD -1
REMARK  0 active torsions:
REMARK  status: ('A' for Active; 'I' for Inactive)
ROOT
ATOM      1  C   UNL d   1       0.822  -4.567   5.043  0.00  0.00     0.124 A 
ATOM      2  C1  UNL d   1      -0.528  -4.261   4.940  0.00  0.00     0.062 A 
ATOM      3  C2  UNL d   1      -0.976  -3.395   3.947  0.00  0.00     0.162 A 
ATOM      4  C3  UNL d   1      -0.073  -2.828   3.047  0.00  0.00    -0.034 A 
ATOM      5  C4  UNL d   1       1.283  -3.140   3.157  0.00  0.00     0.162 A 
ATOM      6  C5  UNL d   1       1.726  -4.006   4.151  0.00  0.00     0.062 A 
ATOM      7  F   UNL d   1       3.031  -4.300   4.249  0.00  0.00    -0.097 F 
ATOM      8  F1  UNL d   1       2.178  -2.613   2.308  0.00  0.00    -0.096 F 
ATOM      9  I   UNL d   1      -0.739  -1.533   1.561  0.00  0.00    -0.060 I 
ATOM     10  F2  UNL d   1      -2.286  -3.117   3.872  0.00  0.00    -0.096 F 
ATOM     11  F3  UNL d   1      -1.403  -4.800   5.801  0.00  0.00    -0.097 F 
ATOM     12  F4  UNL d   1       1.251  -5.399   6.000  0.00  0.00    -0.092 F 
ENDROOT
TORSDOF 0
ENDMDL
