MODEL 1
REMARK minimizedAffinity 26.6280785
REMARK minimizedRMSD -1
REMARK  0 active torsions:
REMARK  status: ('A' for Active; 'I' for Inactive)
ROOT
ATOM      1  C   UNL d   1       3.177  -0.294  -3.431  0.00  0.00     0.124 A 
ATOM      2  C1  UNL d   1       3.184  -1.391  -2.580  0.00  0.00     0.062 A 
ATOM      3  C2  UNL d   1       2.006  -2.088  -2.327  0.00  0.00     0.162 A 
ATOM      4  C3  UNL d   1       0.811  -1.692  -2.927  0.00  0.00    -0.034 A 
ATOM      5  C4  UNL d   1       0.812  -0.587  -3.781  0.00  0.00     0.162 A 
ATOM      6  C5  UNL d   1       1.992   0.106  -4.031  0.00  0.00     0.062 A 
ATOM      7  F   UNL d   1       1.983   1.165  -4.853  0.00  0.00    -0.097 F 
ATOM      8  F1  UNL d   1      -0.320  -0.179  -4.375  0.00  0.00    -0.096 F 
ATOM      9  I   UNL d   1      -0.952  -2.732  -2.552  0.00  0.00    -0.060 I 
ATOM     10  F2  UNL d   1       2.042  -3.144  -1.500  0.00  0.00    -0.096 F 
ATOM     11  F3  UNL d   1       4.328  -1.779  -1.998  0.00  0.00    -0.097 F 
ATOM     12  F4  UNL d   1       4.312   0.376  -3.671  0.00  0.00    -0.092 F 
ENDROOT
TORSDOF 0
ENDMDL
