MODEL 1
REMARK minimizedAffinity 14.6119356
REMARK minimizedRMSD -1
REMARK  0 active torsions:
REMARK  status: ('A' for Active; 'I' for Inactive)
ROOT
ATOM      1  C   UNL d   1       1.415  -2.040   3.551  0.00  0.00     0.124 A 
ATOM      2  C1  UNL d   1       2.251  -0.937   3.648  0.00  0.00     0.062 A 
ATOM      3  C2  UNL d   1       3.503  -1.058   4.246  0.00  0.00     0.162 A 
ATOM      4  C3  UNL d   1       3.926  -2.288   4.750  0.00  0.00    -0.034 A 
ATOM      5  C4  UNL d   1       3.078  -3.392   4.649  0.00  0.00     0.162 A 
ATOM      6  C5  UNL d   1       1.829  -3.266   4.051  0.00  0.00     0.062 A 
ATOM      7  F   UNL d   1       1.022  -4.333   3.958  0.00  0.00    -0.097 F 
ATOM      8  F1  UNL d   1       3.453  -4.590   5.123  0.00  0.00    -0.096 F 
ATOM      9  I   UNL d   1       5.796  -2.473   5.644  0.00  0.00    -0.060 I 
ATOM     10  F2  UNL d   1       4.290   0.025   4.326  0.00  0.00    -0.096 F 
ATOM     11  F3  UNL d   1       1.853   0.250   3.167  0.00  0.00    -0.097 F 
ATOM     12  F4  UNL d   1       0.211  -1.920   2.976  0.00  0.00    -0.092 F 
ENDROOT
TORSDOF 0
ENDMDL
