MODEL 1
REMARK minimizedAffinity 26.9615879
REMARK minimizedRMSD -1
REMARK  0 active torsions:
REMARK  status: ('A' for Active; 'I' for Inactive)
ROOT
ATOM      1  C   UNL d   1       2.976  -1.659   4.070  0.00  0.00     0.124 A 
ATOM      2  C1  UNL d   1       4.229  -1.628   4.667  0.00  0.00     0.062 A 
ATOM      3  C2  UNL d   1       4.777  -2.789   5.205  0.00  0.00     0.162 A 
ATOM      4  C3  UNL d   1       4.073  -3.992   5.147  0.00  0.00    -0.034 A 
ATOM      5  C4  UNL d   1       2.814  -4.015   4.546  0.00  0.00     0.162 A 
ATOM      6  C5  UNL d   1       2.270  -2.852   4.009  0.00  0.00     0.062 A 
ATOM      7  F   UNL d   1       1.060  -2.885   3.433  0.00  0.00    -0.097 F 
ATOM      8  F1  UNL d   1       2.110  -5.155   4.473  0.00  0.00    -0.096 F 
ATOM      9  I   UNL d   1       4.889  -5.729   5.951  0.00  0.00    -0.060 I 
ATOM     10  F2  UNL d   1       5.989  -2.729   5.777  0.00  0.00    -0.096 F 
ATOM     11  F3  UNL d   1       4.912  -0.476   4.728  0.00  0.00    -0.097 F 
ATOM     12  F4  UNL d   1       2.451  -0.541   3.554  0.00  0.00    -0.092 F 
ENDROOT
TORSDOF 0
ENDMDL
