MODEL 1
REMARK minimizedAffinity 0.19098486
REMARK minimizedRMSD -1
REMARK  1 active torsions:
REMARK  status: ('A' for Active; 'I' for Inactive)
REMARK    1  A    between atoms: N_2  and  C1_3 
ROOT
ATOM      1  C1  UNL d   1       0.763  -0.062   0.499  0.00  0.00     0.143 A 
ATOM      2  C2  UNL d   1       1.113  -1.242   1.163  0.00  0.00    -0.057 A 
ATOM      3  C3  UNL d   1       0.138  -2.082   1.715  0.00  0.00     0.033 A 
ATOM      4  C4  UNL d   1      -1.208  -1.740   1.636  0.00  0.00    -0.042 A 
ATOM      5  C5  UNL d   1      -1.578  -0.559   1.003  0.00  0.00     0.033 A 
ATOM      6  C6  UNL d   1      -0.599   0.272   0.448  0.00  0.00    -0.057 A 
ENDROOT
BRANCH   1   7
ATOM      7  N   UNL d   1       1.691   0.864   0.016  0.00  0.00    -0.732 N 
ATOM      8  C   UNL d   1       2.108   1.984   0.832  0.00  0.00     0.284 C 
ATOM      9  H3  UNL d   1       2.448   0.422  -0.501  0.00  0.00     0.395 HD
ENDBRANCH   1   7
TORSDOF 1
ENDMDL
