MODEL 1
REMARK minimizedAffinity -1.24415541
REMARK minimizedRMSD -1
REMARK  1 active torsions:
REMARK  status: ('A' for Active; 'I' for Inactive)
REMARK    1  A    between atoms: N_2  and  C1_3 
ROOT
ATOM      1  C1  UNL d   1       1.290   1.012   0.312  0.00  0.00     0.143 A 
ATOM      2  C2  UNL d   1       0.389   1.212  -0.739  0.00  0.00    -0.057 A 
ATOM      3  C3  UNL d   1      -0.613   0.277  -1.025  0.00  0.00     0.033 A 
ATOM      4  C4  UNL d   1      -0.713  -0.894  -0.280  0.00  0.00    -0.042 A 
ATOM      5  C5  UNL d   1       0.188  -1.125   0.754  0.00  0.00     0.033 A 
ATOM      6  C6  UNL d   1       1.181  -0.184   1.039  0.00  0.00    -0.057 A 
ENDROOT
BRANCH   1   7
ATOM      7  N   UNL d   1       2.368   1.858   0.584  0.00  0.00    -0.732 N 
ATOM      8  C   UNL d   1       2.382   3.218   0.090  0.00  0.00     0.284 C 
ATOM      9  H3  UNL d   1       2.709   1.758   1.537  0.00  0.00     0.395 HD
ENDBRANCH   1   7
TORSDOF 1
ENDMDL
