MODEL 1
REMARK minimizedAffinity -4.60705853
REMARK minimizedRMSD -1
REMARK  1 active torsions:
REMARK  status: ('A' for Active; 'I' for Inactive)
REMARK    1  A    between atoms: N_2  and  C1_3 
ROOT
ATOM      1  C1  UNL d   1      -0.025   0.312  -0.186  0.00  0.00     0.143 A 
ATOM      2  C2  UNL d   1      -0.392  -0.151  -1.455  0.00  0.00    -0.057 A 
ATOM      3  C3  UNL d   1      -1.727  -0.434  -1.766  0.00  0.00     0.033 A 
ATOM      4  C4  UNL d   1      -2.719  -0.286  -0.802  0.00  0.00    -0.042 A 
ATOM      5  C5  UNL d   1      -2.374   0.149   0.473  0.00  0.00     0.033 A 
ATOM      6  C6  UNL d   1      -1.039   0.436   0.776  0.00  0.00    -0.057 A 
ENDROOT
BRANCH   1   7
ATOM      7  N   UNL d   1       1.298   0.516   0.214  0.00  0.00    -0.732 N 
ATOM      8  C   UNL d   1       1.718   1.795   0.745  0.00  0.00     0.284 C 
ATOM      9  H3  UNL d   1       1.682  -0.286   0.709  0.00  0.00     0.395 HD
ENDBRANCH   1   7
TORSDOF 1
ENDMDL
