MODEL 1
REMARK minimizedAffinity -4.72323799
REMARK minimizedRMSD -1
REMARK  1 active torsions:
REMARK  status: ('A' for Active; 'I' for Inactive)
REMARK    1  A    between atoms: N_2  and  C1_3 
ROOT
ATOM      1  C1  UNL d   1       0.120   0.214  -0.047  0.00  0.00     0.143 A 
ATOM      2  C2  UNL d   1      -0.649  -0.469   0.901  0.00  0.00    -0.057 A 
ATOM      3  C3  UNL d   1      -1.982  -0.812   0.644  0.00  0.00     0.033 A 
ATOM      4  C4  UNL d   1      -2.579  -0.451  -0.559  0.00  0.00    -0.042 A 
ATOM      5  C5  UNL d   1      -1.842   0.250  -1.506  0.00  0.00     0.033 A 
ATOM      6  C6  UNL d   1      -0.509   0.584  -1.246  0.00  0.00    -0.057 A 
ENDROOT
BRANCH   1   7
ATOM      7  N   UNL d   1       1.420   0.670   0.188  0.00  0.00    -0.732 N 
ATOM      8  C   UNL d   1       1.658   1.808   1.051  0.00  0.00     0.284 C 
ATOM      9  H3  UNL d   1       2.082  -0.092   0.314  0.00  0.00     0.395 HD
ENDBRANCH   1   7
TORSDOF 1
ENDMDL
