MODEL 1
REMARK minimizedAffinity -3.74635339
REMARK minimizedRMSD -1
REMARK  1 active torsions:
REMARK  status: ('A' for Active; 'I' for Inactive)
REMARK    1  A    between atoms: N_2  and  C1_3 
ROOT
ATOM      1  C1  UNL d   1      -0.501  -0.020  -0.210  0.00  0.00     0.143 A 
ATOM      2  C2  UNL d   1       0.729  -0.419  -0.743  0.00  0.00    -0.057 A 
ATOM      3  C3  UNL d   1       1.936  -0.066  -0.127  0.00  0.00     0.033 A 
ATOM      4  C4  UNL d   1       1.935   0.718   1.021  0.00  0.00    -0.042 A 
ATOM      5  C5  UNL d   1       0.724   1.147   1.555  0.00  0.00     0.033 A 
ATOM      6  C6  UNL d   1      -0.478   0.786   0.939  0.00  0.00    -0.057 A 
ENDROOT
BRANCH   1   7
ATOM      7  N   UNL d   1      -1.731  -0.255  -0.830  0.00  0.00    -0.732 N 
ATOM      8  C   UNL d   1      -2.951  -0.305  -0.053  0.00  0.00     0.284 C 
ATOM      9  H3  UNL d   1      -1.821   0.241  -1.714  0.00  0.00     0.395 HD
ENDBRANCH   1   7
TORSDOF 1
ENDMDL
