MODEL 1
REMARK minimizedAffinity -4.29394245
REMARK minimizedRMSD -1
REMARK  1 active torsions:
REMARK  status: ('A' for Active; 'I' for Inactive)
REMARK    1  A    between atoms: N_2  and  C1_3 
ROOT
ATOM      1  C1  UNL d   1       0.961   0.217   0.586  0.00  0.00     0.143 A 
ATOM      2  C2  UNL d   1       0.874  -1.134   0.941  0.00  0.00    -0.057 A 
ATOM      3  C3  UNL d   1      -0.365  -1.748   1.162  0.00  0.00     0.033 A 
ATOM      4  C4  UNL d   1      -1.541  -1.012   1.061  0.00  0.00    -0.042 A 
ATOM      5  C5  UNL d   1      -1.477   0.338   0.734  0.00  0.00     0.033 A 
ATOM      6  C6  UNL d   1      -0.237   0.944   0.507  0.00  0.00    -0.057 A 
ENDROOT
BRANCH   1   7
ATOM      7  N   UNL d   1       2.167   0.908   0.450  0.00  0.00    -0.732 N 
ATOM      8  C   UNL d   1       2.566   1.896   1.430  0.00  0.00     0.284 C 
ATOM      9  H3  UNL d   1       2.925   0.309   0.131  0.00  0.00     0.395 HD
ENDBRANCH   1   7
TORSDOF 1
ENDMDL
