MODEL 1
REMARK minimizedAffinity -3.62800455
REMARK minimizedRMSD -1
REMARK  1 active torsions:
REMARK  status: ('A' for Active; 'I' for Inactive)
REMARK    1  A    between atoms: N_2  and  C1_3 
ROOT
ATOM      1  C1  UNL d   1       0.894   0.068   0.353  0.00  0.00     0.143 A 
ATOM      2  C2  UNL d   1       0.956  -1.074   1.159  0.00  0.00    -0.057 A 
ATOM      3  C3  UNL d   1      -0.207  -1.720   1.593  0.00  0.00     0.033 A 
ATOM      4  C4  UNL d   1      -1.458  -1.218   1.251  0.00  0.00    -0.042 A 
ATOM      5  C5  UNL d   1      -1.544  -0.070   0.472  0.00  0.00     0.033 A 
ATOM      6  C6  UNL d   1      -0.379   0.567   0.036  0.00  0.00    -0.057 A 
ENDROOT
BRANCH   1   7
ATOM      7  N   UNL d   1       2.013   0.812  -0.029  0.00  0.00    -0.732 N 
ATOM      8  C   UNL d   1       2.533   1.855   0.830  0.00  0.00     0.284 C 
ATOM      9  H3  UNL d   1       2.730   0.238  -0.467  0.00  0.00     0.395 HD
ENDBRANCH   1   7
TORSDOF 1
ENDMDL
