MODEL 1
REMARK minimizedAffinity 4.58225679
REMARK minimizedRMSD -1
REMARK  0 active torsions:
REMARK  status: ('A' for Active; 'I' for Inactive)
ROOT
ATOM      1  C   UNL d   1       0.546  -1.360   3.550  0.00  0.00     0.023 A 
ATOM      2  C1  UNL d   1      -0.452  -1.169   2.593  0.00  0.00     0.003 A 
ATOM      3  C2  UNL d   1      -0.807   0.123   2.201  0.00  0.00     0.048 A 
ATOM      4  C3  UNL d   1      -0.160   1.220   2.768  0.00  0.00     0.023 A 
ATOM      5  C4  UNL d   1       0.839   1.035   3.725  0.00  0.00     0.048 A 
ATOM      6  C5  UNL d   1       1.190  -0.259   4.115  0.00  0.00     0.003 A 
ATOM      7  I   UNL d   1      -0.687   3.144   2.185  0.00  0.00    -0.146 I 
ENDROOT
TORSDOF 0
ENDMDL
