MODEL 1
REMARK minimizedAffinity 7.70091248
REMARK minimizedRMSD -1
REMARK  0 active torsions:
REMARK  status: ('A' for Active; 'I' for Inactive)
ROOT
ATOM      1  C   UNL d   1       1.443  -0.028   3.558  0.00  0.00     0.023 A 
ATOM      2  C1  UNL d   1       0.533   0.848   2.967  0.00  0.00     0.003 A 
ATOM      3  C2  UNL d   1      -0.771   0.428   2.700  0.00  0.00     0.048 A 
ATOM      4  C3  UNL d   1      -1.160  -0.871   3.028  0.00  0.00     0.023 A 
ATOM      5  C4  UNL d   1      -0.253  -1.751   3.620  0.00  0.00     0.048 A 
ATOM      6  C5  UNL d   1       1.051  -1.326   3.884  0.00  0.00     0.003 A 
ATOM      7  I   UNL d   1      -3.101  -1.500   2.631  0.00  0.00    -0.146 I 
ENDROOT
TORSDOF 0
ENDMDL
