MODEL 1
REMARK minimizedAffinity 5.96763897
REMARK minimizedRMSD -1
REMARK  0 active torsions:
REMARK  status: ('A' for Active; 'I' for Inactive)
ROOT
ATOM      1  C   UNL d   1       0.406  -1.237   1.925  0.00  0.00     0.023 A 
ATOM      2  C1  UNL d   1       1.069  -1.608   3.096  0.00  0.00     0.003 A 
ATOM      3  C2  UNL d   1       1.093  -0.741   4.190  0.00  0.00     0.048 A 
ATOM      4  C3  UNL d   1       0.452   0.494   4.108  0.00  0.00     0.023 A 
ATOM      5  C4  UNL d   1      -0.213   0.869   2.940  0.00  0.00     0.048 A 
ATOM      6  C5  UNL d   1      -0.234   0.000   1.848  0.00  0.00     0.003 A 
ATOM      7  I   UNL d   1       0.486   1.786   5.737  0.00  0.00    -0.146 I 
ENDROOT
TORSDOF 0
ENDMDL
