MODEL 1
REMARK minimizedAffinity 12.3916454
REMARK minimizedRMSD -1
REMARK  0 active torsions:
REMARK  status: ('A' for Active; 'I' for Inactive)
ROOT
ATOM      1  C   UNL d   1       2.547  -4.114  -5.672  0.00  0.00     0.023 A 
ATOM      2  C1  UNL d   1       3.087  -3.155  -4.815  0.00  0.00     0.003 A 
ATOM      3  C2  UNL d   1       2.272  -2.153  -4.283  0.00  0.00     0.048 A 
ATOM      4  C3  UNL d   1       0.917  -2.117  -4.612  0.00  0.00     0.023 A 
ATOM      5  C4  UNL d   1       0.373  -3.075  -5.469  0.00  0.00     0.048 A 
ATOM      6  C5  UNL d   1       1.192  -4.074  -5.999  0.00  0.00     0.003 A 
ATOM      7  I   UNL d   1      -0.298  -0.628  -3.822  0.00  0.00    -0.146 I 
ENDROOT
TORSDOF 0
ENDMDL
