MODEL 1
REMARK minimizedAffinity 7.25814009
REMARK minimizedRMSD -1
REMARK  0 active torsions:
REMARK  status: ('A' for Active; 'I' for Inactive)
ROOT
ATOM      1  C   UNL d   1      -0.089  -0.286  -3.120  0.00  0.00     0.023 A 
ATOM      2  C1  UNL d   1      -1.076  -1.120  -2.594  0.00  0.00     0.003 A 
ATOM      3  C2  UNL d   1      -1.487  -2.250  -3.303  0.00  0.00     0.048 A 
ATOM      4  C3  UNL d   1      -0.906  -2.542  -4.536  0.00  0.00     0.023 A 
ATOM      5  C4  UNL d   1       0.082  -1.711  -5.066  0.00  0.00     0.048 A 
ATOM      6  C5  UNL d   1       0.490  -0.581  -4.355  0.00  0.00     0.003 A 
ATOM      7  I   UNL d   1      -1.516  -4.225  -5.593  0.00  0.00    -0.146 I 
ENDROOT
TORSDOF 0
ENDMDL
