MODEL 1
REMARK minimizedAffinity 7.61023283
REMARK minimizedRMSD -1
REMARK  0 active torsions:
REMARK  status: ('A' for Active; 'I' for Inactive)
ROOT
ATOM      1  C   UNL d   1      -1.874  -2.708  -1.991  0.00  0.00     0.023 A 
ATOM      2  C1  UNL d   1      -1.038  -1.882  -1.240  0.00  0.00     0.003 A 
ATOM      3  C2  UNL d   1      -0.079  -1.092  -1.877  0.00  0.00     0.048 A 
ATOM      4  C3  UNL d   1       0.039  -1.133  -3.266  0.00  0.00     0.023 A 
ATOM      5  C4  UNL d   1      -0.796  -1.958  -4.022  0.00  0.00     0.048 A 
ATOM      6  C5  UNL d   1      -1.753  -2.746  -3.380  0.00  0.00     0.003 A 
ATOM      7  I   UNL d   1       1.465   0.042  -4.217  0.00  0.00    -0.146 I 
ENDROOT
TORSDOF 0
ENDMDL
