MODEL 1
REMARK minimizedAffinity 14.0439558
REMARK minimizedRMSD -1
REMARK  0 active torsions:
REMARK  status: ('A' for Active; 'I' for Inactive)
ROOT
ATOM      1  C   UNL d   1       1.268   0.020   3.029  0.00  0.00     0.023 A 
ATOM      2  C1  UNL d   1       0.120   0.785   2.825  0.00  0.00     0.003 A 
ATOM      3  C2  UNL d   1      -1.081   0.165   2.474  0.00  0.00     0.048 A 
ATOM      4  C3  UNL d   1      -1.127  -1.221   2.329  0.00  0.00     0.023 A 
ATOM      5  C4  UNL d   1       0.019  -1.991   2.533  0.00  0.00     0.048 A 
ATOM      6  C5  UNL d   1       1.218  -1.367   2.883  0.00  0.00     0.003 A 
ATOM      7  I   UNL d   1      -2.913  -2.146   1.806  0.00  0.00    -0.146 I 
ENDROOT
TORSDOF 0
ENDMDL
