MODEL 1
REMARK minimizedAffinity 15.7165031
REMARK minimizedRMSD -1
REMARK  2 active torsions:
REMARK  status: ('A' for Active; 'I' for Inactive)
REMARK    1  A    between atoms: C2'_3  and  C1'_4 
REMARK    2  A    between atoms: C1'_4  and  C1_5 
ROOT
ATOM      1  C1  I4B d   1      -0.145   0.024   0.704  0.00  0.00    -0.075 A 
ATOM      2  C2  I4B d   1      -0.750  -0.161  -0.515  0.00  0.00     0.003 A 
ATOM      3  C3  I4B d   1      -2.145   0.033  -0.654  0.00  0.00     0.002 A 
ATOM      4  C4  I4B d   1      -2.900   0.359   0.454  0.00  0.00    -0.004 A 
ATOM      5  C5  I4B d   1      -2.282   0.568   1.684  0.00  0.00     0.002 A 
ATOM      6  C6  I4B d   1      -0.893   0.412   1.807  0.00  0.00     0.003 A 
ENDROOT
BRANCH   1   7
ATOM      7  C1' I4B d   1       1.326  -0.221   0.822  0.00  0.00     0.060 C 
BRANCH   7   8
ATOM      8  C2' I4B d   1       2.048   0.980   0.245  0.00  0.00    -0.013 C 
ATOM      9  C4' I4B d   1       2.870   1.679   1.295  0.00  0.00     0.013 C 
ATOM     10  C3' I4B d   1       2.907   0.503  -0.888  0.00  0.00     0.013 C 
ENDBRANCH   7   8
ENDBRANCH   1   7
TORSDOF 2
ENDMDL
