MODEL 1
REMARK minimizedAffinity 8.53349972
REMARK minimizedRMSD -1
REMARK  2 active torsions:
REMARK  status: ('A' for Active; 'I' for Inactive)
REMARK    1  A    between atoms: C2'_3  and  C1'_4 
REMARK    2  A    between atoms: C1'_4  and  C1_5 
ROOT
ATOM      1  C1  I4B d   1      -1.271  -0.060   2.135  0.00  0.00    -0.075 A 
ATOM      2  C2  I4B d   1       0.020   0.042   1.680  0.00  0.00     0.003 A 
ATOM      3  C3  I4B d   1       1.091  -0.469   2.453  0.00  0.00     0.002 A 
ATOM      4  C4  I4B d   1       0.832  -1.024   3.689  0.00  0.00    -0.004 A 
ATOM      5  C5  I4B d   1      -0.479  -1.148   4.139  0.00  0.00     0.002 A 
ATOM      6  C6  I4B d   1      -1.539  -0.674   3.352  0.00  0.00     0.003 A 
ENDROOT
BRANCH   1   7
ATOM      7  C1' I4B d   1      -2.374   0.520   1.308  0.00  0.00     0.060 C 
BRANCH   7   8
ATOM      8  C2' I4B d   1      -2.014   0.328  -0.151  0.00  0.00    -0.013 C 
ATOM      9  C4' I4B d   1      -2.303  -1.079  -0.603  0.00  0.00     0.013 C 
ATOM     10  C3' I4B d   1      -2.794   1.325  -0.955  0.00  0.00     0.013 C 
ENDBRANCH   7   8
ENDBRANCH   1   7
TORSDOF 2
ENDMDL
