MODEL 1
REMARK minimizedAffinity 10.9983063
REMARK minimizedRMSD -1
REMARK  2 active torsions:
REMARK  status: ('A' for Active; 'I' for Inactive)
REMARK    1  A    between atoms: C2'_3  and  C1'_4 
REMARK    2  A    between atoms: C1'_4  and  C1_5 
ROOT
ATOM      1  C1  I4B d   1       0.539  -0.275   1.792  0.00  0.00    -0.075 A 
ATOM      2  C2  I4B d   1      -0.267   0.333   0.862  0.00  0.00     0.003 A 
ATOM      3  C3  I4B d   1      -1.639   0.548   1.139  0.00  0.00     0.002 A 
ATOM      4  C4  I4B d   1      -2.170   0.097   2.330  0.00  0.00    -0.004 A 
ATOM      5  C5  I4B d   1      -1.347  -0.499   3.281  0.00  0.00     0.002 A 
ATOM      6  C6  I4B d   1       0.019  -0.675   3.016  0.00  0.00     0.003 A 
ENDROOT
BRANCH   1   7
ATOM      7  C1' I4B d   1       1.976  -0.516   1.454  0.00  0.00     0.060 C 
BRANCH   7   8
ATOM      8  C2' I4B d   1       2.304   0.288   0.212  0.00  0.00    -0.013 C 
ATOM      9  C4' I4B d   1       3.022   1.565   0.564  0.00  0.00     0.013 C 
ATOM     10  C3' I4B d   1       3.139  -0.572  -0.689  0.00  0.00     0.013 C 
ENDBRANCH   7   8
ENDBRANCH   1   7
TORSDOF 2
ENDMDL
