MODEL 1
REMARK minimizedAffinity 6.5446167
REMARK minimizedRMSD -1
REMARK  2 active torsions:
REMARK  status: ('A' for Active; 'I' for Inactive)
REMARK    1  A    between atoms: C2'_3  and  C1'_4 
REMARK    2  A    between atoms: C1'_4  and  C1_5 
ROOT
ATOM      1  C1  I4B d   1       4.120   3.613  -0.146  0.00  0.00    -0.075 A 
ATOM      2  C2  I4B d   1       4.563   4.817   0.342  0.00  0.00     0.003 A 
ATOM      3  C3  I4B d   1       4.495   5.092   1.730  0.00  0.00     0.002 A 
ATOM      4  C4  I4B d   1       3.936   4.160   2.581  0.00  0.00    -0.004 A 
ATOM      5  C5  I4B d   1       3.509   2.931   2.087  0.00  0.00     0.002 A 
ATOM      6  C6  I4B d   1       3.613   2.650   0.717  0.00  0.00     0.003 A 
ENDROOT
BRANCH   1   7
ATOM      7  C1' I4B d   1       4.176   3.369  -1.621  0.00  0.00     0.060 C 
BRANCH   7   8
ATOM      8  C2' I4B d   1       3.459   2.065  -1.906  0.00  0.00    -0.013 C 
ATOM      9  C4' I4B d   1       2.664   2.147  -3.182  0.00  0.00     0.013 C 
ATOM     10  C3' I4B d   1       4.489   0.977  -1.978  0.00  0.00     0.013 C 
ENDBRANCH   7   8
ENDBRANCH   1   7
TORSDOF 2
ENDMDL
