MODEL 1
REMARK minimizedAffinity 0.299239308
REMARK minimizedRMSD -1
REMARK  2 active torsions:
REMARK  status: ('A' for Active; 'I' for Inactive)
REMARK    1  A    between atoms: C2'_3  and  C1'_4 
REMARK    2  A    between atoms: C1'_4  and  C1_5 
ROOT
ATOM      1  C1  I4B d   1      -2.615  -0.653  -0.227  0.00  0.00    -0.075 A 
ATOM      2  C2  I4B d   1      -1.536  -0.967  -1.014  0.00  0.00     0.003 A 
ATOM      3  C3  I4B d   1      -0.219  -0.776  -0.529  0.00  0.00     0.002 A 
ATOM      4  C4  I4B d   1      -0.029  -0.224   0.721  0.00  0.00    -0.004 A 
ATOM      5  C5  I4B d   1      -1.125   0.073   1.527  0.00  0.00     0.002 A 
ATOM      6  C6  I4B d   1      -2.426  -0.154   1.056  0.00  0.00     0.003 A 
ENDROOT
BRANCH   1   7
ATOM      7  C1' I4B d   1      -3.991  -0.837  -0.783  0.00  0.00     0.060 C 
BRANCH   7   8
ATOM      8  C2' I4B d   1      -4.109  -2.266  -1.273  0.00  0.00    -0.013 C 
ATOM      9  C4' I4B d   1      -4.195  -3.232  -0.121  0.00  0.00     0.013 C 
ATOM     10  C3' I4B d   1      -5.324  -2.357  -2.147  0.00  0.00     0.013 C 
ENDBRANCH   7   8
ENDBRANCH   1   7
TORSDOF 2
ENDMDL
