MODEL 1
REMARK minimizedAffinity 2.42465806
REMARK minimizedRMSD -1
REMARK  2 active torsions:
REMARK  status: ('A' for Active; 'I' for Inactive)
REMARK    1  A    between atoms: C2'_3  and  C1'_4 
REMARK    2  A    between atoms: C1'_4  and  C1_5 
ROOT
ATOM      1  C1  I4B d   1       0.393   0.915  -1.613  0.00  0.00    -0.075 A 
ATOM      2  C2  I4B d   1      -0.223   0.667  -2.813  0.00  0.00     0.003 A 
ATOM      3  C3  I4B d   1       0.549   0.428  -3.976  0.00  0.00     0.002 A 
ATOM      4  C4  I4B d   1       1.926   0.497  -3.902  0.00  0.00    -0.004 A 
ATOM      5  C5  I4B d   1       2.550   0.727  -2.679  0.00  0.00     0.002 A 
ATOM      6  C6  I4B d   1       1.779   0.925  -1.525  0.00  0.00     0.003 A 
ENDROOT
BRANCH   1   7
ATOM      7  C1' I4B d   1      -0.454   1.196  -0.412  0.00  0.00     0.060 C 
BRANCH   7   8
ATOM      8  C2' I4B d   1      -1.141  -0.095  -0.014  0.00  0.00    -0.013 C 
ATOM      9  C4' I4B d   1      -0.373  -0.810   1.066  0.00  0.00     0.013 C 
ATOM     10  C3' I4B d   1      -2.530   0.241   0.441  0.00  0.00     0.013 C 
ENDBRANCH   7   8
ENDBRANCH   1   7
TORSDOF 2
ENDMDL
