MODEL 1
REMARK minimizedAffinity -1.53534329
REMARK minimizedRMSD -1
REMARK  2 active torsions:
REMARK  status: ('A' for Active; 'I' for Inactive)
REMARK    1  A    between atoms: C2'_3  and  C1'_4 
REMARK    2  A    between atoms: C1'_4  and  C1_5 
ROOT
ATOM      1  C1  I4B d   1       3.551   4.576   2.893  0.00  0.00    -0.075 A 
ATOM      2  C2  I4B d   1       4.124   5.805   3.103  0.00  0.00     0.003 A 
ATOM      3  C3  I4B d   1       5.179   5.949   4.037  0.00  0.00     0.002 A 
ATOM      4  C4  I4B d   1       5.592   4.856   4.770  0.00  0.00    -0.004 A 
ATOM      5  C5  I4B d   1       5.025   3.605   4.539  0.00  0.00     0.002 A 
ATOM      6  C6  I4B d   1       4.007   3.462   3.586  0.00  0.00     0.003 A 
ENDROOT
BRANCH   1   7
ATOM      7  C1' I4B d   1       2.417   4.465   1.923  0.00  0.00     0.060 C 
BRANCH   7   8
ATOM      8  C2' I4B d   1       2.190   5.834   1.313  0.00  0.00    -0.013 C 
ATOM      9  C4' I4B d   1       2.962   5.993   0.030  0.00  0.00     0.013 C 
ATOM     10  C3' I4B d   1       0.718   6.000   1.084  0.00  0.00     0.013 C 
ENDBRANCH   7   8
ENDBRANCH   1   7
TORSDOF 2
ENDMDL
