MODEL 1
REMARK minimizedAffinity 0.27009517
REMARK minimizedRMSD -1
REMARK  0 active torsions:
REMARK  status: ('A' for Active; 'I' for Inactive)
ROOT
ATOM      1  C   UNL d   1      -1.487  -2.715   1.235  0.00  0.00     0.077 C 
ATOM      2  C1  UNL d   1      -0.855  -1.835   0.199  0.00  0.00    -0.074 A 
ATOM      3  C2  UNL d   1      -0.642  -2.297  -1.104  0.00  0.00    -0.005 A 
ATOM      4  C3  UNL d   1      -0.061  -1.463  -2.060  0.00  0.00     0.006 A 
ATOM      5  C4  UNL d   1       0.313  -0.162  -1.723  0.00  0.00    -0.005 A 
ATOM      6  C5  UNL d   1       0.107   0.318  -0.426  0.00  0.00    -0.074 A 
ATOM      7  C6  UNL d   1       0.494   1.717  -0.050  0.00  0.00     0.077 C 
ATOM      8  C7  UNL d   1      -0.484  -0.523   0.527  0.00  0.00    -0.001 A 
ENDROOT
TORSDOF 0
ENDMDL
