MODEL 1
REMARK minimizedAffinity -0.250984699
REMARK minimizedRMSD -1
REMARK  0 active torsions:
REMARK  status: ('A' for Active; 'I' for Inactive)
ROOT
ATOM      1  C   UNL d   1       0.181  -0.114  -2.505  0.00  0.00     0.077 C 
ATOM      2  C1  UNL d   1      -0.009   0.374  -1.099  0.00  0.00    -0.074 A 
ATOM      3  C2  UNL d   1      -0.927  -0.241  -0.242  0.00  0.00    -0.005 A 
ATOM      4  C3  UNL d   1      -1.086   0.218   1.065  0.00  0.00     0.006 A 
ATOM      5  C4  UNL d   1      -0.328   1.295   1.528  0.00  0.00    -0.005 A 
ATOM      6  C5  UNL d   1       0.595   1.922   0.686  0.00  0.00    -0.074 A 
ATOM      7  C6  UNL d   1       1.424   3.074   1.171  0.00  0.00     0.077 C 
ATOM      8  C7  UNL d   1       0.754   1.450  -0.624  0.00  0.00    -0.001 A 
ENDROOT
TORSDOF 0
ENDMDL
