MODEL 1
REMARK minimizedAffinity 1.8487395
REMARK minimizedRMSD -1
REMARK  0 active torsions:
REMARK  status: ('A' for Active; 'I' for Inactive)
ROOT
ATOM      1  C   UNL d   1      -2.038  -0.353   1.358  0.00  0.00     0.077 C 
ATOM      2  C1  UNL d   1      -0.839   0.094   0.576  0.00  0.00    -0.074 A 
ATOM      3  C2  UNL d   1       0.143   0.899   1.163  0.00  0.00    -0.005 A 
ATOM      4  C3  UNL d   1       1.257   1.299   0.425  0.00  0.00     0.006 A 
ATOM      5  C4  UNL d   1       1.401   0.899  -0.904  0.00  0.00    -0.005 A 
ATOM      6  C5  UNL d   1       0.430   0.094  -1.507  0.00  0.00    -0.074 A 
ATOM      7  C6  UNL d   1       0.574  -0.353  -2.932  0.00  0.00     0.077 C 
ATOM      8  C7  UNL d   1      -0.684  -0.310  -0.758  0.00  0.00    -0.001 A 
ENDROOT
TORSDOF 0
ENDMDL
