MODEL 1
REMARK minimizedAffinity -1.85220587
REMARK minimizedRMSD -1
REMARK  0 active torsions:
REMARK  status: ('A' for Active; 'I' for Inactive)
ROOT
ATOM      1  C   UNL d   1      -0.224   0.481  -0.245  0.00  0.00     0.077 C 
ATOM      2  C1  UNL d   1       0.846   1.446   0.171  0.00  0.00    -0.074 A 
ATOM      3  C2  UNL d   1       2.107   1.425  -0.433  0.00  0.00    -0.005 A 
ATOM      4  C3  UNL d   1       3.089   2.336  -0.042  0.00  0.00     0.006 A 
ATOM      5  C4  UNL d   1       2.820   3.274   0.954  0.00  0.00    -0.005 A 
ATOM      6  C5  UNL d   1       1.565   3.311   1.569  0.00  0.00    -0.074 A 
ATOM      7  C6  UNL d   1       1.256   4.320   2.635  0.00  0.00     0.077 C 
ATOM      8  C7  UNL d   1       0.581   2.398   1.166  0.00  0.00    -0.001 A 
ENDROOT
TORSDOF 0
ENDMDL
