MODEL 1
REMARK minimizedAffinity -0.215380192
REMARK minimizedRMSD -1
REMARK  0 active torsions:
REMARK  status: ('A' for Active; 'I' for Inactive)
ROOT
ATOM      1  C   UNL d   1       0.665  -0.260  -2.408  0.00  0.00     0.077 C 
ATOM      2  C1  UNL d   1       0.106  -0.024  -1.037  0.00  0.00    -0.074 A 
ATOM      3  C2  UNL d   1       0.080   1.260  -0.482  0.00  0.00    -0.005 A 
ATOM      4  C3  UNL d   1      -0.451   1.465   0.791  0.00  0.00     0.006 A 
ATOM      5  C4  UNL d   1      -0.961   0.391   1.521  0.00  0.00    -0.005 A 
ATOM      6  C5  UNL d   1      -0.944  -0.899   0.983  0.00  0.00    -0.074 A 
ATOM      7  C6  UNL d   1      -1.497  -2.063   1.751  0.00  0.00     0.077 C 
ATOM      8  C7  UNL d   1      -0.415  -1.097  -0.300  0.00  0.00    -0.001 A 
ENDROOT
TORSDOF 0
ENDMDL
