MODEL 1
REMARK minimizedAffinity 3.25365162
REMARK minimizedRMSD -1
REMARK  0 active torsions:
REMARK  status: ('A' for Active; 'I' for Inactive)
ROOT
ATOM      1  C   UNL d   1       1.852   3.737   2.041  0.00  0.00     0.077 C 
ATOM      2  C1  UNL d   1       1.617   2.512   1.209  0.00  0.00    -0.074 A 
ATOM      3  C2  UNL d   1       2.575   2.072   0.290  0.00  0.00    -0.005 A 
ATOM      4  C3  UNL d   1       2.347   0.925  -0.470  0.00  0.00     0.006 A 
ATOM      5  C4  UNL d   1       1.159   0.208  -0.320  0.00  0.00    -0.005 A 
ATOM      6  C5  UNL d   1       0.189   0.633   0.594  0.00  0.00    -0.074 A 
ATOM      7  C6  UNL d   1      -1.088  -0.132   0.774  0.00  0.00     0.077 C 
ATOM      8  C7  UNL d   1       0.430   1.782   1.359  0.00  0.00    -0.001 A 
ENDROOT
TORSDOF 0
ENDMDL
