MODEL 1
REMARK minimizedAffinity -1.15345597
REMARK minimizedRMSD -1
REMARK  0 active torsions:
REMARK  status: ('A' for Active; 'I' for Inactive)
ROOT
ATOM      1  C   UNL d   1      -0.861   5.065   1.675  0.00  0.00     0.077 C 
ATOM      2  C1  UNL d   1       0.136   4.000   1.327  0.00  0.00    -0.074 A 
ATOM      3  C2  UNL d   1       1.504   4.197   1.543  0.00  0.00    -0.005 A 
ATOM      4  C3  UNL d   1       2.418   3.194   1.223  0.00  0.00     0.006 A 
ATOM      5  C4  UNL d   1       1.975   1.985   0.685  0.00  0.00    -0.005 A 
ATOM      6  C5  UNL d   1       0.611   1.769   0.463  0.00  0.00    -0.074 A 
ATOM      7  C6  UNL d   1       0.117   0.472  -0.106  0.00  0.00     0.077 C 
ATOM      8  C7  UNL d   1      -0.302   2.780   0.793  0.00  0.00    -0.001 A 
ENDROOT
TORSDOF 0
ENDMDL
