MODEL 1
REMARK minimizedAffinity 2.80868483
REMARK minimizedRMSD -1
REMARK  0 active torsions:
REMARK  status: ('A' for Active; 'I' for Inactive)
ROOT
ATOM      1  C   UNL d   1      -1.904  -2.504   1.504  0.00  0.00     0.077 C 
ATOM      2  C1  UNL d   1      -1.186  -1.197   1.349  0.00  0.00    -0.074 A 
ATOM      3  C2  UNL d   1      -0.263  -0.766   2.308  0.00  0.00    -0.005 A 
ATOM      4  C3  UNL d   1       0.405   0.448   2.145  0.00  0.00     0.006 A 
ATOM      5  C4  UNL d   1       0.157   1.242   1.025  0.00  0.00    -0.005 A 
ATOM      6  C5  UNL d   1      -0.762   0.827   0.056  0.00  0.00    -0.074 A 
ATOM      7  C6  UNL d   1      -1.033   1.664  -1.159  0.00  0.00     0.077 C 
ATOM      8  C7  UNL d   1      -1.424  -0.397   0.222  0.00  0.00    -0.001 A 
ENDROOT
TORSDOF 0
ENDMDL
