MODEL 1
REMARK minimizedAffinity 3.57106161
REMARK minimizedRMSD -1
REMARK  0 active torsions:
REMARK  status: ('A' for Active; 'I' for Inactive)
ROOT
ATOM      1  C   UNL d   1      -1.373  -1.834   1.398  0.00  0.00     0.077 C 
ATOM      2  C1  UNL d   1      -0.669  -0.800   0.569  0.00  0.00    -0.074 A 
ATOM      3  C2  UNL d   1      -0.210   0.390   1.142  0.00  0.00    -0.005 A 
ATOM      4  C3  UNL d   1       0.451   1.338   0.360  0.00  0.00     0.006 A 
ATOM      5  C4  UNL d   1       0.661   1.104  -1.000  0.00  0.00    -0.005 A 
ATOM      6  C5  UNL d   1       0.210  -0.081  -1.590  0.00  0.00    -0.074 A 
ATOM      7  C6  UNL d   1       0.436  -0.352  -3.047  0.00  0.00     0.077 C 
ATOM      8  C7  UNL d   1      -0.448  -1.031  -0.796  0.00  0.00    -0.001 A 
ENDROOT
TORSDOF 0
ENDMDL
