MODEL 1
REMARK minimizedAffinity -2.9835155
REMARK minimizedRMSD -1
REMARK  0 active torsions:
REMARK  status: ('A' for Active; 'I' for Inactive)
ROOT
ATOM      1  C   UNL d   1      -1.114   0.414   0.364  0.00  0.00     0.077 C 
ATOM      2  C1  UNL d   1       0.288   0.937   0.258  0.00  0.00    -0.074 A 
ATOM      3  C2  UNL d   1       1.225   0.317  -0.575  0.00  0.00    -0.005 A 
ATOM      4  C3  UNL d   1       2.523   0.820  -0.670  0.00  0.00     0.006 A 
ATOM      5  C4  UNL d   1       2.896   1.946   0.066  0.00  0.00    -0.005 A 
ATOM      6  C5  UNL d   1       1.972   2.579   0.903  0.00  0.00    -0.074 A 
ATOM      7  C6  UNL d   1       2.354   3.795   1.693  0.00  0.00     0.077 C 
ATOM      8  C7  UNL d   1       0.668   2.072   0.988  0.00  0.00    -0.001 A 
ENDROOT
TORSDOF 0
ENDMDL
