MODEL 1
REMARK minimizedAffinity -3.19864368
REMARK minimizedRMSD -1
REMARK  0 active torsions:
REMARK  status: ('A' for Active; 'I' for Inactive)
ROOT
ATOM      1  C   UNL d   1       0.149   1.619   0.040  0.00  0.00     0.077 C 
ATOM      2  C1  UNL d   1      -0.286   0.192   0.196  0.00  0.00    -0.074 A 
ATOM      3  C2  UNL d   1      -0.563  -0.342   1.459  0.00  0.00    -0.005 A 
ATOM      4  C3  UNL d   1      -0.976  -1.668   1.587  0.00  0.00     0.006 A 
ATOM      5  C4  UNL d   1      -1.117  -2.472   0.456  0.00  0.00    -0.005 A 
ATOM      6  C5  UNL d   1      -0.846  -1.956  -0.816  0.00  0.00    -0.074 A 
ATOM      7  C6  UNL d   1      -1.002  -2.804  -2.043  0.00  0.00     0.077 C 
ATOM      8  C7  UNL d   1      -0.438  -0.620  -0.937  0.00  0.00    -0.001 A 
ENDROOT
TORSDOF 0
ENDMDL
