MODEL 1
REMARK minimizedAffinity 0.0307672936
REMARK minimizedRMSD -1
REMARK  0 active torsions:
REMARK  status: ('A' for Active; 'I' for Inactive)
ROOT
ATOM      1  C   UNL d   1       0.778   0.170  -2.414  0.00  0.00     0.077 C 
ATOM      2  C1  UNL d   1       0.189  -0.025  -1.049  0.00  0.00    -0.074 A 
ATOM      3  C2  UNL d   1       0.056   1.050  -0.163  0.00  0.00    -0.005 A 
ATOM      4  C3  UNL d   1      -0.502   0.856   1.100  0.00  0.00     0.006 A 
ATOM      5  C4  UNL d   1      -0.933  -0.412   1.490  0.00  0.00    -0.005 A 
ATOM      6  C5  UNL d   1      -0.809  -1.499   0.619  0.00  0.00    -0.074 A 
ATOM      7  C6  UNL d   1      -1.276  -2.867   1.019  0.00  0.00     0.077 C 
ATOM      8  C7  UNL d   1      -0.253  -1.294  -0.652  0.00  0.00    -0.001 A 
ENDROOT
TORSDOF 0
ENDMDL
