MODEL 1
REMARK minimizedAffinity -0.725199282
REMARK minimizedRMSD -1
REMARK  0 active torsions:
REMARK  status: ('A' for Active; 'I' for Inactive)
ROOT
ATOM      1  C   UNL d   1       1.552   3.324   0.672  0.00  0.00     0.077 C 
ATOM      2  C1  UNL d   1       0.707   2.169   0.226  0.00  0.00    -0.074 A 
ATOM      3  C2  UNL d   1       0.321   2.034  -1.112  0.00  0.00    -0.005 A 
ATOM      4  C3  UNL d   1      -0.457   0.948  -1.513  0.00  0.00     0.006 A 
ATOM      5  C4  UNL d   1      -0.858  -0.012  -0.583  0.00  0.00    -0.005 A 
ATOM      6  C5  UNL d   1      -0.481   0.106   0.759  0.00  0.00    -0.074 A 
ATOM      7  C6  UNL d   1      -0.895  -0.922   1.770  0.00  0.00     0.077 C 
ATOM      8  C7  UNL d   1       0.307   1.196   1.153  0.00  0.00    -0.001 A 
ENDROOT
TORSDOF 0
ENDMDL
