MODEL 1
REMARK minimizedAffinity 7.11165619
REMARK minimizedRMSD -1
REMARK  0 active torsions:
REMARK  status: ('A' for Active; 'I' for Inactive)
ROOT
ATOM      1  C   UNL d   1      -0.967   0.422   0.975  0.00  0.00     0.077 C 
ATOM      2  C1  UNL d   1       0.158   1.388   0.748  0.00  0.00    -0.074 A 
ATOM      3  C2  UNL d   1       0.020   2.742   1.072  0.00  0.00    -0.005 A 
ATOM      4  C3  UNL d   1       1.078   3.626   0.864  0.00  0.00     0.006 A 
ATOM      5  C4  UNL d   1       2.283   3.167   0.330  0.00  0.00    -0.005 A 
ATOM      6  C5  UNL d   1       2.440   1.817   0.001  0.00  0.00    -0.074 A 
ATOM      7  C6  UNL d   1       3.732   1.306  -0.563  0.00  0.00     0.077 C 
ATOM      8  C7  UNL d   1       1.374   0.933   0.220  0.00  0.00    -0.001 A 
ENDROOT
TORSDOF 0
ENDMDL
