MODEL 1
REMARK minimizedAffinity -4.23020983
REMARK minimizedRMSD -1
REMARK  0 active torsions:
REMARK  status: ('A' for Active; 'I' for Inactive)
ROOT
ATOM      1  C   UNL d   1       2.318   3.837   1.310  0.00  0.00     0.077 C 
ATOM      2  C1  UNL d   1       1.926   2.614   0.537  0.00  0.00    -0.074 A 
ATOM      3  C2  UNL d   1       2.842   1.967  -0.298  0.00  0.00    -0.005 A 
ATOM      4  C3  UNL d   1       2.466   0.824  -1.004  0.00  0.00     0.006 A 
ATOM      5  C4  UNL d   1       1.171   0.318  -0.882  0.00  0.00    -0.005 A 
ATOM      6  C5  UNL d   1       0.241   0.950  -0.051  0.00  0.00    -0.074 A 
ATOM      7  C6  UNL d   1      -1.151   0.414   0.099  0.00  0.00     0.077 C 
ATOM      8  C7  UNL d   1       0.629   2.094   0.660  0.00  0.00    -0.001 A 
ENDROOT
TORSDOF 0
ENDMDL
