MODEL 1
REMARK minimizedAffinity -1.87259495
REMARK minimizedRMSD -1
REMARK  0 active torsions:
REMARK  status: ('A' for Active; 'I' for Inactive)
ROOT
ATOM      1  C   UNL d   1      -1.665  -1.883   1.080  0.00  0.00     0.077 C 
ATOM      2  C1  UNL d   1      -0.925  -0.804   0.346  0.00  0.00    -0.074 A 
ATOM      3  C2  UNL d   1      -0.528   0.367   1.000  0.00  0.00    -0.005 A 
ATOM      4  C3  UNL d   1       0.167   1.358   0.308  0.00  0.00     0.006 A 
ATOM      5  C4  UNL d   1       0.471   1.189  -1.044  0.00  0.00    -0.005 A 
ATOM      6  C5  UNL d   1       0.083   0.025  -1.714  0.00  0.00    -0.074 A 
ATOM      7  C6  UNL d   1       0.411  -0.177  -3.164  0.00  0.00     0.077 C 
ATOM      8  C7  UNL d   1      -0.609  -0.969  -1.009  0.00  0.00    -0.001 A 
ENDROOT
TORSDOF 0
ENDMDL
