MODEL 1
REMARK minimizedAffinity -1.71457374
REMARK minimizedRMSD -1
REMARK  0 active torsions:
REMARK  status: ('A' for Active; 'I' for Inactive)
ROOT
ATOM      1  C   UNL d   1      -0.105  -1.742  -2.276  0.00  0.00     0.077 C 
ATOM      2  C1  UNL d   1      -0.285  -1.190  -0.893  0.00  0.00    -0.074 A 
ATOM      3  C2  UNL d   1      -0.464  -2.040   0.203  0.00  0.00    -0.005 A 
ATOM      4  C3  UNL d   1      -0.621  -1.512   1.485  0.00  0.00     0.006 A 
ATOM      5  C4  UNL d   1      -0.599  -0.131   1.683  0.00  0.00    -0.005 A 
ATOM      6  C5  UNL d   1      -0.420   0.735   0.599  0.00  0.00    -0.074 A 
ATOM      7  C6  UNL d   1      -0.384   2.221   0.796  0.00  0.00     0.077 C 
ATOM      8  C7  UNL d   1      -0.257   0.196  -0.685  0.00  0.00    -0.001 A 
ENDROOT
TORSDOF 0
ENDMDL
