MODEL 1
REMARK minimizedAffinity 9.61926937
REMARK minimizedRMSD -1
REMARK  0 active torsions:
REMARK  status: ('A' for Active; 'I' for Inactive)
ROOT
ATOM      1  C   UNL d   1      -0.576  -0.749   5.251  0.00  0.00     0.078 C 
ATOM      2  C1  UNL d   1       0.389  -1.025   4.137  0.00  0.00    -0.077 A 
ATOM      3  C2  UNL d   1       1.373  -0.092   3.787  0.00  0.00    -0.001 A 
ATOM      4  C3  UNL d   1       2.258  -0.358   2.741  0.00  0.00     0.003 A 
ATOM      5  C4  UNL d   1       2.167  -1.555   2.035  0.00  0.00    -0.005 A 
ATOM      6  C5  UNL d   1       1.189  -2.489   2.374  0.00  0.00     0.003 A 
ATOM      7  C6  UNL d   1       0.303  -2.225   3.419  0.00  0.00    -0.001 A 
ENDROOT
TORSDOF 0
ENDMDL
