MODEL 1
REMARK minimizedAffinity 10.3079739
REMARK minimizedRMSD -1
REMARK  0 active torsions:
REMARK  status: ('A' for Active; 'I' for Inactive)
ROOT
ATOM      1  C   UNL d   1       0.490   2.967  -1.001  0.00  0.00     0.078 C 
ATOM      2  C1  UNL d   1      -0.769   2.899  -1.813  0.00  0.00    -0.077 A 
ATOM      3  C2  UNL d   1      -1.098   3.914  -2.720  0.00  0.00    -0.001 A 
ATOM      4  C3  UNL d   1      -2.278   3.842  -3.462  0.00  0.00     0.003 A 
ATOM      5  C4  UNL d   1      -3.139   2.758  -3.304  0.00  0.00    -0.005 A 
ATOM      6  C5  UNL d   1      -2.821   1.745  -2.403  0.00  0.00     0.003 A 
ATOM      7  C6  UNL d   1      -1.642   1.814  -1.660  0.00  0.00    -0.001 A 
ENDROOT
TORSDOF 0
ENDMDL
