MODEL 1
REMARK minimizedAffinity 8.35165691
REMARK minimizedRMSD -1
REMARK  0 active torsions:
REMARK  status: ('A' for Active; 'I' for Inactive)
ROOT
ATOM      1  C   UNL d   1      -2.569  -3.223   2.142  0.00  0.00     0.078 C 
ATOM      2  C1  UNL d   1      -1.389  -2.314   2.316  0.00  0.00    -0.077 A 
ATOM      3  C2  UNL d   1      -0.284  -2.395   1.460  0.00  0.00    -0.001 A 
ATOM      4  C3  UNL d   1       0.812  -1.549   1.639  0.00  0.00     0.003 A 
ATOM      5  C4  UNL d   1       0.813  -0.616   2.675  0.00  0.00    -0.005 A 
ATOM      6  C5  UNL d   1      -0.281  -0.530   3.533  0.00  0.00     0.003 A 
ATOM      7  C6  UNL d   1      -1.377  -1.375   3.355  0.00  0.00    -0.001 A 
ENDROOT
TORSDOF 0
ENDMDL
