MODEL 1
REMARK minimizedAffinity 10.1353989
REMARK minimizedRMSD -1
REMARK  0 active torsions:
REMARK  status: ('A' for Active; 'I' for Inactive)
ROOT
ATOM      1  C   UNL d   1      -2.629  -3.166   2.308  0.00  0.00     0.078 C 
ATOM      2  C1  UNL d   1      -1.436  -2.298   2.577  0.00  0.00    -0.077 A 
ATOM      3  C2  UNL d   1      -1.422  -1.407   3.657  0.00  0.00    -0.001 A 
ATOM      4  C3  UNL d   1      -0.308  -0.598   3.889  0.00  0.00     0.003 A 
ATOM      5  C4  UNL d   1       0.798  -0.671   3.045  0.00  0.00    -0.005 A 
ATOM      6  C5  UNL d   1       0.792  -1.553   1.967  0.00  0.00     0.003 A 
ATOM      7  C6  UNL d   1      -0.321  -2.363   1.733  0.00  0.00    -0.001 A 
ENDROOT
TORSDOF 0
ENDMDL
