MODEL 1
REMARK minimizedAffinity 7.15802622
REMARK minimizedRMSD -1
REMARK  0 active torsions:
REMARK  status: ('A' for Active; 'I' for Inactive)
ROOT
ATOM      1  C   UNL d   1       0.147  -0.621   5.358  0.00  0.00     0.078 C 
ATOM      2  C1  UNL d   1      -0.227  -1.245   4.047  0.00  0.00    -0.077 A 
ATOM      3  C2  UNL d   1       0.463  -0.921   2.872  0.00  0.00    -0.001 A 
ATOM      4  C3  UNL d   1       0.098  -1.503   1.656  0.00  0.00     0.003 A 
ATOM      5  C4  UNL d   1      -0.958  -2.410   1.604  0.00  0.00    -0.005 A 
ATOM      6  C5  UNL d   1      -1.651  -2.737   2.768  0.00  0.00     0.003 A 
ATOM      7  C6  UNL d   1      -1.288  -2.157   3.984  0.00  0.00    -0.001 A 
ENDROOT
TORSDOF 0
ENDMDL
