MODEL 1
REMARK minimizedAffinity 4.22553301
REMARK minimizedRMSD -1
REMARK  0 active torsions:
REMARK  status: ('A' for Active; 'I' for Inactive)
ROOT
ATOM      1  C   UNL d   1       0.327  -2.624   2.458  0.00  0.00     0.078 C 
ATOM      2  C1  UNL d   1      -0.387  -2.151   3.690  0.00  0.00    -0.077 A 
ATOM      3  C2  UNL d   1       0.089  -1.058   4.424  0.00  0.00    -0.001 A 
ATOM      4  C3  UNL d   1      -0.580  -0.635   5.574  0.00  0.00     0.003 A 
ATOM      5  C4  UNL d   1      -1.728  -1.301   6.000  0.00  0.00    -0.005 A 
ATOM      6  C5  UNL d   1      -2.208  -2.391   5.277  0.00  0.00     0.003 A 
ATOM      7  C6  UNL d   1      -1.540  -2.815   4.127  0.00  0.00    -0.001 A 
ENDROOT
TORSDOF 0
ENDMDL
