MODEL 1
REMARK minimizedAffinity 4.6084404
REMARK minimizedRMSD -1
REMARK  0 active torsions:
REMARK  status: ('A' for Active; 'I' for Inactive)
ROOT
ATOM      1  C   UNL d   1       5.271  -1.431  -2.490  0.00  0.00     0.078 C 
ATOM      2  C1  UNL d   1       5.271  -2.289  -3.720  0.00  0.00    -0.077 A 
ATOM      3  C2  UNL d   1       4.542  -1.920  -4.857  0.00  0.00    -0.001 A 
ATOM      4  C3  UNL d   1       4.544  -2.733  -5.992  0.00  0.00     0.003 A 
ATOM      5  C4  UNL d   1       5.273  -3.921  -6.000  0.00  0.00    -0.005 A 
ATOM      6  C5  UNL d   1       6.000  -4.297  -4.872  0.00  0.00     0.003 A 
ATOM      7  C6  UNL d   1       5.999  -3.485  -3.737  0.00  0.00    -0.001 A 
ENDROOT
TORSDOF 0
ENDMDL
