MODEL 1
REMARK minimizedAffinity 6.12154102
REMARK minimizedRMSD -1
REMARK  0 active torsions:
REMARK  status: ('A' for Active; 'I' for Inactive)
ROOT
ATOM      1  C   UNL d   1      -0.125  -0.938   3.514  0.00  0.00     0.078 C 
ATOM      2  C1  UNL d   1       0.821  -1.566   2.534  0.00  0.00    -0.077 A 
ATOM      3  C2  UNL d   1       0.791  -2.943   2.284  0.00  0.00    -0.001 A 
ATOM      4  C3  UNL d   1       1.684  -3.515   1.376  0.00  0.00     0.003 A 
ATOM      5  C4  UNL d   1       2.614  -2.717   0.713  0.00  0.00    -0.005 A 
ATOM      6  C5  UNL d   1       2.653  -1.346   0.957  0.00  0.00     0.003 A 
ATOM      7  C6  UNL d   1       1.761  -0.772   1.865  0.00  0.00    -0.001 A 
ENDROOT
TORSDOF 0
ENDMDL
