MODEL 1
REMARK minimizedAffinity 6.82991648
REMARK minimizedRMSD -1
REMARK  0 active torsions:
REMARK  status: ('A' for Active; 'I' for Inactive)
ROOT
ATOM      1  C   UNL d   1      -1.265   2.911  -3.052  0.00  0.00     0.078 C 
ATOM      2  C1  UNL d   1      -2.618   2.964  -2.408  0.00  0.00    -0.077 A 
ATOM      3  C2  UNL d   1      -3.011   4.070  -1.645  0.00  0.00    -0.001 A 
ATOM      4  C3  UNL d   1      -4.270   4.101  -1.043  0.00  0.00     0.003 A 
ATOM      5  C4  UNL d   1      -5.146   3.029  -1.197  0.00  0.00    -0.005 A 
ATOM      6  C5  UNL d   1      -4.763   1.922  -1.953  0.00  0.00     0.003 A 
ATOM      7  C6  UNL d   1      -3.505   1.889  -2.555  0.00  0.00    -0.001 A 
ENDROOT
TORSDOF 0
ENDMDL
