MODEL 1
REMARK minimizedAffinity 2.66497278
REMARK minimizedRMSD -1
REMARK  0 active torsions:
REMARK  status: ('A' for Active; 'I' for Inactive)
ROOT
ATOM      1  C   UNL d   1       0.760   5.979  -0.259  0.00  0.00     0.078 C 
ATOM      2  C1  UNL d   1       0.450   4.627  -0.830  0.00  0.00    -0.077 A 
ATOM      3  C2  UNL d   1      -0.207   4.497  -2.060  0.00  0.00    -0.001 A 
ATOM      4  C3  UNL d   1      -0.498   3.233  -2.574  0.00  0.00     0.003 A 
ATOM      5  C4  UNL d   1      -0.136   2.089  -1.866  0.00  0.00    -0.005 A 
ATOM      6  C5  UNL d   1       0.517   2.208  -0.641  0.00  0.00     0.003 A 
ATOM      7  C6  UNL d   1       0.809   3.472  -0.125  0.00  0.00    -0.001 A 
ENDROOT
TORSDOF 0
ENDMDL
