MODEL 1
REMARK minimizedAffinity 0.512654543
REMARK minimizedRMSD -1
REMARK  0 active torsions:
REMARK  status: ('A' for Active; 'I' for Inactive)
ROOT
ATOM      1  C   UNL d   1      -1.482  -0.750   6.000  0.00  0.00     0.078 C 
ATOM      2  C1  UNL d   1      -0.967  -1.273   4.692  0.00  0.00    -0.077 A 
ATOM      3  C2  UNL d   1      -1.446  -2.474   4.156  0.00  0.00    -0.001 A 
ATOM      4  C3  UNL d   1      -0.950  -2.953   2.942  0.00  0.00     0.003 A 
ATOM      5  C4  UNL d   1       0.028  -2.238   2.255  0.00  0.00    -0.005 A 
ATOM      6  C5  UNL d   1       0.513  -1.042   2.781  0.00  0.00     0.003 A 
ATOM      7  C6  UNL d   1       0.018  -0.561   3.995  0.00  0.00    -0.001 A 
ENDROOT
TORSDOF 0
ENDMDL
