MODEL 1
REMARK minimizedAffinity 7.66747761
REMARK minimizedRMSD -1
REMARK  0 active torsions:
REMARK  status: ('A' for Active; 'I' for Inactive)
ROOT
ATOM      1  C   UNL d   1      -4.601  -5.292  -0.539  0.00  0.00     0.078 C 
ATOM      2  C1  UNL d   1      -4.304  -4.449   0.664  0.00  0.00    -0.077 A 
ATOM      3  C2  UNL d   1      -3.023  -4.425   1.230  0.00  0.00    -0.001 A 
ATOM      4  C3  UNL d   1      -2.764  -3.643   2.356  0.00  0.00     0.003 A 
ATOM      5  C4  UNL d   1      -3.780  -2.878   2.927  0.00  0.00    -0.005 A 
ATOM      6  C5  UNL d   1      -5.057  -2.897   2.372  0.00  0.00     0.003 A 
ATOM      7  C6  UNL d   1      -5.319  -3.679   1.246  0.00  0.00    -0.001 A 
ENDROOT
TORSDOF 0
ENDMDL
