MODEL 1
REMARK minimizedAffinity 3.70193267
REMARK minimizedRMSD -1
REMARK  0 active torsions:
REMARK  status: ('A' for Active; 'I' for Inactive)
ROOT
ATOM      1  C   UNL d   1       0.095  -3.004   1.771  0.00  0.00     0.078 C 
ATOM      2  C1  UNL d   1      -0.248  -2.099   2.916  0.00  0.00    -0.077 A 
ATOM      3  C2  UNL d   1       0.466  -0.914   3.138  0.00  0.00    -0.001 A 
ATOM      4  C3  UNL d   1       0.142  -0.086   4.213  0.00  0.00     0.003 A 
ATOM      5  C4  UNL d   1      -0.895  -0.433   5.077  0.00  0.00    -0.005 A 
ATOM      6  C5  UNL d   1      -1.609  -1.611   4.866  0.00  0.00     0.003 A 
ATOM      7  C6  UNL d   1      -1.287  -2.441   3.791  0.00  0.00    -0.001 A 
ENDROOT
TORSDOF 0
ENDMDL
