MODEL 1
REMARK minimizedAffinity 3.30217028
REMARK minimizedRMSD -1
REMARK  0 active torsions:
REMARK  status: ('A' for Active; 'I' for Inactive)
ROOT
ATOM      1  C   UNL d   1       1.102   5.851   0.322  0.00  0.00     0.078 C 
ATOM      2  C1  UNL d   1       0.773   4.618  -0.466  0.00  0.00    -0.077 A 
ATOM      3  C2  UNL d   1       0.558   3.391   0.173  0.00  0.00    -0.001 A 
ATOM      4  C3  UNL d   1       0.262   2.249  -0.573  0.00  0.00     0.003 A 
ATOM      5  C4  UNL d   1       0.180   2.323  -1.962  0.00  0.00    -0.005 A 
ATOM      6  C5  UNL d   1       0.394   3.540  -2.607  0.00  0.00     0.003 A 
ATOM      7  C6  UNL d   1       0.690   4.683  -1.862  0.00  0.00    -0.001 A 
ENDROOT
TORSDOF 0
ENDMDL
