MODEL 1
REMARK minimizedAffinity 20.4365807
REMARK minimizedRMSD -1
REMARK  0 active torsions:
REMARK  status: ('A' for Active; 'I' for Inactive)
ROOT
ATOM      1  C   UNL d   1       0.745   1.975   0.191  0.00  0.00     0.078 C 
ATOM      2  C1  UNL d   1       1.062   0.642   0.800  0.00  0.00    -0.077 A 
ATOM      3  C2  UNL d   1       0.054  -0.303   1.031  0.00  0.00    -0.001 A 
ATOM      4  C3  UNL d   1       0.361  -1.536   1.607  0.00  0.00     0.003 A 
ATOM      5  C4  UNL d   1       1.676  -1.837   1.958  0.00  0.00    -0.005 A 
ATOM      6  C5  UNL d   1       2.685  -0.903   1.733  0.00  0.00     0.003 A 
ATOM      7  C6  UNL d   1       2.380   0.332   1.157  0.00  0.00    -0.001 A 
ENDROOT
TORSDOF 0
ENDMDL
