MODEL 1
REMARK minimizedAffinity 12.0138369
REMARK minimizedRMSD -1
REMARK  0 active torsions:
REMARK  status: ('A' for Active; 'I' for Inactive)
ROOT
ATOM      1  C   UNL d   1       4.151  -3.285  -5.931  0.00  0.00     0.078 C 
ATOM      2  C1  UNL d   1       2.923  -4.022  -5.487  0.00  0.00    -0.077 A 
ATOM      3  C2  UNL d   1       2.043  -3.462  -4.553  0.00  0.00    -0.001 A 
ATOM      4  C3  UNL d   1       0.909  -4.164  -4.142  0.00  0.00     0.003 A 
ATOM      5  C4  UNL d   1       0.644  -5.430  -4.659  0.00  0.00    -0.005 A 
ATOM      6  C5  UNL d   1       1.515  -5.997  -5.588  0.00  0.00     0.003 A 
ATOM      7  C6  UNL d   1       2.650  -5.296  -6.000  0.00  0.00    -0.001 A 
ENDROOT
TORSDOF 0
ENDMDL
