MODEL 1
REMARK minimizedAffinity 17.2447376
REMARK minimizedRMSD -1
REMARK  0 active torsions:
REMARK  status: ('A' for Active; 'I' for Inactive)
ROOT
ATOM      1  C   UNL d   1      -1.332  -2.195   1.165  0.00  0.00     0.078 C 
ATOM      2  C1  UNL d   1       0.087  -1.714   1.109  0.00  0.00    -0.077 A 
ATOM      3  C2  UNL d   1       0.421  -0.407   1.484  0.00  0.00    -0.001 A 
ATOM      4  C3  UNL d   1       1.745   0.030   1.418  0.00  0.00     0.003 A 
ATOM      5  C4  UNL d   1       2.745  -0.833   0.976  0.00  0.00    -0.005 A 
ATOM      6  C5  UNL d   1       2.423  -2.135   0.599  0.00  0.00     0.003 A 
ATOM      7  C6  UNL d   1       1.099  -2.574   0.664  0.00  0.00    -0.001 A 
ENDROOT
TORSDOF 0
ENDMDL
