MODEL 1
REMARK minimizedAffinity -3.86151671
REMARK minimizedRMSD -1
REMARK  0 active torsions:
REMARK  status: ('A' for Active; 'I' for Inactive)
ROOT
ATOM      1  C1  BNZ d   1       4.983   4.021   1.116  0.00  0.00     0.000 A 
ATOM      2  C2  BNZ d   1       5.966   4.042   2.069  0.00  0.00     0.000 A 
ATOM      3  C3  BNZ d   1       5.996   5.022   3.022  0.00  0.00     0.000 A 
ATOM      4  C4  BNZ d   1       5.068   6.000   2.996  0.00  0.00     0.000 A 
ATOM      5  C5  BNZ d   1       4.076   5.997   2.036  0.00  0.00     0.000 A 
ATOM      6  C6  BNZ d   1       4.026   4.988   1.102  0.00  0.00     0.000 A 
ENDROOT
TORSDOF 0
ENDMDL
