MODEL 1
REMARK minimizedAffinity 0.762556016
REMARK minimizedRMSD -1
REMARK  0 active torsions:
REMARK  status: ('A' for Active; 'I' for Inactive)
ROOT
ATOM      1  C1  BNZ d   1       2.787   4.716  -5.086  0.00  0.00     0.000 A 
ATOM      2  C2  BNZ d   1       3.450   3.581  -4.701  0.00  0.00     0.000 A 
ATOM      3  C3  BNZ d   1       2.801   2.589  -4.020  0.00  0.00     0.000 A 
ATOM      4  C4  BNZ d   1       1.504   2.750  -3.690  0.00  0.00     0.000 A 
ATOM      5  C5  BNZ d   1       0.824   3.893  -4.063  0.00  0.00     0.000 A 
ATOM      6  C6  BNZ d   1       1.469   4.872  -4.782  0.00  0.00     0.000 A 
ENDROOT
TORSDOF 0
ENDMDL
