MODEL 1
REMARK minimizedAffinity 5.01274252
REMARK minimizedRMSD -1
REMARK  0 active torsions:
REMARK  status: ('A' for Active; 'I' for Inactive)
ROOT
ATOM      1  C1  BNZ d   1       0.331  -3.613   0.558  0.00  0.00     0.000 A 
ATOM      2  C2  BNZ d   1       1.430  -2.930   0.108  0.00  0.00     0.000 A 
ATOM      3  C3  BNZ d   1       1.842  -3.045  -1.190  0.00  0.00     0.000 A 
ATOM      4  C4  BNZ d   1       1.180  -3.871  -2.025  0.00  0.00     0.000 A 
ATOM      5  C5  BNZ d   1       0.076  -4.573  -1.584  0.00  0.00     0.000 A 
ATOM      6  C6  BNZ d   1      -0.360  -4.426  -0.287  0.00  0.00     0.000 A 
ENDROOT
TORSDOF 0
ENDMDL
