MODEL 1
REMARK minimizedAffinity -2.91843581
REMARK minimizedRMSD -1
REMARK  0 active torsions:
REMARK  status: ('A' for Active; 'I' for Inactive)
ROOT
ATOM      1  C1  BNZ d   1      -4.614  -5.991  -0.377  0.00  0.00     0.000 A 
ATOM      2  C2  BNZ d   1      -5.251  -4.833  -0.736  0.00  0.00     0.000 A 
ATOM      3  C3  BNZ d   1      -4.546  -3.678  -0.928  0.00  0.00     0.000 A 
ATOM      4  C4  BNZ d   1      -3.213  -3.672  -0.722  0.00  0.00     0.000 A 
ATOM      5  C5  BNZ d   1      -2.558  -4.830  -0.352  0.00  0.00     0.000 A 
ATOM      6  C6  BNZ d   1      -3.265  -6.000  -0.197  0.00  0.00     0.000 A 
ENDROOT
TORSDOF 0
ENDMDL
