MODEL 1
REMARK minimizedAffinity -1.02674747
REMARK minimizedRMSD -1
REMARK  0 active torsions:
REMARK  status: ('A' for Active; 'I' for Inactive)
ROOT
ATOM      1  C1  BNZ d   1       3.517  -0.934  -0.706  0.00  0.00     0.000 A 
ATOM      2  C2  BNZ d   1       2.744  -0.650   0.388  0.00  0.00     0.000 A 
ATOM      3  C3  BNZ d   1       1.958   0.468   0.419  0.00  0.00     0.000 A 
ATOM      4  C4  BNZ d   1       1.977   1.321  -0.626  0.00  0.00     0.000 A 
ATOM      5  C5  BNZ d   1       2.758   1.053  -1.732  0.00  0.00     0.000 A 
ATOM      6  C6  BNZ d   1       3.518  -0.093  -1.776  0.00  0.00     0.000 A 
ENDROOT
TORSDOF 0
ENDMDL
