MODEL 1
REMARK minimizedAffinity -3.93327141
REMARK minimizedRMSD -1
REMARK  0 active torsions:
REMARK  status: ('A' for Active; 'I' for Inactive)
ROOT
ATOM      1  C1  BNZ d   1      -1.759   1.438   1.728  0.00  0.00     0.000 A 
ATOM      2  C2  BNZ d   1      -0.760   2.104   1.069  0.00  0.00     0.000 A 
ATOM      3  C3  BNZ d   1       0.344   1.438   0.615  0.00  0.00     0.000 A 
ATOM      4  C4  BNZ d   1       0.466   0.116   0.854  0.00  0.00     0.000 A 
ATOM      5  C5  BNZ d   1      -0.528  -0.567   1.526  0.00  0.00     0.000 A 
ATOM      6  C6  BNZ d   1      -1.656   0.099   1.947  0.00  0.00     0.000 A 
ENDROOT
TORSDOF 0
ENDMDL
