MODEL 1
REMARK minimizedAffinity 6.24170351
REMARK minimizedRMSD -1
REMARK  0 active torsions:
REMARK  status: ('A' for Active; 'I' for Inactive)
ROOT
ATOM      1  C1  BNZ d   1      -5.417   3.052   3.580  0.00  0.00     0.000 A 
ATOM      2  C2  BNZ d   1      -5.873   4.341   3.657  0.00  0.00     0.000 A 
ATOM      3  C3  BNZ d   1      -5.998   4.968   4.866  0.00  0.00     0.000 A 
ATOM      4  C4  BNZ d   1      -5.706   4.293   5.996  0.00  0.00     0.000 A 
ATOM      5  C5  BNZ d   1      -5.254   2.989   5.935  0.00  0.00     0.000 A 
ATOM      6  C6  BNZ d   1      -5.093   2.375   4.715  0.00  0.00     0.000 A 
ENDROOT
TORSDOF 0
ENDMDL
