MODEL 1
REMARK minimizedAffinity 1.33481801
REMARK minimizedRMSD -1
REMARK  0 active torsions:
REMARK  status: ('A' for Active; 'I' for Inactive)
ROOT
ATOM      1  C1  BNZ d   1      -1.084   2.688   2.117  0.00  0.00     0.000 A 
ATOM      2  C2  BNZ d   1      -0.233   1.859   1.435  0.00  0.00     0.000 A 
ATOM      3  C3  BNZ d   1      -0.542   0.541   1.247  0.00  0.00     0.000 A 
ATOM      4  C4  BNZ d   1      -1.679   0.044   1.774  0.00  0.00     0.000 A 
ATOM      5  C5  BNZ d   1      -2.542   0.865   2.472  0.00  0.00     0.000 A 
ATOM      6  C6  BNZ d   1      -2.247   2.200   2.626  0.00  0.00     0.000 A 
ENDROOT
TORSDOF 0
ENDMDL
