MODEL 1
REMARK minimizedAffinity -3.08817005
REMARK minimizedRMSD -1
REMARK  0 active torsions:
REMARK  status: ('A' for Active; 'I' for Inactive)
ROOT
ATOM      1  C1  BNZ d   1      -1.441   1.157   1.546  0.00  0.00     0.000 A 
ATOM      2  C2  BNZ d   1      -0.398   1.969   1.189  0.00  0.00     0.000 A 
ATOM      3  C3  BNZ d   1       0.768   1.441   0.709  0.00  0.00     0.000 A 
ATOM      4  C4  BNZ d   1       0.905   0.102   0.626  0.00  0.00     0.000 A 
ATOM      5  C5  BNZ d   1      -0.134  -0.731   0.990  0.00  0.00     0.000 A 
ATOM      6  C6  BNZ d   1      -1.321  -0.194   1.436  0.00  0.00     0.000 A 
ENDROOT
TORSDOF 0
ENDMDL
