MODEL 1
REMARK minimizedAffinity -0.446887821
REMARK minimizedRMSD -1
REMARK  0 active torsions:
REMARK  status: ('A' for Active; 'I' for Inactive)
ROOT
ATOM      1  C1  BNZ d   1       0.128   1.200   0.516  0.00  0.00     0.000 A 
ATOM      2  C2  BNZ d   1       1.341   1.545  -0.017  0.00  0.00     0.000 A 
ATOM      3  C3  BNZ d   1       2.421   0.716   0.104  0.00  0.00     0.000 A 
ATOM      4  C4  BNZ d   1       2.297  -0.438   0.790  0.00  0.00     0.000 A 
ATOM      5  C5  BNZ d   1       1.083  -0.796   1.342  0.00  0.00     0.000 A 
ATOM      6  C6  BNZ d   1      -0.011   0.023   1.185  0.00  0.00     0.000 A 
ENDROOT
TORSDOF 0
ENDMDL
