MODEL 1
REMARK minimizedAffinity -2.04548526
REMARK minimizedRMSD -1
REMARK  0 active torsions:
REMARK  status: ('A' for Active; 'I' for Inactive)
ROOT
ATOM      1  C1  BNZ d   1      -0.050   1.129   0.829  0.00  0.00     0.000 A 
ATOM      2  C2  BNZ d   1      -0.821   2.260   0.812  0.00  0.00     0.000 A 
ATOM      3  C3  BNZ d   1      -2.073   2.262   1.362  0.00  0.00     0.000 A 
ATOM      4  C4  BNZ d   1      -2.566   1.125   1.893  0.00  0.00     0.000 A 
ATOM      5  C5  BNZ d   1      -1.804  -0.026   1.910  0.00  0.00     0.000 A 
ATOM      6  C6  BNZ d   1      -0.530  -0.015   1.390  0.00  0.00     0.000 A 
ENDROOT
TORSDOF 0
ENDMDL
