MODEL 1
REMARK minimizedAffinity -1.59891152
REMARK minimizedRMSD -1
REMARK  0 active torsions:
REMARK  status: ('A' for Active; 'I' for Inactive)
ROOT
ATOM      1  C1  BNZ d   1      -1.150   2.395   1.745  0.00  0.00     0.000 A 
ATOM      2  C2  BNZ d   1      -0.080   1.763   1.171  0.00  0.00     0.000 A 
ATOM      3  C3  BNZ d   1      -0.054   0.402   1.049  0.00  0.00     0.000 A 
ATOM      4  C4  BNZ d   1      -1.079  -0.327   1.536  0.00  0.00     0.000 A 
ATOM      5  C5  BNZ d   1      -2.162   0.295   2.125  0.00  0.00     0.000 A 
ATOM      6  C6  BNZ d   1      -2.202   1.668   2.211  0.00  0.00     0.000 A 
ENDROOT
TORSDOF 0
ENDMDL
