MODEL 1
REMARK minimizedAffinity 1.55063975
REMARK minimizedRMSD -1
REMARK  0 active torsions:
REMARK  status: ('A' for Active; 'I' for Inactive)
ROOT
ATOM      1  C1  BNZ d   1      -5.573   2.842   6.000  0.00  0.00     0.000 A 
ATOM      2  C2  BNZ d   1      -5.041   2.296   4.862  0.00  0.00     0.000 A 
ATOM      3  C3  BNZ d   1      -4.920   3.037   3.720  0.00  0.00     0.000 A 
ATOM      4  C4  BNZ d   1      -5.366   4.309   3.705  0.00  0.00     0.000 A 
ATOM      5  C5  BNZ d   1      -5.913   4.872   4.841  0.00  0.00     0.000 A 
ATOM      6  C6  BNZ d   1      -5.998   4.135   6.000  0.00  0.00     0.000 A 
ENDROOT
TORSDOF 0
ENDMDL
