MODEL 1
REMARK minimizedAffinity -0.809671104
REMARK minimizedRMSD -1
REMARK  0 active torsions:
REMARK  status: ('A' for Active; 'I' for Inactive)
ROOT
ATOM      1  C1  BNZ d   1      -2.270   0.910   1.878  0.00  0.00     0.000 A 
ATOM      2  C2  BNZ d   1      -1.294   1.771   1.453  0.00  0.00     0.000 A 
ATOM      3  C3  BNZ d   1      -0.057   1.307   1.100  0.00  0.00     0.000 A 
ATOM      4  C4  BNZ d   1       0.214  -0.010   1.211  0.00  0.00     0.000 A 
ATOM      5  C5  BNZ d   1      -0.757  -0.889   1.647  0.00  0.00     0.000 A 
ATOM      6  C6  BNZ d   1      -2.013  -0.424   1.965  0.00  0.00     0.000 A 
ENDROOT
TORSDOF 0
ENDMDL
