MODEL 1
REMARK minimizedAffinity -2.02505255
REMARK minimizedRMSD -1
REMARK  0 active torsions:
REMARK  status: ('A' for Active; 'I' for Inactive)
ROOT
ATOM      1  C1  BNZ d   1      -1.175   2.348   2.806  0.00  0.00     0.000 A 
ATOM      2  C2  BNZ d   1       0.057   2.073   2.274  0.00  0.00     0.000 A 
ATOM      3  C3  BNZ d   1       0.340   0.836   1.767  0.00  0.00     0.000 A 
ATOM      4  C4  BNZ d   1      -0.595  -0.135   1.828  0.00  0.00     0.000 A 
ATOM      5  C5  BNZ d   1      -1.838   0.124   2.369  0.00  0.00     0.000 A 
ATOM      6  C6  BNZ d   1      -2.132   1.381   2.844  0.00  0.00     0.000 A 
ENDROOT
TORSDOF 0
ENDMDL
