MODEL 1
REMARK minimizedAffinity 4.0047822
REMARK minimizedRMSD -1
REMARK  0 active torsions:
REMARK  status: ('A' for Active; 'I' for Inactive)
ROOT
ATOM      1  C1  BNZ d   1       0.459   1.481   0.189  0.00  0.00     0.000 A 
ATOM      2  C2  BNZ d   1       1.510   0.659   0.497  0.00  0.00     0.000 A 
ATOM      3  C3  BNZ d   1       1.662   0.162   1.762  0.00  0.00     0.000 A 
ATOM      4  C4  BNZ d   1       0.789   0.521   2.724  0.00  0.00     0.000 A 
ATOM      5  C5  BNZ d   1      -0.271   1.356   2.431  0.00  0.00     0.000 A 
ATOM      6  C6  BNZ d   1      -0.443   1.823   1.148  0.00  0.00     0.000 A 
ENDROOT
TORSDOF 0
ENDMDL
