MODEL 1
REMARK minimizedAffinity -5.91207647
REMARK minimizedRMSD -1
REMARK  1 active torsions:
REMARK  status: ('A' for Active; 'I' for Inactive)
REMARK    1  A    between atoms: C1_2  and  C2_3 
ROOT
ATOM      1  C2  UNL d   1       0.289   0.244  -0.094  0.00  0.00    -0.076 A 
ATOM      2  C3  UNL d   1       0.707  -0.275   1.144  0.00  0.00     0.004 A 
ATOM      3  C4  UNL d   1       0.363   0.354   2.339  0.00  0.00    -0.003 A 
ATOM      4  C5  UNL d   1      -0.406   1.513   2.316  0.00  0.00     0.000 A 
ATOM      5  C6  UNL d   1      -0.844   2.032   1.098  0.00  0.00     0.000 A 
ATOM      6  C7  UNL d   1      -0.519   1.401  -0.115  0.00  0.00    -0.073 A 
ATOM      7  C8  UNL d   1      -1.013   2.008  -1.399  0.00  0.00     0.078 C 
ENDROOT
BRANCH   1   8
ATOM      8  C1  UNL d   1       0.716  -0.466  -1.358  0.00  0.00     0.053 C 
ATOM      9  C   UNL d   1       0.283  -1.924  -1.382  0.00  0.00     0.018 C 
ENDBRANCH   1   8
TORSDOF 1
ENDMDL
