MODEL 1
REMARK minimizedAffinity 3.95597911
REMARK minimizedRMSD -1
REMARK  1 active torsions:
REMARK  status: ('A' for Active; 'I' for Inactive)
REMARK    1  A    between atoms: C1_2  and  C2_3 
ROOT
ATOM      1  C2  UNL d   1       0.032   1.124   1.076  0.00  0.00    -0.076 A 
ATOM      2  C3  UNL d   1       0.445   0.024   1.848  0.00  0.00     0.004 A 
ATOM      3  C4  UNL d   1       0.634  -1.229   1.268  0.00  0.00    -0.003 A 
ATOM      4  C5  UNL d   1       0.415  -1.403  -0.094  0.00  0.00     0.000 A 
ATOM      5  C6  UNL d   1       0.023  -0.319  -0.879  0.00  0.00     0.000 A 
ATOM      6  C7  UNL d   1      -0.157   0.955  -0.313  0.00  0.00    -0.073 A 
ATOM      7  C8  UNL d   1      -0.587   2.087  -1.205  0.00  0.00     0.078 C 
ENDROOT
BRANCH   1   8
ATOM      8  C1  UNL d   1      -0.184   2.452   1.765  0.00  0.00     0.053 C 
ATOM      9  C   UNL d   1       1.120   3.098   2.207  0.00  0.00     0.018 C 
ENDBRANCH   1   8
TORSDOF 1
ENDMDL
