MODEL 1
REMARK minimizedAffinity -3.78167701
REMARK minimizedRMSD -1
REMARK  1 active torsions:
REMARK  status: ('A' for Active; 'I' for Inactive)
REMARK    1  A    between atoms: C1_2  and  C2_3 
ROOT
ATOM      1  C2  UNL d   1      -0.510  -1.257  -0.470  0.00  0.00    -0.076 A 
ATOM      2  C3  UNL d   1      -1.091  -1.503   0.786  0.00  0.00     0.004 A 
ATOM      3  C4  UNL d   1      -0.815  -0.680   1.877  0.00  0.00    -0.003 A 
ATOM      4  C5  UNL d   1       0.046   0.401   1.730  0.00  0.00     0.000 A 
ATOM      5  C6  UNL d   1       0.617   0.670   0.486  0.00  0.00     0.000 A 
ATOM      6  C7  UNL d   1       0.337  -0.139  -0.628  0.00  0.00    -0.073 A 
ATOM      7  C8  UNL d   1       0.985   0.193  -1.943  0.00  0.00     0.078 C 
ENDROOT
BRANCH   1   8
ATOM      8  C1  UNL d   1      -0.825  -2.199  -1.610  0.00  0.00     0.053 C 
ATOM      9  C   UNL d   1      -0.643  -3.660  -1.226  0.00  0.00     0.018 C 
ENDBRANCH   1   8
TORSDOF 1
ENDMDL
