MODEL 1
REMARK minimizedAffinity 1.27182961
REMARK minimizedRMSD -1
REMARK  1 active torsions:
REMARK  status: ('A' for Active; 'I' for Inactive)
REMARK    1  A    between atoms: C1_2  and  C2_3 
ROOT
ATOM      1  C2  UNL d   1       0.046   0.211  -0.075  0.00  0.00    -0.076 A 
ATOM      2  C3  UNL d   1       0.118   0.157   1.328  0.00  0.00     0.004 A 
ATOM      3  C4  UNL d   1       0.128   1.324   2.091  0.00  0.00    -0.003 A 
ATOM      4  C5  UNL d   1       0.066   2.563   1.464  0.00  0.00     0.000 A 
ATOM      5  C6  UNL d   1      -0.023   2.635   0.074  0.00  0.00     0.000 A 
ATOM      6  C7  UNL d   1      -0.052   1.468  -0.709  0.00  0.00    -0.073 A 
ATOM      7  C8  UNL d   1      -0.143   1.605  -2.204  0.00  0.00     0.078 C 
ENDROOT
BRANCH   1   8
ATOM      8  C1  UNL d   1       0.065  -1.086  -0.851  0.00  0.00     0.053 C 
ATOM      9  C   UNL d   1      -0.545  -2.241  -0.072  0.00  0.00     0.018 C 
ENDBRANCH   1   8
TORSDOF 1
ENDMDL
