MODEL 1
REMARK minimizedAffinity 8.1567688
REMARK minimizedRMSD -1
REMARK  1 active torsions:
REMARK  status: ('A' for Active; 'I' for Inactive)
REMARK    1  A    between atoms: C1_2  and  C2_3 
ROOT
ATOM      1  C2  UNL d   1       0.675   1.575   1.611  0.00  0.00    -0.076 A 
ATOM      2  C3  UNL d   1       0.527   1.209   2.960  0.00  0.00     0.004 A 
ATOM      3  C4  UNL d   1       0.510  -0.131   3.343  0.00  0.00    -0.003 A 
ATOM      4  C5  UNL d   1       0.642  -1.128   2.383  0.00  0.00     0.000 A 
ATOM      5  C6  UNL d   1       0.808  -0.783   1.042  0.00  0.00     0.000 A 
ATOM      6  C7  UNL d   1       0.843   0.564   0.641  0.00  0.00    -0.073 A 
ATOM      7  C8  UNL d   1       1.019   0.878  -0.819  0.00  0.00     0.078 C 
ENDROOT
BRANCH   1   8
ATOM      8  C1  UNL d   1       0.659   3.043   1.253  0.00  0.00     0.053 C 
ATOM      9  C   UNL d   1      -0.599   3.747   1.736  0.00  0.00     0.018 C 
ENDBRANCH   1   8
TORSDOF 1
ENDMDL
