MODEL 1
REMARK minimizedAffinity -2.01798987
REMARK minimizedRMSD -1
REMARK  1 active torsions:
REMARK  status: ('A' for Active; 'I' for Inactive)
REMARK    1  A    between atoms: C1_2  and  C2_3 
ROOT
ATOM      1  C2  UNL d   1      -0.347  -2.232  -1.352  0.00  0.00    -0.076 A 
ATOM      2  C3  UNL d   1       0.239  -2.764  -0.191  0.00  0.00     0.004 A 
ATOM      3  C4  UNL d   1       0.127  -4.120   0.113  0.00  0.00    -0.003 A 
ATOM      4  C5  UNL d   1      -0.573  -4.966  -0.740  0.00  0.00     0.000 A 
ATOM      5  C6  UNL d   1      -1.146  -4.458  -1.906  0.00  0.00     0.000 A 
ATOM      6  C7  UNL d   1      -1.028  -3.097  -2.235  0.00  0.00    -0.073 A 
ATOM      7  C8  UNL d   1      -1.671  -2.603  -3.502  0.00  0.00     0.078 C 
ENDROOT
BRANCH   1   8
ATOM      8  C1  UNL d   1      -0.216  -0.749  -1.616  0.00  0.00     0.053 C 
ATOM      9  C   UNL d   1       0.057   0.046  -0.348  0.00  0.00     0.018 C 
ENDBRANCH   1   8
TORSDOF 1
ENDMDL
