MODEL 1
REMARK minimizedAffinity 5.5323348
REMARK minimizedRMSD -1
REMARK  1 active torsions:
REMARK  status: ('A' for Active; 'I' for Inactive)
REMARK    1  A    between atoms: C1_2  and  C2_3 
ROOT
ATOM      1  C2  UNL d   1      -0.843   2.313   0.977  0.00  0.00    -0.076 A 
ATOM      2  C3  UNL d   1      -0.255   1.390   0.094  0.00  0.00     0.004 A 
ATOM      3  C4  UNL d   1      -0.273   1.604  -1.283  0.00  0.00    -0.003 A 
ATOM      4  C5  UNL d   1      -0.878   2.745  -1.800  0.00  0.00     0.000 A 
ATOM      5  C6  UNL d   1      -1.451   3.679  -0.938  0.00  0.00     0.000 A 
ATOM      6  C7  UNL d   1      -1.427   3.487   0.454  0.00  0.00    -0.073 A 
ATOM      7  C8  UNL d   1      -2.065   4.524   1.337  0.00  0.00     0.078 C 
ENDROOT
BRANCH   1   8
ATOM      8  C1  UNL d   1      -0.817   2.014   2.459  0.00  0.00     0.053 C 
ATOM      9  C   UNL d   1       0.363   1.141   2.857  0.00  0.00     0.018 C 
ENDBRANCH   1   8
TORSDOF 1
ENDMDL
