MODEL 1
REMARK minimizedAffinity 2.53031826
REMARK minimizedRMSD -1
REMARK  1 active torsions:
REMARK  status: ('A' for Active; 'I' for Inactive)
REMARK    1  A    between atoms: C1_2  and  C2_3 
ROOT
ATOM      1  C2  UNL d   1      -0.018  -1.753  -2.467  0.00  0.00    -0.076 A 
ATOM      2  C3  UNL d   1      -0.394  -2.553  -1.374  0.00  0.00     0.004 A 
ATOM      3  C4  UNL d   1      -1.180  -3.690  -1.554  0.00  0.00    -0.003 A 
ATOM      4  C5  UNL d   1      -1.602  -4.046  -2.830  0.00  0.00     0.000 A 
ATOM      5  C6  UNL d   1      -1.223  -3.274  -3.928  0.00  0.00     0.000 A 
ATOM      6  C7  UNL d   1      -0.417  -2.134  -3.766  0.00  0.00    -0.073 A 
ATOM      7  C8  UNL d   1      -0.043  -1.334  -4.984  0.00  0.00     0.078 C 
ENDROOT
BRANCH   1   8
ATOM      8  C1  UNL d   1       0.813  -0.517  -2.207  0.00  0.00     0.053 C 
ATOM      9  C   UNL d   1      -0.035   0.685  -1.820  0.00  0.00     0.018 C 
ENDBRANCH   1   8
TORSDOF 1
ENDMDL
