MODEL 1
REMARK minimizedAffinity 0.504351616
REMARK minimizedRMSD -1
REMARK  1 active torsions:
REMARK  status: ('A' for Active; 'I' for Inactive)
REMARK    1  A    between atoms: C1_2  and  C2_3 
ROOT
ATOM      1  C2  UNL d   1       0.592  -0.177   2.777  0.00  0.00    -0.076 A 
ATOM      2  C3  UNL d   1      -0.006   1.023   3.200  0.00  0.00     0.004 A 
ATOM      3  C4  UNL d   1      -0.279   2.046   2.294  0.00  0.00    -0.003 A 
ATOM      4  C5  UNL d   1       0.039   1.885   0.950  0.00  0.00     0.000 A 
ATOM      5  C6  UNL d   1       0.616   0.694   0.510  0.00  0.00     0.000 A 
ATOM      6  C7  UNL d   1       0.884  -0.353   1.408  0.00  0.00    -0.073 A 
ATOM      7  C8  UNL d   1       1.513  -1.614   0.880  0.00  0.00     0.078 C 
ENDROOT
BRANCH   1   8
ATOM      8  C1  UNL d   1       0.890  -1.241   3.810  0.00  0.00     0.053 C 
ATOM      9  C   UNL d   1       0.718  -0.735   5.234  0.00  0.00     0.018 C 
ENDBRANCH   1   8
TORSDOF 1
ENDMDL
