MODEL 1
REMARK minimizedAffinity 2.49083161
REMARK minimizedRMSD -1
REMARK  0 active torsions:
REMARK  status: ('A' for Active; 'I' for Inactive)
ROOT
ATOM      1  C2' OXE d   1       2.944  -1.313   0.698  0.00  0.00     0.078 C 
ATOM      2  C1' OXE d   1       0.643  -0.333   1.974  0.00  0.00     0.078 C 
ATOM      3  C1  OXE d   1       0.625  -1.762   1.493  0.00  0.00    -0.078 A 
ATOM      4  C2  OXE d   1       1.738  -2.219   0.828  0.00  0.00    -0.078 A 
ATOM      5  C3  OXE d   1       1.795  -3.546   0.411  0.00  0.00     0.003 A 
ATOM      6  C4  OXE d   1       0.672  -4.374   0.526  0.00  0.00    -0.002 A 
ATOM      7  C5  OXE d   1      -0.486  -3.916   1.164  0.00  0.00    -0.002 A 
ATOM      8  C6  OXE d   1      -0.510  -2.629   1.690  0.00  0.00     0.003 A 
ENDROOT
TORSDOF 0
ENDMDL
