MODEL 1
REMARK minimizedAffinity 2.11372185
REMARK minimizedRMSD -1
REMARK  0 active torsions:
REMARK  status: ('A' for Active; 'I' for Inactive)
ROOT
ATOM      1  C2' OXE d   1      -0.784  -1.550   1.485  0.00  0.00     0.078 C 
ATOM      2  C1' OXE d   1       1.744  -2.267   2.470  0.00  0.00     0.078 C 
ATOM      3  C1  OXE d   1       1.610  -0.931   1.783  0.00  0.00    -0.078 A 
ATOM      4  C2  OXE d   1       0.380  -0.609   1.263  0.00  0.00    -0.078 A 
ATOM      5  C3  OXE d   1       0.188   0.634   0.667  0.00  0.00     0.003 A 
ATOM      6  C4  OXE d   1       1.272   1.495   0.457  0.00  0.00    -0.002 A 
ATOM      7  C5  OXE d   1       2.542   1.168   0.944  0.00  0.00    -0.002 A 
ATOM      8  C6  OXE d   1       2.719  -0.019   1.645  0.00  0.00     0.003 A 
ENDROOT
TORSDOF 0
ENDMDL
