MODEL 1
REMARK minimizedAffinity 5.27885056
REMARK minimizedRMSD -1
REMARK  0 active torsions:
REMARK  status: ('A' for Active; 'I' for Inactive)
ROOT
ATOM      1  C2' OXE d   1       0.906   1.740   2.085  0.00  0.00     0.078 C 
ATOM      2  C1' OXE d   1       3.090   2.719   0.617  0.00  0.00     0.078 C 
ATOM      3  C1  OXE d   1       3.044   1.240   0.908  0.00  0.00    -0.078 A 
ATOM      4  C2  OXE d   1       1.997   0.777   1.667  0.00  0.00    -0.078 A 
ATOM      5  C3  OXE d   1       1.878  -0.587   1.919  0.00  0.00     0.003 A 
ATOM      6  C4  OXE d   1       2.895  -1.469   1.538  0.00  0.00    -0.002 A 
ATOM      7  C5  OXE d   1       3.992  -1.012   0.799  0.00  0.00    -0.002 A 
ATOM      8  C6  OXE d   1       4.060   0.330   0.440  0.00  0.00     0.003 A 
ENDROOT
TORSDOF 0
ENDMDL
