MODEL 1
REMARK minimizedAffinity 1.9638207
REMARK minimizedRMSD -1
REMARK  0 active torsions:
REMARK  status: ('A' for Active; 'I' for Inactive)
ROOT
ATOM      1  C2' OXE d   1      -5.974  -3.034  -1.833  0.00  0.00     0.078 C 
ATOM      2  C1' OXE d   1      -6.000  -5.836  -1.672  0.00  0.00     0.078 C 
ATOM      3  C1  OXE d   1      -5.965  -5.211  -3.044  0.00  0.00    -0.078 A 
ATOM      4  C2  OXE d   1      -5.999  -3.839  -3.115  0.00  0.00    -0.078 A 
ATOM      5  C3  OXE d   1      -5.914  -3.211  -4.353  0.00  0.00     0.003 A 
ATOM      6  C4  OXE d   1      -5.948  -3.963  -5.534  0.00  0.00    -0.002 A 
ATOM      7  C5  OXE d   1      -5.952  -5.361  -5.485  0.00  0.00    -0.002 A 
ATOM      8  C6  OXE d   1      -5.918  -6.000  -4.251  0.00  0.00     0.003 A 
ENDROOT
TORSDOF 0
ENDMDL
