MODEL 1
REMARK minimizedAffinity 1.90526617
REMARK minimizedRMSD -1
REMARK  0 active torsions:
REMARK  status: ('A' for Active; 'I' for Inactive)
ROOT
ATOM      1  C2' OXE d   1      -3.719   3.028  -4.757  0.00  0.00     0.078 C 
ATOM      2  C1' OXE d   1      -4.548   1.899  -2.324  0.00  0.00     0.078 C 
ATOM      3  C1  OXE d   1      -4.901   1.168  -3.596  0.00  0.00    -0.078 A 
ATOM      4  C2  OXE d   1      -4.532   1.752  -4.784  0.00  0.00    -0.078 A 
ATOM      5  C3  OXE d   1      -4.785   1.093  -5.983  0.00  0.00     0.003 A 
ATOM      6  C4  OXE d   1      -5.546  -0.082  -6.000  0.00  0.00    -0.002 A 
ATOM      7  C5  OXE d   1      -5.966  -0.673  -4.803  0.00  0.00    -0.002 A 
ATOM      8  C6  OXE d   1      -5.616  -0.084  -3.593  0.00  0.00     0.003 A 
ENDROOT
TORSDOF 0
ENDMDL
