MODEL 1
REMARK minimizedAffinity -0.985947788
REMARK minimizedRMSD -1
REMARK  0 active torsions:
REMARK  status: ('A' for Active; 'I' for Inactive)
ROOT
ATOM      1  C2' OXE d   1       2.975   4.143   0.214  0.00  0.00     0.078 C 
ATOM      2  C1' OXE d   1       0.238   4.095   0.835  0.00  0.00     0.078 C 
ATOM      3  C1  OXE d   1       1.064   2.888   1.203  0.00  0.00    -0.078 A 
ATOM      4  C2  OXE d   1       2.393   2.901   0.854  0.00  0.00    -0.078 A 
ATOM      5  C3  OXE d   1       3.212   1.837   1.219  0.00  0.00     0.003 A 
ATOM      6  C4  OXE d   1       2.664   0.687   1.801  0.00  0.00    -0.002 A 
ATOM      7  C5  OXE d   1       1.305   0.637   2.129  0.00  0.00    -0.002 A 
ATOM      8  C6  OXE d   1       0.501   1.743   1.876  0.00  0.00     0.003 A 
ENDROOT
TORSDOF 0
ENDMDL
