MODEL 1
REMARK minimizedAffinity 0.305867195
REMARK minimizedRMSD -1
REMARK  1 active torsions:
REMARK  status: ('A' for Active; 'I' for Inactive)
REMARK    1  A    between atoms: C1_2  and  C2_3 
ROOT
ATOM      1  C2  UNL d   1      -1.453   1.311   2.336  0.00  0.00    -0.076 A 
ATOM      2  C3  UNL d   1      -1.149   2.559   1.766  0.00  0.00     0.004 A 
ATOM      3  C4  UNL d   1      -0.103   2.696   0.855  0.00  0.00    -0.003 A 
ATOM      4  C5  UNL d   1       0.656   1.586   0.499  0.00  0.00     0.000 A 
ATOM      5  C6  UNL d   1       0.357   0.337   1.042  0.00  0.00     0.000 A 
ATOM      6  C7  UNL d   1      -0.705   0.179   1.949  0.00  0.00    -0.073 A 
ATOM      7  C8  UNL d   1      -0.979  -1.190   2.508  0.00  0.00     0.078 C 
ENDROOT
BRANCH   1   8
ATOM      8  C1  UNL d   1      -2.582   1.229   3.339  0.00  0.00     0.053 C 
ATOM      9  C   UNL d   1      -3.289   2.562   3.531  0.00  0.00     0.018 C 
ENDBRANCH   1   8
TORSDOF 1
ENDMDL
