MODEL 1
REMARK minimizedAffinity 2.01717544
REMARK minimizedRMSD -1
REMARK  1 active torsions:
REMARK  status: ('A' for Active; 'I' for Inactive)
REMARK    1  A    between atoms: C1_2  and  C2_3 
ROOT
ATOM      1  C2  UNL d   1      -1.075   1.242   1.958  0.00  0.00    -0.076 A 
ATOM      2  C3  UNL d   1      -1.795   0.080   2.286  0.00  0.00     0.004 A 
ATOM      3  C4  UNL d   1      -1.341  -1.179   1.897  0.00  0.00    -0.003 A 
ATOM      4  C5  UNL d   1      -0.160  -1.297   1.173  0.00  0.00     0.000 A 
ATOM      5  C6  UNL d   1       0.576  -0.156   0.853  0.00  0.00     0.000 A 
ATOM      6  C7  UNL d   1       0.141   1.119   1.253  0.00  0.00    -0.073 A 
ATOM      7  C8  UNL d   1       0.972   2.315   0.876  0.00  0.00     0.078 C 
ENDROOT
BRANCH   1   8
ATOM      8  C1  UNL d   1      -1.630   2.582   2.384  0.00  0.00     0.053 C 
ATOM      9  C   UNL d   1      -2.681   2.457   3.476  0.00  0.00     0.018 C 
ENDBRANCH   1   8
TORSDOF 1
ENDMDL
