MODEL 1
REMARK minimizedAffinity -1.0594933
REMARK minimizedRMSD -1
REMARK  1 active torsions:
REMARK  status: ('A' for Active; 'I' for Inactive)
REMARK    1  A    between atoms: C1_2  and  C2_3 
ROOT
ATOM      1  C2  UNL d   1      -2.802   1.266   2.921  0.00  0.00    -0.076 A 
ATOM      2  C3  UNL d   1      -2.249   2.539   2.695  0.00  0.00     0.004 A 
ATOM      3  C4  UNL d   1      -1.056   2.688   1.990  0.00  0.00    -0.003 A 
ATOM      4  C5  UNL d   1      -0.397   1.567   1.499  0.00  0.00     0.000 A 
ATOM      5  C6  UNL d   1      -0.940   0.298   1.698  0.00  0.00     0.000 A 
ATOM      6  C7  UNL d   1      -2.150   0.131   2.393  0.00  0.00    -0.073 A 
ATOM      7  C8  UNL d   1      -2.687  -1.261   2.584  0.00  0.00     0.078 C 
ENDROOT
BRANCH   1   8
ATOM      8  C1  UNL d   1      -4.084   1.164   3.716  0.00  0.00     0.053 C 
ATOM      9  C   UNL d   1      -4.274   2.335   4.668  0.00  0.00     0.018 C 
ENDBRANCH   1   8
TORSDOF 1
ENDMDL
