MODEL 1
REMARK minimizedAffinity 2.9171164
REMARK minimizedRMSD -1
REMARK  1 active torsions:
REMARK  status: ('A' for Active; 'I' for Inactive)
REMARK    1  A    between atoms: C1_2  and  C2_3 
ROOT
ATOM      1  C2  UNL d   1       0.083   0.521   1.333  0.00  0.00    -0.076 A 
ATOM      2  C3  UNL d   1       0.730   1.334   0.387  0.00  0.00     0.004 A 
ATOM      3  C4  UNL d   1       2.001   1.012  -0.087  0.00  0.00    -0.003 A 
ATOM      4  C5  UNL d   1       2.645  -0.130   0.377  0.00  0.00     0.000 A 
ATOM      5  C6  UNL d   1       2.010  -0.958   1.303  0.00  0.00     0.000 A 
ATOM      6  C7  UNL d   1       0.722  -0.656   1.778  0.00  0.00    -0.073 A 
ATOM      7  C8  UNL d   1       0.088  -1.581   2.780  0.00  0.00     0.078 C 
ENDROOT
BRANCH   1   8
ATOM      8  C1  UNL d   1      -1.283   0.935   1.831  0.00  0.00     0.053 C 
ATOM      9  C   UNL d   1      -1.248   2.242   2.608  0.00  0.00     0.018 C 
ENDBRANCH   1   8
TORSDOF 1
ENDMDL
