MODEL 1
REMARK minimizedAffinity 2.05556631
REMARK minimizedRMSD -1
REMARK  1 active torsions:
REMARK  status: ('A' for Active; 'I' for Inactive)
REMARK    1  A    between atoms: C1_2  and  C2_3 
ROOT
ATOM      1  C2  UNL d   1      -3.785   1.274   4.281  0.00  0.00    -0.076 A 
ATOM      2  C3  UNL d   1      -3.097   2.134   5.156  0.00  0.00     0.004 A 
ATOM      3  C4  UNL d   1      -3.788   3.001   6.000  0.00  0.00    -0.003 A 
ATOM      4  C5  UNL d   1      -5.178   3.023   5.984  0.00  0.00     0.000 A 
ATOM      5  C6  UNL d   1      -5.877   2.165   5.136  0.00  0.00     0.000 A 
ATOM      6  C7  UNL d   1      -5.196   1.273   4.290  0.00  0.00    -0.073 A 
ATOM      7  C8  UNL d   1      -6.000   0.374   3.391  0.00  0.00     0.078 C 
ENDROOT
BRANCH   1   8
ATOM      8  C1  UNL d   1      -2.981   0.375   3.369  0.00  0.00     0.053 C 
ATOM      9  C   UNL d   1      -2.275   1.146   2.265  0.00  0.00     0.018 C 
ENDBRANCH   1   8
TORSDOF 1
ENDMDL
