MODEL 1
REMARK minimizedAffinity -6.16207075
REMARK minimizedRMSD -1
REMARK  1 active torsions:
REMARK  status: ('A' for Active; 'I' for Inactive)
REMARK    1  A    between atoms: C1_2  and  C2_3 
ROOT
ATOM      1  C2  UNL d   1      -1.333   1.265   2.022  0.00  0.00    -0.076 A 
ATOM      2  C3  UNL d   1      -1.604  -0.070   1.677  0.00  0.00     0.004 A 
ATOM      3  C4  UNL d   1      -0.795  -0.756   0.773  0.00  0.00    -0.003 A 
ATOM      4  C5  UNL d   1       0.299  -0.117   0.199  0.00  0.00     0.000 A 
ATOM      5  C6  UNL d   1       0.593   1.202   0.544  0.00  0.00     0.000 A 
ATOM      6  C7  UNL d   1      -0.203   1.902   1.466  0.00  0.00    -0.073 A 
ATOM      7  C8  UNL d   1       0.157   3.325   1.797  0.00  0.00     0.078 C 
ENDROOT
BRANCH   1   8
ATOM      8  C1  UNL d   1      -2.261   1.967   2.988  0.00  0.00     0.053 C 
ATOM      9  C   UNL d   1      -3.461   1.113   3.367  0.00  0.00     0.018 C 
ENDBRANCH   1   8
TORSDOF 1
ENDMDL
