MODEL 1
REMARK minimizedAffinity -1.29729354
REMARK minimizedRMSD -1
REMARK  1 active torsions:
REMARK  status: ('A' for Active; 'I' for Inactive)
REMARK    1  A    between atoms: C1_2  and  C2_3 
ROOT
ATOM      1  C2  UNL d   1      -1.593   0.997   2.424  0.00  0.00    -0.076 A 
ATOM      2  C3  UNL d   1      -1.223   2.352   2.385  0.00  0.00     0.004 A 
ATOM      3  C4  UNL d   1      -0.013   2.750   1.819  0.00  0.00    -0.003 A 
ATOM      4  C5  UNL d   1       0.846   1.799   1.280  0.00  0.00     0.000 A 
ATOM      5  C6  UNL d   1       0.487   0.451   1.294  0.00  0.00     0.000 A 
ATOM      6  C7  UNL d   1      -0.736   0.035   1.847  0.00  0.00    -0.073 A 
ATOM      7  C8  UNL d   1      -1.070  -1.432   1.840  0.00  0.00     0.078 C 
ENDROOT
BRANCH   1   8
ATOM      8  C1  UNL d   1      -2.905   0.622   3.075  0.00  0.00     0.053 C 
ATOM      9  C   UNL d   1      -3.511   1.771   3.866  0.00  0.00     0.018 C 
ENDBRANCH   1   8
TORSDOF 1
ENDMDL
