MODEL 1
REMARK minimizedAffinity -3.86746621
REMARK minimizedRMSD -1
REMARK  1 active torsions:
REMARK  status: ('A' for Active; 'I' for Inactive)
REMARK    1  A    between atoms: C1_2  and  C2_3 
ROOT
ATOM      1  C2  UNL d   1      -1.346   1.578   1.889  0.00  0.00    -0.076 A 
ATOM      2  C3  UNL d   1      -0.156   1.996   1.269  0.00  0.00     0.004 A 
ATOM      3  C4  UNL d   1       0.761   1.068   0.778  0.00  0.00    -0.003 A 
ATOM      4  C5  UNL d   1       0.503  -0.293   0.900  0.00  0.00     0.000 A 
ATOM      5  C6  UNL d   1      -0.681  -0.725   1.497  0.00  0.00     0.000 A 
ATOM      6  C7  UNL d   1      -1.624   0.198   1.982  0.00  0.00    -0.073 A 
ATOM      7  C8  UNL d   1      -2.881  -0.324   2.623  0.00  0.00     0.078 C 
ENDROOT
BRANCH   1   8
ATOM      8  C1  UNL d   1      -2.291   2.630   2.426  0.00  0.00     0.053 C 
ATOM      9  C   UNL d   1      -3.096   2.136   3.619  0.00  0.00     0.018 C 
ENDBRANCH   1   8
TORSDOF 1
ENDMDL
