MODEL 1
REMARK minimizedAffinity -0.355471432
REMARK minimizedRMSD -1
REMARK  1 active torsions:
REMARK  status: ('A' for Active; 'I' for Inactive)
REMARK    1  A    between atoms: C1_2  and  C2_3 
ROOT
ATOM      1  C2  UNL d   1      -1.084   1.738   1.709  0.00  0.00    -0.076 A 
ATOM      2  C3  UNL d   1       0.107   2.474   1.837  0.00  0.00     0.004 A 
ATOM      3  C4  UNL d   1       1.344   1.890   1.572  0.00  0.00    -0.003 A 
ATOM      4  C5  UNL d   1       1.411   0.559   1.174  0.00  0.00     0.000 A 
ATOM      5  C6  UNL d   1       0.239  -0.181   1.024  0.00  0.00     0.000 A 
ATOM      6  C7  UNL d   1      -1.018   0.397   1.272  0.00  0.00    -0.073 A 
ATOM      7  C8  UNL d   1      -2.249  -0.450   1.101  0.00  0.00     0.078 C 
ENDROOT
BRANCH   1   8
ATOM      8  C1  UNL d   1      -2.394   2.417   2.036  0.00  0.00     0.053 C 
ATOM      9  C   UNL d   1      -2.999   1.918   3.339  0.00  0.00     0.018 C 
ENDBRANCH   1   8
TORSDOF 1
ENDMDL
