MODEL 1
REMARK minimizedAffinity 3.55682278
REMARK minimizedRMSD -1
REMARK  1 active torsions:
REMARK  status: ('A' for Active; 'I' for Inactive)
REMARK    1  A    between atoms: C1_2  and  C2_3 
ROOT
ATOM      1  C2  UNL d   1       0.258   1.221   2.172  0.00  0.00    -0.076 A 
ATOM      2  C3  UNL d   1      -0.890   0.507   2.555  0.00  0.00     0.004 A 
ATOM      3  C4  UNL d   1      -2.117   1.150   2.708  0.00  0.00    -0.003 A 
ATOM      4  C5  UNL d   1      -2.216   2.518   2.480  0.00  0.00     0.000 A 
ATOM      5  C6  UNL d   1      -1.091   3.239   2.083  0.00  0.00     0.000 A 
ATOM      6  C7  UNL d   1       0.150   2.603   1.908  0.00  0.00    -0.073 A 
ATOM      7  C8  UNL d   1       1.332   3.431   1.483  0.00  0.00     0.078 C 
ENDROOT
BRANCH   1   8
ATOM      8  C1  UNL d   1       1.567   0.475   2.048  0.00  0.00     0.053 C 
ATOM      9  C   UNL d   1       1.834  -0.435   3.237  0.00  0.00     0.018 C 
ENDBRANCH   1   8
TORSDOF 1
ENDMDL
