MODEL 1
REMARK minimizedAffinity -0.0407414883
REMARK minimizedRMSD -1
REMARK  0 active torsions:
REMARK  status: ('A' for Active; 'I' for Inactive)
ROOT
ATOM      1  C1  BNZ d   1      -1.334   4.821   0.627  0.00  0.00     0.000 A 
ATOM      2  C2  BNZ d   1      -1.742   3.526   0.807  0.00  0.00     0.000 A 
ATOM      3  C3  BNZ d   1      -1.162   2.506   0.107  0.00  0.00     0.000 A 
ATOM      4  C4  BNZ d   1      -0.204   2.785  -0.801  0.00  0.00     0.000 A 
ATOM      5  C5  BNZ d   1       0.212   4.087  -1.001  0.00  0.00     0.000 A 
ATOM      6  C6  BNZ d   1      -0.348   5.107  -0.266  0.00  0.00     0.000 A 
ENDROOT
TORSDOF 0
ENDMDL
