MODEL 1
REMARK minimizedAffinity 0.832213521
REMARK minimizedRMSD -1
REMARK  0 active torsions:
REMARK  status: ('A' for Active; 'I' for Inactive)
ROOT
ATOM      1  C1  BNZ d   1       0.726   0.892  -1.057  0.00  0.00     0.000 A 
ATOM      2  C2  BNZ d   1      -0.372   0.772  -1.867  0.00  0.00     0.000 A 
ATOM      3  C3  BNZ d   1      -0.789  -0.454  -2.304  0.00  0.00     0.000 A 
ATOM      4  C4  BNZ d   1      -0.086  -1.553  -1.965  0.00  0.00     0.000 A 
ATOM      5  C5  BNZ d   1       1.029  -1.448  -1.157  0.00  0.00     0.000 A 
ATOM      6  C6  BNZ d   1       1.423  -0.217  -0.686  0.00  0.00     0.000 A 
ENDROOT
TORSDOF 0
ENDMDL
