MODEL 1
REMARK minimizedAffinity 6.36458921
REMARK minimizedRMSD -1
REMARK  0 active torsions:
REMARK  status: ('A' for Active; 'I' for Inactive)
ROOT
ATOM      1  C1  BNZ d   1      -0.623   1.776  -0.594  0.00  0.00     0.000 A 
ATOM      2  C2  BNZ d   1      -1.389   1.761   0.541  0.00  0.00     0.000 A 
ATOM      3  C3  BNZ d   1      -1.689   2.922   1.198  0.00  0.00     0.000 A 
ATOM      4  C4  BNZ d   1      -1.192   4.090   0.742  0.00  0.00     0.000 A 
ATOM      5  C5  BNZ d   1      -0.410   4.120  -0.396  0.00  0.00     0.000 A 
ATOM      6  C6  BNZ d   1      -0.142   2.954  -1.076  0.00  0.00     0.000 A 
ENDROOT
TORSDOF 0
ENDMDL
