MODEL 1
REMARK minimizedAffinity 1.42642176
REMARK minimizedRMSD -1
REMARK  0 active torsions:
REMARK  status: ('A' for Active; 'I' for Inactive)
ROOT
ATOM      1  C1  BNZ d   1      -2.301   3.136   1.206  0.00  0.00     0.000 A 
ATOM      2  C2  BNZ d   1      -1.998   3.451  -0.091  0.00  0.00     0.000 A 
ATOM      3  C3  BNZ d   1      -0.739   3.253  -0.585  0.00  0.00     0.000 A 
ATOM      4  C4  BNZ d   1       0.225   2.778   0.230  0.00  0.00     0.000 A 
ATOM      5  C5  BNZ d   1      -0.062   2.464   1.544  0.00  0.00     0.000 A 
ATOM      6  C6  BNZ d   1      -1.340   2.628   2.026  0.00  0.00     0.000 A 
ENDROOT
TORSDOF 0
ENDMDL
