MODEL 1
REMARK minimizedAffinity 5.91209984
REMARK minimizedRMSD -1
REMARK  0 active torsions:
REMARK  status: ('A' for Active; 'I' for Inactive)
ROOT
ATOM      1  C1  BNZ d   1      -1.728   2.134   1.572  0.00  0.00     0.000 A 
ATOM      2  C2  BNZ d   1      -0.754   2.568   0.713  0.00  0.00     0.000 A 
ATOM      3  C3  BNZ d   1       0.436   1.903   0.610  0.00  0.00     0.000 A 
ATOM      4  C4  BNZ d   1       0.665   0.830   1.394  0.00  0.00     0.000 A 
ATOM      5  C5  BNZ d   1      -0.303   0.386   2.272  0.00  0.00     0.000 A 
ATOM      6  C6  BNZ d   1      -1.514   1.035   2.345  0.00  0.00     0.000 A 
ENDROOT
TORSDOF 0
ENDMDL
