MODEL 1
REMARK minimizedAffinity 4.25732327
REMARK minimizedRMSD -1
REMARK  0 active torsions:
REMARK  status: ('A' for Active; 'I' for Inactive)
ROOT
ATOM      1  C1  BNZ d   1       5.131  -3.566   0.230  0.00  0.00     0.000 A 
ATOM      2  C2  BNZ d   1       4.102  -4.433  -0.024  0.00  0.00     0.000 A 
ATOM      3  C3  BNZ d   1       2.805  -4.004  -0.008  0.00  0.00     0.000 A 
ATOM      4  C4  BNZ d   1       2.535  -2.719   0.302  0.00  0.00     0.000 A 
ATOM      5  C5  BNZ d   1       3.561  -1.835   0.570  0.00  0.00     0.000 A 
ATOM      6  C6  BNZ d   1       4.868  -2.261   0.514  0.00  0.00     0.000 A 
ENDROOT
TORSDOF 0
ENDMDL
