MODEL 1
REMARK minimizedAffinity 7.8595314
REMARK minimizedRMSD -1
REMARK  0 active torsions:
REMARK  status: ('A' for Active; 'I' for Inactive)
ROOT
ATOM      1  C1  BNZ d   1      -0.887   2.294   1.106  0.00  0.00     0.000 A 
ATOM      2  C2  BNZ d   1      -0.203   1.882   2.219  0.00  0.00     0.000 A 
ATOM      3  C3  BNZ d   1       0.880   1.056   2.109  0.00  0.00     0.000 A 
ATOM      4  C4  BNZ d   1       1.253   0.610   0.893  0.00  0.00     0.000 A 
ATOM      5  C5  BNZ d   1       0.568   1.008  -0.238  0.00  0.00     0.000 A 
ATOM      6  C6  BNZ d   1      -0.498   1.871  -0.127  0.00  0.00     0.000 A 
ENDROOT
TORSDOF 0
ENDMDL
