MODEL 1
REMARK minimizedAffinity -0.742011309
REMARK minimizedRMSD -1
REMARK  0 active torsions:
REMARK  status: ('A' for Active; 'I' for Inactive)
ROOT
ATOM      1  C1  BNZ d   1      -3.491   2.003   1.888  0.00  0.00     0.000 A 
ATOM      2  C2  BNZ d   1      -3.360   3.180   1.200  0.00  0.00     0.000 A 
ATOM      3  C3  BNZ d   1      -2.125   3.693   0.920  0.00  0.00     0.000 A 
ATOM      4  C4  BNZ d   1      -1.024   3.051   1.362  0.00  0.00     0.000 A 
ATOM      5  C5  BNZ d   1      -1.140   1.868   2.065  0.00  0.00     0.000 A 
ATOM      6  C6  BNZ d   1      -2.384   1.334   2.311  0.00  0.00     0.000 A 
ENDROOT
TORSDOF 0
ENDMDL
