MODEL 1
REMARK minimizedAffinity -0.058580067
REMARK minimizedRMSD -1
REMARK  0 active torsions:
REMARK  status: ('A' for Active; 'I' for Inactive)
ROOT
ATOM      1  C1  BNZ d   1      -2.845   2.214   1.600  0.00  0.00     0.000 A 
ATOM      2  C2  BNZ d   1      -2.933   3.012   0.491  0.00  0.00     0.000 A 
ATOM      3  C3  BNZ d   1      -1.828   3.285  -0.266  0.00  0.00     0.000 A 
ATOM      4  C4  BNZ d   1      -0.630   2.792   0.109  0.00  0.00     0.000 A 
ATOM      5  C5  BNZ d   1      -0.523   1.992   1.229  0.00  0.00     0.000 A 
ATOM      6  C6  BNZ d   1      -1.644   1.688   1.967  0.00  0.00     0.000 A 
ENDROOT
TORSDOF 0
ENDMDL
