MODEL 1
REMARK minimizedAffinity 1.75522327
REMARK minimizedRMSD -1
REMARK  0 active torsions:
REMARK  status: ('A' for Active; 'I' for Inactive)
ROOT
ATOM      1  C1  BNZ d   1       0.135   1.853  -1.114  0.00  0.00     0.000 A 
ATOM      2  C2  BNZ d   1      -0.482   1.755   0.105  0.00  0.00     0.000 A 
ATOM      3  C3  BNZ d   1      -0.730   2.870   0.856  0.00  0.00     0.000 A 
ATOM      4  C4  BNZ d   1      -0.326   4.076   0.406  0.00  0.00     0.000 A 
ATOM      5  C5  BNZ d   1       0.305   4.190  -0.817  0.00  0.00     0.000 A 
ATOM      6  C6  BNZ d   1       0.518   3.070  -1.587  0.00  0.00     0.000 A 
ENDROOT
TORSDOF 0
ENDMDL
