MODEL 1
REMARK minimizedAffinity 3.44409251
REMARK minimizedRMSD -1
REMARK  0 active torsions:
REMARK  status: ('A' for Active; 'I' for Inactive)
ROOT
ATOM      1  C1  BNZ d   1       0.155   2.373  -1.712  0.00  0.00     0.000 A 
ATOM      2  C2  BNZ d   1      -0.014   3.628  -1.191  0.00  0.00     0.000 A 
ATOM      3  C3  BNZ d   1      -0.463   3.801   0.088  0.00  0.00     0.000 A 
ATOM      4  C4  BNZ d   1      -0.781   2.721   0.830  0.00  0.00     0.000 A 
ATOM      5  C5  BNZ d   1      -0.625   1.449   0.316  0.00  0.00     0.000 A 
ATOM      6  C6  BNZ d   1      -0.136   1.278  -0.958  0.00  0.00     0.000 A 
ENDROOT
TORSDOF 0
ENDMDL
