MODEL 1
REMARK minimizedAffinity 5.1076827
REMARK minimizedRMSD -1
REMARK  0 active torsions:
REMARK  status: ('A' for Active; 'I' for Inactive)
ROOT
ATOM      1  C1  BNZ d   1      -0.463   4.035   0.212  0.00  0.00     0.000 A 
ATOM      2  C2  BNZ d   1      -0.025   4.082  -1.085  0.00  0.00     0.000 A 
ATOM      3  C3  BNZ d   1       0.157   2.934  -1.804  0.00  0.00     0.000 A 
ATOM      4  C4  BNZ d   1      -0.060   1.741  -1.215  0.00  0.00     0.000 A 
ATOM      5  C5  BNZ d   1      -0.492   1.676   0.095  0.00  0.00     0.000 A 
ATOM      6  C6  BNZ d   1      -0.712   2.835   0.804  0.00  0.00     0.000 A 
ENDROOT
TORSDOF 0
ENDMDL
