MODEL 1
REMARK minimizedAffinity 5.14516592
REMARK minimizedRMSD -1
REMARK  0 active torsions:
REMARK  status: ('A' for Active; 'I' for Inactive)
ROOT
ATOM      1  C1  BNZ d   1       0.636   4.861   2.019  0.00  0.00     0.000 A 
ATOM      2  C2  BNZ d   1       0.732   3.632   2.616  0.00  0.00     0.000 A 
ATOM      3  C3  BNZ d   1      -0.319   2.758   2.591  0.00  0.00     0.000 A 
ATOM      4  C4  BNZ d   1      -1.476   3.128   2.005  0.00  0.00     0.000 A 
ATOM      5  C5  BNZ d   1      -1.591   4.367   1.408  0.00  0.00     0.000 A 
ATOM      6  C6  BNZ d   1      -0.519   5.230   1.401  0.00  0.00     0.000 A 
ENDROOT
TORSDOF 0
ENDMDL
