MODEL 1
REMARK minimizedAffinity 3.71921253
REMARK minimizedRMSD -1
REMARK  0 active torsions:
REMARK  status: ('A' for Active; 'I' for Inactive)
ROOT
ATOM      1  C1  BNZ d   1      -1.558  -1.087  -2.282  0.00  0.00     0.000 A 
ATOM      2  C2  BNZ d   1      -0.275  -0.699  -1.997  0.00  0.00     0.000 A 
ATOM      3  C3  BNZ d   1       0.006   0.596  -1.663  0.00  0.00     0.000 A 
ATOM      4  C4  BNZ d   1      -0.986   1.509  -1.652  0.00  0.00     0.000 A 
ATOM      5  C5  BNZ d   1      -2.283   1.136  -1.946  0.00  0.00     0.000 A 
ATOM      6  C6  BNZ d   1      -2.569  -0.177  -2.244  0.00  0.00     0.000 A 
ENDROOT
TORSDOF 0
ENDMDL
