MODEL 1
REMARK minimizedAffinity 5.95965195
REMARK minimizedRMSD -1
REMARK  0 active torsions:
REMARK  status: ('A' for Active; 'I' for Inactive)
ROOT
ATOM      1  C1  BNZ d   1       5.355  -3.572   0.946  0.00  0.00     0.000 A 
ATOM      2  C2  BNZ d   1       4.442  -4.592   0.960  0.00  0.00     0.000 A 
ATOM      3  C3  BNZ d   1       3.100  -4.330   0.964  0.00  0.00     0.000 A 
ATOM      4  C4  BNZ d   1       2.674  -3.051   0.994  0.00  0.00     0.000 A 
ATOM      5  C5  BNZ d   1       3.583  -2.012   0.990  0.00  0.00     0.000 A 
ATOM      6  C6  BNZ d   1       4.932  -2.278   0.946  0.00  0.00     0.000 A 
ENDROOT
TORSDOF 0
ENDMDL
