MODEL 1
REMARK minimizedAffinity -1.72636282
REMARK minimizedRMSD -1
REMARK  0 active torsions:
REMARK  status: ('A' for Active; 'I' for Inactive)
ROOT
ATOM      1  C1  BNZ d   1      -1.701   4.383   0.335  0.00  0.00     0.000 A 
ATOM      2  C2  BNZ d   1      -0.929   4.758  -0.732  0.00  0.00     0.000 A 
ATOM      3  C3  BNZ d   1      -0.306   3.821  -1.509  0.00  0.00     0.000 A 
ATOM      4  C4  BNZ d   1      -0.423   2.515  -1.194  0.00  0.00     0.000 A 
ATOM      5  C5  BNZ d   1      -1.190   2.122  -0.115  0.00  0.00     0.000 A 
ATOM      6  C6  BNZ d   1      -1.848   3.065   0.640  0.00  0.00     0.000 A 
ENDROOT
TORSDOF 0
ENDMDL
