MODEL 1
REMARK minimizedAffinity -5.54024935
REMARK minimizedRMSD -1
REMARK  0 active torsions:
REMARK  status: ('A' for Active; 'I' for Inactive)
ROOT
ATOM      1  C   UNL d   1       3.209   0.651   0.745  0.00  0.00     0.020 A 
ATOM      2  C1  UNL d   1       3.533  -0.704   0.702  0.00  0.00     0.020 A 
ATOM      3  C2  UNL d   1       2.635  -1.620   0.151  0.00  0.00     0.034 A 
ATOM      4  C3  UNL d   1       1.408  -1.181  -0.361  0.00  0.00     0.017 A 
ATOM      5  C4  UNL d   1       1.084   0.179  -0.318  0.00  0.00     0.017 A 
ATOM      6  C5  UNL d   1       1.987   1.092   0.236  0.00  0.00     0.034 A 
ATOM      7 Cl   UNL d   1      -0.411   0.796  -0.929  0.00  0.00    -0.070 Cl
ATOM      8 Cl1  UNL d   1       0.345  -2.369  -1.028  0.00  0.00    -0.070 Cl
ENDROOT
TORSDOF 0
ENDMDL
