MODEL 1
REMARK minimizedAffinity -3.21862221
REMARK minimizedRMSD -1
REMARK  0 active torsions:
REMARK  status: ('A' for Active; 'I' for Inactive)
ROOT
ATOM      1  C   UNL d   1       2.657  -2.096   1.068  0.00  0.00     0.020 A 
ATOM      2  C1  UNL d   1       2.797  -0.903   1.775  0.00  0.00     0.020 A 
ATOM      3  C2  UNL d   1       2.046   0.217   1.410  0.00  0.00     0.034 A 
ATOM      4  C3  UNL d   1       1.152   0.145   0.336  0.00  0.00     0.017 A 
ATOM      5  C4  UNL d   1       1.012  -1.054  -0.373  0.00  0.00     0.017 A 
ATOM      6  C5  UNL d   1       1.767  -2.172  -0.004  0.00  0.00     0.034 A 
ATOM      7 Cl   UNL d   1      -0.071  -1.220  -1.710  0.00  0.00    -0.070 Cl
ATOM      8 Cl1  UNL d   1       0.254   1.567  -0.060  0.00  0.00    -0.070 Cl
ENDROOT
TORSDOF 0
ENDMDL
