MODEL 1
REMARK minimizedAffinity -5.2725091
REMARK minimizedRMSD -1
REMARK  0 active torsions:
REMARK  status: ('A' for Active; 'I' for Inactive)
ROOT
ATOM      1  C   UNL d   1       3.247   0.242   0.405  0.00  0.00     0.020 A 
ATOM      2  C1  UNL d   1       2.615   1.483   0.351  0.00  0.00     0.020 A 
ATOM      3  C2  UNL d   1       1.253   1.562   0.053  0.00  0.00     0.034 A 
ATOM      4  C3  UNL d   1       0.518   0.396  -0.193  0.00  0.00     0.017 A 
ATOM      5  C4  UNL d   1       1.153  -0.850  -0.138  0.00  0.00     0.017 A 
ATOM      6  C5  UNL d   1       2.517  -0.923   0.161  0.00  0.00     0.034 A 
ATOM      7 Cl   UNL d   1       0.313  -2.332  -0.429  0.00  0.00    -0.070 Cl
ATOM      8 Cl1  UNL d   1      -1.162   0.567  -0.555  0.00  0.00    -0.070 Cl
ENDROOT
TORSDOF 0
ENDMDL
