MODEL 1
REMARK minimizedAffinity -3.16164422
REMARK minimizedRMSD -1
REMARK  0 active torsions:
REMARK  status: ('A' for Active; 'I' for Inactive)
ROOT
ATOM      1  C   UNL d   1      -0.100   0.206   0.469  0.00  0.00     0.020 A 
ATOM      2  C1  UNL d   1      -0.669  -0.663  -0.461  0.00  0.00     0.020 A 
ATOM      3  C2  UNL d   1       0.056  -1.763  -0.924  0.00  0.00     0.034 A 
ATOM      4  C3  UNL d   1       1.355  -1.996  -0.457  0.00  0.00     0.017 A 
ATOM      5  C4  UNL d   1       1.925  -1.123   0.476  0.00  0.00     0.017 A 
ATOM      6  C5  UNL d   1       1.194  -0.023   0.936  0.00  0.00     0.034 A 
ATOM      7 Cl   UNL d   1       3.522  -1.345   1.098  0.00  0.00    -0.070 Cl
ATOM      8 Cl1  UNL d   1       2.194  -3.375  -1.072  0.00  0.00    -0.070 Cl
ENDROOT
TORSDOF 0
ENDMDL
