MODEL 1
REMARK minimizedAffinity -4.21723366
REMARK minimizedRMSD -1
REMARK  0 active torsions:
REMARK  status: ('A' for Active; 'I' for Inactive)
ROOT
ATOM      1  C   UNL d   1       2.435  -0.866   1.297  0.00  0.00     0.020 A 
ATOM      2  C1  UNL d   1       2.741  -1.928   0.448  0.00  0.00     0.020 A 
ATOM      3  C2  UNL d   1       1.822  -2.335  -0.521  0.00  0.00     0.034 A 
ATOM      4  C3  UNL d   1       0.591  -1.680  -0.643  0.00  0.00     0.017 A 
ATOM      5  C4  UNL d   1       0.285  -0.613   0.210  0.00  0.00     0.017 A 
ATOM      6  C5  UNL d   1       1.209  -0.210   1.178  0.00  0.00     0.034 A 
ATOM      7 Cl   UNL d   1      -1.213   0.245   0.120  0.00  0.00    -0.070 Cl
ATOM      8 Cl1  UNL d   1      -0.498  -2.236  -1.863  0.00  0.00    -0.070 Cl
ENDROOT
TORSDOF 0
ENDMDL
