MODEL 1
REMARK minimizedAffinity -2.92378163
REMARK minimizedRMSD -1
REMARK  0 active torsions:
REMARK  status: ('A' for Active; 'I' for Inactive)
ROOT
ATOM      1  C   UNL d   1       0.378   1.032   0.124  0.00  0.00     0.020 A 
ATOM      2  C1  UNL d   1      -0.368   0.454  -0.902  0.00  0.00     0.020 A 
ATOM      3  C2  UNL d   1      -0.174  -0.888  -1.234  0.00  0.00     0.034 A 
ATOM      4  C3  UNL d   1       0.767  -1.657  -0.541  0.00  0.00     0.017 A 
ATOM      5  C4  UNL d   1       1.516  -1.075   0.489  0.00  0.00     0.017 A 
ATOM      6  C5  UNL d   1       1.318   0.269   0.818  0.00  0.00     0.034 A 
ATOM      7 Cl   UNL d   1       2.696  -1.960   1.390  0.00  0.00    -0.070 Cl
ATOM      8 Cl1  UNL d   1       0.954  -3.311  -1.005  0.00  0.00    -0.070 Cl
ENDROOT
TORSDOF 0
ENDMDL
