MODEL 1
REMARK minimizedAffinity -4.50694847
REMARK minimizedRMSD -1
REMARK  0 active torsions:
REMARK  status: ('A' for Active; 'I' for Inactive)
ROOT
ATOM      1  C   UNL d   1       2.350  -0.405   1.615  0.00  0.00     0.020 A 
ATOM      2  C1  UNL d   1       2.771  -1.563   0.961  0.00  0.00     0.020 A 
ATOM      3  C2  UNL d   1       2.059  -2.041  -0.140  0.00  0.00     0.034 A 
ATOM      4  C3  UNL d   1       0.921  -1.362  -0.591  0.00  0.00     0.017 A 
ATOM      5  C4  UNL d   1       0.499  -0.201   0.065  0.00  0.00     0.017 A 
ATOM      6  C5  UNL d   1       1.216   0.274   1.168  0.00  0.00     0.034 A 
ATOM      7 Cl   UNL d   1      -0.895   0.691  -0.433  0.00  0.00    -0.070 Cl
ATOM      8 Cl1  UNL d   1       0.088  -2.010  -1.959  0.00  0.00    -0.070 Cl
ENDROOT
TORSDOF 0
ENDMDL
