MODEL 1
REMARK minimizedAffinity -2.28861594
REMARK minimizedRMSD -1
REMARK  0 active torsions:
REMARK  status: ('A' for Active; 'I' for Inactive)
ROOT
ATOM      1  C   UNL d   1      -0.882  -1.420  -0.615  0.00  0.00     0.020 A 
ATOM      2  C1  UNL d   1      -1.197  -0.069  -0.467  0.00  0.00     0.020 A 
ATOM      3  C2  UNL d   1      -0.222   0.832  -0.034  0.00  0.00     0.034 A 
ATOM      4  C3  UNL d   1       1.072   0.384   0.253  0.00  0.00     0.017 A 
ATOM      5  C4  UNL d   1       1.387  -0.972   0.105  0.00  0.00     0.017 A 
ATOM      6  C5  UNL d   1       0.407  -1.870  -0.329  0.00  0.00     0.034 A 
ATOM      7 Cl   UNL d   1       2.963  -1.599   0.440  0.00  0.00    -0.070 Cl
ATOM      8 Cl1  UNL d   1       2.228   1.553   0.784  0.00  0.00    -0.070 Cl
ENDROOT
TORSDOF 0
ENDMDL
