MODEL 1
REMARK minimizedAffinity -0.695720255
REMARK minimizedRMSD -1
REMARK  0 active torsions:
REMARK  status: ('A' for Active; 'I' for Inactive)
ROOT
ATOM      1  C   UNL d   1      -0.540   0.286  -0.296  0.00  0.00     0.020 A 
ATOM      2  C1  UNL d   1       0.127   1.510  -0.255  0.00  0.00     0.020 A 
ATOM      3  C2  UNL d   1       1.483   1.577  -0.578  0.00  0.00     0.034 A 
ATOM      4  C3  UNL d   1       2.178   0.419  -0.944  0.00  0.00     0.017 A 
ATOM      5  C4  UNL d   1       1.508  -0.809  -0.985  0.00  0.00     0.017 A 
ATOM      6  C5  UNL d   1       0.149  -0.871  -0.660  0.00  0.00     0.034 A 
ATOM      7 Cl   UNL d   1       2.298  -2.282  -1.426  0.00  0.00    -0.070 Cl
ATOM      8 Cl1  UNL d   1       3.855   0.575  -1.331  0.00  0.00    -0.070 Cl
ENDROOT
TORSDOF 0
ENDMDL
