MODEL 1
REMARK minimizedAffinity -4.21610117
REMARK minimizedRMSD -1
REMARK  0 active torsions:
REMARK  status: ('A' for Active; 'I' for Inactive)
ROOT
ATOM      1  C   UNL d   1      -0.864   0.208  -0.691  0.00  0.00     0.020 A 
ATOM      2  C1  UNL d   1      -0.557  -1.150  -0.754  0.00  0.00     0.020 A 
ATOM      3  C2  UNL d   1       0.733  -1.589  -0.446  0.00  0.00     0.034 A 
ATOM      4  C3  UNL d   1       1.719  -0.669  -0.072  0.00  0.00     0.017 A 
ATOM      5  C4  UNL d   1       1.409   0.694  -0.009  0.00  0.00     0.017 A 
ATOM      6  C5  UNL d   1       0.117   1.128  -0.318  0.00  0.00     0.034 A 
ATOM      7 Cl   UNL d   1       2.573   1.889   0.444  0.00  0.00    -0.070 Cl
ATOM      8 Cl1  UNL d   1       3.292  -1.282   0.296  0.00  0.00    -0.070 Cl
ENDROOT
TORSDOF 0
ENDMDL
