MODEL 1
REMARK minimizedAffinity -1.48643672
REMARK minimizedRMSD -1
REMARK  0 active torsions:
REMARK  status: ('A' for Active; 'I' for Inactive)
ROOT
ATOM      1  C   UNL d   1      -0.769  -2.264  -1.421  0.00  0.00     0.172 C 
ATOM      2  N   UNL d   1       0.002  -2.402  -0.208  0.00  0.00    -0.070 N 
ATOM      3  C1  UNL d   1      -0.463  -2.185   1.062  0.00  0.00    -0.004 A 
ATOM      4  C2  UNL d   1       0.575  -2.422   1.937  0.00  0.00    -0.047 A 
ATOM      5  C3  UNL d   1       1.703  -2.792   1.167  0.00  0.00    -0.047 A 
ATOM      6  C4  UNL d   1       1.320  -2.772  -0.158  0.00  0.00    -0.004 A 
ENDROOT
TORSDOF 0
ENDMDL
