MODEL 1
REMARK minimizedAffinity -1.07109928
REMARK minimizedRMSD -1
REMARK  0 active torsions:
REMARK  status: ('A' for Active; 'I' for Inactive)
ROOT
ATOM      1  C   UNL d   1       1.963  -2.272   1.603  0.00  0.00     0.172 C 
ATOM      2  N   UNL d   1       0.981  -2.278   0.544  0.00  0.00    -0.070 N 
ATOM      3  C1  UNL d   1       1.201  -2.681  -0.746  0.00  0.00    -0.004 A 
ATOM      4  C2  UNL d   1       0.020  -2.535  -1.441  0.00  0.00    -0.047 A 
ATOM      5  C3  UNL d   1      -0.943  -2.027  -0.538  0.00  0.00    -0.047 A 
ATOM      6  C4  UNL d   1      -0.321  -1.877   0.684  0.00  0.00    -0.004 A 
ENDROOT
TORSDOF 0
ENDMDL
