MODEL 1
REMARK minimizedAffinity 0.953847885
REMARK minimizedRMSD -1
REMARK  0 active torsions:
REMARK  status: ('A' for Active; 'I' for Inactive)
ROOT
ATOM      1  C   UNL d   1       0.287  -1.775   1.283  0.00  0.00     0.172 C 
ATOM      2  N   UNL d   1       1.248  -0.697   1.294  0.00  0.00    -0.070 N 
ATOM      3  C1  UNL d   1       2.494  -0.744   1.860  0.00  0.00    -0.004 A 
ATOM      4  C2  UNL d   1       3.096   0.479   1.657  0.00  0.00    -0.047 A 
ATOM      5  C3  UNL d   1       2.180   1.289   0.945  0.00  0.00    -0.047 A 
ATOM      6  C4  UNL d   1       1.044   0.536   0.733  0.00  0.00    -0.004 A 
ENDROOT
TORSDOF 0
ENDMDL
