MODEL 1
REMARK minimizedAffinity 4.70721817
REMARK minimizedRMSD -1
REMARK  0 active torsions:
REMARK  status: ('A' for Active; 'I' for Inactive)
ROOT
ATOM      1  C   UNL d   1       3.314   1.536   3.713  0.00  0.00     0.172 C 
ATOM      2  N   UNL d   1       2.758   0.692   2.682  0.00  0.00    -0.070 N 
ATOM      3  C1  UNL d   1       3.162  -0.584   2.390  0.00  0.00    -0.004 A 
ATOM      4  C2  UNL d   1       2.386  -1.044   1.348  0.00  0.00    -0.047 A 
ATOM      5  C3  UNL d   1       1.486  -0.009   1.001  0.00  0.00    -0.047 A 
ATOM      6  C4  UNL d   1       1.738   1.054   1.843  0.00  0.00    -0.004 A 
ENDROOT
TORSDOF 0
ENDMDL
