MODEL 1
REMARK minimizedAffinity 6.62263966
REMARK minimizedRMSD -1
REMARK  0 active torsions:
REMARK  status: ('A' for Active; 'I' for Inactive)
ROOT
ATOM      1  C   UNL d   1      -0.448  -1.474   1.107  0.00  0.00     0.172 C 
ATOM      2  N   UNL d   1      -0.061  -2.088  -0.142  0.00  0.00    -0.070 N 
ATOM      3  C1  UNL d   1       1.009  -2.922  -0.324  0.00  0.00    -0.004 A 
ATOM      4  C2  UNL d   1       1.035  -3.293  -1.651  0.00  0.00    -0.047 A 
ATOM      5  C3  UNL d   1      -0.058  -2.659  -2.289  0.00  0.00    -0.047 A 
ATOM      6  C4  UNL d   1      -0.719  -1.920  -1.331  0.00  0.00    -0.004 A 
ENDROOT
TORSDOF 0
ENDMDL
