MODEL 1
REMARK minimizedAffinity 3.19742632
REMARK minimizedRMSD -1
REMARK  0 active torsions:
REMARK  status: ('A' for Active; 'I' for Inactive)
ROOT
ATOM      1  C   UNL d   1       2.044  -1.890   1.542  0.00  0.00     0.172 C 
ATOM      2  N   UNL d   1       2.634  -0.674   1.033  0.00  0.00    -0.070 N 
ATOM      3  C1  UNL d   1       3.738  -0.599   0.226  0.00  0.00    -0.004 A 
ATOM      4  C2  UNL d   1       3.978   0.732  -0.038  0.00  0.00    -0.047 A 
ATOM      5  C3  UNL d   1       2.984   1.483   0.635  0.00  0.00    -0.047 A 
ATOM      6  C4  UNL d   1       2.166   0.588   1.290  0.00  0.00    -0.004 A 
ENDROOT
TORSDOF 0
ENDMDL
