MODEL 1
REMARK minimizedAffinity 1.74676514
REMARK minimizedRMSD -1
REMARK  0 active torsions:
REMARK  status: ('A' for Active; 'I' for Inactive)
ROOT
ATOM      1  C   UNL d   1      -0.880  -1.817   1.575  0.00  0.00     0.172 C 
ATOM      2  N   UNL d   1       0.012  -0.683   1.640  0.00  0.00    -0.070 N 
ATOM      3  C1  UNL d   1      -0.362   0.633   1.570  0.00  0.00    -0.004 A 
ATOM      4  C2  UNL d   1       0.777   1.402   1.669  0.00  0.00    -0.047 A 
ATOM      5  C3  UNL d   1       1.874   0.518   1.803  0.00  0.00    -0.047 A 
ATOM      6  C4  UNL d   1       1.372  -0.766   1.782  0.00  0.00    -0.004 A 
ENDROOT
TORSDOF 0
ENDMDL
