MODEL 1
REMARK minimizedAffinity 10.6380396
REMARK minimizedRMSD -1
REMARK  0 active torsions:
REMARK  status: ('A' for Active; 'I' for Inactive)
ROOT
ATOM      1  C   UNL d   1       0.802  -1.913   1.234  0.00  0.00     0.172 C 
ATOM      2  N   UNL d   1       1.882  -0.954   1.236  0.00  0.00    -0.070 N 
ATOM      3  C1  UNL d   1       3.104  -1.126   0.643  0.00  0.00    -0.004 A 
ATOM      4  C2  UNL d   1       3.847   0.011   0.871  0.00  0.00    -0.047 A 
ATOM      5  C3  UNL d   1       3.045   0.897   1.628  0.00  0.00    -0.047 A 
ATOM      6  C4  UNL d   1       1.833   0.275   1.840  0.00  0.00    -0.004 A 
ENDROOT
TORSDOF 0
ENDMDL
