MODEL 1
REMARK minimizedAffinity 5.59761381
REMARK minimizedRMSD -1
REMARK  0 active torsions:
REMARK  status: ('A' for Active; 'I' for Inactive)
ROOT
ATOM      1  C2' OXE d   1       5.068   3.177   3.325  0.00  0.00     0.078 C 
ATOM      2  C1' OXE d   1       4.398   2.649   5.999  0.00  0.00     0.078 C 
ATOM      3  C1  OXE d   1       3.733   3.824   5.326  0.00  0.00    -0.078 A 
ATOM      4  C2  OXE d   1       4.102   4.103   4.032  0.00  0.00    -0.078 A 
ATOM      5  C3  OXE d   1       3.479   5.142   3.347  0.00  0.00     0.003 A 
ATOM      6  C4  OXE d   1       2.595   6.000   4.012  0.00  0.00    -0.002 A 
ATOM      7  C5  OXE d   1       2.235   5.757   5.342  0.00  0.00    -0.002 A 
ATOM      8  C6  OXE d   1       2.762   4.651   5.999  0.00  0.00     0.003 A 
ENDROOT
TORSDOF 0
ENDMDL
