MODEL 1
REMARK minimizedAffinity 9.30639839
REMARK minimizedRMSD -1
REMARK  0 active torsions:
REMARK  status: ('A' for Active; 'I' for Inactive)
ROOT
ATOM      1  C2' OXE d   1      -2.938  -0.463   1.606  0.00  0.00     0.078 C 
ATOM      2  C1' OXE d   1      -0.678   0.374   3.047  0.00  0.00     0.078 C 
ATOM      3  C1  OXE d   1      -0.471  -0.116   1.635  0.00  0.00    -0.078 A 
ATOM      4  C2  OXE d   1      -1.576  -0.567   0.954  0.00  0.00    -0.078 A 
ATOM      5  C3  OXE d   1      -1.449  -0.978  -0.370  0.00  0.00     0.003 A 
ATOM      6  C4  OXE d   1      -0.185  -1.081  -0.962  0.00  0.00    -0.002 A 
ATOM      7  C5  OXE d   1       0.959  -0.664  -0.272  0.00  0.00    -0.002 A 
ATOM      8  C6  OXE d   1       0.828  -0.141   1.010  0.00  0.00     0.003 A 
ENDROOT
TORSDOF 0
ENDMDL
