MODEL 1
REMARK minimizedAffinity 3.07061124
REMARK minimizedRMSD -1
REMARK  0 active torsions:
REMARK  status: ('A' for Active; 'I' for Inactive)
ROOT
ATOM      1  C2' OXE d   1      -1.120  -2.252   5.918  0.00  0.00     0.078 C 
ATOM      2  C1' OXE d   1      -2.621  -4.622   6.000  0.00  0.00     0.078 C 
ATOM      3  C1  OXE d   1      -1.171  -4.721   5.595  0.00  0.00    -0.078 A 
ATOM      4  C2  OXE d   1      -0.457  -3.551   5.513  0.00  0.00    -0.078 A 
ATOM      5  C3  OXE d   1       0.899  -3.591   5.198  0.00  0.00     0.003 A 
ATOM      6  C4  OXE d   1       1.502  -4.795   4.814  0.00  0.00    -0.002 A 
ATOM      7  C5  OXE d   1       0.781  -5.994   4.853  0.00  0.00    -0.002 A 
ATOM      8  C6  OXE d   1      -0.542  -5.980   5.281  0.00  0.00     0.003 A 
ENDROOT
TORSDOF 0
ENDMDL
