MODEL 1
REMARK minimizedAffinity 8.16991138
REMARK minimizedRMSD -1
REMARK  0 active torsions:
REMARK  status: ('A' for Active; 'I' for Inactive)
ROOT
ATOM      1  C2' OXE d   1      -1.026  -1.356  -1.667  0.00  0.00     0.078 C 
ATOM      2  C1' OXE d   1      -2.406  -1.174   0.771  0.00  0.00     0.078 C 
ATOM      3  C1  OXE d   1      -0.980  -0.683   0.731  0.00  0.00    -0.078 A 
ATOM      4  C2  OXE d   1      -0.298  -0.819  -0.454  0.00  0.00    -0.078 A 
ATOM      5  C3  OXE d   1       1.002  -0.331  -0.561  0.00  0.00     0.003 A 
ATOM      6  C4  OXE d   1       1.671   0.155   0.568  0.00  0.00    -0.002 A 
ATOM      7  C5  OXE d   1       1.008   0.266   1.795  0.00  0.00    -0.002 A 
ATOM      8  C6  OXE d   1      -0.329  -0.109   1.882  0.00  0.00     0.003 A 
ENDROOT
TORSDOF 0
ENDMDL
