MODEL 1
REMARK minimizedAffinity 8.72622013
REMARK minimizedRMSD -1
REMARK  0 active torsions:
REMARK  status: ('A' for Active; 'I' for Inactive)
ROOT
ATOM      1  C2' OXE d   1      -1.115  -1.617  -1.472  0.00  0.00     0.078 C 
ATOM      2  C1' OXE d   1      -2.453  -1.245   0.968  0.00  0.00     0.078 C 
ATOM      3  C1  OXE d   1      -0.974  -0.949   0.924  0.00  0.00    -0.078 A 
ATOM      4  C2  OXE d   1      -0.319  -1.179  -0.262  0.00  0.00    -0.078 A 
ATOM      5  C3  OXE d   1       1.034  -0.870  -0.372  0.00  0.00     0.003 A 
ATOM      6  C4  OXE d   1       1.765  -0.475   0.755  0.00  0.00    -0.002 A 
ATOM      7  C5  OXE d   1       1.125  -0.273   1.982  0.00  0.00    -0.002 A 
ATOM      8  C6  OXE d   1      -0.249  -0.465   2.073  0.00  0.00     0.003 A 
ENDROOT
TORSDOF 0
ENDMDL
