MODEL 1
REMARK minimizedAffinity 5.16800165
REMARK minimizedRMSD -1
REMARK  0 active torsions:
REMARK  status: ('A' for Active; 'I' for Inactive)
ROOT
ATOM      1  C2' OXE d   1       0.165  -2.077   5.853  0.00  0.00     0.078 C 
ATOM      2  C1' OXE d   1       1.681  -3.882   4.328  0.00  0.00     0.078 C 
ATOM      3  C1  OXE d   1       0.319  -4.329   4.799  0.00  0.00    -0.078 A 
ATOM      4  C2  OXE d   1      -0.396  -3.457   5.584  0.00  0.00    -0.078 A 
ATOM      5  C3  OXE d   1      -1.680  -3.798   5.999  0.00  0.00     0.003 A 
ATOM      6  C4  OXE d   1      -2.187  -5.080   5.754  0.00  0.00    -0.002 A 
ATOM      7  C5  OXE d   1      -1.458  -5.997   4.991  0.00  0.00    -0.002 A 
ATOM      8  C6  OXE d   1      -0.224  -5.623   4.470  0.00  0.00     0.003 A 
ENDROOT
TORSDOF 0
ENDMDL
