MODEL 1
REMARK minimizedAffinity 13.8620033
REMARK minimizedRMSD -1
REMARK  0 active torsions:
REMARK  status: ('A' for Active; 'I' for Inactive)
ROOT
ATOM      1  C2' OXE d   1      -0.731  -2.556  -2.622  0.00  0.00     0.078 C 
ATOM      2  C1' OXE d   1      -2.339  -0.490  -1.608  0.00  0.00     0.078 C 
ATOM      3  C1  OXE d   1      -0.940  -0.626  -1.060  0.00  0.00    -0.078 A 
ATOM      4  C2  OXE d   1      -0.177  -1.669  -1.528  0.00  0.00    -0.078 A 
ATOM      5  C3  OXE d   1       1.139  -1.808  -1.097  0.00  0.00     0.003 A 
ATOM      6  C4  OXE d   1       1.641  -0.989  -0.077  0.00  0.00    -0.002 A 
ATOM      7  C5  OXE d   1       0.867   0.054   0.442  0.00  0.00    -0.002 A 
ATOM      8  C6  OXE d   1      -0.408   0.275  -0.068  0.00  0.00     0.003 A 
ENDROOT
TORSDOF 0
ENDMDL
