MODEL 1
REMARK minimizedAffinity 7.65962362
REMARK minimizedRMSD -1
REMARK  0 active torsions:
REMARK  status: ('A' for Active; 'I' for Inactive)
ROOT
ATOM      1  C2' OXE d   1       1.654  -3.508   4.033  0.00  0.00     0.078 C 
ATOM      2  C1' OXE d   1       0.104  -2.162   5.947  0.00  0.00     0.078 C 
ATOM      3  C1  OXE d   1      -0.378  -3.510   5.474  0.00  0.00    -0.078 A 
ATOM      4  C2  OXE d   1       0.362  -4.141   4.503  0.00  0.00    -0.078 A 
ATOM      5  C3  OXE d   1      -0.008  -5.411   4.070  0.00  0.00     0.003 A 
ATOM      6  C4  OXE d   1      -1.210  -5.985   4.502  0.00  0.00    -0.002 A 
ATOM      7  C5  OXE d   1      -2.000  -5.341   5.461  0.00  0.00    -0.002 A 
ATOM      8  C6  OXE d   1      -1.577  -4.126   5.987  0.00  0.00     0.003 A 
ENDROOT
TORSDOF 0
ENDMDL
