MODEL 1
REMARK minimizedAffinity 3.94584537
REMARK minimizedRMSD -1
REMARK  0 active torsions:
REMARK  status: ('A' for Active; 'I' for Inactive)
ROOT
ATOM      1  C2' OXE d   1      -1.421  -0.740  -1.504  0.00  0.00     0.078 C 
ATOM      2  C1' OXE d   1      -3.074  -0.773   0.765  0.00  0.00     0.078 C 
ATOM      3  C1  OXE d   1      -1.595  -0.560   0.975  0.00  0.00    -0.078 A 
ATOM      4  C2  OXE d   1      -0.788  -0.592  -0.137  0.00  0.00    -0.078 A 
ATOM      5  C3  OXE d   1       0.576  -0.347  -0.005  0.00  0.00     0.003 A 
ATOM      6  C4  OXE d   1       1.154  -0.221   1.263  0.00  0.00    -0.002 A 
ATOM      7  C5  OXE d   1       0.355  -0.226   2.412  0.00  0.00    -0.002 A 
ATOM      8  C6  OXE d   1      -1.023  -0.351   2.282  0.00  0.00     0.003 A 
ENDROOT
TORSDOF 0
ENDMDL
