MODEL 1
REMARK minimizedAffinity 16.8502731
REMARK minimizedRMSD -1
REMARK  0 active torsions:
REMARK  status: ('A' for Active; 'I' for Inactive)
ROOT
ATOM      1  C2' OXE d   1       0.628  -3.129   3.429  0.00  0.00     0.078 C 
ATOM      2  C1' OXE d   1      -0.343  -2.427   5.968  0.00  0.00     0.078 C 
ATOM      3  C1  OXE d   1      -0.875  -3.689   5.335  0.00  0.00    -0.078 A 
ATOM      4  C2  OXE d   1      -0.429  -3.999   4.073  0.00  0.00    -0.078 A 
ATOM      5  C3  OXE d   1      -0.847  -5.180   3.465  0.00  0.00     0.003 A 
ATOM      6  C4  OXE d   1      -1.832  -5.975   4.063  0.00  0.00    -0.002 A 
ATOM      7  C5  OXE d   1      -2.329  -5.655   5.331  0.00  0.00    -0.002 A 
ATOM      8  C6  OXE d   1      -1.831  -4.541   5.998  0.00  0.00     0.003 A 
ENDROOT
TORSDOF 0
ENDMDL
