MODEL 1
REMARK minimizedAffinity 5.62604284
REMARK minimizedRMSD -1
REMARK  0 active torsions:
REMARK  status: ('A' for Active; 'I' for Inactive)
ROOT
ATOM      1  C2' OXE d   1      -0.723  -2.732  -2.294  0.00  0.00     0.078 C 
ATOM      2  C1' OXE d   1      -2.022  -0.326  -1.657  0.00  0.00     0.078 C 
ATOM      3  C1  OXE d   1      -0.673  -0.584  -1.033  0.00  0.00    -0.078 A 
ATOM      4  C2  OXE d   1      -0.066  -1.784  -1.313  0.00  0.00    -0.078 A 
ATOM      5  C3  OXE d   1       1.203  -2.049  -0.808  0.00  0.00     0.003 A 
ATOM      6  C4  OXE d   1       1.800  -1.172   0.106  0.00  0.00    -0.002 A 
ATOM      7  C5  OXE d   1       1.180   0.038   0.436  0.00  0.00    -0.002 A 
ATOM      8  C6  OXE d   1      -0.034   0.366  -0.156  0.00  0.00     0.003 A 
ENDROOT
TORSDOF 0
ENDMDL
