MODEL 1
REMARK minimizedAffinity 12.9940662
REMARK minimizedRMSD -1
REMARK  0 active torsions:
REMARK  status: ('A' for Active; 'I' for Inactive)
ROOT
ATOM      1  C2' OXE d   1      -1.171  -4.861   2.977  0.00  0.00     0.078 C 
ATOM      2  C1' OXE d   1      -1.463  -4.795   5.768  0.00  0.00     0.078 C 
ATOM      3  C1  OXE d   1      -0.191  -4.236   5.181  0.00  0.00    -0.078 A 
ATOM      4  C2  OXE d   1      -0.037  -4.315   3.817  0.00  0.00    -0.078 A 
ATOM      5  C3  OXE d   1       1.093  -3.765   3.219  0.00  0.00     0.003 A 
ATOM      6  C4  OXE d   1       2.142  -3.271   4.004  0.00  0.00    -0.002 A 
ATOM      7  C5  OXE d   1       2.022  -3.217   5.396  0.00  0.00    -0.002 A 
ATOM      8  C6  OXE d   1       0.846  -3.656   5.996  0.00  0.00     0.003 A 
ENDROOT
TORSDOF 0
ENDMDL
