MODEL 1
REMARK minimizedAffinity 9.42261505
REMARK minimizedRMSD -1
REMARK  0 active torsions:
REMARK  status: ('A' for Active; 'I' for Inactive)
ROOT
ATOM      1  C2' OXE d   1      -0.395  -2.987  -2.565  0.00  0.00     0.078 C 
ATOM      2  C1' OXE d   1       2.341  -2.913  -1.944  0.00  0.00     0.078 C 
ATOM      3  C1  OXE d   1       1.427  -1.965  -1.209  0.00  0.00    -0.078 A 
ATOM      4  C2  OXE d   1       0.097  -1.975  -1.553  0.00  0.00    -0.078 A 
ATOM      5  C3  OXE d   1      -0.799  -1.160  -0.867  0.00  0.00     0.003 A 
ATOM      6  C4  OXE d   1      -0.334  -0.220   0.061  0.00  0.00    -0.002 A 
ATOM      7  C5  OXE d   1       1.023  -0.165   0.396  0.00  0.00    -0.002 A 
ATOM      8  C6  OXE d   1       1.909  -1.057  -0.197  0.00  0.00     0.003 A 
ENDROOT
TORSDOF 0
ENDMDL
