MODEL 1
REMARK minimizedAffinity 4.07865095
REMARK minimizedRMSD -1
REMARK  0 active torsions:
REMARK  status: ('A' for Active; 'I' for Inactive)
ROOT
ATOM      1  C2' OXE d   1      -0.457  -1.766   5.914  0.00  0.00     0.078 C 
ATOM      2  C1' OXE d   1       1.464  -3.768   5.483  0.00  0.00     0.078 C 
ATOM      3  C1  OXE d   1       0.026  -4.195   5.641  0.00  0.00    -0.078 A 
ATOM      4  C2  OXE d   1      -0.901  -3.213   5.898  0.00  0.00    -0.078 A 
ATOM      5  C3  OXE d   1      -2.248  -3.546   5.998  0.00  0.00     0.003 A 
ATOM      6  C4  OXE d   1      -2.649  -4.888   5.993  0.00  0.00    -0.002 A 
ATOM      7  C5  OXE d   1      -1.716  -5.906   5.772  0.00  0.00    -0.002 A 
ATOM      8  C6  OXE d   1      -0.384  -5.575   5.552  0.00  0.00     0.003 A 
ENDROOT
TORSDOF 0
ENDMDL
