MODEL 1
REMARK minimizedAffinity 13.6178837
REMARK minimizedRMSD -1
REMARK  0 active torsions:
REMARK  status: ('A' for Active; 'I' for Inactive)
ROOT
ATOM      1  C2' OXE d   1       1.061  -3.016   3.509  0.00  0.00     0.078 C 
ATOM      2  C1' OXE d   1      -0.173  -2.191   5.892  0.00  0.00     0.078 C 
ATOM      3  C1  OXE d   1      -0.550  -3.541   5.336  0.00  0.00    -0.078 A 
ATOM      4  C2  OXE d   1       0.024  -3.917   4.145  0.00  0.00    -0.078 A 
ATOM      5  C3  OXE d   1      -0.247  -5.176   3.616  0.00  0.00     0.003 A 
ATOM      6  C4  OXE d   1      -1.214  -5.999   4.205  0.00  0.00    -0.002 A 
ATOM      7  C5  OXE d   1      -1.840  -5.618   5.397  0.00  0.00    -0.002 A 
ATOM      8  C6  OXE d   1      -1.489  -4.414   5.997  0.00  0.00     0.003 A 
ENDROOT
TORSDOF 0
ENDMDL
