MODEL 1
REMARK minimizedAffinity 4.87922239
REMARK minimizedRMSD -1
REMARK  0 active torsions:
REMARK  status: ('A' for Active; 'I' for Inactive)
ROOT
ATOM      1  C1  DEN d   1      -0.087   4.973  -4.570  0.00  0.00     0.130 A 
ATOM      2  C2  DEN d   1       0.169   5.471  -3.221  0.00  0.00    -0.031 A 
ATOM      3  C3  DEN d   1      -1.110   5.953  -2.662  0.00  0.00     0.027 A 
ATOM      4  C4  DEN d   1      -3.450   5.972  -3.746  0.00  0.00     0.027 A 
ATOM      5  C5  DEN d   1      -4.163   5.663  -4.883  0.00  0.00    -0.003 A 
ATOM      6  C6  DEN d   1      -3.566   5.139  -5.999  0.00  0.00     0.001 A 
ATOM      7  C7  DEN d   1      -2.224   4.865  -5.986  0.00  0.00     0.017 A 
ATOM      8  C8  DEN d   1      -1.497   5.180  -4.845  0.00  0.00    -0.094 A 
ATOM      9  C9  DEN d   1      -2.121   5.698  -3.723  0.00  0.00    -0.072 A 
ENDROOT
TORSDOF 0
ENDMDL
