MODEL 1
REMARK minimizedAffinity 5.41252279
REMARK minimizedRMSD -1
REMARK  0 active torsions:
REMARK  status: ('A' for Active; 'I' for Inactive)
ROOT
ATOM      1  C1  DEN d   1      -1.787   0.346   3.640  0.00  0.00     0.130 A 
ATOM      2  C2  DEN d   1      -1.893   0.898   4.988  0.00  0.00    -0.031 A 
ATOM      3  C3  DEN d   1      -3.314   0.858   5.387  0.00  0.00     0.027 A 
ATOM      4  C4  DEN d   1      -5.349  -0.004   4.058  0.00  0.00     0.027 A 
ATOM      5  C5  DEN d   1      -5.759  -0.555   2.863  0.00  0.00    -0.003 A 
ATOM      6  C6  DEN d   1      -4.885  -0.810   1.839  0.00  0.00     0.001 A 
ATOM      7  C7  DEN d   1      -3.549  -0.556   2.008  0.00  0.00     0.017 A 
ATOM      8  C8  DEN d   1      -3.130   0.006   3.206  0.00  0.00    -0.094 A 
ATOM      9  C9  DEN d   1      -4.027   0.245   4.234  0.00  0.00    -0.072 A 
ENDROOT
TORSDOF 0
ENDMDL
