MODEL 1
REMARK minimizedAffinity 6.10149288
REMARK minimizedRMSD -1
REMARK  0 active torsions:
REMARK  status: ('A' for Active; 'I' for Inactive)
ROOT
ATOM      1  C1  DEN d   1       4.317   5.411  -1.180  0.00  0.00     0.130 A 
ATOM      2  C2  DEN d   1       5.691   5.388  -1.672  0.00  0.00    -0.031 A 
ATOM      3  C3  DEN d   1       5.762   4.418  -2.783  0.00  0.00     0.027 A 
ATOM      4  C4  DEN d   1       3.886   2.959  -3.785  0.00  0.00     0.027 A 
ATOM      5  C5  DEN d   1       2.554   2.623  -3.691  0.00  0.00    -0.003 A 
ATOM      6  C6  DEN d   1       1.730   3.163  -2.739  0.00  0.00     0.001 A 
ATOM      7  C7  DEN d   1       2.221   4.103  -1.872  0.00  0.00     0.017 A 
ATOM      8  C8  DEN d   1       3.565   4.441  -1.956  0.00  0.00    -0.094 A 
ATOM      9  C9  DEN d   1       4.378   3.893  -2.933  0.00  0.00    -0.072 A 
ENDROOT
TORSDOF 0
ENDMDL
