MODEL 1
REMARK minimizedAffinity 18.1824131
REMARK minimizedRMSD -1
REMARK  0 active torsions:
REMARK  status: ('A' for Active; 'I' for Inactive)
ROOT
ATOM      1  C1  DEN d   1      -0.139  -1.815   2.035  0.00  0.00     0.130 A 
ATOM      2  C2  DEN d   1       0.068  -0.385   2.247  0.00  0.00    -0.031 A 
ATOM      3  C3  DEN d   1      -1.149   0.323   1.802  0.00  0.00     0.027 A 
ATOM      4  C4  DEN d   1      -3.324  -0.651   0.816  0.00  0.00     0.027 A 
ATOM      5  C5  DEN d   1      -3.964  -1.811   0.436  0.00  0.00    -0.003 A 
ATOM      6  C6  DEN d   1      -3.365  -3.039   0.531  0.00  0.00     0.001 A 
ATOM      7  C7  DEN d   1      -2.106  -3.142   1.059  0.00  0.00     0.017 A 
ATOM      8  C8  DEN d   1      -1.451  -1.977   1.437  0.00  0.00    -0.094 A 
ATOM      9  C9  DEN d   1      -2.078  -0.745   1.345  0.00  0.00    -0.072 A 
ENDROOT
TORSDOF 0
ENDMDL
