MODEL 1
REMARK minimizedAffinity 19.4804478
REMARK minimizedRMSD -1
REMARK  0 active torsions:
REMARK  status: ('A' for Active; 'I' for Inactive)
ROOT
ATOM      1  C1  DEN d   1      -5.067  -0.758   0.631  0.00  0.00     0.130 A 
ATOM      2  C2  DEN d   1      -5.196   0.256  -0.412  0.00  0.00    -0.031 A 
ATOM      3  C3  DEN d   1      -4.253  -0.082  -1.497  0.00  0.00     0.027 A 
ATOM      4  C4  DEN d   1      -2.619  -2.071  -1.665  0.00  0.00     0.027 A 
ATOM      5  C5  DEN d   1      -2.144  -3.191  -1.020  0.00  0.00    -0.003 A 
ATOM      6  C6  DEN d   1      -2.582  -3.557   0.225  0.00  0.00     0.001 A 
ATOM      7  C7  DEN d   1      -3.556  -2.821   0.846  0.00  0.00     0.017 A 
ATOM      8  C8  DEN d   1      -4.034  -1.686   0.205  0.00  0.00    -0.094 A 
ATOM      9  C9  DEN d   1      -3.588  -1.339  -1.059  0.00  0.00    -0.072 A 
ENDROOT
TORSDOF 0
ENDMDL
