MODEL 1
REMARK minimizedAffinity 17.7753334
REMARK minimizedRMSD -1
REMARK  0 active torsions:
REMARK  status: ('A' for Active; 'I' for Inactive)
ROOT
ATOM      1  C1  DEN d   1       1.070  -3.293   2.792  0.00  0.00     0.130 A 
ATOM      2  C2  DEN d   1       1.816  -2.554   3.807  0.00  0.00    -0.031 A 
ATOM      3  C3  DEN d   1       1.262  -1.187   3.876  0.00  0.00     0.027 A 
ATOM      4  C4  DEN d   1      -0.671  -0.149   2.520  0.00  0.00     0.027 A 
ATOM      5  C5  DEN d   1      -1.602  -0.384   1.533  0.00  0.00    -0.003 A 
ATOM      6  C6  DEN d   1      -1.685  -1.584   0.877  0.00  0.00     0.001 A 
ATOM      7  C7  DEN d   1      -0.850  -2.611   1.233  0.00  0.00     0.017 A 
ATOM      8  C8  DEN d   1       0.096  -2.379   2.223  0.00  0.00    -0.094 A 
ATOM      9  C9  DEN d   1       0.155  -1.163   2.882  0.00  0.00    -0.072 A 
ENDROOT
TORSDOF 0
ENDMDL
