MODEL 1
REMARK minimizedAffinity 17.9499302
REMARK minimizedRMSD -1
REMARK  0 active torsions:
REMARK  status: ('A' for Active; 'I' for Inactive)
ROOT
ATOM      1  C1  DEN d   1       2.540   2.700  -4.105  0.00  0.00     0.130 A 
ATOM      2  C2  DEN d   1       1.715   2.953  -2.927  0.00  0.00    -0.031 A 
ATOM      3  C3  DEN d   1       2.481   3.822  -2.011  0.00  0.00     0.027 A 
ATOM      4  C4  DEN d   1       4.850   4.799  -2.302  0.00  0.00     0.027 A 
ATOM      5  C5  DEN d   1       5.948   4.853  -3.133  0.00  0.00    -0.003 A 
ATOM      6  C6  DEN d   1       6.000   4.171  -4.319  0.00  0.00     0.001 A 
ATOM      7  C7  DEN d   1       4.916   3.442  -4.731  0.00  0.00     0.017 A 
ATOM      8  C8  DEN d   1       3.808   3.376  -3.896  0.00  0.00    -0.094 A 
ATOM      9  C9  DEN d   1       3.770   4.083  -2.706  0.00  0.00    -0.072 A 
ENDROOT
TORSDOF 0
ENDMDL
