MODEL 1
REMARK minimizedAffinity 12.4194088
REMARK minimizedRMSD -1
REMARK  0 active torsions:
REMARK  status: ('A' for Active; 'I' for Inactive)
ROOT
ATOM      1  C1  DEN d   1      -0.729  -1.965   2.516  0.00  0.00     0.130 A 
ATOM      2  C2  DEN d   1      -1.343  -2.044   1.194  0.00  0.00    -0.031 A 
ATOM      3  C3  DEN d   1      -2.218  -0.866   1.025  0.00  0.00     0.027 A 
ATOM      4  C4  DEN d   1      -2.675   1.064   2.673  0.00  0.00     0.027 A 
ATOM      5  C5  DEN d   1      -2.391   1.562   3.926  0.00  0.00    -0.003 A 
ATOM      6  C6  DEN d   1      -1.566   0.907   4.802  0.00  0.00     0.001 A 
ATOM      7  C7  DEN d   1      -0.961  -0.261   4.420  0.00  0.00     0.017 A 
ATOM      8  C8  DEN d   1      -1.248  -0.773   3.162  0.00  0.00    -0.094 A 
ATOM      9  C9  DEN d   1      -2.075  -0.089   2.286  0.00  0.00    -0.072 A 
ENDROOT
TORSDOF 0
ENDMDL
