MODEL 1
REMARK minimizedAffinity 13.4131212
REMARK minimizedRMSD -1
REMARK  0 active torsions:
REMARK  status: ('A' for Active; 'I' for Inactive)
ROOT
ATOM      1  C1  DEN d   1       4.720   2.077   0.083  0.00  0.00     0.130 A 
ATOM      2  C2  DEN d   1       3.725   1.234   0.741  0.00  0.00    -0.031 A 
ATOM      3  C3  DEN d   1       2.629   0.988  -0.218  0.00  0.00     0.027 A 
ATOM      4  C4  DEN d   1       2.381   1.821  -2.646  0.00  0.00     0.027 A 
ATOM      5  C5  DEN d   1       2.965   2.576  -3.640  0.00  0.00    -0.003 A 
ATOM      6  C6  DEN d   1       4.148   3.239  -3.452  0.00  0.00     0.001 A 
ATOM      7  C7  DEN d   1       4.809   3.124  -2.258  0.00  0.00     0.017 A 
ATOM      8  C8  DEN d   1       4.222   2.372  -1.249  0.00  0.00    -0.094 A 
ATOM      9  C9  DEN d   1       3.032   1.698  -1.462  0.00  0.00    -0.072 A 
ENDROOT
TORSDOF 0
ENDMDL
