MODEL 1
REMARK minimizedAffinity 17.5761471
REMARK minimizedRMSD -1
REMARK  0 active torsions:
REMARK  status: ('A' for Active; 'I' for Inactive)
ROOT
ATOM      1  C1  DEN d   1       3.371   0.883   1.685  0.00  0.00     0.130 A 
ATOM      2  C2  DEN d   1       3.146   0.323   0.355  0.00  0.00    -0.031 A 
ATOM      3  C3  DEN d   1       3.943   1.106  -0.610  0.00  0.00     0.027 A 
ATOM      4  C4  DEN d   1       5.499   3.117  -0.176  0.00  0.00     0.027 A 
ATOM      5  C5  DEN d   1       6.000   3.960   0.791  0.00  0.00    -0.003 A 
ATOM      6  C6  DEN d   1       5.637   3.859   2.108  0.00  0.00     0.001 A 
ATOM      7  C7  DEN d   1       4.781   2.865   2.501  0.00  0.00     0.017 A 
ATOM      8  C8  DEN d   1       4.266   2.015   1.531  0.00  0.00    -0.094 A 
ATOM      9  C9  DEN d   1       4.655   2.126   0.207  0.00  0.00    -0.072 A 
ENDROOT
TORSDOF 0
ENDMDL
