MODEL 1
REMARK minimizedAffinity 20.1221581
REMARK minimizedRMSD -1
REMARK  0 active torsions:
REMARK  status: ('A' for Active; 'I' for Inactive)
ROOT
ATOM      1  C1  DEN d   1      -5.271  -3.626   5.173  0.00  0.00     0.130 A 
ATOM      2  C2  DEN d   1      -5.713  -4.768   5.968  0.00  0.00    -0.031 A 
ATOM      3  C3  DEN d   1      -5.994  -5.886   5.045  0.00  0.00     0.027 A 
ATOM      4  C4  DEN d   1      -5.784  -5.961   2.476  0.00  0.00     0.027 A 
ATOM      5  C5  DEN d   1      -5.458  -5.230   1.354  0.00  0.00    -0.003 A 
ATOM      6  C6  DEN d   1      -5.083  -3.915   1.423  0.00  0.00     0.001 A 
ATOM      7  C7  DEN d   1      -4.981  -3.301   2.644  0.00  0.00     0.017 A 
ATOM      8  C8  DEN d   1      -5.315  -4.029   3.779  0.00  0.00    -0.094 A 
ATOM      9  C9  DEN d   1      -5.680  -5.362   3.689  0.00  0.00    -0.072 A 
ENDROOT
TORSDOF 0
ENDMDL
