MODEL 1
REMARK minimizedAffinity 16.6686058
REMARK minimizedRMSD -1
REMARK  0 active torsions:
REMARK  status: ('A' for Active; 'I' for Inactive)
ROOT
ATOM      1  C1  DEN d   1       0.057  -2.126   2.509  0.00  0.00     0.130 A 
ATOM      2  C2  DEN d   1      -0.375  -2.119   1.114  0.00  0.00    -0.031 A 
ATOM      3  C3  DEN d   1      -1.401  -1.068   0.960  0.00  0.00     0.027 A 
ATOM      4  C4  DEN d   1      -2.354   0.542   2.735  0.00  0.00     0.027 A 
ATOM      5  C5  DEN d   1      -2.304   0.906   4.063  0.00  0.00    -0.003 A 
ATOM      6  C6  DEN d   1      -1.495   0.268   4.965  0.00  0.00     0.001 A 
ATOM      7  C7  DEN d   1      -0.669  -0.740   4.542  0.00  0.00     0.017 A 
ATOM      8  C8  DEN d   1      -0.719  -1.118   3.206  0.00  0.00    -0.094 A 
ATOM      9  C9  DEN d   1      -1.535  -0.452   2.307  0.00  0.00    -0.072 A 
ENDROOT
TORSDOF 0
ENDMDL
