MODEL 1
REMARK minimizedAffinity 10.6143351
REMARK minimizedRMSD -1
REMARK  0 active torsions:
REMARK  status: ('A' for Active; 'I' for Inactive)
ROOT
ATOM      1  C1  DEN d   1      -1.578  -1.849   0.518  0.00  0.00     0.130 A 
ATOM      2  C2  DEN d   1      -0.334  -2.139   1.225  0.00  0.00    -0.031 A 
ATOM      3  C3  DEN d   1      -0.258  -1.248   2.401  0.00  0.00     0.027 A 
ATOM      4  C4  DEN d   1      -1.941   0.539   3.193  0.00  0.00     0.027 A 
ATOM      5  C5  DEN d   1      -3.140   1.154   2.911  0.00  0.00    -0.003 A 
ATOM      6  C6  DEN d   1      -3.880   0.839   1.803  0.00  0.00     0.001 A 
ATOM      7  C7  DEN d   1      -3.450  -0.151   0.959  0.00  0.00     0.017 A 
ATOM      8  C8  DEN d   1      -2.238  -0.771   1.232  0.00  0.00    -0.094 A 
ATOM      9  C9  DEN d   1      -1.511  -0.446   2.365  0.00  0.00    -0.072 A 
ENDROOT
TORSDOF 0
ENDMDL
