MODEL 1
REMARK minimizedAffinity 13.2065763
REMARK minimizedRMSD -1
REMARK  0 active torsions:
REMARK  status: ('A' for Active; 'I' for Inactive)
ROOT
ATOM      1  C1  DEN d   1       4.870   5.556  -2.202  0.00  0.00     0.130 A 
ATOM      2  C2  DEN d   1       6.000   6.000  -3.014  0.00  0.00    -0.031 A 
ATOM      3  C3  DEN d   1       5.997   5.217  -4.266  0.00  0.00     0.027 A 
ATOM      4  C4  DEN d   1       4.360   3.375  -5.025  0.00  0.00     0.027 A 
ATOM      5  C5  DEN d   1       3.247   2.646  -4.668  0.00  0.00    -0.003 A 
ATOM      6  C6  DEN d   1       2.623   2.810  -3.461  0.00  0.00     0.001 A 
ATOM      7  C7  DEN d   1       3.080   3.757  -2.583  0.00  0.00     0.017 A 
ATOM      8  C8  DEN d   1       4.206   4.491  -2.933  0.00  0.00    -0.094 A 
ATOM      9  C9  DEN d   1       4.816   4.319  -4.164  0.00  0.00    -0.072 A 
ENDROOT
TORSDOF 0
ENDMDL
