MODEL 1
REMARK minimizedAffinity 13.5174904
REMARK minimizedRMSD -1
REMARK  0 active torsions:
REMARK  status: ('A' for Active; 'I' for Inactive)
ROOT
ATOM      1  C1  DEN d   1       2.437   4.589  -2.222  0.00  0.00     0.130 A 
ATOM      2  C2  DEN d   1       1.393   3.798  -2.868  0.00  0.00    -0.031 A 
ATOM      3  C3  DEN d   1       2.004   3.069  -3.997  0.00  0.00     0.027 A 
ATOM      4  C4  DEN d   1       4.455   3.084  -4.801  0.00  0.00     0.027 A 
ATOM      5  C5  DEN d   1       5.707   3.613  -4.576  0.00  0.00    -0.003 A 
ATOM      6  C6  DEN d   1       5.947   4.522  -3.580  0.00  0.00     0.001 A 
ATOM      7  C7  DEN d   1       4.930   4.897  -2.743  0.00  0.00     0.017 A 
ATOM      8  C8  DEN d   1       3.663   4.374  -2.968  0.00  0.00    -0.094 A 
ATOM      9  C9  DEN d   1       3.443   3.446  -3.972  0.00  0.00    -0.072 A 
ENDROOT
TORSDOF 0
ENDMDL
