MODEL 1
REMARK minimizedAffinity -3.26643682
REMARK minimizedRMSD -1
REMARK  3 active torsions:
REMARK  status: ('A' for Active; 'I' for Inactive)
REMARK    1  A    between atoms: C3'_2  and  C2'_3 
REMARK    2  A    between atoms: C2'_3  and  C1'_4 
REMARK    3  A    between atoms: C1'_4  and  C1_5 
ROOT
ATOM      1  C1  N4B d   1       0.253   0.352  -0.300  0.00  0.00    -0.075 A 
ATOM      2  C2  N4B d   1      -0.784   0.196   0.646  0.00  0.00     0.002 A 
ATOM      3  C3  N4B d   1      -0.480  -0.046   1.963  0.00  0.00     0.002 A 
ATOM      4  C4  N4B d   1       0.846  -0.155   2.352  0.00  0.00    -0.004 A 
ATOM      5  C5  N4B d   1       1.842   0.023   1.437  0.00  0.00     0.002 A 
ATOM      6  C6  N4B d   1       1.552   0.271   0.111  0.00  0.00     0.002 A 
ENDROOT
BRANCH   1   7
ATOM      7  C1' N4B d   1      -0.031   0.533  -1.767  0.00  0.00     0.057 C 
BRANCH   7   8
ATOM      8  C2' N4B d   1       1.174   0.057  -2.572  0.00  0.00     0.009 C 
BRANCH   8   9
ATOM      9  C3' N4B d   1       0.878  -1.224  -3.335  0.00  0.00     0.004 C 
ATOM     10  C4' N4B d   1      -0.564  -1.627  -3.254  0.00  0.00     0.003 C 
ENDBRANCH   8   9
ENDBRANCH   7   8
ENDBRANCH   1   7
TORSDOF 3
ENDMDL
