MODEL 1
REMARK minimizedAffinity -2.02750707
REMARK minimizedRMSD -1
REMARK  3 active torsions:
REMARK  status: ('A' for Active; 'I' for Inactive)
REMARK    1  A    between atoms: C3'_2  and  C2'_3 
REMARK    2  A    between atoms: C2'_3  and  C1'_4 
REMARK    3  A    between atoms: C1'_4  and  C1_5 
ROOT
ATOM      1  C1  N4B d   1       0.016   0.479   0.285  0.00  0.00    -0.075 A 
ATOM      2  C2  N4B d   1       0.795   0.477   1.463  0.00  0.00     0.002 A 
ATOM      3  C3  N4B d   1       0.183   0.477   2.692  0.00  0.00     0.002 A 
ATOM      4  C4  N4B d   1      -1.202   0.497   2.768  0.00  0.00    -0.004 A 
ATOM      5  C5  N4B d   1      -1.948   0.473   1.626  0.00  0.00     0.002 A 
ATOM      6  C6  N4B d   1      -1.346   0.469   0.384  0.00  0.00     0.002 A 
ENDROOT
BRANCH   1   7
ATOM      7  C1' N4B d   1       0.640   0.566  -1.080  0.00  0.00     0.057 C 
BRANCH   7   8
ATOM      8  C2' N4B d   1       0.237  -0.660  -1.894  0.00  0.00     0.009 C 
BRANCH   8   9
ATOM      9  C3' N4B d   1       1.257  -0.987  -2.972  0.00  0.00     0.004 C 
ATOM     10  C4' N4B d   1       0.872  -2.181  -3.793  0.00  0.00     0.003 C 
ENDBRANCH   8   9
ENDBRANCH   7   8
ENDBRANCH   1   7
TORSDOF 3
ENDMDL
