MODEL 1
REMARK minimizedAffinity -4.24371004
REMARK minimizedRMSD -1
REMARK  3 active torsions:
REMARK  status: ('A' for Active; 'I' for Inactive)
REMARK    1  A    between atoms: C3'_2  and  C2'_3 
REMARK    2  A    between atoms: C2'_3  and  C1'_4 
REMARK    3  A    between atoms: C1'_4  and  C1_5 
ROOT
ATOM      1  C1  N4B d   1      -0.196   0.366   0.689  0.00  0.00    -0.075 A 
ATOM      2  C2  N4B d   1       0.140   0.468   2.058  0.00  0.00     0.002 A 
ATOM      3  C3  N4B d   1      -0.833   0.753   2.984  0.00  0.00     0.002 A 
ATOM      4  C4  N4B d   1      -2.140   0.958   2.565  0.00  0.00    -0.004 A 
ATOM      5  C5  N4B d   1      -2.460   0.833   1.245  0.00  0.00     0.002 A 
ATOM      6  C6  N4B d   1      -1.493   0.543   0.304  0.00  0.00     0.002 A 
ENDROOT
BRANCH   1   7
ATOM      7  C1' N4B d   1       0.848   0.141  -0.370  0.00  0.00     0.057 C 
BRANCH   7   8
ATOM      8  C2' N4B d   1       0.162  -0.026  -1.722  0.00  0.00     0.009 C 
BRANCH   8   9
ATOM      9  C3' N4B d   1       1.165  -0.130  -2.859  0.00  0.00     0.004 C 
ATOM     10  C4' N4B d   1       1.084  -1.440  -3.585  0.00  0.00     0.003 C 
ENDBRANCH   8   9
ENDBRANCH   7   8
ENDBRANCH   1   7
TORSDOF 3
ENDMDL
