MODEL 1
REMARK minimizedAffinity -1.65288424
REMARK minimizedRMSD -1
REMARK  3 active torsions:
REMARK  status: ('A' for Active; 'I' for Inactive)
REMARK    1  A    between atoms: C3'_2  and  C2'_3 
REMARK    2  A    between atoms: C2'_3  and  C1'_4 
REMARK    3  A    between atoms: C1'_4  and  C1_5 
ROOT
ATOM      1  C1  N4B d   1      -0.150   0.710   2.673  0.00  0.00    -0.075 A 
ATOM      2  C2  N4B d   1       0.280   1.975   3.129  0.00  0.00     0.002 A 
ATOM      3  C3  N4B d   1      -0.643   2.921   3.503  0.00  0.00     0.002 A 
ATOM      4  C4  N4B d   1      -1.996   2.632   3.412  0.00  0.00    -0.004 A 
ATOM      5  C5  N4B d   1      -2.403   1.398   2.994  0.00  0.00     0.002 A 
ATOM      6  C6  N4B d   1      -1.486   0.437   2.619  0.00  0.00     0.002 A 
ENDROOT
BRANCH   1   7
ATOM      7  C1' N4B d   1       0.819  -0.326   2.172  0.00  0.00     0.057 C 
BRANCH   7   8
ATOM      8  C2' N4B d   1       1.256   0.040   0.756  0.00  0.00     0.009 C 
BRANCH   8   9
ATOM      9  C3' N4B d   1       0.114  -0.073  -0.238  0.00  0.00     0.004 C 
ATOM     10  C4' N4B d   1       0.523   0.284  -1.636  0.00  0.00     0.003 C 
ENDBRANCH   8   9
ENDBRANCH   7   8
ENDBRANCH   1   7
TORSDOF 3
ENDMDL
