MODEL 1
REMARK minimizedAffinity -1.90844798
REMARK minimizedRMSD -1
REMARK  3 active torsions:
REMARK  status: ('A' for Active; 'I' for Inactive)
REMARK    1  A    between atoms: C3'_2  and  C2'_3 
REMARK    2  A    between atoms: C2'_3  and  C1'_4 
REMARK    3  A    between atoms: C1'_4  and  C1_5 
ROOT
ATOM      1  C1  N4B d   1       0.852  -0.427  -1.895  0.00  0.00    -0.075 A 
ATOM      2  C2  N4B d   1       1.591  -0.178  -3.072  0.00  0.00     0.002 A 
ATOM      3  C3  N4B d   1       1.904  -1.214  -3.918  0.00  0.00     0.002 A 
ATOM      4  C4  N4B d   1       1.507  -2.504  -3.599  0.00  0.00    -0.004 A 
ATOM      5  C5  N4B d   1       0.772  -2.732  -2.473  0.00  0.00     0.002 A 
ATOM      6  C6  N4B d   1       0.447  -1.700  -1.616  0.00  0.00     0.002 A 
ENDROOT
BRANCH   1   7
ATOM      7  C1' N4B d   1       0.560   0.659  -0.896  0.00  0.00     0.057 C 
BRANCH   7   8
ATOM      8  C2' N4B d   1       0.449   0.043   0.496  0.00  0.00     0.009 C 
BRANCH   8   9
ATOM      9  C3' N4B d   1      -0.888   0.351   1.148  0.00  0.00     0.004 C 
ATOM     10  C4' N4B d   1      -0.803   0.419   2.643  0.00  0.00     0.003 C 
ENDBRANCH   8   9
ENDBRANCH   7   8
ENDBRANCH   1   7
TORSDOF 3
ENDMDL
