MODEL 1
REMARK minimizedAffinity -4.45855474
REMARK minimizedRMSD -1
REMARK  3 active torsions:
REMARK  status: ('A' for Active; 'I' for Inactive)
REMARK    1  A    between atoms: C3'_2  and  C2'_3 
REMARK    2  A    between atoms: C2'_3  and  C1'_4 
REMARK    3  A    between atoms: C1'_4  and  C1_5 
ROOT
ATOM      1  C1  N4B d   1      -0.010   0.490  -0.285  0.00  0.00    -0.075 A 
ATOM      2  C2  N4B d   1      -1.145   0.492   0.555  0.00  0.00     0.002 A 
ATOM      3  C3  N4B d   1      -0.993   0.379   1.916  0.00  0.00     0.002 A 
ATOM      4  C4  N4B d   1       0.278   0.245   2.455  0.00  0.00    -0.004 A 
ATOM      5  C5  N4B d   1       1.371   0.270   1.638  0.00  0.00     0.002 A 
ATOM      6  C6  N4B d   1       1.233   0.387   0.270  0.00  0.00     0.002 A 
ENDROOT
BRANCH   1   7
ATOM      7  C1' N4B d   1      -0.131   0.525  -1.784  0.00  0.00     0.057 C 
BRANCH   7   8
ATOM      8  C2' N4B d   1       1.179   0.049  -2.403  0.00  0.00     0.009 C 
BRANCH   8   9
ATOM      9  C3' N4B d   1       1.002  -1.240  -3.186  0.00  0.00     0.004 C 
ATOM     10  C4' N4B d   1       2.279  -2.015  -3.325  0.00  0.00     0.003 C 
ENDBRANCH   8   9
ENDBRANCH   7   8
ENDBRANCH   1   7
TORSDOF 3
ENDMDL
