MODEL 1
REMARK minimizedAffinity 2.40598893
REMARK minimizedRMSD -1
REMARK  0 active torsions:
REMARK  status: ('A' for Active; 'I' for Inactive)
ROOT
ATOM      1  N1  IND d   1       3.329   4.809   4.865  0.00  0.00    -0.196 N 
ATOM      2  C2  IND d   1       2.207   5.272   5.494  0.00  0.00     0.054 A 
ATOM      3  C3  IND d   1       1.493   4.242   6.000  0.00  0.00    -0.031 A 
ATOM      4  C4  IND d   1       2.029   1.724   6.000  0.00  0.00     0.051 A 
ATOM      5  C5  IND d   1       2.925   0.813   5.514  0.00  0.00    -0.031 A 
ATOM      6  C6  IND d   1       4.026   1.196   4.774  0.00  0.00     0.015 A 
ATOM      7  C7  IND d   1       4.278   2.511   4.501  0.00  0.00    -0.016 A 
ATOM      8  C8  IND d   1       3.366   3.438   4.987  0.00  0.00    -0.047 A 
ATOM      9  C9  IND d   1       2.225   3.052   5.702  0.00  0.00    -0.096 A 
ATOM     10  HN1 IND d   1       3.913   5.294   4.460  0.00  0.00     0.298 HD
ENDROOT
TORSDOF 0
ENDMDL
