MODEL 1
REMARK minimizedAffinity -0.720069766
REMARK minimizedRMSD -1
REMARK  0 active torsions:
REMARK  status: ('A' for Active; 'I' for Inactive)
ROOT
ATOM      1  N1  IND d   1      -0.008  -4.692   6.000  0.00  0.00    -0.196 N 
ATOM      2  C2  IND d   1      -1.112  -4.891   5.218  0.00  0.00     0.054 A 
ATOM      3  C3  IND d   1      -1.198  -3.928   4.273  0.00  0.00    -0.031 A 
ATOM      4  C4  IND d   1       0.415  -1.989   3.761  0.00  0.00     0.051 A 
ATOM      5  C5  IND d   1       1.545  -1.376   4.227  0.00  0.00    -0.031 A 
ATOM      6  C6  IND d   1       2.230  -1.849   5.327  0.00  0.00     0.015 A 
ATOM      7  C7  IND d   1       1.815  -2.963   6.000  0.00  0.00    -0.016 A 
ATOM      8  C8  IND d   1       0.665  -3.584   5.535  0.00  0.00    -0.047 A 
ATOM      9  C9  IND d   1      -0.059  -3.084   4.444  0.00  0.00    -0.096 A 
ATOM     10  HN1 IND d   1       0.227  -5.178   6.669  0.00  0.00     0.298 HD
ENDROOT
TORSDOF 0
ENDMDL
