MODEL 1
REMARK minimizedAffinity 7.6211729
REMARK minimizedRMSD -1
REMARK  0 active torsions:
REMARK  status: ('A' for Active; 'I' for Inactive)
ROOT
ATOM      1  N1  IND d   1       0.708   5.990   5.758  0.00  0.00    -0.196 N 
ATOM      2  C2  IND d   1      -0.259   5.040   5.935  0.00  0.00     0.054 A 
ATOM      3  C3  IND d   1       0.297   3.809   5.998  0.00  0.00    -0.031 A 
ATOM      4  C4  IND d   1       2.779   3.131   5.938  0.00  0.00     0.051 A 
ATOM      5  C5  IND d   1       4.032   3.644   5.754  0.00  0.00    -0.031 A 
ATOM      6  C6  IND d   1       4.246   4.994   5.560  0.00  0.00     0.015 A 
ATOM      7  C7  IND d   1       3.210   5.885   5.555  0.00  0.00    -0.016 A 
ATOM      8  C8  IND d   1       1.936   5.366   5.735  0.00  0.00    -0.047 A 
ATOM      9  C9  IND d   1       1.709   3.993   5.890  0.00  0.00    -0.096 A 
ATOM     10  HN1 IND d   1       0.572   6.835   5.675  0.00  0.00     0.298 HD
ENDROOT
TORSDOF 0
ENDMDL
