MODEL 1
REMARK minimizedAffinity -0.365007907
REMARK minimizedRMSD -1
REMARK  0 active torsions:
REMARK  status: ('A' for Active; 'I' for Inactive)
ROOT
ATOM      1  N1  IND d   1       3.183   4.984   5.373  0.00  0.00    -0.196 N 
ATOM      2  C2  IND d   1       1.969   5.497   5.734  0.00  0.00     0.054 A 
ATOM      3  C3  IND d   1       1.096   4.499   5.998  0.00  0.00    -0.031 A 
ATOM      4  C4  IND d   1       1.476   1.953   6.000  0.00  0.00     0.051 A 
ATOM      5  C5  IND d   1       2.412   1.003   5.700  0.00  0.00    -0.031 A 
ATOM      6  C6  IND d   1       3.679   1.339   5.271  0.00  0.00     0.015 A 
ATOM      7  C7  IND d   1       4.063   2.643   5.135  0.00  0.00    -0.016 A 
ATOM      8  C8  IND d   1       3.113   3.610   5.431  0.00  0.00    -0.047 A 
ATOM      9  C9  IND d   1       1.812   3.274   5.827  0.00  0.00    -0.096 A 
ATOM     10  HN1 IND d   1       3.875   5.443   5.148  0.00  0.00     0.298 HD
ENDROOT
TORSDOF 0
ENDMDL
