MODEL 1
REMARK minimizedAffinity 3.46144557
REMARK minimizedRMSD -1
REMARK  0 active torsions:
REMARK  status: ('A' for Active; 'I' for Inactive)
ROOT
ATOM      1  N1  IND d   1       0.951  -4.651   5.814  0.00  0.00    -0.196 N 
ATOM      2  C2  IND d   1      -0.154  -5.434   6.000  0.00  0.00     0.054 A 
ATOM      3  C3  IND d   1      -0.710  -5.753   4.810  0.00  0.00    -0.031 A 
ATOM      4  C4  IND d   1       0.085  -5.185   2.428  0.00  0.00     0.051 A 
ATOM      5  C5  IND d   1       1.026  -4.461   1.750  0.00  0.00    -0.031 A 
ATOM      6  C6  IND d   1       2.012  -3.752   2.406  0.00  0.00     0.015 A 
ATOM      7  C7  IND d   1       2.100  -3.749   3.769  0.00  0.00    -0.016 A 
ATOM      8  C8  IND d   1       1.142  -4.477   4.461  0.00  0.00    -0.047 A 
ATOM      9  C9  IND d   1       0.114  -5.164   3.803  0.00  0.00    -0.096 A 
ATOM     10  HN1 IND d   1       1.444  -4.322   6.437  0.00  0.00     0.298 HD
ENDROOT
TORSDOF 0
ENDMDL
