MODEL 1
REMARK minimizedAffinity 17.5198956
REMARK minimizedRMSD -1
REMARK  0 active torsions:
REMARK  status: ('A' for Active; 'I' for Inactive)
ROOT
ATOM      1  C   UNL d   1      -5.705   5.468  -5.511  0.00  0.00     0.020 A 
ATOM      2  C1  UNL d   1      -4.804   6.000  -4.589  0.00  0.00     0.020 A 
ATOM      3  C2  UNL d   1      -3.771   5.206  -4.084  0.00  0.00     0.034 A 
ATOM      4  C3  UNL d   1      -3.637   3.877  -4.501  0.00  0.00     0.017 A 
ATOM      5  C4  UNL d   1      -4.542   3.344  -5.427  0.00  0.00     0.017 A 
ATOM      6  C5  UNL d   1      -5.574   4.143  -5.929  0.00  0.00     0.034 A 
ATOM      7 Cl   UNL d   1      -4.441   1.713  -5.989  0.00  0.00    -0.070 Cl
ATOM      8 Cl1  UNL d   1      -2.337   2.953  -3.837  0.00  0.00    -0.070 Cl
ENDROOT
TORSDOF 0
ENDMDL
