MODEL 1
REMARK minimizedAffinity 12.851203
REMARK minimizedRMSD -1
REMARK  0 active torsions:
REMARK  status: ('A' for Active; 'I' for Inactive)
ROOT
ATOM      1  C   UNL d   1      -0.783  -3.697  -0.270  0.00  0.00     0.020 A 
ATOM      2  C1  UNL d   1      -1.284  -2.582   0.401  0.00  0.00     0.020 A 
ATOM      3  C2  UNL d   1      -1.850  -1.529  -0.320  0.00  0.00     0.034 A 
ATOM      4  C3  UNL d   1      -1.916  -1.588  -1.717  0.00  0.00     0.017 A 
ATOM      5  C4  UNL d   1      -1.413  -2.707  -2.390  0.00  0.00     0.017 A 
ATOM      6  C5  UNL d   1      -0.847  -3.759  -1.662  0.00  0.00     0.034 A 
ATOM      7 Cl   UNL d   1      -1.459  -2.852  -4.111  0.00  0.00    -0.070 Cl
ATOM      8 Cl1  UNL d   1      -2.629  -0.250  -2.545  0.00  0.00    -0.070 Cl
ENDROOT
TORSDOF 0
ENDMDL
