MODEL 1
REMARK minimizedAffinity 10.6264515
REMARK minimizedRMSD -1
REMARK  0 active torsions:
REMARK  status: ('A' for Active; 'I' for Inactive)
ROOT
ATOM      1  C   UNL d   1      -1.504  -3.629   5.061  0.00  0.00     0.020 A 
ATOM      2  C1  UNL d   1      -1.446  -2.599   5.999  0.00  0.00     0.020 A 
ATOM      3  C2  UNL d   1      -1.826  -1.304   5.639  0.00  0.00     0.034 A 
ATOM      4  C3  UNL d   1      -2.267  -1.036   4.338  0.00  0.00     0.017 A 
ATOM      5  C4  UNL d   1      -2.325  -2.071   3.397  0.00  0.00     0.017 A 
ATOM      6  C5  UNL d   1      -1.943  -3.365   3.763  0.00  0.00     0.034 A 
ATOM      7 Cl   UNL d   1      -2.858  -1.817   1.772  0.00  0.00    -0.070 Cl
ATOM      8 Cl1  UNL d   1      -2.722   0.588   3.962  0.00  0.00    -0.070 Cl
ENDROOT
TORSDOF 0
ENDMDL
