MODEL 1
REMARK minimizedAffinity 11.5513468
REMARK minimizedRMSD -1
REMARK  0 active torsions:
REMARK  status: ('A' for Active; 'I' for Inactive)
ROOT
ATOM      1  C   UNL d   1      -3.402  -1.186   0.623  0.00  0.00     0.020 A 
ATOM      2  C1  UNL d   1      -3.370  -0.375  -0.511  0.00  0.00     0.020 A 
ATOM      3  C2  UNL d   1      -2.405  -0.590  -1.497  0.00  0.00     0.034 A 
ATOM      4  C3  UNL d   1      -1.468  -1.620  -1.352  0.00  0.00     0.017 A 
ATOM      5  C4  UNL d   1      -1.500  -2.433  -0.213  0.00  0.00     0.017 A 
ATOM      6  C5  UNL d   1      -2.469  -2.213   0.771  0.00  0.00     0.034 A 
ATOM      7 Cl   UNL d   1      -0.377  -3.723   0.037  0.00  0.00    -0.070 Cl
ATOM      8 Cl1  UNL d   1      -0.303  -1.830  -2.610  0.00  0.00    -0.070 Cl
ENDROOT
TORSDOF 0
ENDMDL
