MODEL 1
REMARK minimizedAffinity 3.28917289
REMARK minimizedRMSD -1
REMARK  0 active torsions:
REMARK  status: ('A' for Active; 'I' for Inactive)
ROOT
ATOM      1  C   UNL d   1      -5.152   3.501   5.993  0.00  0.00     0.020 A 
ATOM      2  C1  UNL d   1      -3.759   3.568   5.996  0.00  0.00     0.020 A 
ATOM      3  C2  UNL d   1      -3.003   2.394   5.998  0.00  0.00     0.034 A 
ATOM      4  C3  UNL d   1      -3.640   1.148   5.997  0.00  0.00     0.017 A 
ATOM      5  C4  UNL d   1      -5.038   1.081   5.994  0.00  0.00     0.017 A 
ATOM      6  C5  UNL d   1      -5.790   2.260   5.992  0.00  0.00     0.034 A 
ATOM      7 Cl   UNL d   1      -5.895  -0.420   5.993  0.00  0.00    -0.070 Cl
ATOM      8 Cl1  UNL d   1      -2.643  -0.264   6.000  0.00  0.00    -0.070 Cl
ENDROOT
TORSDOF 0
ENDMDL
