MODEL 1
REMARK minimizedAffinity 19.6886463
REMARK minimizedRMSD -1
REMARK  0 active torsions:
REMARK  status: ('A' for Active; 'I' for Inactive)
ROOT
ATOM      1  C   UNL d   1       0.377   3.364  -5.705  0.00  0.00     0.020 A 
ATOM      2  C1  UNL d   1       0.756   2.646  -4.572  0.00  0.00     0.020 A 
ATOM      3  C2  UNL d   1      -0.219   2.104  -3.732  0.00  0.00     0.034 A 
ATOM      4  C3  UNL d   1      -1.577   2.278  -4.024  0.00  0.00     0.017 A 
ATOM      5  C4  UNL d   1      -1.955   2.999  -5.162  0.00  0.00     0.017 A 
ATOM      6  C5  UNL d   1      -0.975   3.540  -6.000  0.00  0.00     0.034 A 
ATOM      7 Cl   UNL d   1      -3.610   3.256  -5.588  0.00  0.00    -0.070 Cl
ATOM      8 Cl1  UNL d   1      -2.728   1.579  -2.941  0.00  0.00    -0.070 Cl
ENDROOT
TORSDOF 0
ENDMDL
