MODEL 1
REMARK minimizedAffinity 11.6166344
REMARK minimizedRMSD -1
REMARK  0 active torsions:
REMARK  status: ('A' for Active; 'I' for Inactive)
ROOT
ATOM      1  C   UNL d   1       4.467   4.968  -0.734  0.00  0.00     0.020 A 
ATOM      2  C1  UNL d   1       4.768   6.000   0.154  0.00  0.00     0.020 A 
ATOM      3  C2  UNL d   1       4.882   5.734   1.520  0.00  0.00     0.034 A 
ATOM      4  C3  UNL d   1       4.695   4.433   2.002  0.00  0.00     0.017 A 
ATOM      5  C4  UNL d   1       4.393   3.398   1.109  0.00  0.00     0.017 A 
ATOM      6  C5  UNL d   1       4.280   3.670  -0.258  0.00  0.00     0.034 A 
ATOM      7 Cl   UNL d   1       4.149   1.768   1.629  0.00  0.00    -0.070 Cl
ATOM      8 Cl1  UNL d   1       4.852   4.176   3.703  0.00  0.00    -0.070 Cl
ENDROOT
TORSDOF 0
ENDMDL
