MODEL 1
REMARK minimizedAffinity 8.66472626
REMARK minimizedRMSD -1
REMARK  0 active torsions:
REMARK  status: ('A' for Active; 'I' for Inactive)
ROOT
ATOM      1  C   UNL d   1      -0.003  -6.000   0.869  0.00  0.00     0.020 A 
ATOM      2  C1  UNL d   1      -0.099  -5.366  -0.369  0.00  0.00     0.020 A 
ATOM      3  C2  UNL d   1      -0.643  -4.082  -0.456  0.00  0.00     0.034 A 
ATOM      4  C3  UNL d   1      -1.091  -3.428   0.698  0.00  0.00     0.017 A 
ATOM      5  C4  UNL d   1      -0.993  -4.065   1.940  0.00  0.00     0.017 A 
ATOM      6  C5  UNL d   1      -0.449  -5.351   2.021  0.00  0.00     0.034 A 
ATOM      7 Cl   UNL d   1      -1.525  -3.322   3.407  0.00  0.00    -0.070 Cl
ATOM      8 Cl1  UNL d   1      -1.751  -1.842   0.517  0.00  0.00    -0.070 Cl
ENDROOT
TORSDOF 0
ENDMDL
