MODEL 1
REMARK minimizedAffinity 5.88514376
REMARK minimizedRMSD -1
REMARK  0 active torsions:
REMARK  status: ('A' for Active; 'I' for Inactive)
ROOT
ATOM      1  C   UNL d   1      -0.464  -5.769   0.979  0.00  0.00     0.020 A 
ATOM      2  C1  UNL d   1      -0.808  -5.998   2.310  0.00  0.00     0.020 A 
ATOM      3  C2  UNL d   1      -1.456  -5.004   3.045  0.00  0.00     0.034 A 
ATOM      4  C3  UNL d   1      -1.762  -3.775   2.450  0.00  0.00     0.017 A 
ATOM      5  C4  UNL d   1      -1.416  -3.545   1.113  0.00  0.00     0.017 A 
ATOM      6  C5  UNL d   1      -0.767  -4.545   0.381  0.00  0.00     0.034 A 
ATOM      7 Cl   UNL d   1      -1.761  -2.054   0.309  0.00  0.00    -0.070 Cl
ATOM      8 Cl1  UNL d   1      -2.565  -2.590   3.418  0.00  0.00    -0.070 Cl
ENDROOT
TORSDOF 0
ENDMDL
