MODEL 1
REMARK minimizedAffinity 10.63552
REMARK minimizedRMSD -1
REMARK  0 active torsions:
REMARK  status: ('A' for Active; 'I' for Inactive)
ROOT
ATOM      1  C   UNL d   1      -3.701  -1.379  -0.137  0.00  0.00     0.020 A 
ATOM      2  C1  UNL d   1      -2.546  -2.160  -0.104  0.00  0.00     0.020 A 
ATOM      3  C2  UNL d   1      -1.497  -1.893  -0.986  0.00  0.00     0.034 A 
ATOM      4  C3  UNL d   1      -1.600  -0.842  -1.905  0.00  0.00     0.017 A 
ATOM      5  C4  UNL d   1      -2.759  -0.058  -1.937  0.00  0.00     0.017 A 
ATOM      6  C5  UNL d   1      -3.807  -0.330  -1.051  0.00  0.00     0.034 A 
ATOM      7 Cl   UNL d   1      -2.960   1.255  -3.042  0.00  0.00    -0.070 Cl
ATOM      8 Cl1  UNL d   1      -0.264  -0.569  -2.966  0.00  0.00    -0.070 Cl
ENDROOT
TORSDOF 0
ENDMDL
