MODEL 1
REMARK minimizedAffinity 19.6309776
REMARK minimizedRMSD -1
REMARK  0 active torsions:
REMARK  status: ('A' for Active; 'I' for Inactive)
ROOT
ATOM      1  C   UNL d   1      -5.999   5.989  -5.044  0.00  0.00     0.020 A 
ATOM      2  C1  UNL d   1      -5.870   4.932  -5.944  0.00  0.00     0.020 A 
ATOM      3  C2  UNL d   1      -4.998   3.878  -5.663  0.00  0.00     0.034 A 
ATOM      4  C3  UNL d   1      -4.252   3.878  -4.479  0.00  0.00     0.017 A 
ATOM      5  C4  UNL d   1      -4.382   4.940  -3.576  0.00  0.00     0.017 A 
ATOM      6  C5  UNL d   1      -5.256   5.993  -3.863  0.00  0.00     0.034 A 
ATOM      7 Cl   UNL d   1      -3.494   5.011  -2.095  0.00  0.00    -0.070 Cl
ATOM      8 Cl1  UNL d   1      -3.194   2.542  -4.196  0.00  0.00    -0.070 Cl
ENDROOT
TORSDOF 0
ENDMDL
