MODEL 1
REMARK minimizedAffinity 5.40638018
REMARK minimizedRMSD -1
REMARK  0 active torsions:
REMARK  status: ('A' for Active; 'I' for Inactive)
ROOT
ATOM      1  C   UNL d   1      -5.400   2.767   5.989  0.00  0.00     0.020 A 
ATOM      2  C1  UNL d   1      -4.018   2.949   5.989  0.00  0.00     0.020 A 
ATOM      3  C2  UNL d   1      -3.167   1.841   5.987  0.00  0.00     0.034 A 
ATOM      4  C3  UNL d   1      -3.698   0.546   5.987  0.00  0.00     0.017 A 
ATOM      5  C4  UNL d   1      -5.086   0.364   5.987  0.00  0.00     0.017 A 
ATOM      6  C5  UNL d   1      -5.933   1.477   5.989  0.00  0.00     0.034 A 
ATOM      7 Cl   UNL d   1      -5.815  -1.203   5.986  0.00  0.00    -0.070 Cl
ATOM      8 Cl1  UNL d   1      -2.588  -0.778   5.985  0.00  0.00    -0.070 Cl
ENDROOT
TORSDOF 0
ENDMDL
