MODEL 1
REMARK minimizedAffinity 8.35867596
REMARK minimizedRMSD -1
REMARK  0 active torsions:
REMARK  status: ('A' for Active; 'I' for Inactive)
ROOT
ATOM      1  C   UNL d   1      -5.688   4.585  -6.000  0.00  0.00     0.020 A 
ATOM      2  C1  UNL d   1      -6.000   5.744  -5.290  0.00  0.00     0.020 A 
ATOM      3  C2  UNL d   1      -5.382   6.000  -4.064  0.00  0.00     0.034 A 
ATOM      4  C3  UNL d   1      -4.450   5.095  -3.544  0.00  0.00     0.017 A 
ATOM      5  C4  UNL d   1      -4.138   3.932  -4.257  0.00  0.00     0.017 A 
ATOM      6  C5  UNL d   1      -4.759   3.681  -5.484  0.00  0.00     0.034 A 
ATOM      7 Cl   UNL d   1      -2.997   2.768  -3.679  0.00  0.00    -0.070 Cl
ATOM      8 Cl1  UNL d   1      -3.725   5.475  -2.022  0.00  0.00    -0.070 Cl
ENDROOT
TORSDOF 0
ENDMDL
