MODEL 1
REMARK minimizedAffinity 12.3113718
REMARK minimizedRMSD -1
REMARK  0 active torsions:
REMARK  status: ('A' for Active; 'I' for Inactive)
ROOT
ATOM      1  C   UNL d   1      -1.505  -2.208  -2.385  0.00  0.00     0.020 A 
ATOM      2  C1  UNL d   1      -1.504  -1.679  -1.095  0.00  0.00     0.020 A 
ATOM      3  C2  UNL d   1      -1.155  -2.485  -0.010  0.00  0.00     0.034 A 
ATOM      4  C3  UNL d   1      -0.807  -3.825  -0.213  0.00  0.00     0.017 A 
ATOM      5  C4  UNL d   1      -0.808  -4.356  -1.508  0.00  0.00     0.017 A 
ATOM      6  C5  UNL d   1      -1.157  -3.543  -2.591  0.00  0.00     0.034 A 
ATOM      7 Cl   UNL d   1      -0.389  -6.000  -1.837  0.00  0.00    -0.070 Cl
ATOM      8 Cl1  UNL d   1      -0.386  -4.765   1.175  0.00  0.00    -0.070 Cl
ENDROOT
TORSDOF 0
ENDMDL
