MODEL 1
REMARK minimizedAffinity 8.20327187
REMARK minimizedRMSD -1
REMARK  0 active torsions:
REMARK  status: ('A' for Active; 'I' for Inactive)
ROOT
ATOM      1  C   UNL d   1       0.017   3.375  -5.627  0.00  0.00     0.020 A 
ATOM      2  C1  UNL d   1       0.370   2.607  -4.518  0.00  0.00     0.020 A 
ATOM      3  C2  UNL d   1      -0.616   1.948  -3.782  0.00  0.00     0.034 A 
ATOM      4  C3  UNL d   1      -1.962   2.056  -4.153  0.00  0.00     0.017 A 
ATOM      5  C4  UNL d   1      -2.316   2.827  -5.266  0.00  0.00     0.017 A 
ATOM      6  C5  UNL d   1      -1.324   3.485  -6.000  0.00  0.00     0.034 A 
ATOM      7 Cl   UNL d   1      -3.954   3.007  -5.786  0.00  0.00    -0.070 Cl
ATOM      8 Cl1  UNL d   1      -3.129   1.213  -3.198  0.00  0.00    -0.070 Cl
ENDROOT
TORSDOF 0
ENDMDL
