MODEL 1
REMARK minimizedAffinity 6.80126667
REMARK minimizedRMSD -1
REMARK  0 active torsions:
REMARK  status: ('A' for Active; 'I' for Inactive)
ROOT
ATOM      1  C   UNL d   1      -1.059  -3.254   0.271  0.00  0.00     0.020 A 
ATOM      2  C1  UNL d   1      -1.979  -2.317   0.741  0.00  0.00     0.020 A 
ATOM      3  C2  UNL d   1      -2.503  -1.357  -0.127  0.00  0.00     0.034 A 
ATOM      4  C3  UNL d   1      -2.107  -1.331  -1.470  0.00  0.00     0.017 A 
ATOM      5  C4  UNL d   1      -1.184  -2.271  -1.940  0.00  0.00     0.017 A 
ATOM      6  C5  UNL d   1      -0.662  -3.231  -1.067  0.00  0.00     0.034 A 
ATOM      7 Cl   UNL d   1      -0.648  -2.302  -3.583  0.00  0.00    -0.070 Cl
ATOM      8 Cl1  UNL d   1      -2.796  -0.116  -2.487  0.00  0.00    -0.070 Cl
ENDROOT
TORSDOF 0
ENDMDL
