MODEL 1
REMARK minimizedAffinity 15.8172579
REMARK minimizedRMSD -1
REMARK  0 active torsions:
REMARK  status: ('A' for Active; 'I' for Inactive)
ROOT
ATOM      1  C   UNL d   1       1.793   0.330  -1.279  0.00  0.00     0.020 A 
ATOM      2  C1  UNL d   1       1.783   1.456  -2.101  0.00  0.00     0.020 A 
ATOM      3  C2  UNL d   1       2.483   2.603  -1.722  0.00  0.00     0.034 A 
ATOM      4  C3  UNL d   1       3.196   2.627  -0.517  0.00  0.00     0.017 A 
ATOM      5  C4  UNL d   1       3.205   1.496   0.307  0.00  0.00     0.017 A 
ATOM      6  C5  UNL d   1       2.503   0.350  -0.078  0.00  0.00     0.034 A 
ATOM      7 Cl   UNL d   1       4.062   1.450   1.807  0.00  0.00    -0.070 Cl
ATOM      8 Cl1  UNL d   1       4.039   4.080  -0.111  0.00  0.00    -0.070 Cl
ENDROOT
TORSDOF 0
ENDMDL
