MODEL 1
REMARK minimizedAffinity 10.0662937
REMARK minimizedRMSD -1
REMARK  0 active torsions:
REMARK  status: ('A' for Active; 'I' for Inactive)
ROOT
ATOM      1  C   UNL d   1      -1.264  -3.739   1.327  0.00  0.00     0.020 A 
ATOM      2  C1  UNL d   1      -0.732  -2.626   0.678  0.00  0.00     0.020 A 
ATOM      3  C2  UNL d   1      -1.549  -1.533   0.382  0.00  0.00     0.034 A 
ATOM      4  C3  UNL d   1      -2.903  -1.550   0.737  0.00  0.00     0.017 A 
ATOM      5  C4  UNL d   1      -3.436  -2.667   1.389  0.00  0.00     0.017 A 
ATOM      6  C5  UNL d   1      -2.613  -3.759   1.682  0.00  0.00     0.034 A 
ATOM      7 Cl   UNL d   1      -5.097  -2.762   1.857  0.00  0.00    -0.070 Cl
ATOM      8 Cl1  UNL d   1      -3.855  -0.163   0.341  0.00  0.00    -0.070 Cl
ENDROOT
TORSDOF 0
ENDMDL
