MODEL 1
REMARK minimizedAffinity -0.441720903
REMARK minimizedRMSD -1
REMARK  0 active torsions:
REMARK  status: ('A' for Active; 'I' for Inactive)
ROOT
ATOM      1  C   UNL d   1      -0.543  -1.509  -0.421  0.00  0.00     0.124 A 
ATOM      2  C1  UNL d   1      -0.303  -1.125   0.891  0.00  0.00     0.062 A 
ATOM      3  C2  UNL d   1       0.139   0.164   1.173  0.00  0.00     0.162 A 
ATOM      4  C3  UNL d   1       0.344   1.079   0.141  0.00  0.00    -0.034 A 
ATOM      5  C4  UNL d   1       0.101   0.686  -1.176  0.00  0.00     0.162 A 
ATOM      6  C5  UNL d   1      -0.341  -0.604  -1.453  0.00  0.00     0.062 A 
ATOM      7  F   UNL d   1      -0.572  -0.973  -2.721  0.00  0.00    -0.097 F 
ATOM      8  F1  UNL d   1       0.288   1.541  -2.192  0.00  0.00    -0.096 F 
ATOM      9  I   UNL d   1       1.005   3.008   0.559  0.00  0.00    -0.060 I 
ATOM     10  F2  UNL d   1       0.363   0.507   2.451  0.00  0.00    -0.096 F 
ATOM     11  F3  UNL d   1      -0.497  -1.999   1.890  0.00  0.00    -0.097 F 
ATOM     12  F4  UNL d   1      -0.968  -2.751  -0.690  0.00  0.00    -0.092 F 
ENDROOT
TORSDOF 0
ENDMDL
