MODEL 1
REMARK minimizedAffinity 0.461885899
REMARK minimizedRMSD -1
REMARK  0 active torsions:
REMARK  status: ('A' for Active; 'I' for Inactive)
ROOT
ATOM      1  C   UNL d   1      -0.458  -2.044  -0.413  0.00  0.00     0.124 A 
ATOM      2  C1  UNL d   1      -0.159  -1.228  -1.495  0.00  0.00     0.062 A 
ATOM      3  C2  UNL d   1       0.134   0.118  -1.297  0.00  0.00     0.162 A 
ATOM      4  C3  UNL d   1       0.131   0.657  -0.010  0.00  0.00    -0.034 A 
ATOM      5  C4  UNL d   1      -0.171  -0.170   1.073  0.00  0.00     0.162 A 
ATOM      6  C5  UNL d   1      -0.464  -1.515   0.870  0.00  0.00     0.062 A 
ATOM      7  F   UNL d   1      -0.752  -2.302   1.916  0.00  0.00    -0.097 F 
ATOM      8  F1  UNL d   1      -0.183   0.315   2.324  0.00  0.00    -0.096 F 
ATOM      9  I   UNL d   1       0.569   2.669   0.291  0.00  0.00    -0.060 I 
ATOM     10  F2  UNL d   1       0.419   0.884  -2.361  0.00  0.00    -0.096 F 
ATOM     11  F3  UNL d   1      -0.154  -1.736  -2.736  0.00  0.00    -0.097 F 
ATOM     12  F4  UNL d   1      -0.741  -3.339  -0.607  0.00  0.00    -0.092 F 
ENDROOT
TORSDOF 0
ENDMDL
