MODEL 1
REMARK minimizedAffinity -0.945281029
REMARK minimizedRMSD -1
REMARK  0 active torsions:
REMARK  status: ('A' for Active; 'I' for Inactive)
ROOT
ATOM      1  C   UNL d   1       2.202   3.933   1.072  0.00  0.00     0.124 A 
ATOM      2  C1  UNL d   1       0.827   4.039   0.912  0.00  0.00     0.062 A 
ATOM      3  C2  UNL d   1       0.058   2.901   0.688  0.00  0.00     0.162 A 
ATOM      4  C3  UNL d   1       0.662   1.645   0.626  0.00  0.00    -0.034 A 
ATOM      5  C4  UNL d   1       2.045   1.546   0.787  0.00  0.00     0.162 A 
ATOM      6  C5  UNL d   1       2.809   2.687   1.010  0.00  0.00     0.062 A 
ATOM      7  F   UNL d   1       4.137   2.582   1.165  0.00  0.00    -0.097 F 
ATOM      8  F1  UNL d   1       2.658   0.354   0.733  0.00  0.00    -0.096 F 
ATOM      9  I   UNL d   1      -0.484  -0.060   0.292  0.00  0.00    -0.060 I 
ATOM     10  F2  UNL d   1      -1.268   3.033   0.537  0.00  0.00    -0.096 F 
ATOM     11  F3  UNL d   1       0.238   5.242   0.970  0.00  0.00    -0.097 F 
ATOM     12  F4  UNL d   1       2.939   5.030   1.286  0.00  0.00    -0.092 F 
ENDROOT
TORSDOF 0
ENDMDL
