MODEL 1
REMARK minimizedAffinity 1.24524438
REMARK minimizedRMSD -1
REMARK  0 active torsions:
REMARK  status: ('A' for Active; 'I' for Inactive)
ROOT
ATOM      1  C   UNL d   1       0.637   4.451   1.454  0.00  0.00     0.124 A 
ATOM      2  C1  UNL d   1       1.825   3.990   0.903  0.00  0.00     0.062 A 
ATOM      3  C2  UNL d   1       1.856   2.777   0.221  0.00  0.00     0.162 A 
ATOM      4  C3  UNL d   1       0.695   2.017   0.084  0.00  0.00    -0.034 A 
ATOM      5  C4  UNL d   1      -0.496   2.486   0.642  0.00  0.00     0.162 A 
ATOM      6  C5  UNL d   1      -0.522   3.699   1.322  0.00  0.00     0.062 A 
ATOM      7  F   UNL d   1      -1.670   4.143   1.854  0.00  0.00    -0.097 F 
ATOM      8  F1  UNL d   1      -1.631   1.781   0.529  0.00  0.00    -0.096 F 
ATOM      9  I   UNL d   1       0.737   0.203  -0.935  0.00  0.00    -0.060 I 
ATOM     10  F2  UNL d   1       3.018   2.356  -0.301  0.00  0.00    -0.096 F 
ATOM     11  F3  UNL d   1       2.947   4.714   1.030  0.00  0.00    -0.097 F 
ATOM     12  F4  UNL d   1       0.611   5.618   2.111  0.00  0.00    -0.092 F 
ENDROOT
TORSDOF 0
ENDMDL
