MODEL 1
REMARK minimizedAffinity -3.56175089
REMARK minimizedRMSD -1
REMARK  0 active torsions:
REMARK  status: ('A' for Active; 'I' for Inactive)
ROOT
ATOM      1  C   UNL d   1      -0.546  -2.563  -1.090  0.00  0.00     0.124 A 
ATOM      2  C1  UNL d   1      -0.723  -2.045   0.185  0.00  0.00     0.062 A 
ATOM      3  C2  UNL d   1      -0.512  -0.690   0.426  0.00  0.00     0.162 A 
ATOM      4  C3  UNL d   1      -0.122   0.157  -0.611  0.00  0.00    -0.034 A 
ATOM      5  C4  UNL d   1       0.056  -0.372  -1.891  0.00  0.00     0.162 A 
ATOM      6  C5  UNL d   1      -0.157  -1.726  -2.127  0.00  0.00     0.062 A 
ATOM      7  F   UNL d   1       0.015  -2.225  -3.360  0.00  0.00    -0.097 F 
ATOM      8  F1  UNL d   1       0.430   0.414  -2.911  0.00  0.00    -0.096 F 
ATOM      9  I   UNL d   1       0.195   2.183  -0.255  0.00  0.00    -0.060 I 
ATOM     10  F2  UNL d   1      -0.691  -0.217   1.668  0.00  0.00    -0.096 F 
ATOM     11  F3  UNL d   1      -1.098  -2.851   1.188  0.00  0.00    -0.097 F 
ATOM     12  F4  UNL d   1      -0.749  -3.866  -1.319  0.00  0.00    -0.092 F 
ENDROOT
TORSDOF 0
ENDMDL
