MODEL 1
REMARK minimizedAffinity 1.22926009
REMARK minimizedRMSD -1
REMARK  0 active torsions:
REMARK  status: ('A' for Active; 'I' for Inactive)
ROOT
ATOM      1  C   UNL d   1       1.142   4.784   1.087  0.00  0.00     0.124 A 
ATOM      2  C1  UNL d   1      -0.078   4.375   0.566  0.00  0.00     0.062 A 
ATOM      3  C2  UNL d   1      -0.207   3.113  -0.006  0.00  0.00     0.162 A 
ATOM      4  C3  UNL d   1       0.887   2.249  -0.059  0.00  0.00    -0.034 A 
ATOM      5  C4  UNL d   1       2.111   2.668   0.466  0.00  0.00     0.162 A 
ATOM      6  C5  UNL d   1       2.235   3.930   1.036  0.00  0.00     0.062 A 
ATOM      7  F   UNL d   1       3.414   4.324   1.538  0.00  0.00    -0.097 F 
ATOM      8  F1  UNL d   1       3.183   1.863   0.431  0.00  0.00    -0.096 F 
ATOM      9  I   UNL d   1       0.698   0.360  -0.913  0.00  0.00    -0.060 I 
ATOM     10  F2  UNL d   1      -1.398   2.744  -0.501  0.00  0.00    -0.096 F 
ATOM     11  F3  UNL d   1      -1.135   5.198   0.613  0.00  0.00    -0.097 F 
ATOM     12  F4  UNL d   1       1.264   6.000   1.635  0.00  0.00    -0.092 F 
ENDROOT
TORSDOF 0
ENDMDL
