MODEL 1
REMARK minimizedAffinity -3.03204703
REMARK minimizedRMSD -1
REMARK  0 active torsions:
REMARK  status: ('A' for Active; 'I' for Inactive)
ROOT
ATOM      1  C   UNL d   1       0.193  -2.835  -0.739  0.00  0.00     0.124 A 
ATOM      2  C1  UNL d   1      -0.024  -1.982  -1.813  0.00  0.00     0.062 A 
ATOM      3  C2  UNL d   1       0.008  -0.603  -1.629  0.00  0.00     0.162 A 
ATOM      4  C3  UNL d   1       0.259  -0.067  -0.366  0.00  0.00    -0.034 A 
ATOM      5  C4  UNL d   1       0.476  -0.931   0.709  0.00  0.00     0.162 A 
ATOM      6  C5  UNL d   1       0.443  -2.309   0.520  0.00  0.00     0.062 A 
ATOM      7  F   UNL d   1       0.654  -3.131   1.559  0.00  0.00    -0.097 F 
ATOM      8  F1  UNL d   1       0.721  -0.449   1.937  0.00  0.00    -0.096 F 
ATOM      9  I   UNL d   1       0.308   1.995  -0.087  0.00  0.00    -0.060 I 
ATOM     10  F2  UNL d   1      -0.206   0.197  -2.684  0.00  0.00    -0.096 F 
ATOM     11  F3  UNL d   1      -0.267  -2.488  -3.030  0.00  0.00    -0.097 F 
ATOM     12  F4  UNL d   1       0.161  -4.162  -0.919  0.00  0.00    -0.092 F 
ENDROOT
TORSDOF 0
ENDMDL
