MODEL 1
REMARK minimizedAffinity 1.72688866
REMARK minimizedRMSD -1
REMARK  0 active torsions:
REMARK  status: ('A' for Active; 'I' for Inactive)
ROOT
ATOM      1  C   UNL d   1      -1.045  -0.864   0.563  0.00  0.00     0.124 A 
ATOM      2  C1  UNL d   1       0.269  -1.094   0.179  0.00  0.00     0.062 A 
ATOM      3  C2  UNL d   1       1.131  -0.024  -0.045  0.00  0.00     0.162 A 
ATOM      4  C3  UNL d   1       0.682   1.287   0.116  0.00  0.00    -0.034 A 
ATOM      5  C4  UNL d   1      -0.641   1.510   0.501  0.00  0.00     0.162 A 
ATOM      6  C5  UNL d   1      -1.499   0.438   0.724  0.00  0.00     0.062 A 
ATOM      7  F   UNL d   1      -2.768   0.662   1.094  0.00  0.00    -0.097 F 
ATOM      8  F1  UNL d   1      -1.106   2.758   0.665  0.00  0.00    -0.096 F 
ATOM      9  I   UNL d   1       1.967   2.890  -0.218  0.00  0.00    -0.060 I 
ATOM     10  F2  UNL d   1       2.395  -0.276  -0.415  0.00  0.00    -0.096 F 
ATOM     11  F3  UNL d   1       0.710  -2.350   0.022  0.00  0.00    -0.097 F 
ATOM     12  F4  UNL d   1      -1.872  -1.895   0.776  0.00  0.00    -0.092 F 
ENDROOT
TORSDOF 0
ENDMDL
