MODEL 1
REMARK minimizedAffinity 0.401164949
REMARK minimizedRMSD -1
REMARK  0 active torsions:
REMARK  status: ('A' for Active; 'I' for Inactive)
ROOT
ATOM      1  C   UNL d   1      -0.255  -2.565   0.581  0.00  0.00     0.124 A 
ATOM      2  C1  UNL d   1      -1.241  -1.844   1.240  0.00  0.00     0.062 A 
ATOM      3  C2  UNL d   1      -1.181  -0.454   1.282  0.00  0.00     0.162 A 
ATOM      4  C3  UNL d   1      -0.131   0.224   0.663  0.00  0.00    -0.034 A 
ATOM      5  C4  UNL d   1       0.857  -0.508   0.004  0.00  0.00     0.162 A 
ATOM      6  C5  UNL d   1       0.792  -1.897  -0.036  0.00  0.00     0.062 A 
ATOM      7  F   UNL d   1       1.746  -2.592  -0.673  0.00  0.00    -0.097 F 
ATOM      8  F1  UNL d   1       1.880   0.112  -0.602  0.00  0.00    -0.096 F 
ATOM      9  I   UNL d   1      -0.038   2.302   0.725  0.00  0.00    -0.060 I 
ATOM     10  F2  UNL d   1      -2.148   0.217   1.926  0.00  0.00    -0.096 F 
ATOM     11  F3  UNL d   1      -2.254  -2.487   1.838  0.00  0.00    -0.097 F 
ATOM     12  F4  UNL d   1      -0.315  -3.903   0.542  0.00  0.00    -0.092 F 
ENDROOT
TORSDOF 0
ENDMDL
