MODEL 1
REMARK minimizedAffinity -1.91392374
REMARK minimizedRMSD -1
REMARK  0 active torsions:
REMARK  status: ('A' for Active; 'I' for Inactive)
ROOT
ATOM      1  C   UNL d   1       0.830  -1.727  -1.725  0.00  0.00     0.124 A 
ATOM      2  C1  UNL d   1       0.729  -2.232  -0.436  0.00  0.00     0.062 A 
ATOM      3  C2  UNL d   1      -0.018  -1.555   0.524  0.00  0.00     0.162 A 
ATOM      4  C3  UNL d   1      -0.670  -0.366   0.199  0.00  0.00    -0.034 A 
ATOM      5  C4  UNL d   1      -0.563   0.136  -1.099  0.00  0.00     0.162 A 
ATOM      6  C5  UNL d   1       0.184  -0.543  -2.055  0.00  0.00     0.062 A 
ATOM      7  F   UNL d   1       0.281  -0.054  -3.300  0.00  0.00    -0.097 F 
ATOM      8  F1  UNL d   1      -1.178   1.277  -1.445  0.00  0.00    -0.096 F 
ATOM      9  I   UNL d   1      -1.788   0.648   1.632  0.00  0.00    -0.060 I 
ATOM     10  F2  UNL d   1      -0.098  -2.067   1.761  0.00  0.00    -0.096 F 
ATOM     11  F3  UNL d   1       1.353  -3.374  -0.115  0.00  0.00    -0.097 F 
ATOM     12  F4  UNL d   1       1.550  -2.379  -2.647  0.00  0.00    -0.092 F 
ENDROOT
TORSDOF 0
ENDMDL
