MODEL 1
REMARK minimizedAffinity 2.14099932
REMARK minimizedRMSD -1
REMARK  0 active torsions:
REMARK  status: ('A' for Active; 'I' for Inactive)
ROOT
ATOM      1  C   UNL d   1      -0.539  -1.285   0.786  0.00  0.00     0.124 A 
ATOM      2  C1  UNL d   1      -1.076  -0.005   0.803  0.00  0.00     0.062 A 
ATOM      3  C2  UNL d   1      -0.255   1.101   0.602  0.00  0.00     0.162 A 
ATOM      4  C3  UNL d   1       1.112   0.932   0.381  0.00  0.00    -0.034 A 
ATOM      5  C4  UNL d   1       1.645  -0.358   0.366  0.00  0.00     0.162 A 
ATOM      6  C5  UNL d   1       0.820  -1.460   0.567  0.00  0.00     0.062 A 
ATOM      7  F   UNL d   1       1.340  -2.696   0.550  0.00  0.00    -0.097 F 
ATOM      8  F1  UNL d   1       2.955  -0.556   0.157  0.00  0.00    -0.096 F 
ATOM      9  I   UNL d   1       2.343   2.583   0.081  0.00  0.00    -0.060 I 
ATOM     10  F2  UNL d   1      -0.800   2.327   0.624  0.00  0.00    -0.096 F 
ATOM     11  F3  UNL d   1      -2.388   0.168   1.015  0.00  0.00    -0.097 F 
ATOM     12  F4  UNL d   1      -1.331  -2.347   0.980  0.00  0.00    -0.092 F 
ENDROOT
TORSDOF 0
ENDMDL
