MODEL 1
REMARK minimizedAffinity -2.26503968
REMARK minimizedRMSD -1
REMARK  0 active torsions:
REMARK  status: ('A' for Active; 'I' for Inactive)
ROOT
ATOM      1  C   UNL d   1      -0.379  -2.946  -0.647  0.00  0.00     0.124 A 
ATOM      2  C1  UNL d   1      -0.486  -2.458   0.648  0.00  0.00     0.062 A 
ATOM      3  C2  UNL d   1      -0.300  -1.103   0.904  0.00  0.00     0.162 A 
ATOM      4  C3  UNL d   1      -0.005  -0.224  -0.139  0.00  0.00    -0.034 A 
ATOM      5  C4  UNL d   1       0.102  -0.722  -1.439  0.00  0.00     0.162 A 
ATOM      6  C5  UNL d   1      -0.086  -2.077  -1.689  0.00  0.00     0.062 A 
ATOM      7  F   UNL d   1       0.018  -2.546  -2.941  0.00  0.00    -0.097 F 
ATOM      8  F1  UNL d   1       0.384   0.095  -2.465  0.00  0.00    -0.096 F 
ATOM      9  I   UNL d   1       0.275   1.803   0.239  0.00  0.00    -0.060 I 
ATOM     10  F2  UNL d   1      -0.409  -0.659   2.165  0.00  0.00    -0.096 F 
ATOM     11  F3  UNL d   1      -0.769  -3.295   1.657  0.00  0.00    -0.097 F 
ATOM     12  F4  UNL d   1      -0.558  -4.250  -0.890  0.00  0.00    -0.092 F 
ENDROOT
TORSDOF 0
ENDMDL
