MODEL 1
REMARK minimizedAffinity -2.71617579
REMARK minimizedRMSD -1
REMARK  0 active torsions:
REMARK  status: ('A' for Active; 'I' for Inactive)
ROOT
ATOM      1  C   UNL d   1      -0.535  -3.025  -0.348  0.00  0.00     0.124 A 
ATOM      2  C1  UNL d   1      -0.926  -2.254   0.737  0.00  0.00     0.062 A 
ATOM      3  C2  UNL d   1      -0.710  -0.879   0.733  0.00  0.00     0.162 A 
ATOM      4  C3  UNL d   1      -0.101  -0.265  -0.362  0.00  0.00    -0.034 A 
ATOM      5  C4  UNL d   1       0.290  -1.048  -1.450  0.00  0.00     0.162 A 
ATOM      6  C5  UNL d   1       0.072  -2.422  -1.441  0.00  0.00     0.062 A 
ATOM      7  F   UNL d   1       0.451  -3.165  -2.491  0.00  0.00    -0.097 F 
ATOM      8  F1  UNL d   1       0.878  -0.490  -2.519  0.00  0.00    -0.096 F 
ATOM      9  I   UNL d   1       0.223   1.790  -0.372  0.00  0.00    -0.060 I 
ATOM     10  F2  UNL d   1      -1.098  -0.158   1.796  0.00  0.00    -0.096 F 
ATOM     11  F3  UNL d   1      -1.512  -2.835   1.794  0.00  0.00    -0.097 F 
ATOM     12  F4  UNL d   1      -0.743  -4.348  -0.341  0.00  0.00    -0.092 F 
ENDROOT
TORSDOF 0
ENDMDL
