MODEL 1
REMARK minimizedAffinity -3.92924738
REMARK minimizedRMSD -1
REMARK  0 active torsions:
REMARK  status: ('A' for Active; 'I' for Inactive)
ROOT
ATOM      1  C   UNL d   1       0.291  -2.633  -2.107  0.00  0.00     0.124 A 
ATOM      2  C1  UNL d   1       0.159  -1.260  -2.261  0.00  0.00     0.062 A 
ATOM      3  C2  UNL d   1      -0.193  -0.464  -1.175  0.00  0.00     0.162 A 
ATOM      4  C3  UNL d   1      -0.415  -1.039   0.076  0.00  0.00    -0.034 A 
ATOM      5  C4  UNL d   1      -0.281  -2.420   0.224  0.00  0.00     0.162 A 
ATOM      6  C5  UNL d   1       0.071  -3.212  -0.865  0.00  0.00     0.062 A 
ATOM      7  F   UNL d   1       0.198  -4.538  -0.713  0.00  0.00    -0.097 F 
ATOM      8  F1  UNL d   1      -0.487  -3.006   1.413  0.00  0.00    -0.096 F 
ATOM      9  I   UNL d   1      -0.942   0.148   1.702  0.00  0.00    -0.060 I 
ATOM     10  F2  UNL d   1      -0.314   0.860  -1.354  0.00  0.00    -0.096 F 
ATOM     11  F3  UNL d   1       0.370  -0.698  -3.460  0.00  0.00    -0.097 F 
ATOM     12  F4  UNL d   1       0.629  -3.397  -3.153  0.00  0.00    -0.092 F 
ENDROOT
TORSDOF 0
ENDMDL
