MODEL 1
REMARK minimizedAffinity -1.47268379
REMARK minimizedRMSD -1
REMARK  0 active torsions:
REMARK  status: ('A' for Active; 'I' for Inactive)
ROOT
ATOM      1  C   UNL d   1      -0.487  -1.805  -0.365  0.00  0.00     0.124 A 
ATOM      2  C1  UNL d   1      -0.081  -0.976  -1.402  0.00  0.00     0.062 A 
ATOM      3  C2  UNL d   1       0.191   0.367  -1.158  0.00  0.00     0.162 A 
ATOM      4  C3  UNL d   1       0.058   0.890   0.128  0.00  0.00    -0.034 A 
ATOM      5  C4  UNL d   1      -0.352   0.050   1.165  0.00  0.00     0.162 A 
ATOM      6  C5  UNL d   1      -0.622  -1.292   0.917  0.00  0.00     0.062 A 
ATOM      7  F   UNL d   1      -1.015  -2.091   1.919  0.00  0.00    -0.097 F 
ATOM      8  F1  UNL d   1      -0.490   0.520   2.414  0.00  0.00    -0.096 F 
ATOM      9  I   UNL d   1       0.464   2.898   0.497  0.00  0.00    -0.060 I 
ATOM     10  F2  UNL d   1       0.582   1.145  -2.178  0.00  0.00    -0.096 F 
ATOM     11  F3  UNL d   1       0.050  -1.469  -2.642  0.00  0.00    -0.097 F 
ATOM     12  F4  UNL d   1      -0.749  -3.097  -0.603  0.00  0.00    -0.092 F 
ENDROOT
TORSDOF 0
ENDMDL
