MODEL 1
REMARK minimizedAffinity 0.00112224382
REMARK minimizedRMSD -1
REMARK  0 active torsions:
REMARK  status: ('A' for Active; 'I' for Inactive)
ROOT
ATOM      1  C   UNL d   1      -0.484  -1.573  -0.143  0.00  0.00     0.124 A 
ATOM      2  C1  UNL d   1      -0.283  -0.998   1.105  0.00  0.00     0.062 A 
ATOM      3  C2  UNL d   1       0.080   0.341   1.209  0.00  0.00     0.162 A 
ATOM      4  C3  UNL d   1       0.244   1.117   0.061  0.00  0.00    -0.034 A 
ATOM      5  C4  UNL d   1       0.041   0.532  -1.190  0.00  0.00     0.162 A 
ATOM      6  C5  UNL d   1      -0.322  -0.807  -1.289  0.00  0.00     0.062 A 
ATOM      7  F   UNL d   1      -0.515  -1.360  -2.495  0.00  0.00    -0.097 F 
ATOM      8  F1  UNL d   1       0.189   1.249  -2.314  0.00  0.00    -0.096 F 
ATOM      9  I   UNL d   1       0.786   3.121   0.212  0.00  0.00    -0.060 I 
ATOM     10  F2  UNL d   1       0.268   0.870   2.427  0.00  0.00    -0.096 F 
ATOM     11  F3  UNL d   1      -0.437  -1.736   2.214  0.00  0.00    -0.097 F 
ATOM     12  F4  UNL d   1      -0.832  -2.862  -0.240  0.00  0.00    -0.092 F 
ENDROOT
TORSDOF 0
ENDMDL
