MODEL 1
REMARK minimizedAffinity 0.759788513
REMARK minimizedRMSD -1
REMARK  0 active torsions:
REMARK  status: ('A' for Active; 'I' for Inactive)
ROOT
ATOM      1  C   UNL d   1       1.766  -1.004  -1.630  0.00  0.00     0.124 A 
ATOM      2  C1  UNL d   1       0.808  -1.942  -1.270  0.00  0.00     0.062 A 
ATOM      3  C2  UNL d   1      -0.226  -1.590  -0.407  0.00  0.00     0.162 A 
ATOM      4  C3  UNL d   1      -0.308  -0.293   0.101  0.00  0.00    -0.034 A 
ATOM      5  C4  UNL d   1       0.660   0.644  -0.265  0.00  0.00     0.162 A 
ATOM      6  C5  UNL d   1       1.691   0.287  -1.128  0.00  0.00     0.062 A 
ATOM      7  F   UNL d   1       2.616   1.194  -1.475  0.00  0.00    -0.097 F 
ATOM      8  F1  UNL d   1       0.611   1.899   0.205  0.00  0.00    -0.096 F 
ATOM      9  I   UNL d   1      -1.852   0.237   1.392  0.00  0.00    -0.060 I 
ATOM     10  F2  UNL d   1      -1.138  -2.516  -0.076  0.00  0.00    -0.096 F 
ATOM     11  F3  UNL d   1       0.878  -3.190  -1.753  0.00  0.00    -0.097 F 
ATOM     12  F4  UNL d   1       2.760  -1.346  -2.460  0.00  0.00    -0.092 F 
ENDROOT
TORSDOF 0
ENDMDL
