MODEL 1
REMARK minimizedAffinity -2.21099591
REMARK minimizedRMSD -1
REMARK  0 active torsions:
REMARK  status: ('A' for Active; 'I' for Inactive)
ROOT
ATOM      1  C   UNL d   1       2.839  -1.263  -1.628  0.00  0.00     0.124 A 
ATOM      2  C1  UNL d   1       1.760  -2.107  -1.402  0.00  0.00     0.062 A 
ATOM      3  C2  UNL d   1       0.595  -1.613  -0.823  0.00  0.00     0.162 A 
ATOM      4  C3  UNL d   1       0.501  -0.268  -0.467  0.00  0.00    -0.034 A 
ATOM      5  C4  UNL d   1       1.590   0.575  -0.696  0.00  0.00     0.162 A 
ATOM      6  C5  UNL d   1       2.753   0.076  -1.275  0.00  0.00     0.062 A 
ATOM      7  F   UNL d   1       3.794   0.893  -1.493  0.00  0.00    -0.097 F 
ATOM      8  F1  UNL d   1       1.534   1.873  -0.366  0.00  0.00    -0.096 F 
ATOM      9  I   UNL d   1      -1.240   0.474   0.399  0.00  0.00    -0.060 I 
ATOM     10  F2  UNL d   1      -0.432  -2.451  -0.616  0.00  0.00    -0.096 F 
ATOM     11  F3  UNL d   1       1.841  -3.401  -1.741  0.00  0.00    -0.097 F 
ATOM     12  F4  UNL d   1       3.959  -1.741  -2.184  0.00  0.00    -0.092 F 
ENDROOT
TORSDOF 0
ENDMDL
