MODEL 1
REMARK minimizedAffinity 1.74472928
REMARK minimizedRMSD -1
REMARK  0 active torsions:
REMARK  status: ('A' for Active; 'I' for Inactive)
ROOT
ATOM      1  C   UNL d   1       1.149  -0.105  -1.129  0.00  0.00     0.124 A 
ATOM      2  C1  UNL d   1       1.093  -1.130  -0.195  0.00  0.00     0.062 A 
ATOM      3  C2  UNL d   1       0.339  -0.979   0.966  0.00  0.00     0.162 A 
ATOM      4  C3  UNL d   1      -0.365   0.203   1.199  0.00  0.00    -0.034 A 
ATOM      5  C4  UNL d   1      -0.302   1.230   0.255  0.00  0.00     0.162 A 
ATOM      6  C5  UNL d   1       0.452   1.073  -0.904  0.00  0.00     0.062 A 
ATOM      7  F   UNL d   1       0.506   2.065  -1.805  0.00  0.00    -0.097 F 
ATOM      8  F1  UNL d   1      -0.967   2.379   0.447  0.00  0.00    -0.096 F 
ATOM      9  I   UNL d   1      -1.492   0.433   2.933  0.00  0.00    -0.060 I 
ATOM     10  F2  UNL d   1       0.303  -1.985   1.851  0.00  0.00    -0.096 F 
ATOM     11  F3  UNL d   1       1.766  -2.269  -0.410  0.00  0.00    -0.097 F 
ATOM     12  F4  UNL d   1       1.876  -0.253  -2.244  0.00  0.00    -0.092 F 
ENDROOT
TORSDOF 0
ENDMDL
