MODEL 1
REMARK minimizedAffinity -5.36572886
REMARK minimizedRMSD -1
REMARK  0 active torsions:
REMARK  status: ('A' for Active; 'I' for Inactive)
ROOT
ATOM      1  C   UNL d   1       2.031   0.085  -2.086  0.00  0.00     0.124 A 
ATOM      2  C1  UNL d   1       2.037  -0.718  -0.954  0.00  0.00     0.062 A 
ATOM      3  C2  UNL d   1       1.031  -0.591  -0.000  0.00  0.00     0.162 A 
ATOM      4  C3  UNL d   1       0.009   0.342  -0.175  0.00  0.00    -0.034 A 
ATOM      5  C4  UNL d   1       0.010   1.147  -1.316  0.00  0.00     0.162 A 
ATOM      6  C5  UNL d   1       1.018   1.016  -2.266  0.00  0.00     0.062 A 
ATOM      7  F   UNL d   1       1.010   1.792  -3.360  0.00  0.00    -0.097 F 
ATOM      8  F1  UNL d   1      -0.957   2.054  -1.516  0.00  0.00    -0.096 F 
ATOM      9  I   UNL d   1      -1.497   0.535   1.248  0.00  0.00    -0.060 I 
ATOM     10  F2  UNL d   1       1.062  -1.380   1.084  0.00  0.00    -0.096 F 
ATOM     11  F3  UNL d   1       3.015  -1.618  -0.777  0.00  0.00    -0.097 F 
ATOM     12  F4  UNL d   1       3.000  -0.039  -3.002  0.00  0.00    -0.092 F 
ENDROOT
TORSDOF 0
ENDMDL
