MODEL 1
REMARK minimizedAffinity -0.970723927
REMARK minimizedRMSD -1
REMARK  0 active torsions:
REMARK  status: ('A' for Active; 'I' for Inactive)
ROOT
ATOM      1  C   UNL d   1      -1.885   1.206   2.295  0.00  0.00     0.124 A 
ATOM      2  C1  UNL d   1      -1.216   0.203   2.982  0.00  0.00     0.062 A 
ATOM      3  C2  UNL d   1      -0.394  -0.687   2.297  0.00  0.00     0.162 A 
ATOM      4  C3  UNL d   1      -0.233  -0.575   0.915  0.00  0.00    -0.034 A 
ATOM      5  C4  UNL d   1      -0.910   0.436   0.231  0.00  0.00     0.162 A 
ATOM      6  C5  UNL d   1      -1.731   1.322   0.921  0.00  0.00     0.062 A 
ATOM      7  F   UNL d   1      -2.376   2.291   0.255  0.00  0.00    -0.097 F 
ATOM      8  F1  UNL d   1      -0.778   0.572  -1.097  0.00  0.00    -0.096 F 
ATOM      9  I   UNL d   1       0.996  -1.903  -0.113  0.00  0.00    -0.060 I 
ATOM     10  F2  UNL d   1       0.240  -1.647   2.986  0.00  0.00    -0.096 F 
ATOM     11  F3  UNL d   1      -1.364   0.088   4.310  0.00  0.00    -0.097 F 
ATOM     12  F4  UNL d   1      -2.677   2.060   2.957  0.00  0.00    -0.092 F 
ENDROOT
TORSDOF 0
ENDMDL
