MODEL 1
REMARK minimizedAffinity -3.56526446
REMARK minimizedRMSD -1
REMARK  0 active torsions:
REMARK  status: ('A' for Active; 'I' for Inactive)
ROOT
ATOM      1  C   UNL d   1       1.262   0.622  -0.489  0.00  0.00     0.124 A 
ATOM      2  C1  UNL d   1       1.977  -0.509  -0.858  0.00  0.00     0.062 A 
ATOM      3  C2  UNL d   1       1.368  -1.760  -0.838  0.00  0.00     0.162 A 
ATOM      4  C3  UNL d   1       0.034  -1.887  -0.448  0.00  0.00    -0.034 A 
ATOM      5  C4  UNL d   1      -0.678  -0.745  -0.077  0.00  0.00     0.162 A 
ATOM      6  C5  UNL d   1      -0.065   0.503  -0.099  0.00  0.00     0.062 A 
ATOM      7  F   UNL d   1      -0.758   1.594   0.258  0.00  0.00    -0.097 F 
ATOM      8  F1  UNL d   1      -1.962  -0.832   0.303  0.00  0.00    -0.096 F 
ATOM      9  I   UNL d   1      -0.880  -3.756  -0.416  0.00  0.00    -0.060 I 
ATOM     10  F2  UNL d   1       2.083  -2.835  -1.199  0.00  0.00    -0.096 F 
ATOM     11  F3  UNL d   1       3.259  -0.396  -1.234  0.00  0.00    -0.097 F 
ATOM     12  F4  UNL d   1       1.851   1.825  -0.509  0.00  0.00    -0.092 F 
ENDROOT
TORSDOF 0
ENDMDL
