MODEL 1
REMARK minimizedAffinity -3.30209231
REMARK minimizedRMSD -1
REMARK  0 active torsions:
REMARK  status: ('A' for Active; 'I' for Inactive)
ROOT
ATOM      1  C   UNL d   1       2.258  -0.586  -1.624  0.00  0.00     0.124 A 
ATOM      2  C1  UNL d   1       1.630  -1.723  -1.133  0.00  0.00     0.062 A 
ATOM      3  C2  UNL d   1       0.510  -1.606  -0.316  0.00  0.00     0.162 A 
ATOM      4  C3  UNL d   1       0.008  -0.347   0.015  0.00  0.00    -0.034 A 
ATOM      5  C4  UNL d   1       0.645   0.791  -0.482  0.00  0.00     0.162 A 
ATOM      6  C5  UNL d   1       1.765   0.669  -1.298  0.00  0.00     0.062 A 
ATOM      7  F   UNL d   1       2.370   1.768  -1.771  0.00  0.00    -0.097 F 
ATOM      8  F1  UNL d   1       0.190   2.017  -0.183  0.00  0.00    -0.096 F 
ATOM      9  I   UNL d   1      -1.668  -0.168   1.236  0.00  0.00    -0.060 I 
ATOM     10  F2  UNL d   1      -0.077  -2.721   0.144  0.00  0.00    -0.096 F 
ATOM     11  F3  UNL d   1       2.105  -2.937  -1.446  0.00  0.00    -0.097 F 
ATOM     12  F4  UNL d   1       3.337  -0.702  -2.409  0.00  0.00    -0.092 F 
ENDROOT
TORSDOF 0
ENDMDL
