MODEL 1
REMARK minimizedAffinity -1.8553946
REMARK minimizedRMSD -1
REMARK  0 active torsions:
REMARK  status: ('A' for Active; 'I' for Inactive)
ROOT
ATOM      1  C   UNL d   1       2.288  -0.875  -1.333  0.00  0.00     0.124 A 
ATOM      2  C1  UNL d   1       1.396  -1.919  -1.133  0.00  0.00     0.062 A 
ATOM      3  C2  UNL d   1       0.256  -1.727  -0.357  0.00  0.00     0.162 A 
ATOM      4  C3  UNL d   1       0.002  -0.485   0.225  0.00  0.00    -0.034 A 
ATOM      5  C4  UNL d   1       0.904   0.560   0.019  0.00  0.00     0.162 A 
ATOM      6  C5  UNL d   1       2.041   0.364  -0.757  0.00  0.00     0.062 A 
ATOM      7  F   UNL d   1       2.902   1.374  -0.949  0.00  0.00    -0.097 F 
ATOM      8  F1  UNL d   1       0.690   1.768   0.564  0.00  0.00    -0.096 F 
ATOM      9  I   UNL d   1      -1.701  -0.194   1.385  0.00  0.00    -0.060 I 
ATOM     10  F2  UNL d   1      -0.589  -2.754  -0.180  0.00  0.00    -0.096 F 
ATOM     11  F3  UNL d   1       1.632  -3.116  -1.687  0.00  0.00    -0.097 F 
ATOM     12  F4  UNL d   1       3.384  -1.062  -2.079  0.00  0.00    -0.092 F 
ENDROOT
TORSDOF 0
ENDMDL
