MODEL 1
REMARK minimizedAffinity -0.617299378
REMARK minimizedRMSD -1
REMARK  0 active torsions:
REMARK  status: ('A' for Active; 'I' for Inactive)
ROOT
ATOM      1  C   UNL d   1       2.143  -0.757  -1.433  0.00  0.00     0.124 A 
ATOM      2  C1  UNL d   1       1.817   0.569  -1.185  0.00  0.00     0.062 A 
ATOM      3  C2  UNL d   1       0.736   0.883  -0.366  0.00  0.00     0.162 A 
ATOM      4  C3  UNL d   1      -0.027  -0.132   0.213  0.00  0.00    -0.034 A 
ATOM      5  C4  UNL d   1       0.307  -1.463  -0.042  0.00  0.00     0.162 A 
ATOM      6  C5  UNL d   1       1.388  -1.772  -0.861  0.00  0.00     0.062 A 
ATOM      7  F   UNL d   1       1.702  -3.053  -1.100  0.00  0.00    -0.097 F 
ATOM      8  F1  UNL d   1      -0.405  -2.464   0.498  0.00  0.00    -0.096 F 
ATOM      9  I   UNL d   1      -1.643   0.333   1.438  0.00  0.00    -0.060 I 
ATOM     10  F2  UNL d   1       0.444   2.173  -0.143  0.00  0.00    -0.096 F 
ATOM     11  F3  UNL d   1       2.544   1.551  -1.736  0.00  0.00    -0.097 F 
ATOM     12  F4  UNL d   1       3.183  -1.056  -2.222  0.00  0.00    -0.092 F 
ENDROOT
TORSDOF 0
ENDMDL
