MODEL 1
REMARK minimizedAffinity -2.75470114
REMARK minimizedRMSD -1
REMARK  0 active torsions:
REMARK  status: ('A' for Active; 'I' for Inactive)
ROOT
ATOM      1  C   UNL d   1       1.727  -0.117  -1.931  0.00  0.00     0.124 A 
ATOM      2  C1  UNL d   1       1.639  -1.077  -0.933  0.00  0.00     0.062 A 
ATOM      3  C2  UNL d   1       0.677  -0.961   0.066  0.00  0.00     0.162 A 
ATOM      4  C3  UNL d   1      -0.206   0.119   0.072  0.00  0.00    -0.034 A 
ATOM      5  C4  UNL d   1      -0.110   1.081  -0.935  0.00  0.00     0.162 A 
ATOM      6  C5  UNL d   1       0.854   0.961  -1.931  0.00  0.00     0.062 A 
ATOM      7  F   UNL d   1       0.938   1.890  -2.895  0.00  0.00    -0.097 F 
ATOM      8  F1  UNL d   1      -0.942   2.133  -0.960  0.00  0.00    -0.096 F 
ATOM      9  I   UNL d   1      -1.646   0.296   1.564  0.00  0.00    -0.060 I 
ATOM     10  F2  UNL d   1       0.614  -1.904   1.018  0.00  0.00    -0.096 F 
ATOM     11  F3  UNL d   1       2.483  -2.119  -0.930  0.00  0.00    -0.097 F 
ATOM     12  F4  UNL d   1       2.655  -0.230  -2.891  0.00  0.00    -0.092 F 
ENDROOT
TORSDOF 0
ENDMDL
