MODEL 1
REMARK minimizedAffinity -0.733910918
REMARK minimizedRMSD -1
REMARK  0 active torsions:
REMARK  status: ('A' for Active; 'I' for Inactive)
ROOT
ATOM      1  C   UNL d   1       1.707  -0.666  -2.259  0.00  0.00     0.124 A 
ATOM      2  C1  UNL d   1       1.189   0.621  -2.280  0.00  0.00     0.062 A 
ATOM      3  C2  UNL d   1       0.324   1.044  -1.276  0.00  0.00     0.162 A 
ATOM      4  C3  UNL d   1      -0.029   0.178  -0.241  0.00  0.00    -0.034 A 
ATOM      5  C4  UNL d   1       0.495  -1.115  -0.227  0.00  0.00     0.162 A 
ATOM      6  C5  UNL d   1       1.360  -1.533  -1.233  0.00  0.00     0.062 A 
ATOM      7  F   UNL d   1       1.859  -2.778  -1.211  0.00  0.00    -0.097 F 
ATOM      8  F1  UNL d   1       0.176  -1.973   0.754  0.00  0.00    -0.096 F 
ATOM      9  I   UNL d   1      -1.324   0.807   1.263  0.00  0.00    -0.060 I 
ATOM     10  F2  UNL d   1      -0.162   2.294  -1.322  0.00  0.00    -0.096 F 
ATOM     11  F3  UNL d   1       1.523   1.460  -3.272  0.00  0.00    -0.097 F 
ATOM     12  F4  UNL d   1       2.540  -1.071  -3.227  0.00  0.00    -0.092 F 
ENDROOT
TORSDOF 0
ENDMDL
