MODEL 1
REMARK minimizedAffinity -3.53344655
REMARK minimizedRMSD -1
REMARK  0 active torsions:
REMARK  status: ('A' for Active; 'I' for Inactive)
ROOT
ATOM      1  C   UNL d   1       1.968  -0.457  -1.161  0.00  0.00     0.124 A 
ATOM      2  C1  UNL d   1       1.250   0.711  -0.945  0.00  0.00     0.062 A 
ATOM      3  C2  UNL d   1       0.023   0.668  -0.289  0.00  0.00     0.162 A 
ATOM      4  C3  UNL d   1      -0.493  -0.549   0.157  0.00  0.00    -0.034 A 
ATOM      5  C4  UNL d   1       0.234  -1.719  -0.065  0.00  0.00     0.162 A 
ATOM      6  C5  UNL d   1       1.460  -1.671  -0.721  0.00  0.00     0.062 A 
ATOM      7  F   UNL d   1       2.152  -2.800  -0.929  0.00  0.00    -0.097 F 
ATOM      8  F1  UNL d   1      -0.233  -2.906   0.351  0.00  0.00    -0.096 F 
ATOM      9  I   UNL d   1      -2.327  -0.618   1.138  0.00  0.00    -0.060 I 
ATOM     10  F2  UNL d   1      -0.649   1.812  -0.095  0.00  0.00    -0.096 F 
ATOM     11  F3  UNL d   1       1.739   1.885  -1.371  0.00  0.00    -0.097 F 
ATOM     12  F4  UNL d   1       3.148  -0.412  -1.793  0.00  0.00    -0.092 F 
ENDROOT
TORSDOF 0
ENDMDL
