MODEL 1
REMARK minimizedAffinity 1.79395545
REMARK minimizedRMSD -1
REMARK  0 active torsions:
REMARK  status: ('A' for Active; 'I' for Inactive)
ROOT
ATOM      1  C   UNL d   1      -2.006   1.396   2.677  0.00  0.00     0.124 A 
ATOM      2  C1  UNL d   1      -1.809   0.075   2.300  0.00  0.00     0.062 A 
ATOM      3  C2  UNL d   1      -0.735  -0.267   1.482  0.00  0.00     0.162 A 
ATOM      4  C3  UNL d   1       0.151   0.714   1.037  0.00  0.00    -0.034 A 
ATOM      5  C4  UNL d   1      -0.055   2.041   1.419  0.00  0.00     0.162 A 
ATOM      6  C5  UNL d   1      -1.129   2.377   2.236  0.00  0.00     0.062 A 
ATOM      7  F   UNL d   1      -1.318   3.654   2.599  0.00  0.00    -0.097 F 
ATOM      8  F1  UNL d   1       0.778   3.009   1.009  0.00  0.00    -0.096 F 
ATOM      9  I   UNL d   1       1.757   0.206  -0.185  0.00  0.00    -0.060 I 
ATOM     10  F2  UNL d   1      -0.569  -1.552   1.134  0.00  0.00    -0.096 F 
ATOM     11  F3  UNL d   1      -2.655  -0.875   2.723  0.00  0.00    -0.097 F 
ATOM     12  F4  UNL d   1      -3.040   1.722   3.462  0.00  0.00    -0.092 F 
ENDROOT
TORSDOF 0
ENDMDL
