MODEL 1
REMARK minimizedAffinity -1.59535491
REMARK minimizedRMSD -1
REMARK  0 active torsions:
REMARK  status: ('A' for Active; 'I' for Inactive)
ROOT
ATOM      1  C   UNL d   1       1.482  -0.090  -1.823  0.00  0.00     0.124 A 
ATOM      2  C1  UNL d   1       1.208  -1.219  -1.063  0.00  0.00     0.062 A 
ATOM      3  C2  UNL d   1       0.173  -1.202  -0.133  0.00  0.00     0.162 A 
ATOM      4  C3  UNL d   1      -0.598  -0.053   0.042  0.00  0.00    -0.034 A 
ATOM      5  C4  UNL d   1      -0.316   1.078  -0.726  0.00  0.00     0.162 A 
ATOM      6  C5  UNL d   1       0.720   1.057  -1.654  0.00  0.00     0.062 A 
ATOM      7  F   UNL d   1       0.983   2.148  -2.388  0.00  0.00    -0.097 F 
ATOM      8  F1  UNL d   1      -1.037   2.200  -0.583  0.00  0.00    -0.096 F 
ATOM      9  I   UNL d   1      -2.146  -0.024   1.432  0.00  0.00    -0.060 I 
ATOM     10  F2  UNL d   1      -0.069  -2.307   0.588  0.00  0.00    -0.096 F 
ATOM     11  F3  UNL d   1       1.944  -2.329  -1.224  0.00  0.00    -0.097 F 
ATOM     12  F4  UNL d   1       2.479  -0.109  -2.717  0.00  0.00    -0.092 F 
ENDROOT
TORSDOF 0
ENDMDL
