MODEL 1
REMARK minimizedAffinity -1.60953689
REMARK minimizedRMSD -1
REMARK  0 active torsions:
REMARK  status: ('A' for Active; 'I' for Inactive)
ROOT
ATOM      1  C   UNL d   1       1.682   0.232  -2.259  0.00  0.00     0.124 A 
ATOM      2  C1  UNL d   1       1.454  -0.782  -1.339  0.00  0.00     0.062 A 
ATOM      3  C2  UNL d   1       0.472  -0.635  -0.365  0.00  0.00     0.162 A 
ATOM      4  C3  UNL d   1      -0.291   0.531  -0.305  0.00  0.00    -0.034 A 
ATOM      5  C4  UNL d   1      -0.056   1.547  -1.233  0.00  0.00     0.162 A 
ATOM      6  C5  UNL d   1       0.928   1.395  -2.205  0.00  0.00     0.062 A 
ATOM      7  F   UNL d   1       1.147   2.376  -3.093  0.00  0.00    -0.097 F 
ATOM      8  F1  UNL d   1      -0.771   2.681  -1.204  0.00  0.00    -0.096 F 
ATOM      9  I   UNL d   1      -1.762   0.755   1.151  0.00  0.00    -0.060 I 
ATOM     10  F2  UNL d   1       0.273  -1.631   0.511  0.00  0.00    -0.096 F 
ATOM     11  F3  UNL d   1       2.183  -1.907  -1.389  0.00  0.00    -0.097 F 
ATOM     12  F4  UNL d   1       2.629   0.088  -3.195  0.00  0.00    -0.092 F 
ENDROOT
TORSDOF 0
ENDMDL
