MODEL 1
REMARK minimizedAffinity -2.88151455
REMARK minimizedRMSD -1
REMARK  0 active torsions:
REMARK  status: ('A' for Active; 'I' for Inactive)
ROOT
ATOM      1  C   UNL d   1       2.019  -0.167  -2.532  0.00  0.00     0.124 A 
ATOM      2  C1  UNL d   1       1.249   0.986  -2.586  0.00  0.00     0.062 A 
ATOM      3  C2  UNL d   1       0.234   1.195  -1.657  0.00  0.00     0.162 A 
ATOM      4  C3  UNL d   1      -0.016   0.248  -0.664  0.00  0.00    -0.034 A 
ATOM      5  C4  UNL d   1       0.762  -0.910  -0.616  0.00  0.00     0.162 A 
ATOM      6  C5  UNL d   1       1.775  -1.114  -1.548  0.00  0.00     0.062 A 
ATOM      7  F   UNL d   1       2.518  -2.229  -1.494  0.00  0.00    -0.097 F 
ATOM      8  F1  UNL d   1       0.548  -1.842   0.325  0.00  0.00    -0.096 F 
ATOM      9  I   UNL d   1      -1.533   0.556   0.728  0.00  0.00    -0.060 I 
ATOM     10  F2  UNL d   1      -0.494   2.319  -1.733  0.00  0.00    -0.096 F 
ATOM     11  F3  UNL d   1       1.482   1.902  -3.537  0.00  0.00    -0.097 F 
ATOM     12  F4  UNL d   1       2.994  -0.366  -3.429  0.00  0.00    -0.092 F 
ENDROOT
TORSDOF 0
ENDMDL
