MODEL 1
REMARK minimizedAffinity -5.51894331
REMARK minimizedRMSD -1
REMARK  0 active torsions:
REMARK  status: ('A' for Active; 'I' for Inactive)
ROOT
ATOM      1  C   UNL d   1       2.617   0.089  -2.162  0.00  0.00     0.124 A 
ATOM      2  C1  UNL d   1       1.874   1.259  -2.229  0.00  0.00     0.062 A 
ATOM      3  C2  UNL d   1       0.732   1.409  -1.447  0.00  0.00     0.162 A 
ATOM      4  C3  UNL d   1       0.326   0.386  -0.591  0.00  0.00    -0.034 A 
ATOM      5  C4  UNL d   1       1.078  -0.789  -0.529  0.00  0.00     0.162 A 
ATOM      6  C5  UNL d   1       2.219  -0.934  -1.312  0.00  0.00     0.062 A 
ATOM      7  F   UNL d   1       2.935  -2.066  -1.246  0.00  0.00    -0.097 F 
ATOM      8  F1  UNL d   1       0.716  -1.793   0.283  0.00  0.00    -0.096 F 
ATOM      9  I   UNL d   1      -1.381   0.606   0.579  0.00  0.00    -0.060 I 
ATOM     10  F2  UNL d   1       0.033   2.551  -1.532  0.00  0.00    -0.096 F 
ATOM     11  F3  UNL d   1       2.257   2.248  -3.049  0.00  0.00    -0.097 F 
ATOM     12  F4  UNL d   1       3.715  -0.053  -2.915  0.00  0.00    -0.092 F 
ENDROOT
TORSDOF 0
ENDMDL
