MODEL 1
REMARK minimizedAffinity 0.194596827
REMARK minimizedRMSD -1
REMARK  0 active torsions:
REMARK  status: ('A' for Active; 'I' for Inactive)
ROOT
ATOM      1  C   UNL d   1       5.960   4.382  -4.233  0.00  0.00     0.023 A 
ATOM      2  C1  UNL d   1       4.848   3.553  -4.078  0.00  0.00     0.003 A 
ATOM      3  C2  UNL d   1       3.607   3.946  -4.584  0.00  0.00     0.048 A 
ATOM      4  C3  UNL d   1       3.485   5.168  -5.245  0.00  0.00     0.023 A 
ATOM      5  C4  UNL d   1       4.595   6.000  -5.403  0.00  0.00     0.048 A 
ATOM      6  C5  UNL d   1       5.833   5.604  -4.894  0.00  0.00     0.003 A 
ATOM      7  I   UNL d   1       1.639   5.754  -6.000  0.00  0.00    -0.146 I 
ENDROOT
TORSDOF 0
ENDMDL
