MODEL 1
REMARK minimizedAffinity 0.851124108
REMARK minimizedRMSD -1
REMARK  0 active torsions:
REMARK  status: ('A' for Active; 'I' for Inactive)
ROOT
ATOM      1  C   UNL d   1      -3.752   5.999  -1.940  0.00  0.00     0.023 A 
ATOM      2  C1  UNL d   1      -3.747   5.996  -3.335  0.00  0.00     0.003 A 
ATOM      3  C2  UNL d   1      -2.537   5.994  -4.031  0.00  0.00     0.048 A 
ATOM      4  C3  UNL d   1      -1.334   5.994  -3.326  0.00  0.00     0.023 A 
ATOM      5  C4  UNL d   1      -1.333   5.996  -1.930  0.00  0.00     0.048 A 
ATOM      6  C5  UNL d   1      -2.546   5.999  -1.239  0.00  0.00     0.003 A 
ATOM      7  I   UNL d   1       0.469   5.991  -4.359  0.00  0.00    -0.146 I 
ENDROOT
TORSDOF 0
ENDMDL
