MODEL 1
REMARK minimizedAffinity 5.07538843
REMARK minimizedRMSD -1
REMARK  0 active torsions:
REMARK  status: ('A' for Active; 'I' for Inactive)
ROOT
ATOM      1  C   UNL d   1      -3.110   5.991  -1.380  0.00  0.00     0.023 A 
ATOM      2  C1  UNL d   1      -1.767   5.988  -1.005  0.00  0.00     0.003 A 
ATOM      3  C2  UNL d   1      -0.768   5.989  -1.982  0.00  0.00     0.048 A 
ATOM      4  C3  UNL d   1      -1.120   5.994  -3.331  0.00  0.00     0.023 A 
ATOM      5  C4  UNL d   1      -2.464   5.999  -3.710  0.00  0.00     0.048 A 
ATOM      6  C5  UNL d   1      -3.458   5.996  -2.731  0.00  0.00     0.003 A 
ATOM      7  I   UNL d   1       0.364   5.997  -4.786  0.00  0.00    -0.146 I 
ENDROOT
TORSDOF 0
ENDMDL
