MODEL 1
REMARK minimizedAffinity 2.78334284
REMARK minimizedRMSD -1
REMARK  0 active torsions:
REMARK  status: ('A' for Active; 'I' for Inactive)
ROOT
ATOM      1  C   UNL d   1      -2.182   5.987  -2.467  0.00  0.00     0.023 A 
ATOM      2  C1  UNL d   1      -2.584   6.000  -3.802  0.00  0.00     0.003 A 
ATOM      3  C2  UNL d   1      -1.644   5.807  -4.817  0.00  0.00     0.048 A 
ATOM      4  C3  UNL d   1      -0.305   5.600  -4.489  0.00  0.00     0.023 A 
ATOM      5  C4  UNL d   1       0.102   5.585  -3.154  0.00  0.00     0.048 A 
ATOM      6  C5  UNL d   1      -0.841   5.780  -2.143  0.00  0.00     0.003 A 
ATOM      7  I   UNL d   1       1.096   5.312  -5.998  0.00  0.00    -0.146 I 
ENDROOT
TORSDOF 0
ENDMDL
