MODEL 1
REMARK minimizedAffinity 1.40431845
REMARK minimizedRMSD -1
REMARK  0 active torsions:
REMARK  status: ('A' for Active; 'I' for Inactive)
ROOT
ATOM      1  C   UNL d   1       4.042   5.981  -5.767  0.00  0.00     0.023 A 
ATOM      2  C1  UNL d   1       3.225   5.009  -5.189  0.00  0.00     0.003 A 
ATOM      3  C2  UNL d   1       3.785   3.832  -4.688  0.00  0.00     0.048 A 
ATOM      4  C3  UNL d   1       5.163   3.633  -4.767  0.00  0.00     0.023 A 
ATOM      5  C4  UNL d   1       5.984   4.603  -5.343  0.00  0.00     0.048 A 
ATOM      6  C5  UNL d   1       5.420   5.778  -5.844  0.00  0.00     0.003 A 
ATOM      7  I   UNL d   1       5.998   1.882  -4.022  0.00  0.00    -0.146 I 
ENDROOT
TORSDOF 0
ENDMDL
