MODEL 1
REMARK minimizedAffinity 9.81624508
REMARK minimizedRMSD -1
REMARK  0 active torsions:
REMARK  status: ('A' for Active; 'I' for Inactive)
ROOT
ATOM      1  C   UNL d   1       1.930   3.213  -1.198  0.00  0.00     0.023 A 
ATOM      2  C1  UNL d   1       2.071   1.853  -1.477  0.00  0.00     0.003 A 
ATOM      3  C2  UNL d   1       1.498   0.902  -0.631  0.00  0.00     0.048 A 
ATOM      4  C3  UNL d   1       0.783   1.317   0.492  0.00  0.00     0.023 A 
ATOM      5  C4  UNL d   1       0.638   2.676   0.774  0.00  0.00     0.048 A 
ATOM      6  C5  UNL d   1       1.214   3.624  -0.074  0.00  0.00     0.003 A 
ATOM      7  I   UNL d   1      -0.072  -0.096   1.753  0.00  0.00    -0.146 I 
ENDROOT
TORSDOF 0
ENDMDL
