MODEL 1
REMARK minimizedAffinity 1.25877953
REMARK minimizedRMSD -1
REMARK  0 active torsions:
REMARK  status: ('A' for Active; 'I' for Inactive)
ROOT
ATOM      1  C   UNL d   1      -3.542   5.972  -2.085  0.00  0.00     0.023 A 
ATOM      2  C1  UNL d   1      -2.259   5.961  -1.537  0.00  0.00     0.003 A 
ATOM      3  C2  UNL d   1      -1.141   5.968  -2.374  0.00  0.00     0.048 A 
ATOM      4  C3  UNL d   1      -1.313   5.987  -3.757  0.00  0.00     0.023 A 
ATOM      5  C4  UNL d   1      -2.595   6.000  -4.310  0.00  0.00     0.048 A 
ATOM      6  C5  UNL d   1      -3.709   5.991  -3.470  0.00  0.00     0.003 A 
ATOM      7  I   UNL d   1       0.350   5.998  -5.004  0.00  0.00    -0.146 I 
ENDROOT
TORSDOF 0
ENDMDL
