MODEL 1
REMARK minimizedAffinity 3.64224291
REMARK minimizedRMSD -1
REMARK  0 active torsions:
REMARK  status: ('A' for Active; 'I' for Inactive)
ROOT
ATOM      1  C   UNL d   1      -3.437   6.000  -0.688  0.00  0.00     0.023 A 
ATOM      2  C1  UNL d   1      -2.111   5.957  -0.257  0.00  0.00     0.003 A 
ATOM      3  C2  UNL d   1      -1.074   5.912  -1.191  0.00  0.00     0.048 A 
ATOM      4  C3  UNL d   1      -1.369   5.911  -2.553  0.00  0.00     0.023 A 
ATOM      5  C4  UNL d   1      -2.694   5.954  -2.989  0.00  0.00     0.048 A 
ATOM      6  C5  UNL d   1      -3.729   5.998  -2.052  0.00  0.00     0.003 A 
ATOM      7  I   UNL d   1       0.174   5.843  -3.945  0.00  0.00    -0.146 I 
ENDROOT
TORSDOF 0
ENDMDL
