MODEL 1
REMARK minimizedAffinity 4.70992327
REMARK minimizedRMSD -1
REMARK  0 active torsions:
REMARK  status: ('A' for Active; 'I' for Inactive)
ROOT
ATOM      1  C   UNL d   1      -3.760   5.999  -2.754  0.00  0.00     0.023 A 
ATOM      2  C1  UNL d   1      -2.555   5.998  -2.050  0.00  0.00     0.003 A 
ATOM      3  C2  UNL d   1      -1.341   5.997  -2.740  0.00  0.00     0.048 A 
ATOM      4  C3  UNL d   1      -1.339   5.997  -4.134  0.00  0.00     0.023 A 
ATOM      5  C4  UNL d   1      -2.541   5.999  -4.843  0.00  0.00     0.048 A 
ATOM      6  C5  UNL d   1      -3.752   5.999  -4.149  0.00  0.00     0.003 A 
ATOM      7  I   UNL d   1       0.467   5.996  -5.164  0.00  0.00    -0.146 I 
ENDROOT
TORSDOF 0
ENDMDL
