MODEL 1
REMARK minimizedAffinity -2.20070696
REMARK minimizedRMSD -1
REMARK  0 active torsions:
REMARK  status: ('A' for Active; 'I' for Inactive)
ROOT
ATOM      1  C   UNL d   1      -1.496   5.662  -3.548  0.00  0.00     0.023 A 
ATOM      2  C1  UNL d   1      -1.504   5.681  -4.943  0.00  0.00     0.003 A 
ATOM      3  C2  UNL d   1      -0.303   5.779  -5.648  0.00  0.00     0.048 A 
ATOM      4  C3  UNL d   1       0.903   5.855  -4.952  0.00  0.00     0.023 A 
ATOM      5  C4  UNL d   1       0.916   5.835  -3.556  0.00  0.00     0.048 A 
ATOM      6  C5  UNL d   1      -0.288   5.739  -2.856  0.00  0.00     0.003 A 
ATOM      7  I   UNL d   1       2.693   6.000  -5.999  0.00  0.00    -0.146 I 
ENDROOT
TORSDOF 0
ENDMDL
