MODEL 1
REMARK minimizedAffinity 5.54557705
REMARK minimizedRMSD -1
REMARK  0 active torsions:
REMARK  status: ('A' for Active; 'I' for Inactive)
ROOT
ATOM      1  C   UNL d   1      -0.894   5.974  -3.602  0.00  0.00     0.023 A 
ATOM      2  C1  UNL d   1      -0.325   5.954  -2.329  0.00  0.00     0.003 A 
ATOM      3  C2  UNL d   1      -1.143   5.957  -1.197  0.00  0.00     0.048 A 
ATOM      4  C3  UNL d   1      -2.529   5.979  -1.346  0.00  0.00     0.023 A 
ATOM      5  C4  UNL d   1      -3.103   5.999  -2.618  0.00  0.00     0.048 A 
ATOM      6  C5  UNL d   1      -2.281   5.996  -3.747  0.00  0.00     0.003 A 
ATOM      7  I   UNL d   1      -3.749   5.984   0.337  0.00  0.00    -0.146 I 
ENDROOT
TORSDOF 0
ENDMDL
