MODEL 1
REMARK minimizedAffinity 7.38580227
REMARK minimizedRMSD -1
REMARK  0 active torsions:
REMARK  status: ('A' for Active; 'I' for Inactive)
ROOT
ATOM      1  C   UNL d   1      -4.822   5.998  -1.777  0.00  0.00     0.023 A 
ATOM      2  C1  UNL d   1      -3.527   5.999  -1.259  0.00  0.00     0.003 A 
ATOM      3  C2  UNL d   1      -2.428   5.999  -2.120  0.00  0.00     0.048 A 
ATOM      4  C3  UNL d   1      -2.632   5.999  -3.500  0.00  0.00     0.023 A 
ATOM      5  C4  UNL d   1      -3.926   6.000  -4.024  0.00  0.00     0.048 A 
ATOM      6  C5  UNL d   1      -5.021   5.999  -3.158  0.00  0.00     0.003 A 
ATOM      7  I   UNL d   1      -0.998   5.999  -4.784  0.00  0.00    -0.146 I 
ENDROOT
TORSDOF 0
ENDMDL
