MODEL 1
REMARK minimizedAffinity 6.04012823
REMARK minimizedRMSD -1
REMARK  0 active torsions:
REMARK  status: ('A' for Active; 'I' for Inactive)
ROOT
ATOM      1  C   UNL d   1      -3.220   5.987  -1.715  0.00  0.00     0.023 A 
ATOM      2  C1  UNL d   1      -1.953   5.985  -1.133  0.00  0.00     0.003 A 
ATOM      3  C2  UNL d   1      -0.812   5.986  -1.939  0.00  0.00     0.048 A 
ATOM      4  C3  UNL d   1      -0.947   5.991  -3.327  0.00  0.00     0.023 A 
ATOM      5  C4  UNL d   1      -2.213   5.994  -3.914  0.00  0.00     0.048 A 
ATOM      6  C5  UNL d   1      -3.350   5.991  -3.104  0.00  0.00     0.003 A 
ATOM      7  I   UNL d   1       0.749   5.993  -4.528  0.00  0.00    -0.146 I 
ENDROOT
TORSDOF 0
ENDMDL
