MODEL 1
REMARK minimizedAffinity 1.71960795
REMARK minimizedRMSD -1
REMARK  0 active torsions:
REMARK  status: ('A' for Active; 'I' for Inactive)
ROOT
ATOM      1  C   UNL d   1      -0.339   5.996  -4.216  0.00  0.00     0.023 A 
ATOM      2  C1  UNL d   1       0.687   5.996  -3.272  0.00  0.00     0.003 A 
ATOM      3  C2  UNL d   1       2.021   5.997  -3.687  0.00  0.00     0.048 A 
ATOM      4  C3  UNL d   1       2.320   5.998  -5.049  0.00  0.00     0.023 A 
ATOM      5  C4  UNL d   1       1.296   5.999  -5.998  0.00  0.00     0.048 A 
ATOM      6  C5  UNL d   1      -0.035   5.997  -5.578  0.00  0.00     0.003 A 
ATOM      7  I   UNL d   1       4.304   5.999  -5.670  0.00  0.00    -0.146 I 
ENDROOT
TORSDOF 0
ENDMDL
