MODEL 1
REMARK minimizedAffinity 3.43511176
REMARK minimizedRMSD -1
REMARK  0 active torsions:
REMARK  status: ('A' for Active; 'I' for Inactive)
ROOT
ATOM      1  C   UNL d   1      -2.583   5.996  -2.391  0.00  0.00     0.023 A 
ATOM      2  C1  UNL d   1      -1.271   5.992  -1.916  0.00  0.00     0.003 A 
ATOM      3  C2  UNL d   1      -0.202   5.989  -2.814  0.00  0.00     0.048 A 
ATOM      4  C3  UNL d   1      -0.451   5.990  -4.186  0.00  0.00     0.023 A 
ATOM      5  C4  UNL d   1      -1.762   5.995  -4.666  0.00  0.00     0.048 A 
ATOM      6  C5  UNL d   1      -2.828   5.997  -3.764  0.00  0.00     0.003 A 
ATOM      7  I   UNL d   1       1.139   5.986  -5.525  0.00  0.00    -0.146 I 
ENDROOT
TORSDOF 0
ENDMDL
