MODEL 1
REMARK minimizedAffinity -5.47304296
REMARK minimizedRMSD -1
REMARK  1 active torsions:
REMARK  status: ('A' for Active; 'I' for Inactive)
REMARK    1  A    between atoms: C1_2  and  C2_3 
ROOT
ATOM      1  C2  UNL d   1       0.334  -0.710   0.394  0.00  0.00    -0.077 A 
ATOM      2  C3  UNL d   1      -0.731  -0.844   1.296  0.00  0.00     0.002 A 
ATOM      3  C4  UNL d   1      -0.658  -1.765   2.343  0.00  0.00     0.002 A 
ATOM      4  C5  UNL d   1       0.479  -2.554   2.500  0.00  0.00    -0.004 A 
ATOM      5  C6  UNL d   1       1.543  -2.430   1.607  0.00  0.00     0.002 A 
ATOM      6  C7  UNL d   1       1.471  -1.511   0.559  0.00  0.00     0.002 A 
ENDROOT
BRANCH   1   7
ATOM      7  C1  UNL d   1       0.277   0.317  -0.707  0.00  0.00     0.055 C 
ATOM      8  C   UNL d   1      -1.138   0.844  -0.900  0.00  0.00     0.019 C 
ENDBRANCH   1   7
TORSDOF 1
ENDMDL
