MODEL 1
REMARK minimizedAffinity -5.29647017
REMARK minimizedRMSD -1
REMARK  1 active torsions:
REMARK  status: ('A' for Active; 'I' for Inactive)
REMARK    1  A    between atoms: C1_2  and  C2_3 
ROOT
ATOM      1  C2  UNL d   1       0.314  -0.783   0.623  0.00  0.00    -0.077 A 
ATOM      2  C3  UNL d   1      -0.767  -0.939   1.502  0.00  0.00     0.002 A 
ATOM      3  C4  UNL d   1      -0.733  -1.916   2.498  0.00  0.00     0.002 A 
ATOM      4  C5  UNL d   1       0.382  -2.741   2.629  0.00  0.00    -0.004 A 
ATOM      5  C6  UNL d   1       1.462  -2.596   1.759  0.00  0.00     0.002 A 
ATOM      6  C7  UNL d   1       1.429  -1.621   0.761  0.00  0.00     0.002 A 
ENDROOT
BRANCH   1   7
ATOM      7  C1  UNL d   1       0.300   0.303  -0.421  0.00  0.00     0.055 C 
ATOM      8  C   UNL d   1      -0.915   1.205  -0.264  0.00  0.00     0.019 C 
ENDBRANCH   1   7
TORSDOF 1
ENDMDL
