MODEL 1
REMARK minimizedAffinity -5.79164505
REMARK minimizedRMSD -1
REMARK  1 active torsions:
REMARK  status: ('A' for Active; 'I' for Inactive)
REMARK    1  A    between atoms: C1_2  and  C2_3 
ROOT
ATOM      1  C2  UNL d   1       0.549  -0.828   0.503  0.00  0.00    -0.077 A 
ATOM      2  C3  UNL d   1      -0.542  -1.112   1.336  0.00  0.00     0.002 A 
ATOM      3  C4  UNL d   1      -0.484  -2.178   2.236  0.00  0.00     0.002 A 
ATOM      4  C5  UNL d   1       0.663  -2.964   2.315  0.00  0.00    -0.004 A 
ATOM      5  C6  UNL d   1       1.753  -2.690   1.489  0.00  0.00     0.002 A 
ATOM      6  C7  UNL d   1       1.696  -1.626   0.588  0.00  0.00     0.002 A 
ENDROOT
BRANCH   1   7
ATOM      7  C1  UNL d   1       0.507   0.351  -0.434  0.00  0.00     0.055 C 
ATOM      8  C   UNL d   1      -0.806   1.111  -0.309  0.00  0.00     0.019 C 
ENDBRANCH   1   7
TORSDOF 1
ENDMDL
