MODEL 1
REMARK minimizedAffinity -5.96645498
REMARK minimizedRMSD -1
REMARK  1 active torsions:
REMARK  status: ('A' for Active; 'I' for Inactive)
REMARK    1  A    between atoms: C1_2  and  C2_3 
ROOT
ATOM      1  C2  UNL d   1      -0.155  -0.130   0.502  0.00  0.00    -0.077 A 
ATOM      2  C3  UNL d   1      -0.902  -0.741   1.518  0.00  0.00     0.002 A 
ATOM      3  C4  UNL d   1      -0.437  -1.905   2.135  0.00  0.00     0.002 A 
ATOM      4  C5  UNL d   1       0.778  -2.464   1.745  0.00  0.00    -0.004 A 
ATOM      5  C6  UNL d   1       1.527  -1.865   0.733  0.00  0.00     0.002 A 
ATOM      6  C7  UNL d   1       1.063  -0.703   0.115  0.00  0.00     0.002 A 
ENDROOT
BRANCH   1   7
ATOM      7  C1  UNL d   1      -0.631   1.152  -0.130  0.00  0.00     0.055 C 
ATOM      8  C   UNL d   1      -1.412   0.882  -1.408  0.00  0.00     0.019 C 
ENDBRANCH   1   7
TORSDOF 1
ENDMDL
