MODEL 1
REMARK minimizedAffinity -5.66702175
REMARK minimizedRMSD -1
REMARK  1 active torsions:
REMARK  status: ('A' for Active; 'I' for Inactive)
REMARK    1  A    between atoms: C1_2  and  C2_3 
ROOT
ATOM      1  C2  UNL d   1      -0.268  -0.858   0.532  0.00  0.00    -0.077 A 
ATOM      2  C3  UNL d   1       0.667  -1.801   0.083  0.00  0.00     0.002 A 
ATOM      3  C4  UNL d   1       1.062  -2.853   0.911  0.00  0.00     0.002 A 
ATOM      4  C5  UNL d   1       0.524  -2.975   2.191  0.00  0.00    -0.004 A 
ATOM      5  C6  UNL d   1      -0.405  -2.041   2.647  0.00  0.00     0.002 A 
ATOM      6  C7  UNL d   1      -0.800  -0.988   1.822  0.00  0.00     0.002 A 
ENDROOT
BRANCH   1   7
ATOM      7  C1  UNL d   1      -0.732   0.250  -0.377  0.00  0.00     0.055 C 
ATOM      8  C   UNL d   1       0.280   1.385  -0.428  0.00  0.00     0.019 C 
ENDBRANCH   1   7
TORSDOF 1
ENDMDL
