MODEL 1
REMARK minimizedAffinity -6.26621723
REMARK minimizedRMSD -1
REMARK  1 active torsions:
REMARK  status: ('A' for Active; 'I' for Inactive)
REMARK    1  A    between atoms: C1_2  and  C2_3 
ROOT
ATOM      1  C2  UNL d   1       0.432  -0.786   0.615  0.00  0.00    -0.077 A 
ATOM      2  C3  UNL d   1      -0.506  -0.829   1.656  0.00  0.00     0.002 A 
ATOM      3  C4  UNL d   1      -0.505  -1.890   2.564  0.00  0.00     0.002 A 
ATOM      4  C5  UNL d   1       0.434  -2.912   2.443  0.00  0.00    -0.004 A 
ATOM      5  C6  UNL d   1       1.370  -2.879   1.410  0.00  0.00     0.002 A 
ATOM      6  C7  UNL d   1       1.370  -1.820   0.500  0.00  0.00     0.002 A 
ENDROOT
BRANCH   1   7
ATOM      7  C1  UNL d   1       0.464   0.382  -0.336  0.00  0.00     0.055 C 
ATOM      8  C   UNL d   1      -0.855   1.141  -0.325  0.00  0.00     0.019 C 
ENDBRANCH   1   7
TORSDOF 1
ENDMDL
