MODEL 1
REMARK minimizedAffinity -5.06266403
REMARK minimizedRMSD -1
REMARK  1 active torsions:
REMARK  status: ('A' for Active; 'I' for Inactive)
REMARK    1  A    between atoms: C1_2  and  C2_3 
ROOT
ATOM      1  C2  UNL d   1       0.311  -0.828   0.510  0.00  0.00    -0.077 A 
ATOM      2  C3  UNL d   1      -0.756  -0.827   1.420  0.00  0.00     0.002 A 
ATOM      3  C4  UNL d   1      -0.703  -1.615   2.572  0.00  0.00     0.002 A 
ATOM      4  C5  UNL d   1       0.415  -2.407   2.825  0.00  0.00    -0.004 A 
ATOM      5  C6  UNL d   1       1.480  -2.417   1.925  0.00  0.00     0.002 A 
ATOM      6  C7  UNL d   1       1.428  -1.630   0.773  0.00  0.00     0.002 A 
ENDROOT
BRANCH   1   7
ATOM      7  C1  UNL d   1       0.277   0.059  -0.707  0.00  0.00     0.055 C 
ATOM      8  C   UNL d   1      -0.837   1.091  -0.609  0.00  0.00     0.019 C 
ENDBRANCH   1   7
TORSDOF 1
ENDMDL
