MODEL 1
REMARK minimizedAffinity -5.99389029
REMARK minimizedRMSD -1
REMARK  1 active torsions:
REMARK  status: ('A' for Active; 'I' for Inactive)
REMARK    1  A    between atoms: C1_2  and  C2_3 
ROOT
ATOM      1  C2  UNL d   1       0.505  -0.846   0.469  0.00  0.00    -0.077 A 
ATOM      2  C3  UNL d   1      -0.169  -1.213   1.643  0.00  0.00     0.002 A 
ATOM      3  C4  UNL d   1       0.175  -2.385   2.318  0.00  0.00     0.002 A 
ATOM      4  C5  UNL d   1       1.197  -3.198   1.831  0.00  0.00    -0.004 A 
ATOM      5  C6  UNL d   1       1.872  -2.843   0.664  0.00  0.00     0.002 A 
ATOM      6  C7  UNL d   1       1.528  -1.672  -0.013  0.00  0.00     0.002 A 
ENDROOT
BRANCH   1   7
ATOM      7  C1  UNL d   1       0.168   0.443  -0.234  0.00  0.00     0.055 C 
ATOM      8  C   UNL d   1      -0.875   1.238   0.538  0.00  0.00     0.019 C 
ENDBRANCH   1   7
TORSDOF 1
ENDMDL
