MODEL 1
REMARK minimizedAffinity -4.74381924
REMARK minimizedRMSD -1
REMARK  1 active torsions:
REMARK  status: ('A' for Active; 'I' for Inactive)
REMARK    1  A    between atoms: C1_2  and  C2_3 
ROOT
ATOM      1  C2  UNL d   1       0.458  -1.395   1.038  0.00  0.00    -0.077 A 
ATOM      2  C3  UNL d   1       1.639  -1.399   0.283  0.00  0.00     0.002 A 
ATOM      3  C4  UNL d   1       1.875  -0.402  -0.664  0.00  0.00     0.002 A 
ATOM      4  C5  UNL d   1       0.938   0.609  -0.863  0.00  0.00    -0.004 A 
ATOM      5  C6  UNL d   1      -0.241   0.621  -0.119  0.00  0.00     0.002 A 
ATOM      6  C7  UNL d   1      -0.480  -0.376   0.828  0.00  0.00     0.002 A 
ENDROOT
BRANCH   1   7
ATOM      7  C1  UNL d   1       0.223  -2.442   2.095  0.00  0.00     0.055 C 
ATOM      8  C   UNL d   1      -0.871  -2.016   3.063  0.00  0.00     0.019 C 
ENDBRANCH   1   7
TORSDOF 1
ENDMDL
