MODEL 1
REMARK minimizedAffinity -5.6241684
REMARK minimizedRMSD -1
REMARK  1 active torsions:
REMARK  status: ('A' for Active; 'I' for Inactive)
REMARK    1  A    between atoms: C1_2  and  C2_3 
ROOT
ATOM      1  C2  UNL d   1       0.674  -0.591   0.517  0.00  0.00    -0.077 A 
ATOM      2  C3  UNL d   1      -0.421  -0.869   1.347  0.00  0.00     0.002 A 
ATOM      3  C4  UNL d   1      -0.388  -1.960   2.217  0.00  0.00     0.002 A 
ATOM      4  C5  UNL d   1       0.738  -2.779   2.268  0.00  0.00    -0.004 A 
ATOM      5  C6  UNL d   1       1.831  -2.512   1.445  0.00  0.00     0.002 A 
ATOM      6  C7  UNL d   1       1.800  -1.422   0.574  0.00  0.00     0.002 A 
ENDROOT
BRANCH   1   7
ATOM      7  C1  UNL d   1       0.660   0.615  -0.386  0.00  0.00     0.055 C 
ATOM      8  C   UNL d   1      -0.762   1.066  -0.685  0.00  0.00     0.019 C 
ENDBRANCH   1   7
TORSDOF 1
ENDMDL
