MODEL 1
REMARK minimizedAffinity -5.81849766
REMARK minimizedRMSD -1
REMARK  1 active torsions:
REMARK  status: ('A' for Active; 'I' for Inactive)
REMARK    1  A    between atoms: C1_2  and  C2_3 
ROOT
ATOM      1  C2  UNL d   1       0.037  -0.211   0.793  0.00  0.00    -0.077 A 
ATOM      2  C3  UNL d   1      -0.527  -1.030   1.781  0.00  0.00     0.002 A 
ATOM      3  C4  UNL d   1       0.070  -2.247   2.116  0.00  0.00     0.002 A 
ATOM      4  C5  UNL d   1       1.236  -2.654   1.470  0.00  0.00    -0.004 A 
ATOM      5  C6  UNL d   1       1.804  -1.847   0.484  0.00  0.00     0.002 A 
ATOM      6  C7  UNL d   1       1.207  -0.631   0.148  0.00  0.00     0.002 A 
ENDROOT
BRANCH   1   7
ATOM      7  C1  UNL d   1      -0.578   1.124   0.465  0.00  0.00     0.055 C 
ATOM      8  C   UNL d   1      -0.929   1.224  -1.012  0.00  0.00     0.019 C 
ENDBRANCH   1   7
TORSDOF 1
ENDMDL
