MODEL 1
REMARK minimizedAffinity -5.78737688
REMARK minimizedRMSD -1
REMARK  1 active torsions:
REMARK  status: ('A' for Active; 'I' for Inactive)
REMARK    1  A    between atoms: C1_2  and  C2_3 
ROOT
ATOM      1  C2  UNL d   1      -0.143  -0.038   0.058  0.00  0.00    -0.077 A 
ATOM      2  C3  UNL d   1      -0.379  -1.156   0.869  0.00  0.00     0.002 A 
ATOM      3  C4  UNL d   1       0.602  -2.138   1.020  0.00  0.00     0.002 A 
ATOM      4  C5  UNL d   1       1.826  -2.009   0.367  0.00  0.00    -0.004 A 
ATOM      5  C6  UNL d   1       2.069  -0.901  -0.444  0.00  0.00     0.002 A 
ATOM      6  C7  UNL d   1       1.089   0.081  -0.597  0.00  0.00     0.002 A 
ENDROOT
BRANCH   1   7
ATOM      7  C1  UNL d   1      -1.181   1.047  -0.068  0.00  0.00     0.055 C 
ATOM      8  C   UNL d   1      -1.308   1.529  -1.506  0.00  0.00     0.019 C 
ENDBRANCH   1   7
TORSDOF 1
ENDMDL
