MODEL 1
REMARK minimizedAffinity -3.34429097
REMARK minimizedRMSD -1
REMARK  1 active torsions:
REMARK  status: ('A' for Active; 'I' for Inactive)
REMARK    1  A    between atoms: C1_2  and  C2_3 
ROOT
ATOM      1  C2  UNL d   1      -0.936  -1.995   1.061  0.00  0.00    -0.081 A 
ATOM      2  C3  UNL d   1      -1.286  -0.826   0.373  0.00  0.00     0.006 A 
ATOM      3  C4  UNL d   1      -0.320   0.139   0.080  0.00  0.00     0.002 A 
ATOM      4  C5  UNL d   1       1.012  -0.051   0.463  0.00  0.00    -0.080 A 
ATOM      5  C6  UNL d   1       2.065   0.963   0.128  0.00  0.00     0.076 C 
ATOM      6  C7  UNL d   1       1.358  -1.211   1.165  0.00  0.00     0.002 A 
ATOM      7  C8  UNL d   1       0.393  -2.176   1.459  0.00  0.00     0.006 A 
ENDROOT
BRANCH   1   8
ATOM      8  C1  UNL d   1      -1.963  -3.067   1.321  0.00  0.00     0.054 C 
ATOM      9  C   UNL d   1      -3.132  -2.962   0.352  0.00  0.00     0.018 C 
ENDBRANCH   1   8
TORSDOF 1
ENDMDL
