MODEL 1
REMARK minimizedAffinity -4.82355976
REMARK minimizedRMSD -1
REMARK  1 active torsions:
REMARK  status: ('A' for Active; 'I' for Inactive)
REMARK    1  A    between atoms: C1_2  and  C2_3 
ROOT
ATOM      1  C2  UNL d   1      -1.600  -0.531  -0.422  0.00  0.00    -0.081 A 
ATOM      2  C3  UNL d   1      -0.863  -0.803   0.737  0.00  0.00     0.006 A 
ATOM      3  C4  UNL d   1       0.468  -0.391   0.842  0.00  0.00     0.002 A 
ATOM      4  C5  UNL d   1       1.080   0.306  -0.204  0.00  0.00    -0.080 A 
ATOM      5  C6  UNL d   1       2.498   0.781  -0.092  0.00  0.00     0.076 C 
ATOM      6  C7  UNL d   1       0.348   0.564  -1.369  0.00  0.00     0.002 A 
ATOM      7  C8  UNL d   1      -0.982   0.151  -1.475  0.00  0.00     0.006 A 
ENDROOT
BRANCH   1   8
ATOM      8  C1  UNL d   1      -3.055  -0.917  -0.513  0.00  0.00     0.054 C 
ATOM      9  C   UNL d   1      -3.347  -2.168   0.303  0.00  0.00     0.018 C 
ENDBRANCH   1   8
TORSDOF 1
ENDMDL
