MODEL 1
REMARK minimizedAffinity -4.09821367
REMARK minimizedRMSD -1
REMARK  1 active torsions:
REMARK  status: ('A' for Active; 'I' for Inactive)
REMARK    1  A    between atoms: C1_2  and  C2_3 
ROOT
ATOM      1  C2  UNL d   1      -1.918  -1.303   0.467  0.00  0.00    -0.081 A 
ATOM      2  C3  UNL d   1      -2.485  -1.457  -0.804  0.00  0.00     0.006 A 
ATOM      3  C4  UNL d   1      -1.934  -0.803  -1.909  0.00  0.00     0.002 A 
ATOM      4  C5  UNL d   1      -0.803   0.008  -1.762  0.00  0.00    -0.080 A 
ATOM      5  C6  UNL d   1      -0.183   0.691  -2.945  0.00  0.00     0.076 C 
ATOM      6  C7  UNL d   1      -0.247   0.175  -0.489  0.00  0.00     0.002 A 
ATOM      7  C8  UNL d   1      -0.798  -0.478   0.616  0.00  0.00     0.006 A 
ENDROOT
BRANCH   1   8
ATOM      8  C1  UNL d   1      -2.472  -2.058   1.649  0.00  0.00     0.054 C 
ATOM      9  C   UNL d   1      -1.366  -2.761   2.423  0.00  0.00     0.018 C 
ENDBRANCH   1   8
TORSDOF 1
ENDMDL
