MODEL 1
REMARK minimizedAffinity -3.94894028
REMARK minimizedRMSD -1
REMARK  1 active torsions:
REMARK  status: ('A' for Active; 'I' for Inactive)
REMARK    1  A    between atoms: C1_2  and  C2_3 
ROOT
ATOM      1  C2  UNL d   1      -2.048  -1.835   0.655  0.00  0.00    -0.081 A 
ATOM      2  C3  UNL d   1      -2.690  -1.462  -0.532  0.00  0.00     0.006 A 
ATOM      3  C4  UNL d   1      -2.129  -0.492  -1.366  0.00  0.00     0.002 A 
ATOM      4  C5  UNL d   1      -0.914   0.115  -1.031  0.00  0.00    -0.080 A 
ATOM      5  C6  UNL d   1      -0.285   1.136  -1.932  0.00  0.00     0.076 C 
ATOM      6  C7  UNL d   1      -0.281  -0.245   0.164  0.00  0.00     0.002 A 
ATOM      7  C8  UNL d   1      -0.842  -1.214   0.999  0.00  0.00     0.006 A 
ENDROOT
BRANCH   1   8
ATOM      8  C1  UNL d   1      -2.618  -2.927   1.524  0.00  0.00     0.054 C 
ATOM      9  C   UNL d   1      -1.551  -3.529   2.428  0.00  0.00     0.018 C 
ENDBRANCH   1   8
TORSDOF 1
ENDMDL
