MODEL 1
REMARK minimizedAffinity -4.8149724
REMARK minimizedRMSD -1
REMARK  1 active torsions:
REMARK  status: ('A' for Active; 'I' for Inactive)
REMARK    1  A    between atoms: C1_2  and  C2_3 
ROOT
ATOM      1  C2  UNL d   1      -1.216  -0.359  -0.265  0.00  0.00    -0.081 A 
ATOM      2  C3  UNL d   1      -0.369  -0.368   0.849  0.00  0.00     0.006 A 
ATOM      3  C4  UNL d   1       0.854   0.306   0.814  0.00  0.00     0.002 A 
ATOM      4  C5  UNL d   1       1.247   1.005  -0.332  0.00  0.00    -0.080 A 
ATOM      5  C6  UNL d   1       2.544   1.758  -0.372  0.00  0.00     0.076 C 
ATOM      6  C7  UNL d   1       0.408   0.999  -1.452  0.00  0.00     0.002 A 
ATOM      7  C8  UNL d   1      -0.814   0.325  -1.418  0.00  0.00     0.006 A 
ENDROOT
BRANCH   1   8
ATOM      8  C1  UNL d   1      -2.565  -1.030  -0.208  0.00  0.00     0.054 C 
ATOM      9  C   UNL d   1      -2.540  -2.245   0.708  0.00  0.00     0.018 C 
ENDBRANCH   1   8
TORSDOF 1
ENDMDL
