MODEL 1
REMARK minimizedAffinity -3.87943125
REMARK minimizedRMSD -1
REMARK  1 active torsions:
REMARK  status: ('A' for Active; 'I' for Inactive)
REMARK    1  A    between atoms: C1_2  and  C2_3 
ROOT
ATOM      1  C2  UNL d   1       0.904   0.388   0.028  0.00  0.00    -0.081 A 
ATOM      2  C3  UNL d   1       0.181   0.606  -1.151  0.00  0.00     0.006 A 
ATOM      3  C4  UNL d   1      -1.115   0.105  -1.290  0.00  0.00     0.002 A 
ATOM      4  C5  UNL d   1      -1.713  -0.614  -0.250  0.00  0.00    -0.080 A 
ATOM      5  C6  UNL d   1      -3.116  -1.131  -0.374  0.00  0.00     0.076 C 
ATOM      6  C7  UNL d   1      -0.985  -0.847   0.922  0.00  0.00     0.002 A 
ATOM      7  C8  UNL d   1       0.312  -0.348   1.060  0.00  0.00     0.006 A 
ENDROOT
BRANCH   1   8
ATOM      8  C1  UNL d   1       2.278   0.982   0.205  0.00  0.00     0.054 C 
ATOM      9  C   UNL d   1       2.389   1.736   1.523  0.00  0.00     0.018 C 
ENDBRANCH   1   8
TORSDOF 1
ENDMDL
