MODEL 1
REMARK minimizedAffinity -5.55032587
REMARK minimizedRMSD -1
REMARK  1 active torsions:
REMARK  status: ('A' for Active; 'I' for Inactive)
REMARK    1  A    between atoms: C1_2  and  C2_3 
ROOT
ATOM      1  C2  UNL d   1       0.252   0.065   0.272  0.00  0.00    -0.081 A 
ATOM      2  C3  UNL d   1      -0.737   0.400  -0.662  0.00  0.00     0.006 A 
ATOM      3  C4  UNL d   1      -1.989  -0.218  -0.619  0.00  0.00     0.002 A 
ATOM      4  C5  UNL d   1      -2.277  -1.173   0.362  0.00  0.00    -0.080 A 
ATOM      5  C6  UNL d   1      -3.627  -1.821   0.437  0.00  0.00     0.076 C 
ATOM      6  C7  UNL d   1      -1.283  -1.520   1.284  0.00  0.00     0.002 A 
ATOM      7  C8  UNL d   1      -0.031  -0.903   1.241  0.00  0.00     0.006 A 
ENDROOT
BRANCH   1   8
ATOM      8  C1  UNL d   1       1.581   0.776   0.269  0.00  0.00     0.054 C 
ATOM      9  C   UNL d   1       1.612   1.896   1.299  0.00  0.00     0.018 C 
ENDBRANCH   1   8
TORSDOF 1
ENDMDL
