MODEL 1
REMARK minimizedAffinity -5.75954676
REMARK minimizedRMSD -1
REMARK  1 active torsions:
REMARK  status: ('A' for Active; 'I' for Inactive)
REMARK    1  A    between atoms: C1_2  and  C2_3 
ROOT
ATOM      1  C2  UNL d   1      -0.143   0.124  -0.067  0.00  0.00    -0.081 A 
ATOM      2  C3  UNL d   1      -1.327   0.129  -0.814  0.00  0.00     0.006 A 
ATOM      3  C4  UNL d   1      -2.393  -0.699  -0.456  0.00  0.00     0.002 A 
ATOM      4  C5  UNL d   1      -2.297  -1.539   0.658  0.00  0.00    -0.080 A 
ATOM      5  C6  UNL d   1      -3.445  -2.411   1.070  0.00  0.00     0.076 C 
ATOM      6  C7  UNL d   1      -1.107  -1.557   1.394  0.00  0.00     0.002 A 
ATOM      7  C8  UNL d   1      -0.040  -0.730   1.037  0.00  0.00     0.006 A 
ENDROOT
BRANCH   1   8
ATOM      8  C1  UNL d   1       0.985   1.064  -0.411  0.00  0.00     0.054 C 
ATOM      9  C   UNL d   1       2.114   0.969   0.605  0.00  0.00     0.018 C 
ENDBRANCH   1   8
TORSDOF 1
ENDMDL
