MODEL 1
REMARK minimizedAffinity -4.93648767
REMARK minimizedRMSD -1
REMARK  1 active torsions:
REMARK  status: ('A' for Active; 'I' for Inactive)
REMARK    1  A    between atoms: C1_2  and  C2_3 
ROOT
ATOM      1  C2  UNL d   1       0.869   0.518  -0.116  0.00  0.00    -0.081 A 
ATOM      2  C3  UNL d   1      -0.002   0.711  -1.196  0.00  0.00     0.006 A 
ATOM      3  C4  UNL d   1      -1.250   0.084  -1.220  0.00  0.00     0.002 A 
ATOM      4  C5  UNL d   1      -1.651  -0.739  -0.163  0.00  0.00    -0.080 A 
ATOM      5  C6  UNL d   1      -3.001  -1.394  -0.163  0.00  0.00     0.076 C 
ATOM      6  C7  UNL d   1      -0.775  -0.946   0.907  0.00  0.00     0.002 A 
ATOM      7  C8  UNL d   1       0.473  -0.320   0.932  0.00  0.00     0.006 A 
ENDROOT
BRANCH   1   8
ATOM      8  C1  UNL d   1       2.188   1.244  -0.056  0.00  0.00     0.054 C 
ATOM      9  C   UNL d   1       2.170   2.338   1.002  0.00  0.00     0.018 C 
ENDBRANCH   1   8
TORSDOF 1
ENDMDL
