MODEL 1
REMARK minimizedAffinity -4.35215807
REMARK minimizedRMSD -1
REMARK  1 active torsions:
REMARK  status: ('A' for Active; 'I' for Inactive)
REMARK    1  A    between atoms: C1_2  and  C2_3 
ROOT
ATOM      1  C2  UNL d   1       1.163   0.482  -0.025  0.00  0.00    -0.081 A 
ATOM      2  C3  UNL d   1       0.424   1.098  -1.042  0.00  0.00     0.006 A 
ATOM      3  C4  UNL d   1      -0.899   0.720  -1.285  0.00  0.00     0.002 A 
ATOM      4  C5  UNL d   1      -1.506  -0.275  -0.510  0.00  0.00    -0.080 A 
ATOM      5  C6  UNL d   1      -2.934  -0.669  -0.741  0.00  0.00     0.076 C 
ATOM      6  C7  UNL d   1      -0.762  -0.902   0.494  0.00  0.00     0.002 A 
ATOM      7  C8  UNL d   1       0.561  -0.525   0.737  0.00  0.00     0.006 A 
ENDROOT
BRANCH   1   8
ATOM      8  C1  UNL d   1       2.569   0.933   0.282  0.00  0.00     0.054 C 
ATOM      9  C   UNL d   1       2.575   2.281   0.989  0.00  0.00     0.018 C 
ENDBRANCH   1   8
TORSDOF 1
ENDMDL
