MODEL 1
REMARK minimizedAffinity -4.72843313
REMARK minimizedRMSD -1
REMARK  1 active torsions:
REMARK  status: ('A' for Active; 'I' for Inactive)
REMARK    1  A    between atoms: C1_2  and  C2_3 
ROOT
ATOM      1  C2  UNL d   1       0.801   0.179  -0.358  0.00  0.00    -0.081 A 
ATOM      2  C3  UNL d   1      -0.016   0.389  -1.476  0.00  0.00     0.006 A 
ATOM      3  C4  UNL d   1      -1.367   0.035  -1.442  0.00  0.00     0.002 A 
ATOM      4  C5  UNL d   1      -1.926  -0.525  -0.288  0.00  0.00    -0.080 A 
ATOM      5  C6  UNL d   1      -3.381  -0.881  -0.228  0.00  0.00     0.076 C 
ATOM      6  C7  UNL d   1      -1.106  -0.751   0.823  0.00  0.00     0.002 A 
ATOM      7  C8  UNL d   1       0.245  -0.399   0.789  0.00  0.00     0.006 A 
ENDROOT
BRANCH   1   8
ATOM      8  C1  UNL d   1       2.242   0.618  -0.369  0.00  0.00     0.054 C 
ATOM      9  C   UNL d   1       2.486   1.744   0.626  0.00  0.00     0.018 C 
ENDBRANCH   1   8
TORSDOF 1
ENDMDL
