MODEL 1
REMARK minimizedAffinity 3.1362319
REMARK minimizedRMSD -1
REMARK  3 active torsions:
REMARK  status: ('A' for Active; 'I' for Inactive)
REMARK    1  A    between atoms: C3'_2  and  C2'_3 
REMARK    2  A    between atoms: C2'_3  and  C1'_4 
REMARK    3  A    between atoms: C1'_4  and  C1_5 
ROOT
ATOM      1  C1  N4B d   1       2.347  -0.802  -0.530  0.00  0.00    -0.075 A 
ATOM      2  C2  N4B d   1       2.234   0.553  -0.151  0.00  0.00     0.002 A 
ATOM      3  C3  N4B d   1       1.235   0.946   0.705  0.00  0.00     0.002 A 
ATOM      4  C4  N4B d   1       0.329   0.008   1.177  0.00  0.00    -0.004 A 
ATOM      5  C5  N4B d   1       0.460  -1.304   0.826  0.00  0.00     0.002 A 
ATOM      6  C6  N4B d   1       1.462  -1.713  -0.030  0.00  0.00     0.002 A 
ENDROOT
BRANCH   1   7
ATOM      7  C1' N4B d   1       3.371  -1.265  -1.531  0.00  0.00     0.057 C 
BRANCH   7   8
ATOM      8  C2' N4B d   1       4.111  -0.051  -2.087  0.00  0.00     0.009 C 
BRANCH   8   9
ATOM      9  C3' N4B d   1       5.258  -0.454  -2.997  0.00  0.00     0.004 C 
ATOM     10  C4' N4B d   1       5.998   0.725  -3.556  0.00  0.00     0.003 C 
ENDBRANCH   8   9
ENDBRANCH   7   8
ENDBRANCH   1   7
TORSDOF 3
ENDMDL
