MODEL 1
REMARK minimizedAffinity -1.17476094
REMARK minimizedRMSD -1
REMARK  3 active torsions:
REMARK  status: ('A' for Active; 'I' for Inactive)
REMARK    1  A    between atoms: C3'_2  and  C2'_3 
REMARK    2  A    between atoms: C2'_3  and  C1'_4 
REMARK    3  A    between atoms: C1'_4  and  C1_5 
ROOT
ATOM      1  C1  N4B d   1      -3.893   2.946  -3.395  0.00  0.00    -0.075 A 
ATOM      2  C2  N4B d   1      -4.789   3.386  -4.395  0.00  0.00     0.002 A 
ATOM      3  C3  N4B d   1      -4.318   4.092  -5.475  0.00  0.00     0.002 A 
ATOM      4  C4  N4B d   1      -2.966   4.385  -5.567  0.00  0.00    -0.004 A 
ATOM      5  C5  N4B d   1      -2.104   3.934  -4.610  0.00  0.00     0.002 A 
ATOM      6  C6  N4B d   1      -2.562   3.220  -3.521  0.00  0.00     0.002 A 
ENDROOT
BRANCH   1   7
ATOM      7  C1' N4B d   1      -4.372   2.245  -2.153  0.00  0.00     0.057 C 
BRANCH   7   8
ATOM      8  C2' N4B d   1      -5.828   2.621  -1.896  0.00  0.00     0.009 C 
BRANCH   8   9
ATOM      9  C3' N4B d   1      -5.999   3.371  -0.586  0.00  0.00     0.004 C 
ATOM     10  C4' N4B d   1      -4.861   3.145   0.364  0.00  0.00     0.003 C 
ENDBRANCH   8   9
ENDBRANCH   7   8
ENDBRANCH   1   7
TORSDOF 3
ENDMDL
