MODEL 1
REMARK minimizedAffinity 4.8806057
REMARK minimizedRMSD -1
REMARK  3 active torsions:
REMARK  status: ('A' for Active; 'I' for Inactive)
REMARK    1  A    between atoms: C3'_2  and  C2'_3 
REMARK    2  A    between atoms: C2'_3  and  C1'_4 
REMARK    3  A    between atoms: C1'_4  and  C1_5 
ROOT
ATOM      1  C1  N4B d   1       2.621   0.230  -0.455  0.00  0.00    -0.075 A 
ATOM      2  C2  N4B d   1       2.239   0.934   0.708  0.00  0.00     0.002 A 
ATOM      3  C3  N4B d   1       1.492   0.307   1.675  0.00  0.00     0.002 A 
ATOM      4  C4  N4B d   1       1.101  -1.011   1.493  0.00  0.00    -0.004 A 
ATOM      5  C5  N4B d   1       1.495  -1.691   0.378  0.00  0.00     0.002 A 
ATOM      6  C6  N4B d   1       2.249  -1.075  -0.600  0.00  0.00     0.002 A 
ENDROOT
BRANCH   1   7
ATOM      7  C1' N4B d   1       3.364   0.899  -1.579  0.00  0.00     0.057 C 
BRANCH   7   8
ATOM      8  C2' N4B d   1       3.873  -0.166  -2.546  0.00  0.00     0.009 C 
BRANCH   8   9
ATOM      9  C3' N4B d   1       5.376  -0.358  -2.439  0.00  0.00     0.004 C 
ATOM     10  C4' N4B d   1       5.998  -0.799  -3.731  0.00  0.00     0.003 C 
ENDBRANCH   8   9
ENDBRANCH   7   8
ENDBRANCH   1   7
TORSDOF 3
ENDMDL
