MODEL 1
REMARK minimizedAffinity 2.34635639
REMARK minimizedRMSD -1
REMARK  3 active torsions:
REMARK  status: ('A' for Active; 'I' for Inactive)
REMARK    1  A    between atoms: C3'_2  and  C2'_3 
REMARK    2  A    between atoms: C2'_3  and  C1'_4 
REMARK    3  A    between atoms: C1'_4  and  C1_5 
ROOT
ATOM      1  C1  N4B d   1      -0.917  -1.360   2.155  0.00  0.00    -0.075 A 
ATOM      2  C2  N4B d   1      -1.245  -0.041   2.539  0.00  0.00     0.002 A 
ATOM      3  C3  N4B d   1      -2.560   0.349   2.600  0.00  0.00     0.002 A 
ATOM      4  C4  N4B d   1      -3.559  -0.551   2.263  0.00  0.00    -0.004 A 
ATOM      5  C5  N4B d   1      -3.236  -1.831   1.917  0.00  0.00     0.002 A 
ATOM      6  C6  N4B d   1      -1.918  -2.238   1.856  0.00  0.00     0.002 A 
ENDROOT
BRANCH   1   7
ATOM      7  C1' N4B d   1       0.509  -1.808   1.992  0.00  0.00     0.057 C 
BRANCH   7   8
ATOM      8  C2' N4B d   1       1.190  -0.939   0.938  0.00  0.00     0.009 C 
BRANCH   8   9
ATOM      9  C3' N4B d   1       1.995  -1.767  -0.048  0.00  0.00     0.004 C 
ATOM     10  C4' N4B d   1       2.356  -1.005  -1.288  0.00  0.00     0.003 C 
ENDBRANCH   8   9
ENDBRANCH   7   8
ENDBRANCH   1   7
TORSDOF 3
ENDMDL
