MODEL 1
REMARK minimizedAffinity 3.36550593
REMARK minimizedRMSD -1
REMARK  3 active torsions:
REMARK  status: ('A' for Active; 'I' for Inactive)
REMARK    1  A    between atoms: C3'_2  and  C2'_3 
REMARK    2  A    between atoms: C2'_3  and  C1'_4 
REMARK    3  A    between atoms: C1'_4  and  C1_5 
ROOT
ATOM      1  C1  N4B d   1       2.759  -0.515  -1.122  0.00  0.00    -0.075 A 
ATOM      2  C2  N4B d   1       2.680  -1.387  -0.014  0.00  0.00     0.002 A 
ATOM      3  C3  N4B d   1       1.798  -1.123   1.005  0.00  0.00     0.002 A 
ATOM      4  C4  N4B d   1       1.003   0.012   0.948  0.00  0.00    -0.004 A 
ATOM      5  C5  N4B d   1       1.067   0.835  -0.138  0.00  0.00     0.002 A 
ATOM      6  C6  N4B d   1       1.946   0.580  -1.172  0.00  0.00     0.002 A 
ENDROOT
BRANCH   1   7
ATOM      7  C1' N4B d   1       3.768  -0.715  -2.220  0.00  0.00     0.057 C 
BRANCH   7   8
ATOM      8  C2' N4B d   1       4.374   0.633  -2.595  0.00  0.00     0.009 C 
BRANCH   8   9
ATOM      9  C3' N4B d   1       5.683   0.477  -3.350  0.00  0.00     0.004 C 
ATOM     10  C4' N4B d   1       5.997  -0.952  -3.679  0.00  0.00     0.003 C 
ENDBRANCH   8   9
ENDBRANCH   7   8
ENDBRANCH   1   7
TORSDOF 3
ENDMDL
