MODEL 1
REMARK minimizedAffinity 2.75228357
REMARK minimizedRMSD -1
REMARK  3 active torsions:
REMARK  status: ('A' for Active; 'I' for Inactive)
REMARK    1  A    between atoms: C3'_2  and  C2'_3 
REMARK    2  A    between atoms: C2'_3  and  C1'_4 
REMARK    3  A    between atoms: C1'_4  and  C1_5 
ROOT
ATOM      1  C1  N4B d   1       1.151  -0.605   0.876  0.00  0.00    -0.075 A 
ATOM      2  C2  N4B d   1       1.596  -1.809   0.289  0.00  0.00     0.002 A 
ATOM      3  C3  N4B d   1       2.570  -1.783  -0.678  0.00  0.00     0.002 A 
ATOM      4  C4  N4B d   1       3.098  -0.567  -1.087  0.00  0.00    -0.004 A 
ATOM      5  C5  N4B d   1       2.681   0.590  -0.496  0.00  0.00     0.002 A 
ATOM      6  C6  N4B d   1       1.705   0.578   0.480  0.00  0.00     0.002 A 
ENDROOT
BRANCH   1   7
ATOM      7  C1' N4B d   1       0.027  -0.576   1.876  0.00  0.00     0.057 C 
BRANCH   7   8
ATOM      8  C2' N4B d   1      -1.246  -1.095   1.214  0.00  0.00     0.009 C 
BRANCH   8   9
ATOM      9  C3' N4B d   1      -2.466  -0.902   2.099  0.00  0.00     0.004 C 
ATOM     10  C4' N4B d   1      -3.613  -1.784   1.706  0.00  0.00     0.003 C 
ENDBRANCH   8   9
ENDBRANCH   7   8
ENDBRANCH   1   7
TORSDOF 3
ENDMDL
