MODEL 1
REMARK minimizedAffinity 3.94664192
REMARK minimizedRMSD -1
REMARK  3 active torsions:
REMARK  status: ('A' for Active; 'I' for Inactive)
REMARK    1  A    between atoms: C3'_2  and  C2'_3 
REMARK    2  A    between atoms: C2'_3  and  C1'_4 
REMARK    3  A    between atoms: C1'_4  and  C1_5 
ROOT
ATOM      1  C1  N4B d   1       3.001  -0.553  -0.727  0.00  0.00    -0.075 A 
ATOM      2  C2  N4B d   1       2.097  -1.584  -0.392  0.00  0.00     0.002 A 
ATOM      3  C3  N4B d   1       0.972  -1.300   0.343  0.00  0.00     0.002 A 
ATOM      4  C4  N4B d   1       0.741   0.000   0.767  0.00  0.00    -0.004 A 
ATOM      5  C5  N4B d   1       1.606   0.996   0.417  0.00  0.00     0.002 A 
ATOM      6  C6  N4B d   1       2.738   0.725  -0.324  0.00  0.00     0.002 A 
ENDROOT
BRANCH   1   7
ATOM      7  C1' N4B d   1       4.288  -0.830  -1.455  0.00  0.00     0.057 C 
BRANCH   7   8
ATOM      8  C2' N4B d   1       4.820   0.472  -2.046  0.00  0.00     0.009 C 
BRANCH   8   9
ATOM      9  C3' N4B d   1       5.999   0.236  -2.974  0.00  0.00     0.004 C 
ATOM     10  C4' N4B d   1       5.999  -1.139  -3.573  0.00  0.00     0.003 C 
ENDBRANCH   8   9
ENDBRANCH   7   8
ENDBRANCH   1   7
TORSDOF 3
ENDMDL
