MODEL 1
REMARK minimizedAffinity 3.21800923
REMARK minimizedRMSD -1
REMARK  3 active torsions:
REMARK  status: ('A' for Active; 'I' for Inactive)
REMARK    1  A    between atoms: C3'_2  and  C2'_3 
REMARK    2  A    between atoms: C2'_3  and  C1'_4 
REMARK    3  A    between atoms: C1'_4  and  C1_5 
ROOT
ATOM      1  C1  N4B d   1       0.454  -0.598   0.984  0.00  0.00    -0.075 A 
ATOM      2  C2  N4B d   1       0.901   0.738   0.889  0.00  0.00     0.002 A 
ATOM      3  C3  N4B d   1       1.998   1.042   0.121  0.00  0.00     0.002 A 
ATOM      4  C4  N4B d   1       2.672   0.028  -0.544  0.00  0.00    -0.004 A 
ATOM      5  C5  N4B d   1       2.218  -1.256  -0.467  0.00  0.00     0.002 A 
ATOM      6  C6  N4B d   1       1.114  -1.575   0.298  0.00  0.00     0.002 A 
ENDROOT
BRANCH   1   7
ATOM      7  C1' N4B d   1      -0.689  -0.991   1.880  0.00  0.00     0.057 C 
BRANCH   7   8
ATOM      8  C2' N4B d   1      -1.207  -2.363   1.458  0.00  0.00     0.009 C 
BRANCH   8   9
ATOM      9  C3' N4B d   1      -2.691  -2.520   1.739  0.00  0.00     0.004 C 
ATOM     10  C4' N4B d   1      -3.256  -1.381   2.534  0.00  0.00     0.003 C 
ENDBRANCH   8   9
ENDBRANCH   7   8
ENDBRANCH   1   7
TORSDOF 3
ENDMDL
