MODEL 1
REMARK minimizedAffinity -2.26226974
REMARK minimizedRMSD -1
REMARK  3 active torsions:
REMARK  status: ('A' for Active; 'I' for Inactive)
REMARK    1  A    between atoms: C3'_2  and  C2'_3 
REMARK    2  A    between atoms: C2'_3  and  C1'_4 
REMARK    3  A    between atoms: C1'_4  and  C1_5 
ROOT
ATOM      1  C1  N4B d   1       1.085  -1.040  -0.023  0.00  0.00    -0.075 A 
ATOM      2  C2  N4B d   1       1.129   0.368  -0.129  0.00  0.00     0.002 A 
ATOM      3  C3  N4B d   1       2.154   0.973  -0.813  0.00  0.00     0.002 A 
ATOM      4  C4  N4B d   1       3.153   0.196  -1.381  0.00  0.00    -0.004 A 
ATOM      5  C5  N4B d   1       3.089  -1.164  -1.296  0.00  0.00     0.002 A 
ATOM      6  C6  N4B d   1       2.063  -1.786  -0.615  0.00  0.00     0.002 A 
ENDROOT
BRANCH   1   7
ATOM      7  C1' N4B d   1       0.031  -1.742   0.787  0.00  0.00     0.057 C 
BRANCH   7   8
ATOM      8  C2' N4B d   1      -0.362  -0.862   1.970  0.00  0.00     0.009 C 
BRANCH   8   9
ATOM      9  C3' N4B d   1      -1.841  -0.976   2.297  0.00  0.00     0.004 C 
ATOM     10  C4' N4B d   1      -2.518  -2.085   1.547  0.00  0.00     0.003 C 
ENDBRANCH   8   9
ENDBRANCH   7   8
ENDBRANCH   1   7
TORSDOF 3
ENDMDL
