MODEL 1
REMARK minimizedAffinity -2.25527048
REMARK minimizedRMSD -1
REMARK  3 active torsions:
REMARK  status: ('A' for Active; 'I' for Inactive)
REMARK    1  A    between atoms: C3'_2  and  C2'_3 
REMARK    2  A    between atoms: C2'_3  and  C1'_4 
REMARK    3  A    between atoms: C1'_4  and  C1_5 
ROOT
ATOM      1  C1  N4B d   1       0.609  -0.788   1.252  0.00  0.00    -0.075 A 
ATOM      2  C2  N4B d   1       1.114  -1.777   0.379  0.00  0.00     0.002 A 
ATOM      3  C3  N4B d   1       1.739  -1.410  -0.787  0.00  0.00     0.002 A 
ATOM      4  C4  N4B d   1       1.854  -0.066  -1.109  0.00  0.00    -0.004 A 
ATOM      5  C5  N4B d   1       1.386   0.884  -0.249  0.00  0.00     0.002 A 
ATOM      6  C6  N4B d   1       0.759   0.529   0.928  0.00  0.00     0.002 A 
ENDROOT
BRANCH   1   7
ATOM      7  C1' N4B d   1      -0.158  -1.144   2.496  0.00  0.00     0.057 C 
BRANCH   7   8
ATOM      8  C2' N4B d   1      -1.385  -1.966   2.111  0.00  0.00     0.009 C 
BRANCH   8   9
ATOM      9  C3' N4B d   1      -2.672  -1.178   2.280  0.00  0.00     0.004 C 
ATOM     10  C4' N4B d   1      -2.484   0.081   3.073  0.00  0.00     0.003 C 
ENDBRANCH   8   9
ENDBRANCH   7   8
ENDBRANCH   1   7
TORSDOF 3
ENDMDL
