MODEL 1
REMARK minimizedAffinity 4.16866207
REMARK minimizedRMSD -1
REMARK  3 active torsions:
REMARK  status: ('A' for Active; 'I' for Inactive)
REMARK    1  A    between atoms: C3'_2  and  C2'_3 
REMARK    2  A    between atoms: C2'_3  and  C1'_4 
REMARK    3  A    between atoms: C1'_4  and  C1_5 
ROOT
ATOM      1  C1  N4B d   1       0.747  -0.344   1.403  0.00  0.00    -0.075 A 
ATOM      2  C2  N4B d   1       1.107  -1.258   0.389  0.00  0.00     0.002 A 
ATOM      3  C3  N4B d   1       1.852  -0.834  -0.685  0.00  0.00     0.002 A 
ATOM      4  C4  N4B d   1       2.229   0.497  -0.775  0.00  0.00    -0.004 A 
ATOM      5  C5  N4B d   1       1.898   1.368   0.222  0.00  0.00     0.002 A 
ATOM      6  C6  N4B d   1       1.154   0.955   1.308  0.00  0.00     0.002 A 
ENDROOT
BRANCH   1   7
ATOM      7  C1' N4B d   1      -0.138  -0.742   2.552  0.00  0.00     0.057 C 
BRANCH   7   8
ATOM      8  C2' N4B d   1      -0.811  -2.073   2.229  0.00  0.00     0.009 C 
BRANCH   8   9
ATOM      9  C3' N4B d   1      -2.259  -1.891   1.809  0.00  0.00     0.004 C 
ATOM     10  C4' N4B d   1      -3.059  -1.106   2.805  0.00  0.00     0.003 C 
ENDBRANCH   8   9
ENDBRANCH   7   8
ENDBRANCH   1   7
TORSDOF 3
ENDMDL
