MODEL 1
REMARK minimizedAffinity 4.55597973
REMARK minimizedRMSD -1
REMARK  3 active torsions:
REMARK  status: ('A' for Active; 'I' for Inactive)
REMARK    1  A    between atoms: C3'_2  and  C2'_3 
REMARK    2  A    between atoms: C2'_3  and  C1'_4 
REMARK    3  A    between atoms: C1'_4  and  C1_5 
ROOT
ATOM      1  C1  N4B d   1       1.131  -1.496   0.368  0.00  0.00    -0.075 A 
ATOM      2  C2  N4B d   1       0.970  -0.240   0.993  0.00  0.00     0.002 A 
ATOM      3  C3  N4B d   1       1.874   0.766   0.756  0.00  0.00     0.002 A 
ATOM      4  C4  N4B d   1       2.954   0.535  -0.083  0.00  0.00    -0.004 A 
ATOM      5  C5  N4B d   1       3.088  -0.673  -0.703  0.00  0.00     0.002 A 
ATOM      6  C6  N4B d   1       2.185  -1.692  -0.478  0.00  0.00     0.002 A 
ENDROOT
BRANCH   1   7
ATOM      7  C1' N4B d   1       0.217  -2.653   0.663  0.00  0.00     0.057 C 
BRANCH   7   8
ATOM      8  C2' N4B d   1       0.743  -3.410   1.878  0.00  0.00     0.009 C 
BRANCH   8   9
ATOM      9  C3' N4B d   1       1.148  -4.832   1.530  0.00  0.00     0.004 C 
ATOM     10  C4' N4B d   1       1.673  -5.592   2.711  0.00  0.00     0.003 C 
ENDBRANCH   8   9
ENDBRANCH   7   8
ENDBRANCH   1   7
TORSDOF 3
ENDMDL
