MODEL 1
REMARK minimizedAffinity 8.2113533
REMARK minimizedRMSD -1
REMARK  3 active torsions:
REMARK  status: ('A' for Active; 'I' for Inactive)
REMARK    1  A    between atoms: C3'_2  and  C2'_3 
REMARK    2  A    between atoms: C2'_3  and  C1'_4 
REMARK    3  A    between atoms: C1'_4  and  C1_5 
ROOT
ATOM      1  C1  N4B d   1       1.508   0.135   0.683  0.00  0.00    -0.075 A 
ATOM      2  C2  N4B d   1       1.569   0.229   2.091  0.00  0.00     0.002 A 
ATOM      3  C3  N4B d   1       2.225   1.282   2.681  0.00  0.00     0.002 A 
ATOM      4  C4  N4B d   1       2.841   2.238   1.887  0.00  0.00    -0.004 A 
ATOM      5  C5  N4B d   1       2.755   2.154   0.528  0.00  0.00     0.002 A 
ATOM      6  C6  N4B d   1       2.096   1.104  -0.078  0.00  0.00     0.002 A 
ENDROOT
BRANCH   1   7
ATOM      7  C1' N4B d   1       0.876  -1.042  -0.007  0.00  0.00     0.057 C 
BRANCH   7   8
ATOM      8  C2' N4B d   1       1.626  -2.313   0.383  0.00  0.00     0.009 C 
BRANCH   8   9
ATOM      9  C3' N4B d   1       2.435  -2.873  -0.774  0.00  0.00     0.004 C 
ATOM     10  C4' N4B d   1       3.659  -2.060  -1.075  0.00  0.00     0.003 C 
ENDBRANCH   8   9
ENDBRANCH   7   8
ENDBRANCH   1   7
TORSDOF 3
ENDMDL
