MODEL 1
REMARK minimizedAffinity 1.09912372
REMARK minimizedRMSD -1
REMARK  0 active torsions:
REMARK  status: ('A' for Active; 'I' for Inactive)
ROOT
ATOM      1  C   UNL d   1       1.536  -1.266   0.361  0.00  0.00     0.078 C 
ATOM      2  C1  UNL d   1       0.315  -0.396   0.359  0.00  0.00    -0.077 A 
ATOM      3  C2  UNL d   1       0.171   0.642  -0.571  0.00  0.00    -0.001 A 
ATOM      4  C3  UNL d   1      -0.967   1.450  -0.555  0.00  0.00     0.003 A 
ATOM      5  C4  UNL d   1      -1.968   1.231   0.389  0.00  0.00    -0.005 A 
ATOM      6  C5  UNL d   1      -1.833   0.202   1.319  0.00  0.00     0.003 A 
ATOM      7  C6  UNL d   1      -0.696  -0.607   1.305  0.00  0.00    -0.001 A 
ENDROOT
TORSDOF 0
ENDMDL
