MODEL 1
REMARK minimizedAffinity 1.12553048
REMARK minimizedRMSD -1
REMARK  0 active torsions:
REMARK  status: ('A' for Active; 'I' for Inactive)
ROOT
ATOM      1  C   UNL d   1       2.856  -1.130   1.262  0.00  0.00     0.078 C 
ATOM      2  C1  UNL d   1       1.610  -0.763   0.514  0.00  0.00    -0.077 A 
ATOM      3  C2  UNL d   1       1.674  -0.052  -0.690  0.00  0.00    -0.001 A 
ATOM      4  C3  UNL d   1       0.505   0.292  -1.371  0.00  0.00     0.003 A 
ATOM      5  C4  UNL d   1      -0.737  -0.070  -0.854  0.00  0.00    -0.005 A 
ATOM      6  C5  UNL d   1      -0.812  -0.776   0.345  0.00  0.00     0.003 A 
ATOM      7  C6  UNL d   1       0.356  -1.121   1.027  0.00  0.00    -0.001 A 
ENDROOT
TORSDOF 0
ENDMDL
