MODEL 1
REMARK minimizedAffinity -2.53745294
REMARK minimizedRMSD -1
REMARK  0 active torsions:
REMARK  status: ('A' for Active; 'I' for Inactive)
ROOT
ATOM      1  C   UNL d   1       0.581   1.038  -3.945  0.00  0.00     0.078 C 
ATOM      2  C1  UNL d   1       0.778   0.629  -2.516  0.00  0.00    -0.077 A 
ATOM      3  C2  UNL d   1       1.862   1.109  -1.771  0.00  0.00    -0.001 A 
ATOM      4  C3  UNL d   1       2.039   0.712  -0.445  0.00  0.00     0.003 A 
ATOM      5  C4  UNL d   1       1.135  -0.168   0.148  0.00  0.00    -0.005 A 
ATOM      6  C5  UNL d   1       0.055  -0.653  -0.586  0.00  0.00     0.003 A 
ATOM      7  C6  UNL d   1      -0.123  -0.257  -1.912  0.00  0.00    -0.001 A 
ENDROOT
TORSDOF 0
ENDMDL
