MODEL 1
REMARK minimizedAffinity -3.51192164
REMARK minimizedRMSD -1
REMARK  0 active torsions:
REMARK  status: ('A' for Active; 'I' for Inactive)
ROOT
ATOM      1  C   UNL d   1      -3.446   0.295   0.101  0.00  0.00     0.078 C 
ATOM      2  C1  UNL d   1      -2.042   0.184   0.615  0.00  0.00    -0.077 A 
ATOM      3  C2  UNL d   1      -0.969  -0.033  -0.258  0.00  0.00    -0.001 A 
ATOM      4  C3  UNL d   1       0.331  -0.144   0.236  0.00  0.00     0.003 A 
ATOM      5  C4  UNL d   1       0.572  -0.041   1.604  0.00  0.00    -0.005 A 
ATOM      6  C5  UNL d   1      -0.490   0.173   2.481  0.00  0.00     0.003 A 
ATOM      7  C6  UNL d   1      -1.791   0.284   1.989  0.00  0.00    -0.001 A 
ENDROOT
TORSDOF 0
ENDMDL
