MODEL 1
REMARK minimizedAffinity -3.67141962
REMARK minimizedRMSD -1
REMARK  0 active torsions:
REMARK  status: ('A' for Active; 'I' for Inactive)
ROOT
ATOM      1  C   UNL d   1      -0.348  -0.232  -4.285  0.00  0.00     0.078 C 
ATOM      2  C1  UNL d   1       0.679  -0.124  -3.198  0.00  0.00    -0.077 A 
ATOM      3  C2  UNL d   1       1.943   0.422  -3.453  0.00  0.00    -0.001 A 
ATOM      4  C3  UNL d   1       2.894   0.507  -2.434  0.00  0.00     0.003 A 
ATOM      5  C4  UNL d   1       2.590   0.048  -1.154  0.00  0.00    -0.005 A 
ATOM      6  C5  UNL d   1       1.336  -0.499  -0.892  0.00  0.00     0.003 A 
ATOM      7  C6  UNL d   1       0.384  -0.585  -1.909  0.00  0.00    -0.001 A 
ENDROOT
TORSDOF 0
ENDMDL
