MODEL 1
REMARK minimizedAffinity -4.74788189
REMARK minimizedRMSD -1
REMARK  0 active torsions:
REMARK  status: ('A' for Active; 'I' for Inactive)
ROOT
ATOM      1  C   UNL d   1       0.042  -0.532  -1.232  0.00  0.00     0.078 C 
ATOM      2  C1  UNL d   1       0.024   0.075   0.140  0.00  0.00    -0.077 A 
ATOM      3  C2  UNL d   1       1.189   0.141   0.914  0.00  0.00    -0.001 A 
ATOM      4  C3  UNL d   1       1.155   0.699   2.193  0.00  0.00     0.003 A 
ATOM      5  C4  UNL d   1      -0.041   1.194   2.709  0.00  0.00    -0.005 A 
ATOM      6  C5  UNL d   1      -1.205   1.131   1.947  0.00  0.00     0.003 A 
ATOM      7  C6  UNL d   1      -1.174   0.573   0.668  0.00  0.00    -0.001 A 
ENDROOT
TORSDOF 0
ENDMDL
