MODEL 1
REMARK minimizedAffinity -4.35671234
REMARK minimizedRMSD -1
REMARK  0 active torsions:
REMARK  status: ('A' for Active; 'I' for Inactive)
ROOT
ATOM      1  C   UNL d   1       0.423  -0.443  -0.962  0.00  0.00     0.078 C 
ATOM      2  C1  UNL d   1      -0.103  -0.079   0.395  0.00  0.00    -0.077 A 
ATOM      3  C2  UNL d   1      -1.268  -0.670   0.898  0.00  0.00    -0.001 A 
ATOM      4  C3  UNL d   1      -1.751  -0.315   2.159  0.00  0.00     0.003 A 
ATOM      5  C4  UNL d   1      -1.076   0.632   2.926  0.00  0.00    -0.005 A 
ATOM      6  C5  UNL d   1       0.084   1.226   2.433  0.00  0.00     0.003 A 
ATOM      7  C6  UNL d   1       0.569   0.873   1.172  0.00  0.00    -0.001 A 
ENDROOT
TORSDOF 0
ENDMDL
