MODEL 1
REMARK minimizedAffinity -2.34189558
REMARK minimizedRMSD -1
REMARK  0 active torsions:
REMARK  status: ('A' for Active; 'I' for Inactive)
ROOT
ATOM      1  C   UNL d   1       5.984   5.216   4.512  0.00  0.00     0.172 C 
ATOM      2  N   UNL d   1       4.595   5.391   4.864  0.00  0.00    -0.070 N 
ATOM      3  C1  UNL d   1       4.129   6.000   5.999  0.00  0.00    -0.004 A 
ATOM      4  C2  UNL d   1       2.752   5.965   5.962  0.00  0.00    -0.047 A 
ATOM      5  C3  UNL d   1       2.377   5.312   4.764  0.00  0.00    -0.047 A 
ATOM      6  C4  UNL d   1       3.537   4.967   4.103  0.00  0.00    -0.004 A 
ENDROOT
TORSDOF 0
ENDMDL
