MODEL 1
REMARK minimizedAffinity -1.57528603
REMARK minimizedRMSD -1
REMARK  0 active torsions:
REMARK  status: ('A' for Active; 'I' for Inactive)
ROOT
ATOM      1  C   UNL d   1       5.966   5.999   3.754  0.00  0.00     0.172 C 
ATOM      2  N   UNL d   1       4.691   5.886   4.422  0.00  0.00    -0.070 N 
ATOM      3  C1  UNL d   1       4.509   5.655   5.760  0.00  0.00    -0.004 A 
ATOM      4  C2  UNL d   1       3.152   5.617   6.000  0.00  0.00    -0.047 A 
ATOM      5  C3  UNL d   1       2.497   5.832   4.764  0.00  0.00    -0.047 A 
ATOM      6  C4  UNL d   1       3.474   5.995   3.805  0.00  0.00    -0.004 A 
ENDROOT
TORSDOF 0
ENDMDL
