MODEL 1
REMARK minimizedAffinity 6.95987368
REMARK minimizedRMSD -1
REMARK  0 active torsions:
REMARK  status: ('A' for Active; 'I' for Inactive)
ROOT
ATOM      1  C   UNL d   1      -4.799   1.530  -4.860  0.00  0.00     0.172 C 
ATOM      2  N   UNL d   1      -4.683   2.965  -4.976  0.00  0.00    -0.070 N 
ATOM      3  C1  UNL d   1      -3.666   3.727  -4.466  0.00  0.00    -0.004 A 
ATOM      4  C2  UNL d   1      -3.923   5.043  -4.789  0.00  0.00    -0.047 A 
ATOM      5  C3  UNL d   1      -5.136   5.071  -5.517  0.00  0.00    -0.047 A 
ATOM      6  C4  UNL d   1      -5.586   3.772  -5.618  0.00  0.00    -0.004 A 
ENDROOT
TORSDOF 0
ENDMDL
