MODEL 1
REMARK minimizedAffinity -0.965058148
REMARK minimizedRMSD -1
REMARK  0 active torsions:
REMARK  status: ('A' for Active; 'I' for Inactive)
ROOT
ATOM      1  C   UNL d   1       2.499   5.557   5.939  0.00  0.00     0.172 C 
ATOM      2  N   UNL d   1       3.813   5.639   5.346  0.00  0.00    -0.070 N 
ATOM      3  C1  UNL d   1       4.962   5.996   6.000  0.00  0.00    -0.004 A 
ATOM      4  C2  UNL d   1       5.996   5.951   5.090  0.00  0.00    -0.047 A 
ATOM      5  C3  UNL d   1       5.449   5.554   3.846  0.00  0.00    -0.047 A 
ATOM      6  C4  UNL d   1       4.096   5.367   4.034  0.00  0.00    -0.004 A 
ENDROOT
TORSDOF 0
ENDMDL
