MODEL 1
REMARK minimizedAffinity 5.50364828
REMARK minimizedRMSD -1
REMARK  0 active torsions:
REMARK  status: ('A' for Active; 'I' for Inactive)
ROOT
ATOM      1  C   UNL d   1       0.439   2.583  -5.089  0.00  0.00     0.172 C 
ATOM      2  N   UNL d   1      -0.730   2.599  -4.241  0.00  0.00    -0.070 N 
ATOM      3  C1  UNL d   1      -1.871   3.321  -4.469  0.00  0.00    -0.004 A 
ATOM      4  C2  UNL d   1      -2.745   3.065  -3.434  0.00  0.00    -0.047 A 
ATOM      5  C3  UNL d   1      -2.107   2.159  -2.555  0.00  0.00    -0.047 A 
ATOM      6  C4  UNL d   1      -0.861   1.887  -3.078  0.00  0.00    -0.004 A 
ENDROOT
TORSDOF 0
ENDMDL
