MODEL 1
REMARK minimizedAffinity -2.88908839
REMARK minimizedRMSD -1
REMARK  0 active torsions:
REMARK  status: ('A' for Active; 'I' for Inactive)
ROOT
ATOM      1  C   UNL d   1      -1.073   5.703   5.414  0.00  0.00     0.172 C 
ATOM      2  N   UNL d   1      -0.021   5.297   4.512  0.00  0.00    -0.070 N 
ATOM      3  C1  UNL d   1      -0.020   4.162   3.746  0.00  0.00    -0.004 A 
ATOM      4  C2  UNL d   1       1.156   4.139   3.028  0.00  0.00    -0.047 A 
ATOM      5  C3  UNL d   1       1.887   5.299   3.375  0.00  0.00    -0.047 A 
ATOM      6  C4  UNL d   1       1.136   5.999   4.295  0.00  0.00    -0.004 A 
ENDROOT
TORSDOF 0
ENDMDL
