MODEL 1
REMARK minimizedAffinity -4.83251572
REMARK minimizedRMSD -1
REMARK  1 active torsions:
REMARK  status: ('A' for Active; 'I' for Inactive)
REMARK    1  A    between atoms: N_2  and  C1_3 
ROOT
ATOM      1  C1  UNL d   1       0.222   0.200  -0.034  0.00  0.00     0.143 A 
ATOM      2  C2  UNL d   1      -1.147   0.399  -0.246  0.00  0.00    -0.057 A 
ATOM      3  C3  UNL d   1      -1.954   0.993   0.732  0.00  0.00     0.033 A 
ATOM      4  C4  UNL d   1      -1.410   1.374   1.954  0.00  0.00    -0.042 A 
ATOM      5  C5  UNL d   1      -0.057   1.163   2.196  0.00  0.00     0.033 A 
ATOM      6  C6  UNL d   1       0.745   0.575   1.213  0.00  0.00    -0.057 A 
ENDROOT
BRANCH   1   7
ATOM      7  N   UNL d   1       1.057  -0.475  -0.928  0.00  0.00    -0.732 N 
ATOM      8  C   UNL d   1       1.147  -0.058  -2.311  0.00  0.00     0.284 C 
ATOM      9  H3  UNL d   1       1.950  -0.727  -0.510  0.00  0.00     0.395 HD
ENDBRANCH   1   7
TORSDOF 1
ENDMDL
