MODEL 1
REMARK minimizedAffinity -3.76183844
REMARK minimizedRMSD -1
REMARK  1 active torsions:
REMARK  status: ('A' for Active; 'I' for Inactive)
REMARK    1  A    between atoms: N_2  and  C1_3 
ROOT
ATOM      1  C1  UNL d   1       0.006  -0.130  -0.075  0.00  0.00     0.143 A 
ATOM      2  C2  UNL d   1      -1.392  -0.115  -0.043  0.00  0.00    -0.057 A 
ATOM      3  C3  UNL d   1      -2.088   0.481   1.016  0.00  0.00     0.033 A 
ATOM      4  C4  UNL d   1      -1.394   1.049   2.080  0.00  0.00    -0.042 A 
ATOM      5  C5  UNL d   1      -0.004   1.024   2.081  0.00  0.00     0.033 A 
ATOM      6  C6  UNL d   1       0.685   0.433   1.017  0.00  0.00    -0.057 A 
ENDROOT
BRANCH   1   7
ATOM      7  N   UNL d   1       0.755  -0.793  -1.051  0.00  0.00    -0.732 N 
ATOM      8  C   UNL d   1       0.711  -0.363  -2.432  0.00  0.00     0.284 C 
ATOM      9  H3  UNL d   1       1.685  -1.044  -0.723  0.00  0.00     0.395 HD
ENDBRANCH   1   7
TORSDOF 1
ENDMDL
