MODEL 1
REMARK minimizedAffinity -4.7843585
REMARK minimizedRMSD -1
REMARK  1 active torsions:
REMARK  status: ('A' for Active; 'I' for Inactive)
REMARK    1  A    between atoms: N_2  and  C1_3 
ROOT
ATOM      1  C1  UNL d   1      -0.034   0.091   0.057  0.00  0.00     0.143 A 
ATOM      2  C2  UNL d   1      -1.342   0.574   0.172  0.00  0.00    -0.057 A 
ATOM      3  C3  UNL d   1      -1.752   1.297   1.299  0.00  0.00     0.033 A 
ATOM      4  C4  UNL d   1      -0.867   1.525   2.347  0.00  0.00    -0.042 A 
ATOM      5  C5  UNL d   1       0.431   1.032   2.266  0.00  0.00     0.033 A 
ATOM      6  C6  UNL d   1       0.837   0.317   1.135  0.00  0.00    -0.057 A 
ENDROOT
BRANCH   1   7
ATOM      7  N   UNL d   1       0.407  -0.719  -0.992  0.00  0.00    -0.732 N 
ATOM      8  C   UNL d   1       0.887  -0.131  -2.225  0.00  0.00     0.284 C 
ATOM      9  H3  UNL d   1       0.956  -1.511  -0.668  0.00  0.00     0.395 HD
ENDBRANCH   1   7
TORSDOF 1
ENDMDL
