MODEL 1
REMARK minimizedAffinity -4.41775179
REMARK minimizedRMSD -1
REMARK  1 active torsions:
REMARK  status: ('A' for Active; 'I' for Inactive)
REMARK    1  A    between atoms: N_2  and  C1_3 
ROOT
ATOM      1  C1  UNL d   1       0.013   0.088   0.384  0.00  0.00     0.143 A 
ATOM      2  C2  UNL d   1      -1.061  -0.296   1.194  0.00  0.00    -0.057 A 
ATOM      3  C3  UNL d   1      -1.474   0.492   2.275  0.00  0.00     0.033 A 
ATOM      4  C4  UNL d   1      -0.799   1.668   2.584  0.00  0.00    -0.042 A 
ATOM      5  C5  UNL d   1       0.288   2.057   1.809  0.00  0.00     0.033 A 
ATOM      6  C6  UNL d   1       0.691   1.269   0.726  0.00  0.00    -0.057 A 
ENDROOT
BRANCH   1   7
ATOM      7  N   UNL d   1       0.533  -0.701  -0.644  0.00  0.00    -0.732 N 
ATOM      8  C   UNL d   1       0.898  -0.111  -1.914  0.00  0.00     0.284 C 
ATOM      9  H3  UNL d   1       1.193  -1.397  -0.304  0.00  0.00     0.395 HD
ENDBRANCH   1   7
TORSDOF 1
ENDMDL
