MODEL 1
REMARK minimizedAffinity 7.71204042
REMARK minimizedRMSD -1
REMARK  0 active torsions:
REMARK  status: ('A' for Active; 'I' for Inactive)
ROOT
ATOM      1  C   UNL d   1      -6.000  -1.491  -1.392  0.00  0.00     0.172 C 
ATOM      2  N   UNL d   1      -5.179  -0.483  -0.764  0.00  0.00    -0.070 N 
ATOM      3  C1  UNL d   1      -3.811  -0.426  -0.808  0.00  0.00    -0.004 A 
ATOM      4  C2  UNL d   1      -3.412   0.681  -0.090  0.00  0.00    -0.047 A 
ATOM      5  C3  UNL d   1      -4.580   1.310   0.403  0.00  0.00    -0.047 A 
ATOM      6  C4  UNL d   1      -5.659   0.569  -0.029  0.00  0.00    -0.004 A 
ENDROOT
TORSDOF 0
ENDMDL
