MODEL 1
REMARK minimizedAffinity 7.37487173
REMARK minimizedRMSD -1
REMARK  0 active torsions:
REMARK  status: ('A' for Active; 'I' for Inactive)
ROOT
ATOM      1  C   UNL d   1       3.007   0.872  -0.823  0.00  0.00     0.172 C 
ATOM      2  N   UNL d   1       4.137   1.600  -1.351  0.00  0.00    -0.070 N 
ATOM      3  C1  UNL d   1       4.428   1.769  -2.679  0.00  0.00    -0.004 A 
ATOM      4  C2  UNL d   1       5.581   2.519  -2.766  0.00  0.00    -0.047 A 
ATOM      5  C3  UNL d   1       5.997   2.810  -1.445  0.00  0.00    -0.047 A 
ATOM      6  C4  UNL d   1       5.086   2.229  -0.589  0.00  0.00    -0.004 A 
ENDROOT
TORSDOF 0
ENDMDL
