MODEL 1
REMARK minimizedAffinity 5.30003309
REMARK minimizedRMSD -1
REMARK  0 active torsions:
REMARK  status: ('A' for Active; 'I' for Inactive)
ROOT
ATOM      1  C   UNL d   1       5.643   2.271  -2.286  0.00  0.00     0.172 C 
ATOM      2  N   UNL d   1       4.711   1.480  -1.518  0.00  0.00    -0.070 N 
ATOM      3  C1  UNL d   1       4.630   1.445  -0.151  0.00  0.00    -0.004 A 
ATOM      4  C2  UNL d   1       3.618   0.574   0.190  0.00  0.00    -0.047 A 
ATOM      5  C3  UNL d   1       3.073   0.066  -1.014  0.00  0.00    -0.047 A 
ATOM      6  C4  UNL d   1       3.768   0.644  -2.055  0.00  0.00    -0.004 A 
ENDROOT
TORSDOF 0
ENDMDL
