MODEL 1
REMARK minimizedAffinity 3.21964598
REMARK minimizedRMSD -1
REMARK  0 active torsions:
REMARK  status: ('A' for Active; 'I' for Inactive)
ROOT
ATOM      1  C   UNL d   1       5.080   2.194  -1.887  0.00  0.00     0.172 C 
ATOM      2  N   UNL d   1       4.195   1.680  -0.869  0.00  0.00    -0.070 N 
ATOM      3  C1  UNL d   1       3.170   0.795  -1.075  0.00  0.00    -0.004 A 
ATOM      4  C2  UNL d   1       2.569   0.555   0.141  0.00  0.00    -0.047 A 
ATOM      5  C3  UNL d   1       3.254   1.323   1.112  0.00  0.00    -0.047 A 
ATOM      6  C4  UNL d   1       4.256   2.010   0.459  0.00  0.00    -0.004 A 
ENDROOT
TORSDOF 0
ENDMDL
