MODEL 1
REMARK minimizedAffinity 5.41243601
REMARK minimizedRMSD -1
REMARK  0 active torsions:
REMARK  status: ('A' for Active; 'I' for Inactive)
ROOT
ATOM      1  C   UNL d   1       0.067   4.374   1.599  0.00  0.00     0.172 C 
ATOM      2  N   UNL d   1       0.880   3.847   2.669  0.00  0.00    -0.070 N 
ATOM      3  C1  UNL d   1       2.249   3.806   2.687  0.00  0.00    -0.004 A 
ATOM      4  C2  UNL d   1       2.639   3.233   3.878  0.00  0.00    -0.047 A 
ATOM      5  C3  UNL d   1       1.464   2.918   4.601  0.00  0.00    -0.047 A 
ATOM      6  C4  UNL d   1       0.390   3.309   3.830  0.00  0.00    -0.004 A 
ENDROOT
TORSDOF 0
ENDMDL
