MODEL 1
REMARK minimizedAffinity 4.05795574
REMARK minimizedRMSD -1
REMARK  0 active torsions:
REMARK  status: ('A' for Active; 'I' for Inactive)
ROOT
ATOM      1  C   UNL d   1       6.000   2.666  -2.270  0.00  0.00     0.172 C 
ATOM      2  N   UNL d   1       5.028   1.807  -1.636  0.00  0.00    -0.070 N 
ATOM      3  C1  UNL d   1       4.884   1.624  -0.286  0.00  0.00    -0.004 A 
ATOM      4  C2  UNL d   1       3.851   0.733  -0.088  0.00  0.00    -0.047 A 
ATOM      5  C3  UNL d   1       3.358   0.367  -1.363  0.00  0.00    -0.047 A 
ATOM      6  C4  UNL d   1       4.104   1.046  -2.303  0.00  0.00    -0.004 A 
ENDROOT
TORSDOF 0
ENDMDL
