MODEL 1
REMARK minimizedAffinity 10.1277895
REMARK minimizedRMSD -1
REMARK  0 active torsions:
REMARK  status: ('A' for Active; 'I' for Inactive)
ROOT
ATOM      1  C   UNL d   1       5.999   2.947  -1.719  0.00  0.00     0.172 C 
ATOM      2  N   UNL d   1       4.933   2.310  -0.982  0.00  0.00    -0.070 N 
ATOM      3  C1  UNL d   1       3.848   1.679  -1.531  0.00  0.00    -0.004 A 
ATOM      4  C2  UNL d   1       3.068   1.206  -0.498  0.00  0.00    -0.047 A 
ATOM      5  C3  UNL d   1       3.705   1.566   0.714  0.00  0.00    -0.047 A 
ATOM      6  C4  UNL d   1       4.857   2.248   0.385  0.00  0.00    -0.004 A 
ENDROOT
TORSDOF 0
ENDMDL
