MODEL 1
REMARK minimizedAffinity 11.2523222
REMARK minimizedRMSD -1
REMARK  0 active torsions:
REMARK  status: ('A' for Active; 'I' for Inactive)
ROOT
ATOM      1  C   UNL d   1      -2.994   3.806  -6.000  0.00  0.00     0.172 C 
ATOM      2  N   UNL d   1      -4.007   2.855  -5.607  0.00  0.00    -0.070 N 
ATOM      3  C1  UNL d   1      -3.780   1.654  -4.991  0.00  0.00    -0.004 A 
ATOM      4  C2  UNL d   1      -5.000   1.047  -4.786  0.00  0.00    -0.047 A 
ATOM      5  C3  UNL d   1      -5.995   1.912  -5.297  0.00  0.00    -0.047 A 
ATOM      6  C4  UNL d   1      -5.353   3.024  -5.800  0.00  0.00    -0.004 A 
ENDROOT
TORSDOF 0
ENDMDL
