MODEL 1
REMARK minimizedAffinity 10.2449341
REMARK minimizedRMSD -1
REMARK  0 active torsions:
REMARK  status: ('A' for Active; 'I' for Inactive)
ROOT
ATOM      1  C   UNL d   1       0.350   2.402  -0.466  0.00  0.00     0.172 C 
ATOM      2  N   UNL d   1       0.540   3.383   0.577  0.00  0.00    -0.070 N 
ATOM      3  C1  UNL d   1      -0.230   4.498   0.775  0.00  0.00    -0.004 A 
ATOM      4  C2  UNL d   1       0.275   5.171   1.866  0.00  0.00    -0.047 A 
ATOM      5  C3  UNL d   1       1.387   4.436   2.340  0.00  0.00    -0.047 A 
ATOM      6  C4  UNL d   1       1.529   3.333   1.524  0.00  0.00    -0.004 A 
ENDROOT
TORSDOF 0
ENDMDL
