MODEL 1
REMARK minimizedAffinity 9.01698303
REMARK minimizedRMSD -1
REMARK  0 active torsions:
REMARK  status: ('A' for Active; 'I' for Inactive)
ROOT
ATOM      1  C   UNL d   1      -2.209  -0.599  -0.448  0.00  0.00     0.172 C 
ATOM      2  N   UNL d   1      -3.560  -0.169  -0.171  0.00  0.00    -0.070 N 
ATOM      3  C1  UNL d   1      -3.918   1.027   0.391  0.00  0.00    -0.004 A 
ATOM      4  C2  UNL d   1      -5.292   1.054   0.487  0.00  0.00    -0.047 A 
ATOM      5  C3  UNL d   1      -5.777  -0.169  -0.035  0.00  0.00    -0.047 A 
ATOM      6  C4  UNL d   1      -4.683  -0.907  -0.435  0.00  0.00    -0.004 A 
ENDROOT
TORSDOF 0
ENDMDL
