MODEL 1
REMARK minimizedAffinity -4.59362507
REMARK minimizedRMSD -1
REMARK  0 active torsions:
REMARK  status: ('A' for Active; 'I' for Inactive)
ROOT
ATOM      1  C   UNL d   1       3.703   2.227   0.835  0.00  0.00     0.077 C 
ATOM      2  C1  UNL d   1       2.391   2.861   0.481  0.00  0.00    -0.074 A 
ATOM      3  C2  UNL d   1       1.667   3.593   1.428  0.00  0.00    -0.005 A 
ATOM      4  C3  UNL d   1       0.453   4.186   1.081  0.00  0.00     0.006 A 
ATOM      5  C4  UNL d   1      -0.049   4.053  -0.214  0.00  0.00    -0.005 A 
ATOM      6  C5  UNL d   1       0.661   3.325  -1.175  0.00  0.00    -0.074 A 
ATOM      7  C6  UNL d   1       0.140   3.180  -2.574  0.00  0.00     0.077 C 
ATOM      8  C7  UNL d   1       1.883   2.739  -0.820  0.00  0.00    -0.001 A 
ENDROOT
TORSDOF 0
ENDMDL
