MODEL 1
REMARK minimizedAffinity 0.609995365
REMARK minimizedRMSD -1
REMARK  0 active torsions:
REMARK  status: ('A' for Active; 'I' for Inactive)
ROOT
ATOM      1  C   UNL d   1      -0.296   4.073  -0.745  0.00  0.00     0.077 C 
ATOM      2  C1  UNL d   1       0.447   3.252   0.266  0.00  0.00    -0.074 A 
ATOM      3  C2  UNL d   1       0.244   3.443   1.637  0.00  0.00    -0.005 A 
ATOM      4  C3  UNL d   1       0.936   2.666   2.565  0.00  0.00     0.006 A 
ATOM      5  C4  UNL d   1       1.837   1.691   2.134  0.00  0.00    -0.005 A 
ATOM      6  C5  UNL d   1       2.052   1.485   0.767  0.00  0.00    -0.074 A 
ATOM      7  C6  UNL d   1       3.009   0.435   0.286  0.00  0.00     0.077 C 
ATOM      8  C7  UNL d   1       1.348   2.266  -0.160  0.00  0.00    -0.001 A 
ENDROOT
TORSDOF 0
ENDMDL
