MODEL 1
REMARK minimizedAffinity 8.91801357
REMARK minimizedRMSD -1
REMARK  0 active torsions:
REMARK  status: ('A' for Active; 'I' for Inactive)
ROOT
ATOM      1  C   UNL d   1      -4.522   2.076   0.522  0.00  0.00     0.077 C 
ATOM      2  C1  UNL d   1      -3.129   1.814   1.013  0.00  0.00    -0.074 A 
ATOM      3  C2  UNL d   1      -2.160   2.822   0.998  0.00  0.00    -0.005 A 
ATOM      4  C3  UNL d   1      -0.872   2.566   1.467  0.00  0.00     0.006 A 
ATOM      5  C4  UNL d   1      -0.540   1.301   1.955  0.00  0.00    -0.005 A 
ATOM      6  C5  UNL d   1      -1.496   0.281   1.980  0.00  0.00    -0.074 A 
ATOM      7  C6  UNL d   1      -1.159  -1.080   2.510  0.00  0.00     0.077 C 
ATOM      8  C7  UNL d   1      -2.791   0.548   1.513  0.00  0.00    -0.001 A 
ENDROOT
TORSDOF 0
ENDMDL
