MODEL 1
REMARK minimizedAffinity 6.21956348
REMARK minimizedRMSD -1
REMARK  0 active torsions:
REMARK  status: ('A' for Active; 'I' for Inactive)
ROOT
ATOM      1  C   UNL d   1       0.724   4.451  -0.739  0.00  0.00     0.077 C 
ATOM      2  C1  UNL d   1       0.420   3.146  -0.064  0.00  0.00    -0.074 A 
ATOM      3  C2  UNL d   1      -0.702   3.007   0.758  0.00  0.00    -0.005 A 
ATOM      4  C3  UNL d   1      -0.977   1.785   1.372  0.00  0.00     0.006 A 
ATOM      5  C4  UNL d   1      -0.133   0.692   1.169  0.00  0.00    -0.005 A 
ATOM      6  C5  UNL d   1       0.993   0.812   0.349  0.00  0.00    -0.074 A 
ATOM      7  C6  UNL d   1       1.904  -0.356   0.113  0.00  0.00     0.077 C 
ATOM      8  C7  UNL d   1       1.259   2.041  -0.269  0.00  0.00    -0.001 A 
ENDROOT
TORSDOF 0
ENDMDL
