MODEL 1
REMARK minimizedAffinity 7.10429859
REMARK minimizedRMSD -1
REMARK  0 active torsions:
REMARK  status: ('A' for Active; 'I' for Inactive)
ROOT
ATOM      1  C   UNL d   1       2.893   2.816   0.456  0.00  0.00     0.077 C 
ATOM      2  C1  UNL d   1       1.399   2.874   0.569  0.00  0.00    -0.074 A 
ATOM      3  C2  UNL d   1       0.639   3.619  -0.339  0.00  0.00    -0.005 A 
ATOM      4  C3  UNL d   1      -0.751   3.656  -0.227  0.00  0.00     0.006 A 
ATOM      5  C4  UNL d   1      -1.394   2.951   0.791  0.00  0.00    -0.005 A 
ATOM      6  C5  UNL d   1      -0.650   2.201   1.708  0.00  0.00    -0.074 A 
ATOM      7  C6  UNL d   1      -1.325   1.429   2.802  0.00  0.00     0.077 C 
ATOM      8  C7  UNL d   1       0.746   2.162   1.585  0.00  0.00    -0.001 A 
ENDROOT
TORSDOF 0
ENDMDL
