MODEL 1
REMARK minimizedAffinity 1.33501506
REMARK minimizedRMSD -1
REMARK  0 active torsions:
REMARK  status: ('A' for Active; 'I' for Inactive)
ROOT
ATOM      1  C   UNL d   1      -3.680   2.307  -0.086  0.00  0.00     0.077 C 
ATOM      2  C1  UNL d   1      -2.232   2.296   0.303  0.00  0.00    -0.074 A 
ATOM      3  C2  UNL d   1      -1.490   3.481   0.342  0.00  0.00    -0.005 A 
ATOM      4  C3  UNL d   1      -0.146   3.457   0.715  0.00  0.00     0.006 A 
ATOM      5  C4  UNL d   1       0.469   2.250   1.051  0.00  0.00    -0.005 A 
ATOM      6  C5  UNL d   1      -0.258   1.055   1.018  0.00  0.00    -0.074 A 
ATOM      7  C6  UNL d   1       0.384  -0.249   1.386  0.00  0.00     0.077 C 
ATOM      8  C7  UNL d   1      -1.610   1.089   0.649  0.00  0.00    -0.001 A 
ENDROOT
TORSDOF 0
ENDMDL
