MODEL 1
REMARK minimizedAffinity 2.88612628
REMARK minimizedRMSD -1
REMARK  0 active torsions:
REMARK  status: ('A' for Active; 'I' for Inactive)
ROOT
ATOM      1  C   UNL d   1      -0.710   3.324   0.370  0.00  0.00     0.077 C 
ATOM      2  C1  UNL d   1       0.639   2.685   0.520  0.00  0.00    -0.074 A 
ATOM      3  C2  UNL d   1       1.768   3.453   0.825  0.00  0.00    -0.005 A 
ATOM      4  C3  UNL d   1       3.014   2.843   0.972  0.00  0.00     0.006 A 
ATOM      5  C4  UNL d   1       3.143   1.463   0.815  0.00  0.00    -0.005 A 
ATOM      6  C5  UNL d   1       2.026   0.679   0.511  0.00  0.00    -0.074 A 
ATOM      7  C6  UNL d   1       2.146  -0.807   0.348  0.00  0.00     0.077 C 
ATOM      8  C7  UNL d   1       0.776   1.298   0.372  0.00  0.00    -0.001 A 
ENDROOT
TORSDOF 0
ENDMDL
