MODEL 1
REMARK minimizedAffinity 9.72441959
REMARK minimizedRMSD -1
REMARK  0 active torsions:
REMARK  status: ('A' for Active; 'I' for Inactive)
ROOT
ATOM      1  C   UNL d   1      -0.255   3.379   0.733  0.00  0.00     0.077 C 
ATOM      2  C1  UNL d   1       1.000   2.559   0.697  0.00  0.00    -0.074 A 
ATOM      3  C2  UNL d   1       2.241   3.131   0.992  0.00  0.00    -0.005 A 
ATOM      4  C3  UNL d   1       3.399   2.353   0.964  0.00  0.00     0.006 A 
ATOM      5  C4  UNL d   1       3.326   0.997   0.641  0.00  0.00    -0.005 A 
ATOM      6  C5  UNL d   1       2.094   0.407   0.344  0.00  0.00    -0.074 A 
ATOM      7  C6  UNL d   1       1.997  -1.050   0.004  0.00  0.00     0.077 C 
ATOM      8  C7  UNL d   1       0.934   1.194   0.381  0.00  0.00    -0.001 A 
ENDROOT
TORSDOF 0
ENDMDL
