MODEL 1
REMARK minimizedAffinity -0.609587193
REMARK minimizedRMSD -1
REMARK  0 active torsions:
REMARK  status: ('A' for Active; 'I' for Inactive)
ROOT
ATOM      1  C   UNL d   1       3.028   0.318   0.503  0.00  0.00     0.077 C 
ATOM      2  C1  UNL d   1       2.125   1.478   0.205  0.00  0.00    -0.074 A 
ATOM      3  C2  UNL d   1       2.515   2.483  -0.686  0.00  0.00    -0.005 A 
ATOM      4  C3  UNL d   1       1.661   3.551  -0.961  0.00  0.00     0.006 A 
ATOM      5  C4  UNL d   1       0.409   3.625  -0.348  0.00  0.00    -0.005 A 
ATOM      6  C5  UNL d   1       0.001   2.629   0.546  0.00  0.00    -0.074 A 
ATOM      7  C6  UNL d   1      -1.344   2.688   1.206  0.00  0.00     0.077 C 
ATOM      8  C7  UNL d   1       0.863   1.556   0.811  0.00  0.00    -0.001 A 
ENDROOT
TORSDOF 0
ENDMDL
