MODEL 1
REMARK minimizedAffinity 6.42783785
REMARK minimizedRMSD -1
REMARK  0 active torsions:
REMARK  status: ('A' for Active; 'I' for Inactive)
ROOT
ATOM      1  C   UNL d   1       0.639   2.731   0.440  0.00  0.00     0.077 C 
ATOM      2  C1  UNL d   1       1.140   1.485  -0.228  0.00  0.00    -0.074 A 
ATOM      3  C2  UNL d   1       1.610   0.404   0.525  0.00  0.00    -0.005 A 
ATOM      4  C3  UNL d   1       2.064  -0.751  -0.110  0.00  0.00     0.006 A 
ATOM      5  C4  UNL d   1       2.053  -0.838  -1.503  0.00  0.00    -0.005 A 
ATOM      6  C5  UNL d   1       1.585   0.232  -2.273  0.00  0.00    -0.074 A 
ATOM      7  C6  UNL d   1       1.557   0.151  -3.770  0.00  0.00     0.077 C 
ATOM      8  C7  UNL d   1       1.124   1.387  -1.627  0.00  0.00    -0.001 A 
ENDROOT
TORSDOF 0
ENDMDL
