MODEL 1
REMARK minimizedAffinity 7.25378418
REMARK minimizedRMSD -1
REMARK  0 active torsions:
REMARK  status: ('A' for Active; 'I' for Inactive)
ROOT
ATOM      1  C   UNL d   1       1.902   0.293  -3.893  0.00  0.00     0.077 C 
ATOM      2  C1  UNL d   1       1.862  -0.200  -2.477  0.00  0.00    -0.074 A 
ATOM      3  C2  UNL d   1       1.529  -1.527  -2.187  0.00  0.00    -0.005 A 
ATOM      4  C3  UNL d   1       1.506  -1.974  -0.866  0.00  0.00     0.006 A 
ATOM      5  C4  UNL d   1       1.815  -1.100   0.177  0.00  0.00    -0.005 A 
ATOM      6  C5  UNL d   1       2.150   0.231  -0.094  0.00  0.00    -0.074 A 
ATOM      7  C6  UNL d   1       2.494   1.181   1.015  0.00  0.00     0.077 C 
ATOM      8  C7  UNL d   1       2.179   0.670  -1.424  0.00  0.00    -0.001 A 
ENDROOT
TORSDOF 0
ENDMDL
