MODEL 1
REMARK minimizedAffinity 4.76923037
REMARK minimizedRMSD -1
REMARK  0 active torsions:
REMARK  status: ('A' for Active; 'I' for Inactive)
ROOT
ATOM      1  C   UNL d   1       4.339   1.150   0.389  0.00  0.00     0.077 C 
ATOM      2  C1  UNL d   1       2.897   0.763   0.532  0.00  0.00    -0.074 A 
ATOM      3  C2  UNL d   1       2.510  -0.581   0.524  0.00  0.00    -0.005 A 
ATOM      4  C3  UNL d   1       1.166  -0.927   0.668  0.00  0.00     0.006 A 
ATOM      5  C4  UNL d   1       0.198   0.066   0.821  0.00  0.00    -0.005 A 
ATOM      6  C5  UNL d   1       0.566   1.415   0.832  0.00  0.00    -0.074 A 
ATOM      7  C6  UNL d   1      -0.461   2.494   1.005  0.00  0.00     0.077 C 
ATOM      8  C7  UNL d   1       1.919   1.754   0.694  0.00  0.00    -0.001 A 
ENDROOT
TORSDOF 0
ENDMDL
