MODEL 1
REMARK minimizedAffinity 5.22704172
REMARK minimizedRMSD -1
REMARK  0 active torsions:
REMARK  status: ('A' for Active; 'I' for Inactive)
ROOT
ATOM      1  C   UNL d   1       1.528   0.366   0.437  0.00  0.00     0.077 C 
ATOM      2  C1  UNL d   1       0.411   1.367   0.494  0.00  0.00    -0.074 A 
ATOM      3  C2  UNL d   1       0.678   2.739   0.546  0.00  0.00    -0.005 A 
ATOM      4  C3  UNL d   1      -0.371   3.657   0.588  0.00  0.00     0.006 A 
ATOM      5  C4  UNL d   1      -1.694   3.214   0.580  0.00  0.00    -0.005 A 
ATOM      6  C5  UNL d   1      -1.980   1.846   0.527  0.00  0.00    -0.074 A 
ATOM      7  C6  UNL d   1      -3.396   1.354   0.507  0.00  0.00     0.077 C 
ATOM      8  C7  UNL d   1      -0.921   0.930   0.478  0.00  0.00    -0.001 A 
ENDROOT
TORSDOF 0
ENDMDL
