MODEL 1
REMARK minimizedAffinity 1.92540312
REMARK minimizedRMSD -1
REMARK  0 active torsions:
REMARK  status: ('A' for Active; 'I' for Inactive)
ROOT
ATOM      1  C   UNL d   1       3.527   2.723   0.316  0.00  0.00     0.077 C 
ATOM      2  C1  UNL d   1       2.050   2.981   0.267  0.00  0.00    -0.074 A 
ATOM      3  C2  UNL d   1       1.524   4.000  -0.534  0.00  0.00    -0.005 A 
ATOM      4  C3  UNL d   1       0.148   4.222  -0.576  0.00  0.00     0.006 A 
ATOM      5  C4  UNL d   1      -0.715   3.429   0.180  0.00  0.00    -0.005 A 
ATOM      6  C5  UNL d   1      -0.208   2.404   0.986  0.00  0.00    -0.074 A 
ATOM      7  C6  UNL d   1      -1.123   1.536   1.798  0.00  0.00     0.077 C 
ATOM      8  C7  UNL d   1       1.176   2.183   1.018  0.00  0.00    -0.001 A 
ENDROOT
TORSDOF 0
ENDMDL
