MODEL 1
REMARK minimizedAffinity 8.40751076
REMARK minimizedRMSD -1
REMARK  0 active torsions:
REMARK  status: ('A' for Active; 'I' for Inactive)
ROOT
ATOM      1  C   UNL d   1      -1.190   2.404   1.128  0.00  0.00     0.077 C 
ATOM      2  C1  UNL d   1       0.163   2.782   0.601  0.00  0.00    -0.074 A 
ATOM      3  C2  UNL d   1       0.307   3.799  -0.348  0.00  0.00    -0.005 A 
ATOM      4  C3  UNL d   1       1.572   4.146  -0.821  0.00  0.00     0.006 A 
ATOM      5  C4  UNL d   1       2.705   3.481  -0.351  0.00  0.00    -0.005 A 
ATOM      6  C5  UNL d   1       2.581   2.461   0.599  0.00  0.00    -0.074 A 
ATOM      7  C6  UNL d   1       3.789   1.742   1.122  0.00  0.00     0.077 C 
ATOM      8  C7  UNL d   1       1.307   2.123   1.074  0.00  0.00    -0.001 A 
ENDROOT
TORSDOF 0
ENDMDL
