MODEL 1
REMARK minimizedAffinity 13.3640566
REMARK minimizedRMSD -1
REMARK  0 active torsions:
REMARK  status: ('A' for Active; 'I' for Inactive)
ROOT
ATOM      1  C   UNL d   1       2.968   0.745   0.168  0.00  0.00     0.077 C 
ATOM      2  C1  UNL d   1       1.823   1.583   0.656  0.00  0.00    -0.074 A 
ATOM      3  C2  UNL d   1       1.815   2.968   0.467  0.00  0.00    -0.005 A 
ATOM      4  C3  UNL d   1       0.739   3.733   0.918  0.00  0.00     0.006 A 
ATOM      5  C4  UNL d   1      -0.338   3.121   1.560  0.00  0.00    -0.005 A 
ATOM      6  C5  UNL d   1      -0.348   1.737   1.756  0.00  0.00    -0.074 A 
ATOM      7  C6  UNL d   1      -1.502   1.062   2.436  0.00  0.00     0.077 C 
ATOM      8  C7  UNL d   1       0.734   0.974   1.295  0.00  0.00    -0.001 A 
ENDROOT
TORSDOF 0
ENDMDL
