MODEL 1
REMARK minimizedAffinity 7.16000938
REMARK minimizedRMSD -1
REMARK  0 active torsions:
REMARK  status: ('A' for Active; 'I' for Inactive)
ROOT
ATOM      1  C   UNL d   1      -1.768   1.952   1.584  0.00  0.00     0.077 C 
ATOM      2  C1  UNL d   1      -0.403   1.421   1.259  0.00  0.00    -0.074 A 
ATOM      3  C2  UNL d   1      -0.172   0.046   1.156  0.00  0.00    -0.005 A 
ATOM      4  C3  UNL d   1       1.100  -0.433   0.844  0.00  0.00     0.006 A 
ATOM      5  C4  UNL d   1       2.153   0.458   0.631  0.00  0.00    -0.005 A 
ATOM      6  C5  UNL d   1       1.941   1.837   0.728  0.00  0.00    -0.074 A 
ATOM      7  C6  UNL d   1       3.059   2.809   0.493  0.00  0.00     0.077 C 
ATOM      8  C7  UNL d   1       0.658   2.310   1.036  0.00  0.00    -0.001 A 
ENDROOT
TORSDOF 0
ENDMDL
