MODEL 1
REMARK minimizedAffinity 6.63977432
REMARK minimizedRMSD -1
REMARK  0 active torsions:
REMARK  status: ('A' for Active; 'I' for Inactive)
ROOT
ATOM      1  C4' PXY d   1       4.176  -3.039   5.845  0.00  0.00     0.077 C 
ATOM      2  C1' PXY d   1       5.472  -3.724   0.253  0.00  0.00     0.077 C 
ATOM      3  C1  PXY d   1       5.143  -3.537   1.721  0.00  0.00    -0.082 A 
ATOM      4  C2  PXY d   1       4.430  -4.454   2.354  0.00  0.00     0.003 A 
ATOM      5  C3  PXY d   1       4.095  -4.285   3.673  0.00  0.00     0.003 A 
ATOM      6  C4  PXY d   1       4.541  -3.191   4.366  0.00  0.00    -0.082 A 
ATOM      7  C5  PXY d   1       5.278  -2.256   3.730  0.00  0.00     0.003 A 
ATOM      8  C6  PXY d   1       5.572  -2.426   2.380  0.00  0.00     0.003 A 
ENDROOT
TORSDOF 0
ENDMDL
