MODEL 1
REMARK minimizedAffinity 1.40255404
REMARK minimizedRMSD -1
REMARK  0 active torsions:
REMARK  status: ('A' for Active; 'I' for Inactive)
ROOT
ATOM      1  C4' PXY d   1      -1.498  -2.083  -5.463  0.00  0.00     0.077 C 
ATOM      2  C1' PXY d   1      -6.000   1.488  -4.834  0.00  0.00     0.077 C 
ATOM      3  C1  PXY d   1      -4.817   0.557  -5.010  0.00  0.00    -0.082 A 
ATOM      4  C2  PXY d   1      -4.793  -0.600  -4.368  0.00  0.00     0.003 A 
ATOM      5  C3  PXY d   1      -3.716  -1.439  -4.491  0.00  0.00     0.003 A 
ATOM      6  C4  PXY d   1      -2.676  -1.116  -5.322  0.00  0.00    -0.082 A 
ATOM      7  C5  PXY d   1      -2.698   0.058  -5.989  0.00  0.00     0.003 A 
ATOM      8  C6  PXY d   1      -3.782   0.915  -5.818  0.00  0.00     0.003 A 
ENDROOT
TORSDOF 0
ENDMDL
