MODEL 1
REMARK minimizedAffinity -4.66670418
REMARK minimizedRMSD -1
REMARK  0 active torsions:
REMARK  status: ('A' for Active; 'I' for Inactive)
ROOT
ATOM      1  C4' PXY d   1      -1.125   2.130  -4.875  0.00  0.00     0.077 C 
ATOM      2  C1' PXY d   1      -5.139  -1.875  -3.750  0.00  0.00     0.077 C 
ATOM      3  C1  PXY d   1      -4.090  -0.824  -4.057  0.00  0.00    -0.082 A 
ATOM      4  C2  PXY d   1      -3.000  -0.750  -3.311  0.00  0.00     0.003 A 
ATOM      5  C3  PXY d   1      -2.057   0.215  -3.555  0.00  0.00     0.003 A 
ATOM      6  C4  PXY d   1      -2.205   1.078  -4.607  0.00  0.00    -0.082 A 
ATOM      7  C5  PXY d   1      -3.310   1.002  -5.380  0.00  0.00     0.003 A 
ATOM      8  C6  PXY d   1      -4.275   0.042  -5.090  0.00  0.00     0.003 A 
ENDROOT
TORSDOF 0
ENDMDL
