MODEL 1
REMARK minimizedAffinity 14.4305286
REMARK minimizedRMSD -1
REMARK  0 active torsions:
REMARK  status: ('A' for Active; 'I' for Inactive)
ROOT
ATOM      1  C4' PXY d   1      -2.626  -1.600  -5.518  0.00  0.00     0.077 C 
ATOM      2  C1' PXY d   1      -5.998   3.092  -5.681  0.00  0.00     0.077 C 
ATOM      3  C1  PXY d   1      -5.106   1.867  -5.647  0.00  0.00    -0.082 A 
ATOM      4  C2  PXY d   1      -5.607   0.703  -5.264  0.00  0.00     0.003 A 
ATOM      5  C3  PXY d   1      -4.806  -0.408  -5.197  0.00  0.00     0.003 A 
ATOM      6  C4  PXY d   1      -3.492  -0.339  -5.576  0.00  0.00    -0.082 A 
ATOM      7  C5  PXY d   1      -2.977   0.842  -5.978  0.00  0.00     0.003 A 
ATOM      8  C6  PXY d   1      -3.796   1.967  -6.000  0.00  0.00     0.003 A 
ENDROOT
TORSDOF 0
ENDMDL
