MODEL 1
REMARK minimizedAffinity 4.17952585
REMARK minimizedRMSD -1
REMARK  0 active torsions:
REMARK  status: ('A' for Active; 'I' for Inactive)
ROOT
ATOM      1  C4' PXY d   1      -6.000   3.630  -5.454  0.00  0.00     0.077 C 
ATOM      2  C1' PXY d   1      -2.623  -1.042  -5.028  0.00  0.00     0.077 C 
ATOM      3  C1  PXY d   1      -3.515   0.178  -5.150  0.00  0.00    -0.082 A 
ATOM      4  C2  PXY d   1      -3.096   1.343  -4.684  0.00  0.00     0.003 A 
ATOM      5  C3  PXY d   1      -3.903   2.449  -4.757  0.00  0.00     0.003 A 
ATOM      6  C4  PXY d   1      -5.129   2.374  -5.361  0.00  0.00    -0.082 A 
ATOM      7  C5  PXY d   1      -5.559   1.191  -5.849  0.00  0.00     0.003 A 
ATOM      8  C6  PXY d   1      -4.742   0.071  -5.728  0.00  0.00     0.003 A 
ENDROOT
TORSDOF 0
ENDMDL
