MODEL 1
REMARK minimizedAffinity 0.405694157
REMARK minimizedRMSD -1
REMARK  0 active torsions:
REMARK  status: ('A' for Active; 'I' for Inactive)
ROOT
ATOM      1  C4' PXY d   1       4.098  -5.027  -0.937  0.00  0.00     0.077 C 
ATOM      2  C1' PXY d   1       4.821  -3.878   4.682  0.00  0.00     0.077 C 
ATOM      3  C1  PXY d   1       4.619  -4.176   3.209  0.00  0.00    -0.082 A 
ATOM      4  C2  PXY d   1       5.439  -5.011   2.592  0.00  0.00     0.003 A 
ATOM      5  C3  PXY d   1       5.290  -5.267   1.254  0.00  0.00     0.003 A 
ATOM      6  C4  PXY d   1       4.259  -4.704   0.551  0.00  0.00    -0.082 A 
ATOM      7  C5  PXY d   1       3.412  -3.859   1.176  0.00  0.00     0.003 A 
ATOM      8  C6  PXY d   1       3.605  -3.580   2.526  0.00  0.00     0.003 A 
ENDROOT
TORSDOF 0
ENDMDL
