MODEL 1
REMARK minimizedAffinity 6.7454567
REMARK minimizedRMSD -1
REMARK  0 active torsions:
REMARK  status: ('A' for Active; 'I' for Inactive)
ROOT
ATOM      1  C4' PXY d   1      -5.113   3.266  -5.034  0.00  0.00     0.077 C 
ATOM      2  C1' PXY d   1      -2.526  -1.902  -5.174  0.00  0.00     0.077 C 
ATOM      3  C1  PXY d   1      -3.216  -0.552  -5.139  0.00  0.00    -0.082 A 
ATOM      4  C2  PXY d   1      -2.540   0.537  -5.467  0.00  0.00     0.003 A 
ATOM      5  C3  PXY d   1      -3.139   1.769  -5.410  0.00  0.00     0.003 A 
ATOM      6  C4  PXY d   1      -4.460   1.882  -5.065  0.00  0.00    -0.082 A 
ATOM      7  C5  PXY d   1      -5.159   0.774  -4.739  0.00  0.00     0.003 A 
ATOM      8  C6  PXY d   1      -4.521  -0.463  -4.764  0.00  0.00     0.003 A 
ENDROOT
TORSDOF 0
ENDMDL
