MODEL 1
REMARK minimizedAffinity 4.15417099
REMARK minimizedRMSD -1
REMARK  0 active torsions:
REMARK  status: ('A' for Active; 'I' for Inactive)
ROOT
ATOM      1  C4' PXY d   1      -3.062   3.093  -4.110  0.00  0.00     0.077 C 
ATOM      2  C1' PXY d   1      -4.898  -2.283  -3.039  0.00  0.00     0.077 C 
ATOM      3  C1  PXY d   1      -4.415  -0.876  -3.333  0.00  0.00    -0.082 A 
ATOM      4  C2  PXY d   1      -3.905  -0.143  -2.357  0.00  0.00     0.003 A 
ATOM      5  C3  PXY d   1      -3.493   1.142  -2.597  0.00  0.00     0.003 A 
ATOM      6  C4  PXY d   1      -3.554   1.664  -3.862  0.00  0.00    -0.082 A 
ATOM      7  C5  PXY d   1      -4.063   0.919  -4.865  0.00  0.00     0.003 A 
ATOM      8  C6  PXY d   1      -4.515  -0.369  -4.591  0.00  0.00     0.003 A 
ENDROOT
TORSDOF 0
ENDMDL
