MODEL 1
REMARK minimizedAffinity 1.96054578
REMARK minimizedRMSD -1
REMARK  0 active torsions:
REMARK  status: ('A' for Active; 'I' for Inactive)
ROOT
ATOM      1  C4' PXY d   1      -5.998   2.839  -5.921  0.00  0.00     0.077 C 
ATOM      2  C1' PXY d   1      -4.018  -2.127  -3.722  0.00  0.00     0.077 C 
ATOM      3  C1  PXY d   1      -4.526  -0.823  -4.305  0.00  0.00    -0.082 A 
ATOM      4  C2  PXY d   1      -5.489  -0.160  -3.685  0.00  0.00     0.003 A 
ATOM      5  C3  PXY d   1      -5.982   1.004  -4.215  0.00  0.00     0.003 A 
ATOM      6  C4  PXY d   1      -5.448   1.523  -5.364  0.00  0.00    -0.082 A 
ATOM      7  C5  PXY d   1      -4.459   0.858  -5.997  0.00  0.00     0.003 A 
ATOM      8  C6  PXY d   1      -4.000  -0.343  -5.465  0.00  0.00     0.003 A 
ENDROOT
TORSDOF 0
ENDMDL
