MODEL 1
REMARK minimizedAffinity 3.2423327
REMARK minimizedRMSD -1
REMARK  0 active torsions:
REMARK  status: ('A' for Active; 'I' for Inactive)
ROOT
ATOM      1  C4' PXY d   1      -4.194   0.729  -6.000  0.00  0.00     0.077 C 
ATOM      2  C1' PXY d   1      -2.565  -0.685  -0.637  0.00  0.00     0.077 C 
ATOM      3  C1  PXY d   1      -2.999  -0.304  -2.039  0.00  0.00    -0.082 A 
ATOM      4  C2  PXY d   1      -3.065  -1.233  -2.978  0.00  0.00     0.003 A 
ATOM      5  C3  PXY d   1      -3.424  -0.900  -4.259  0.00  0.00     0.003 A 
ATOM      6  C4  PXY d   1      -3.771   0.388  -4.568  0.00  0.00    -0.082 A 
ATOM      7  C5  PXY d   1      -3.716   1.340  -3.613  0.00  0.00     0.003 A 
ATOM      8  C6  PXY d   1      -3.309   0.989  -2.329  0.00  0.00     0.003 A 
ENDROOT
TORSDOF 0
ENDMDL
