MODEL 1
REMARK minimizedAffinity -1.34063256
REMARK minimizedRMSD -1
REMARK  0 active torsions:
REMARK  status: ('A' for Active; 'I' for Inactive)
ROOT
ATOM      1  C4' PXY d   1      -5.999   0.745  -2.815  0.00  0.00     0.077 C 
ATOM      2  C1' PXY d   1      -1.828  -1.975  -5.752  0.00  0.00     0.077 C 
ATOM      3  C1  PXY d   1      -2.922  -1.252  -4.991  0.00  0.00    -0.082 A 
ATOM      4  C2  PXY d   1      -3.085  -1.487  -3.699  0.00  0.00     0.003 A 
ATOM      5  C3  PXY d   1      -4.090  -0.866  -3.002  0.00  0.00     0.003 A 
ATOM      6  C4  PXY d   1      -4.902   0.045  -3.622  0.00  0.00    -0.082 A 
ATOM      7  C5  PXY d   1      -4.735   0.299  -4.937  0.00  0.00     0.003 A 
ATOM      8  C6  PXY d   1      -3.736  -0.373  -5.636  0.00  0.00     0.003 A 
ENDROOT
TORSDOF 0
ENDMDL
