MODEL 1
REMARK minimizedAffinity 2.43281269
REMARK minimizedRMSD -1
REMARK  0 active torsions:
REMARK  status: ('A' for Active; 'I' for Inactive)
ROOT
ATOM      1  C4' PXY d   1      -2.199   1.845  -5.962  0.00  0.00     0.077 C 
ATOM      2  C1' PXY d   1      -5.622  -2.157  -3.578  0.00  0.00     0.077 C 
ATOM      3  C1  PXY d   1      -4.734  -1.104  -4.212  0.00  0.00    -0.082 A 
ATOM      4  C2  PXY d   1      -3.420  -1.192  -4.081  0.00  0.00     0.003 A 
ATOM      5  C3  PXY d   1      -2.604  -0.232  -4.620  0.00  0.00     0.003 A 
ATOM      6  C4  PXY d   1      -3.134   0.801  -5.347  0.00  0.00    -0.082 A 
ATOM      7  C5  PXY d   1      -4.473   0.891  -5.494  0.00  0.00     0.003 A 
ATOM      8  C6  PXY d   1      -5.287  -0.072  -4.904  0.00  0.00     0.003 A 
ENDROOT
TORSDOF 0
ENDMDL
