MODEL 1
REMARK minimizedAffinity -4.60517168
REMARK minimizedRMSD -1
REMARK  0 active torsions:
REMARK  status: ('A' for Active; 'I' for Inactive)
ROOT
ATOM      1  O1  BZF d   1      -0.743   1.145   0.598  0.00  0.00    -0.204 OA
ATOM      2  C2  BZF d   1       0.102   0.127   0.998  0.00  0.00     0.174 A 
ATOM      3  C3  BZF d   1       0.467  -0.632  -0.055  0.00  0.00    -0.012 A 
ATOM      4  C3A BZF d   1      -0.116   0.002  -1.197  0.00  0.00    -0.107 A 
ATOM      5  C4  BZF d   1      -0.098  -0.272  -2.535  0.00  0.00     0.055 A 
ATOM      6  C5  BZF d   1      -0.831   0.503  -3.378  0.00  0.00    -0.016 A 
ATOM      7  C6  BZF d   1      -1.596   1.555  -2.917  0.00  0.00     0.022 A 
ATOM      8  C7  BZF d   1      -1.641   1.868  -1.599  0.00  0.00     0.029 A 
ATOM      9  C7A BZF d   1      -0.876   1.108  -0.749  0.00  0.00     0.058 A 
ENDROOT
TORSDOF 0
ENDMDL
