MODEL 1
REMARK minimizedAffinity -5.00460386
REMARK minimizedRMSD -1
REMARK  0 active torsions:
REMARK  status: ('A' for Active; 'I' for Inactive)
ROOT
ATOM      1  O1  BZF d   1       0.174  -0.847  -1.755  0.00  0.00    -0.204 OA
ATOM      2  C2  BZF d   1       0.846  -0.785  -0.550  0.00  0.00     0.174 A 
ATOM      3  C3  BZF d   1       0.409   0.256   0.189  0.00  0.00    -0.012 A 
ATOM      4  C3A BZF d   1      -0.664   0.828  -0.566  0.00  0.00    -0.107 A 
ATOM      5  C4  BZF d   1      -1.507   1.880  -0.349  0.00  0.00     0.055 A 
ATOM      6  C5  BZF d   1      -2.398   2.223  -1.316  0.00  0.00    -0.016 A 
ATOM      7  C6  BZF d   1      -2.468   1.540  -2.513  0.00  0.00     0.022 A 
ATOM      8  C7  BZF d   1      -1.655   0.487  -2.772  0.00  0.00     0.029 A 
ATOM      9  C7A BZF d   1      -0.776   0.118  -1.783  0.00  0.00     0.058 A 
ENDROOT
TORSDOF 0
ENDMDL
