MODEL 1
REMARK minimizedAffinity -6.43025589
REMARK minimizedRMSD -1
REMARK  0 active torsions:
REMARK  status: ('A' for Active; 'I' for Inactive)
ROOT
ATOM      1  O1  BZF d   1      -0.709   0.203   1.199  0.00  0.00    -0.204 OA
ATOM      2  C2  BZF d   1      -0.223   0.619  -0.026  0.00  0.00     0.174 A 
ATOM      3  C3  BZF d   1       0.591  -0.315  -0.560  0.00  0.00    -0.012 A 
ATOM      4  C3A BZF d   1       0.543  -1.420   0.349  0.00  0.00    -0.107 A 
ATOM      5  C4  BZF d   1       1.129  -2.653   0.359  0.00  0.00     0.055 A 
ATOM      6  C5  BZF d   1       0.934  -3.468   1.429  0.00  0.00    -0.016 A 
ATOM      7  C6  BZF d   1       0.164  -3.081   2.506  0.00  0.00     0.022 A 
ATOM      8  C7  BZF d   1      -0.442  -1.869   2.538  0.00  0.00     0.029 A 
ATOM      9  C7A BZF d   1      -0.274  -1.056   1.444  0.00  0.00     0.058 A 
ENDROOT
TORSDOF 0
ENDMDL
