MODEL 1
REMARK minimizedAffinity 0.705853105
REMARK minimizedRMSD -1
REMARK  0 active torsions:
REMARK  status: ('A' for Active; 'I' for Inactive)
ROOT
ATOM      1  O1  BZF d   1       0.419  -0.115   0.898  0.00  0.00    -0.204 OA
ATOM      2  C2  BZF d   1       0.895  -1.079   0.031  0.00  0.00     0.174 A 
ATOM      3  C3  BZF d   1       0.276  -0.996  -1.164  0.00  0.00    -0.012 A 
ATOM      4  C3A BZF d   1      -0.579   0.147  -1.066  0.00  0.00    -0.107 A 
ATOM      5  C4  BZF d   1      -1.440   0.753  -1.935  0.00  0.00     0.055 A 
ATOM      6  C5  BZF d   1      -2.180   1.809  -1.505  0.00  0.00    -0.016 A 
ATOM      7  C6  BZF d   1      -2.089   2.280  -0.211  0.00  0.00     0.022 A 
ATOM      8  C7  BZF d   1      -1.245   1.715   0.686  0.00  0.00     0.029 A 
ATOM      9  C7A BZF d   1      -0.472   0.669   0.244  0.00  0.00     0.058 A 
ENDROOT
TORSDOF 0
ENDMDL
