MODEL 1
REMARK minimizedAffinity -4.89356232
REMARK minimizedRMSD -1
REMARK  0 active torsions:
REMARK  status: ('A' for Active; 'I' for Inactive)
ROOT
ATOM      1  O1  BZF d   1       0.261   0.509  -1.617  0.00  0.00    -0.204 OA
ATOM      2  C2  BZF d   1      -0.727   1.151  -0.894  0.00  0.00     0.174 A 
ATOM      3  C3  BZF d   1      -0.965   0.507   0.267  0.00  0.00    -0.012 A 
ATOM      4  C3A BZF d   1      -0.006  -0.554   0.312  0.00  0.00    -0.107 A 
ATOM      5  C4  BZF d   1       0.270  -1.532   1.225  0.00  0.00     0.055 A 
ATOM      6  C5  BZF d   1       1.222  -2.457   0.935  0.00  0.00    -0.016 A 
ATOM      7  C6  BZF d   1       1.912  -2.438  -0.260  0.00  0.00     0.022 A 
ATOM      8  C7  BZF d   1       1.677  -1.485  -1.194  0.00  0.00     0.029 A 
ATOM      9  C7A BZF d   1       0.739  -0.529  -0.889  0.00  0.00     0.058 A 
ENDROOT
TORSDOF 0
ENDMDL
