MODEL 1
REMARK minimizedAffinity -1.49056602
REMARK minimizedRMSD -1
REMARK  0 active torsions:
REMARK  status: ('A' for Active; 'I' for Inactive)
ROOT
ATOM      1  O1  BZF d   1       0.555  -1.245   2.132  0.00  0.00    -0.204 OA
ATOM      2  C2  BZF d   1       1.727  -1.964   1.998  0.00  0.00     0.174 A 
ATOM      3  C3  BZF d   1       2.259  -1.786   0.771  0.00  0.00    -0.012 A 
ATOM      4  C3A BZF d   1       1.413  -0.828   0.129  0.00  0.00    -0.107 A 
ATOM      5  C4  BZF d   1       1.432  -0.233  -1.100  0.00  0.00     0.055 A 
ATOM      6  C5  BZF d   1       0.418   0.604  -1.444  0.00  0.00    -0.016 A 
ATOM      7  C6  BZF d   1      -0.631   0.865  -0.587  0.00  0.00     0.022 A 
ATOM      8  C7  BZF d   1      -0.691   0.303   0.644  0.00  0.00     0.029 A 
ATOM      9  C7A BZF d   1       0.349  -0.518   1.008  0.00  0.00     0.058 A 
ENDROOT
TORSDOF 0
ENDMDL
