MODEL 1
REMARK minimizedAffinity -5.41296005
REMARK minimizedRMSD -1
REMARK  0 active torsions:
REMARK  status: ('A' for Active; 'I' for Inactive)
ROOT
ATOM      1  O1  BZF d   1      -0.690   0.670   0.759  0.00  0.00    -0.204 OA
ATOM      2  C2  BZF d   1      -0.369   0.708  -0.584  0.00  0.00     0.174 A 
ATOM      3  C3  BZF d   1       0.167  -0.464  -0.981  0.00  0.00    -0.012 A 
ATOM      4  C3A BZF d   1       0.096  -1.317   0.165  0.00  0.00    -0.107 A 
ATOM      5  C4  BZF d   1       0.457  -2.614   0.394  0.00  0.00     0.055 A 
ATOM      6  C5  BZF d   1       0.322  -3.127   1.645  0.00  0.00    -0.016 A 
ATOM      7  C6  BZF d   1      -0.166  -2.371   2.691  0.00  0.00     0.022 A 
ATOM      8  C7  BZF d   1      -0.542  -1.081   2.511  0.00  0.00     0.029 A 
ATOM      9  C7A BZF d   1      -0.437  -0.570   1.241  0.00  0.00     0.058 A 
ENDROOT
TORSDOF 0
ENDMDL
