MODEL 1
REMARK minimizedAffinity -4.06134129
REMARK minimizedRMSD -1
REMARK  0 active torsions:
REMARK  status: ('A' for Active; 'I' for Inactive)
ROOT
ATOM      1  O1  BZF d   1      -0.941   1.264   0.900  0.00  0.00    -0.204 OA
ATOM      2  C2  BZF d   1      -1.698   0.666   1.889  0.00  0.00     0.174 A 
ATOM      3  C3  BZF d   1      -1.247  -0.578   2.150  0.00  0.00    -0.012 A 
ATOM      4  C3A BZF d   1      -0.082  -0.735   1.334  0.00  0.00    -0.107 A 
ATOM      5  C4  BZF d   1       0.815  -1.751   1.163  0.00  0.00     0.055 A 
ATOM      6  C5  BZF d   1       1.798  -1.614   0.235  0.00  0.00    -0.016 A 
ATOM      7  C6  BZF d   1       1.912  -0.480  -0.541  0.00  0.00     0.022 A 
ATOM      8  C7  BZF d   1       1.049   0.557  -0.404  0.00  0.00     0.029 A 
ATOM      9  C7A BZF d   1       0.074   0.435   0.556  0.00  0.00     0.058 A 
ENDROOT
TORSDOF 0
ENDMDL
