MODEL 1
REMARK minimizedAffinity -1.9328258
REMARK minimizedRMSD -1
REMARK  0 active torsions:
REMARK  status: ('A' for Active; 'I' for Inactive)
ROOT
ATOM      1  O1  BZF d   1      -0.978  -0.928  -0.401  0.00  0.00    -0.204 OA
ATOM      2  C2  BZF d   1      -0.999   0.365  -0.887  0.00  0.00     0.174 A 
ATOM      3  C3  BZF d   1       0.229   0.920  -0.824  0.00  0.00    -0.012 A 
ATOM      4  C3A BZF d   1       1.088  -0.121  -0.349  0.00  0.00    -0.107 A 
ATOM      5  C4  BZF d   1       2.428  -0.189  -0.093  0.00  0.00     0.055 A 
ATOM      6  C5  BZF d   1       2.943  -1.331   0.432  0.00  0.00    -0.016 A 
ATOM      7  C6  BZF d   1       2.148  -2.422   0.718  0.00  0.00     0.022 A 
ATOM      8  C7  BZF d   1       0.814  -2.404   0.477  0.00  0.00     0.029 A 
ATOM      9  C7A BZF d   1       0.296  -1.262  -0.085  0.00  0.00     0.058 A 
ENDROOT
TORSDOF 0
ENDMDL
