MODEL 1
REMARK minimizedAffinity -4.28269958
REMARK minimizedRMSD -1
REMARK  0 active torsions:
REMARK  status: ('A' for Active; 'I' for Inactive)
ROOT
ATOM      1  O1  BZF d   1      -1.643  -0.126  -0.220  0.00  0.00    -0.204 OA
ATOM      2  C2  BZF d   1      -1.595   1.085  -0.884  0.00  0.00     0.174 A 
ATOM      3  C3  BZF d   1      -0.318   1.444  -1.130  0.00  0.00    -0.012 A 
ATOM      4  C3A BZF d   1       0.477   0.348  -0.669  0.00  0.00    -0.107 A 
ATOM      5  C4  BZF d   1       1.821   0.104  -0.654  0.00  0.00     0.055 A 
ATOM      6  C5  BZF d   1       2.279  -1.032  -0.065  0.00  0.00    -0.016 A 
ATOM      7  C6  BZF d   1       1.424  -1.941   0.522  0.00  0.00     0.022 A 
ATOM      8  C7  BZF d   1       0.083  -1.745   0.528  0.00  0.00     0.029 A 
ATOM      9  C7A BZF d   1      -0.386  -0.614  -0.095  0.00  0.00     0.058 A 
ENDROOT
TORSDOF 0
ENDMDL
