MODEL 1
REMARK minimizedAffinity -1.25963604
REMARK minimizedRMSD -1
REMARK  0 active torsions:
REMARK  status: ('A' for Active; 'I' for Inactive)
ROOT
ATOM      1  O1  BZF d   1      -1.166   2.260  -2.164  0.00  0.00    -0.204 OA
ATOM      2  C2  BZF d   1      -2.302   1.709  -2.726  0.00  0.00     0.174 A 
ATOM      3  C3  BZF d   1      -2.447   0.423  -2.347  0.00  0.00    -0.012 A 
ATOM      4  C3A BZF d   1      -1.383   0.180  -1.422  0.00  0.00    -0.107 A 
ATOM      5  C4  BZF d   1      -1.005  -0.909  -0.690  0.00  0.00     0.055 A 
ATOM      6  C5  BZF d   1       0.125  -0.840   0.062  0.00  0.00    -0.016 A 
ATOM      7  C6  BZF d   1       0.902   0.299   0.101  0.00  0.00     0.022 A 
ATOM      8  C7  BZF d   1       0.565   1.407  -0.604  0.00  0.00     0.029 A 
ATOM      9  C7A BZF d   1      -0.594   1.351  -1.339  0.00  0.00     0.058 A 
ENDROOT
TORSDOF 0
ENDMDL
