MODEL 1
REMARK minimizedAffinity 0.677669704
REMARK minimizedRMSD -1
REMARK  0 active torsions:
REMARK  status: ('A' for Active; 'I' for Inactive)
ROOT
ATOM      1  O1  BZF d   1       2.200   0.011   0.546  0.00  0.00    -0.204 OA
ATOM      2  C2  BZF d   1       1.879  -1.305   0.816  0.00  0.00     0.174 A 
ATOM      3  C3  BZF d   1       0.563  -1.526   0.623  0.00  0.00    -0.012 A 
ATOM      4  C3A BZF d   1       0.045  -0.292   0.117  0.00  0.00    -0.107 A 
ATOM      5  C4  BZF d   1      -1.198   0.112  -0.280  0.00  0.00     0.055 A 
ATOM      6  C5  BZF d   1      -1.384   1.405  -0.653  0.00  0.00    -0.016 A 
ATOM      7  C6  BZF d   1      -0.353   2.322  -0.636  0.00  0.00     0.022 A 
ATOM      8  C7  BZF d   1       0.898   1.967  -0.255  0.00  0.00     0.029 A 
ATOM      9  C7A BZF d   1       1.097   0.653   0.091  0.00  0.00     0.058 A 
ENDROOT
TORSDOF 0
ENDMDL
