MODEL 1
REMARK minimizedAffinity -2.90973473
REMARK minimizedRMSD -1
REMARK  0 active torsions:
REMARK  status: ('A' for Active; 'I' for Inactive)
ROOT
ATOM      1  O1  BZF d   1      -0.997  -0.157   1.484  0.00  0.00    -0.204 OA
ATOM      2  C2  BZF d   1      -1.303   1.046   0.877  0.00  0.00     0.174 A 
ATOM      3  C3  BZF d   1      -0.341   1.399   0.001  0.00  0.00    -0.012 A 
ATOM      4  C3A BZF d   1       0.583   0.306  -0.004  0.00  0.00    -0.107 A 
ATOM      5  C4  BZF d   1       1.740   0.058  -0.685  0.00  0.00     0.055 A 
ATOM      6  C5  BZF d   1       2.441  -1.072  -0.406  0.00  0.00    -0.016 A 
ATOM      7  C6  BZF d   1       2.018  -1.972   0.550  0.00  0.00     0.022 A 
ATOM      8  C7  BZF d   1       0.873  -1.772   1.248  0.00  0.00     0.029 A 
ATOM      9  C7A BZF d   1       0.145  -0.647   0.945  0.00  0.00     0.058 A 
ENDROOT
TORSDOF 0
ENDMDL
