MODEL 1
REMARK minimizedAffinity -2.0104804
REMARK minimizedRMSD -1
REMARK  0 active torsions:
REMARK  status: ('A' for Active; 'I' for Inactive)
ROOT
ATOM      1  O1  BZF d   1       1.933   0.301   0.883  0.00  0.00    -0.204 OA
ATOM      2  C2  BZF d   1       2.333  -0.992   0.606  0.00  0.00     0.174 A 
ATOM      3  C3  BZF d   1       1.442  -1.607  -0.198  0.00  0.00    -0.012 A 
ATOM      4  C3A BZF d   1       0.468  -0.607  -0.515  0.00  0.00    -0.107 A 
ATOM      5  C4  BZF d   1      -0.657  -0.604  -1.288  0.00  0.00     0.055 A 
ATOM      6  C5  BZF d   1      -1.427   0.515  -1.329  0.00  0.00    -0.016 A 
ATOM      7  C6  BZF d   1      -1.105   1.645  -0.607  0.00  0.00     0.022 A 
ATOM      8  C7  BZF d   1       0.005   1.692   0.170  0.00  0.00     0.029 A 
ATOM      9  C7A BZF d   1       0.803   0.574   0.188  0.00  0.00     0.058 A 
ENDROOT
TORSDOF 0
ENDMDL
