MODEL 1
REMARK minimizedAffinity -2.66932797
REMARK minimizedRMSD -1
REMARK  0 active torsions:
REMARK  status: ('A' for Active; 'I' for Inactive)
ROOT
ATOM      1  O1  BZF d   1      -1.950   2.559  -1.736  0.00  0.00    -0.204 OA
ATOM      2  C2  BZF d   1      -2.373   2.124  -2.977  0.00  0.00     0.174 A 
ATOM      3  C3  BZF d   1      -1.950   0.865  -3.212  0.00  0.00    -0.012 A 
ATOM      4  C3A BZF d   1      -1.296   0.456  -2.007  0.00  0.00    -0.107 A 
ATOM      5  C4  BZF d   1      -0.681  -0.699  -1.618  0.00  0.00     0.055 A 
ATOM      6  C5  BZF d   1      -0.079  -0.749  -0.401  0.00  0.00    -0.016 A 
ATOM      7  C6  BZF d   1      -0.067   0.338   0.449  0.00  0.00     0.022 A 
ATOM      8  C7  BZF d   1      -0.668   1.504   0.109  0.00  0.00     0.029 A 
ATOM      9  C7A BZF d   1      -1.306   1.547  -1.107  0.00  0.00     0.058 A 
ENDROOT
TORSDOF 0
ENDMDL
