MODEL 1
REMARK minimizedAffinity 2.72826171
REMARK minimizedRMSD -1
REMARK  0 active torsions:
REMARK  status: ('A' for Active; 'I' for Inactive)
ROOT
ATOM      1  C   UNL d   1      -0.374   3.923  -0.460  0.00  0.00     0.172 C 
ATOM      2  N   UNL d   1      -0.612   3.239   0.790  0.00  0.00    -0.070 N 
ATOM      3  C1  UNL d   1      -1.840   2.991   1.343  0.00  0.00    -0.004 A 
ATOM      4  C2  UNL d   1      -1.640   2.320   2.530  0.00  0.00    -0.047 A 
ATOM      5  C3  UNL d   1      -0.244   2.160   2.696  0.00  0.00    -0.047 A 
ATOM      6  C4  UNL d   1       0.369   2.738   1.605  0.00  0.00    -0.004 A 
ENDROOT
TORSDOF 0
ENDMDL
