MODEL 1
REMARK minimizedAffinity 6.23223734
REMARK minimizedRMSD -1
REMARK  0 active torsions:
REMARK  status: ('A' for Active; 'I' for Inactive)
ROOT
ATOM      1  C   UNL d   1      -2.880  -0.737  -1.562  0.00  0.00     0.172 C 
ATOM      2  N   UNL d   1      -1.749  -1.122  -2.373  0.00  0.00    -0.070 N 
ATOM      3  C1  UNL d   1      -1.804  -1.529  -3.679  0.00  0.00    -0.004 A 
ATOM      4  C2  UNL d   1      -0.518  -1.805  -4.090  0.00  0.00    -0.047 A 
ATOM      5  C3  UNL d   1       0.340  -1.555  -2.992  0.00  0.00    -0.047 A 
ATOM      6  C4  UNL d   1      -0.448  -1.133  -1.943  0.00  0.00    -0.004 A 
ENDROOT
TORSDOF 0
ENDMDL
