MODEL 1
REMARK minimizedAffinity 4.36238432
REMARK minimizedRMSD -1
REMARK  0 active torsions:
REMARK  status: ('A' for Active; 'I' for Inactive)
ROOT
ATOM      1  C   UNL d   1      -3.153  -0.962  -1.604  0.00  0.00     0.172 C 
ATOM      2  N   UNL d   1      -1.855  -1.163  -2.205  0.00  0.00    -0.070 N 
ATOM      3  C1  UNL d   1      -1.626  -1.598  -3.483  0.00  0.00    -0.004 A 
ATOM      4  C2  UNL d   1      -0.262  -1.657  -3.671  0.00  0.00    -0.047 A 
ATOM      5  C3  UNL d   1       0.350  -1.243  -2.464  0.00  0.00    -0.047 A 
ATOM      6  C4  UNL d   1      -0.660  -0.943  -1.574  0.00  0.00    -0.004 A 
ENDROOT
TORSDOF 0
ENDMDL
