MODEL 1
REMARK minimizedAffinity 4.75505972
REMARK minimizedRMSD -1
REMARK  0 active torsions:
REMARK  status: ('A' for Active; 'I' for Inactive)
ROOT
ATOM      1  C   UNL d   1      -5.833  -2.888   5.999  0.00  0.00     0.172 C 
ATOM      2  N   UNL d   1      -5.880  -1.602   5.345  0.00  0.00    -0.070 N 
ATOM      3  C1  UNL d   1      -5.828  -1.391   3.992  0.00  0.00    -0.004 A 
ATOM      4  C2  UNL d   1      -5.901  -0.032   3.774  0.00  0.00    -0.047 A 
ATOM      5  C3  UNL d   1      -6.000   0.595   5.038  0.00  0.00    -0.047 A 
ATOM      6  C4  UNL d   1      -5.985  -0.399   5.993  0.00  0.00    -0.004 A 
ENDROOT
TORSDOF 0
ENDMDL
