MODEL 1
REMARK minimizedAffinity 0.579368234
REMARK minimizedRMSD -1
REMARK  0 active torsions:
REMARK  status: ('A' for Active; 'I' for Inactive)
ROOT
ATOM      1  C   UNL d   1      -2.911  -0.868  -1.295  0.00  0.00     0.172 C 
ATOM      2  N   UNL d   1      -3.860  -0.214  -0.425  0.00  0.00    -0.070 N 
ATOM      3  C1  UNL d   1      -3.843  -0.247   0.944  0.00  0.00    -0.004 A 
ATOM      4  C2  UNL d   1      -4.911   0.497   1.398  0.00  0.00    -0.047 A 
ATOM      5  C3  UNL d   1      -5.594   0.993   0.262  0.00  0.00    -0.047 A 
ATOM      6  C4  UNL d   1      -4.922   0.538  -0.853  0.00  0.00    -0.004 A 
ENDROOT
TORSDOF 0
ENDMDL
