MODEL 1
REMARK minimizedAffinity 7.25630188
REMARK minimizedRMSD -1
REMARK  0 active torsions:
REMARK  status: ('A' for Active; 'I' for Inactive)
ROOT
ATOM      1  C   UNL d   1      -0.394   2.866  -0.395  0.00  0.00     0.172 C 
ATOM      2  N   UNL d   1      -0.573   2.198   0.872  0.00  0.00    -0.070 N 
ATOM      3  C1  UNL d   1       0.424   1.890   1.760  0.00  0.00    -0.004 A 
ATOM      4  C2  UNL d   1      -0.154   1.261   2.841  0.00  0.00    -0.047 A 
ATOM      5  C3  UNL d   1      -1.545   1.187   2.595  0.00  0.00    -0.047 A 
ATOM      6  C4  UNL d   1      -1.777   1.775   1.369  0.00  0.00    -0.004 A 
ENDROOT
TORSDOF 0
ENDMDL
