MODEL 1
REMARK minimizedAffinity 4.32602406
REMARK minimizedRMSD -1
REMARK  0 active torsions:
REMARK  status: ('A' for Active; 'I' for Inactive)
ROOT
ATOM      1  C   UNL d   1       2.844  -1.895  -0.025  0.00  0.00     0.172 C 
ATOM      2  N   UNL d   1       4.072  -2.190  -0.725  0.00  0.00    -0.070 N 
ATOM      3  C1  UNL d   1       4.589  -3.440  -0.937  0.00  0.00    -0.004 A 
ATOM      4  C2  UNL d   1       5.766  -3.297  -1.639  0.00  0.00    -0.047 A 
ATOM      5  C3  UNL d   1       5.963  -1.912  -1.857  0.00  0.00    -0.047 A 
ATOM      6  C4  UNL d   1       4.899  -1.250  -1.280  0.00  0.00    -0.004 A 
ENDROOT
TORSDOF 0
ENDMDL
