MODEL 1
REMARK minimizedAffinity -6.04067612
REMARK minimizedRMSD -1
REMARK  2 active torsions:
REMARK  status: ('A' for Active; 'I' for Inactive)
REMARK    1  A    between atoms: C2'_3  and  C1'_4 
REMARK    2  A    between atoms: C1'_4  and  C1_5 
ROOT
ATOM      1  C1  I4B d   1      -0.933   0.151   0.410  0.00  0.00    -0.075 A 
ATOM      2  C2  I4B d   1      -1.678   0.021   1.555  0.00  0.00     0.003 A 
ATOM      3  C3  I4B d   1      -1.790   1.106   2.459  0.00  0.00     0.002 A 
ATOM      4  C4  I4B d   1      -1.105   2.276   2.204  0.00  0.00    -0.004 A 
ATOM      5  C5  I4B d   1      -0.369   2.413   1.031  0.00  0.00     0.002 A 
ATOM      6  C6  I4B d   1      -0.292   1.349   0.121  0.00  0.00     0.003 A 
ENDROOT
BRANCH   1   7
ATOM      7  C1' I4B d   1      -0.809  -1.026  -0.506  0.00  0.00     0.060 C 
BRANCH   7   8
ATOM      8  C2' I4B d   1       0.424  -1.807  -0.098  0.00  0.00    -0.013 C 
ATOM      9  C4' I4B d   1       0.065  -3.203   0.338  0.00  0.00     0.013 C 
ATOM     10  C3' I4B d   1       1.365  -1.829  -1.266  0.00  0.00     0.013 C 
ENDBRANCH   7   8
ENDBRANCH   1   7
TORSDOF 2
ENDMDL
