MODEL 1
REMARK minimizedAffinity -4.5551753
REMARK minimizedRMSD -1
REMARK  2 active torsions:
REMARK  status: ('A' for Active; 'I' for Inactive)
REMARK    1  A    between atoms: C2'_3  and  C1'_4 
REMARK    2  A    between atoms: C1'_4  and  C1_5 
ROOT
ATOM      1  C1  I4B d   1      -1.641   1.093   1.364  0.00  0.00    -0.075 A 
ATOM      2  C2  I4B d   1      -2.011  -0.065   2.001  0.00  0.00     0.003 A 
ATOM      3  C3  I4B d   1      -2.282  -0.059   3.391  0.00  0.00     0.002 A 
ATOM      4  C4  I4B d   1      -2.123   1.109   4.109  0.00  0.00    -0.004 A 
ATOM      5  C5  I4B d   1      -1.770   2.287   3.457  0.00  0.00     0.002 A 
ATOM      6  C6  I4B d   1      -1.539   2.282   2.074  0.00  0.00     0.003 A 
ENDROOT
BRANCH   1   7
ATOM      7  C1' I4B d   1      -1.329   1.043  -0.098  0.00  0.00     0.060 C 
BRANCH   7   8
ATOM      8  C2' I4B d   1       0.178   1.041  -0.255  0.00  0.00    -0.013 C 
ATOM      9  C4' I4B d   1       0.719  -0.364  -0.299  0.00  0.00     0.013 C 
ATOM     10  C3' I4B d   1       0.514   1.790  -1.510  0.00  0.00     0.013 C 
ENDBRANCH   7   8
ENDBRANCH   1   7
TORSDOF 2
ENDMDL
