MODEL 1
REMARK minimizedAffinity -4.99854755
REMARK minimizedRMSD -1
REMARK  2 active torsions:
REMARK  status: ('A' for Active; 'I' for Inactive)
REMARK    1  A    between atoms: C2'_3  and  C1'_4 
REMARK    2  A    between atoms: C1'_4  and  C1_5 
ROOT
ATOM      1  C1  I4B d   1      -0.427   0.519   0.283  0.00  0.00    -0.075 A 
ATOM      2  C2  I4B d   1       0.283  -0.649   0.163  0.00  0.00     0.003 A 
ATOM      3  C3  I4B d   1       1.364  -0.736  -0.747  0.00  0.00     0.002 A 
ATOM      4  C4  I4B d   1       1.667   0.346  -1.548  0.00  0.00    -0.004 A 
ATOM      5  C5  I4B d   1       0.961   1.538  -1.408  0.00  0.00     0.002 A 
ATOM      6  C6  I4B d   1      -0.085   1.629  -0.478  0.00  0.00     0.003 A 
ENDROOT
BRANCH   1   7
ATOM      7  C1' I4B d   1      -1.584   0.566   1.230  0.00  0.00     0.060 C 
BRANCH   7   8
ATOM      8  C2' I4B d   1      -1.059   0.984   2.588  0.00  0.00    -0.013 C 
ATOM      9  C4' I4B d   1      -0.543   2.398   2.562  0.00  0.00     0.013 C 
ATOM     10  C3' I4B d   1      -2.172   0.832   3.582  0.00  0.00     0.013 C 
ENDBRANCH   7   8
ENDBRANCH   1   7
TORSDOF 2
ENDMDL
