MODEL 1
REMARK minimizedAffinity -4.35369301
REMARK minimizedRMSD -1
REMARK  2 active torsions:
REMARK  status: ('A' for Active; 'I' for Inactive)
REMARK    1  A    between atoms: C2'_3  and  C1'_4 
REMARK    2  A    between atoms: C1'_4  and  C1_5 
ROOT
ATOM      1  C1  I4B d   1      -0.306   0.265  -0.129  0.00  0.00    -0.075 A 
ATOM      2  C2  I4B d   1      -0.003  -0.900   0.532  0.00  0.00     0.003 A 
ATOM      3  C3  I4B d   1       0.953  -1.796  -0.005  0.00  0.00     0.002 A 
ATOM      4  C4  I4B d   1       1.539  -1.515  -1.222  0.00  0.00    -0.004 A 
ATOM      5  C5  I4B d   1       1.247  -0.323  -1.880  0.00  0.00     0.002 A 
ATOM      6  C6  I4B d   1       0.328   0.578  -1.324  0.00  0.00     0.003 A 
ENDROOT
BRANCH   1   7
ATOM      7  C1' I4B d   1      -1.344   1.173   0.450  0.00  0.00     0.060 C 
BRANCH   7   8
ATOM      8  C2' I4B d   1      -1.548   0.783   1.900  0.00  0.00    -0.013 C 
ATOM      9  C4' I4B d   1      -1.599   1.998   2.789  0.00  0.00     0.013 C 
ATOM     10  C3' I4B d   1      -2.819  -0.009   1.993  0.00  0.00     0.013 C 
ENDBRANCH   7   8
ENDBRANCH   1   7
TORSDOF 2
ENDMDL
