MODEL 1
REMARK minimizedAffinity -5.39815235
REMARK minimizedRMSD -1
REMARK  2 active torsions:
REMARK  status: ('A' for Active; 'I' for Inactive)
REMARK    1  A    between atoms: C2'_3  and  C1'_4 
REMARK    2  A    between atoms: C1'_4  and  C1_5 
ROOT
ATOM      1  C1  I4B d   1      -0.935   0.665   0.074  0.00  0.00    -0.075 A 
ATOM      2  C2  I4B d   1      -0.283  -0.542   0.042  0.00  0.00     0.003 A 
ATOM      3  C3  I4B d   1       0.748  -0.769  -0.902  0.00  0.00     0.002 A 
ATOM      4  C4  I4B d   1       1.058   0.213  -1.821  0.00  0.00    -0.004 A 
ATOM      5  C5  I4B d   1       0.411   1.444  -1.771  0.00  0.00     0.002 A 
ATOM      6  C6  I4B d   1      -0.584   1.676  -0.810  0.00  0.00     0.003 A 
ENDROOT
BRANCH   1   7
ATOM      7  C1' I4B d   1      -2.042   0.859   1.062  0.00  0.00     0.060 C 
BRANCH   7   8
ATOM      8  C2' I4B d   1      -1.444   1.453   2.321  0.00  0.00    -0.013 C 
ATOM      9  C4' I4B d   1      -2.226   2.655   2.781  0.00  0.00     0.013 C 
ATOM     10  C3' I4B d   1      -1.425   0.385   3.373  0.00  0.00     0.013 C 
ENDBRANCH   7   8
ENDBRANCH   1   7
TORSDOF 2
ENDMDL
