MODEL 1
REMARK minimizedAffinity -3.8627367
REMARK minimizedRMSD -1
REMARK  2 active torsions:
REMARK  status: ('A' for Active; 'I' for Inactive)
REMARK    1  A    between atoms: C2'_3  and  C1'_4 
REMARK    2  A    between atoms: C1'_4  and  C1_5 
ROOT
ATOM      1  C1  I4B d   1      -0.760   1.142   1.336  0.00  0.00    -0.075 A 
ATOM      2  C2  I4B d   1      -1.491   0.278   2.113  0.00  0.00     0.003 A 
ATOM      3  C3  I4B d   1      -1.837   0.631   3.440  0.00  0.00     0.002 A 
ATOM      4  C4  I4B d   1      -1.391   1.828   3.963  0.00  0.00    -0.004 A 
ATOM      5  C5  I4B d   1      -0.670   2.713   3.167  0.00  0.00     0.002 A 
ATOM      6  C6  I4B d   1      -0.363   2.374   1.841  0.00  0.00     0.003 A 
ENDROOT
BRANCH   1   7
ATOM      7  C1' I4B d   1      -0.385   0.724  -0.050  0.00  0.00     0.060 C 
BRANCH   7   8
ATOM      8  C2' I4B d   1       0.410  -0.562   0.051  0.00  0.00    -0.013 C 
ATOM      9  C4' I4B d   1      -0.283  -1.689  -0.669  0.00  0.00     0.013 C 
ATOM     10  C3' I4B d   1       1.773  -0.310  -0.522  0.00  0.00     0.013 C 
ENDBRANCH   7   8
ENDBRANCH   1   7
TORSDOF 2
ENDMDL
