MODEL 1
REMARK minimizedAffinity 0.0608879179
REMARK minimizedRMSD -1
REMARK  2 active torsions:
REMARK  status: ('A' for Active; 'I' for Inactive)
REMARK    1  A    between atoms: C2'_3  and  C1'_4 
REMARK    2  A    between atoms: C1'_4  and  C1_5 
ROOT
ATOM      1  C1  I4B d   1       0.094  -0.190  -0.411  0.00  0.00    -0.075 A 
ATOM      2  C2  I4B d   1      -0.636  -1.331  -0.192  0.00  0.00     0.003 A 
ATOM      3  C3  I4B d   1      -0.105  -2.596  -0.543  0.00  0.00     0.002 A 
ATOM      4  C4  I4B d   1       1.131  -2.668  -1.153  0.00  0.00    -0.004 A 
ATOM      5  C5  I4B d   1       1.879  -1.512  -1.353  0.00  0.00     0.002 A 
ATOM      6  C6  I4B d   1       1.363  -0.266  -0.969  0.00  0.00     0.003 A 
ENDROOT
BRANCH   1   7
ATOM      7  C1' I4B d   1      -0.512   1.132  -0.058  0.00  0.00     0.060 C 
BRANCH   7   8
ATOM      8  C2' I4B d   1       0.484   2.214  -0.424  0.00  0.00    -0.013 C 
ATOM      9  C4' I4B d   1      -0.082   3.147  -1.461  0.00  0.00     0.013 C 
ATOM     10  C3' I4B d   1       0.846   2.953   0.830  0.00  0.00     0.013 C 
ENDBRANCH   7   8
ENDBRANCH   1   7
TORSDOF 2
ENDMDL
