MODEL 1
REMARK minimizedAffinity -1.43817568
REMARK minimizedRMSD -1
REMARK  2 active torsions:
REMARK  status: ('A' for Active; 'I' for Inactive)
REMARK    1  A    between atoms: C2'_3  and  C1'_4 
REMARK    2  A    between atoms: C1'_4  and  C1_5 
ROOT
ATOM      1  C1  I4B d   1      -0.582   0.137   0.987  0.00  0.00    -0.075 A 
ATOM      2  C2  I4B d   1      -1.359  -0.213   2.063  0.00  0.00     0.003 A 
ATOM      3  C3  I4B d   1      -1.574   0.708   3.117  0.00  0.00     0.002 A 
ATOM      4  C4  I4B d   1      -0.957   1.942   3.078  0.00  0.00    -0.004 A 
ATOM      5  C5  I4B d   1      -0.189   2.304   1.975  0.00  0.00     0.002 A 
ATOM      6  C6  I4B d   1      -0.010   1.401   0.917  0.00  0.00     0.003 A 
ENDROOT
BRANCH   1   7
ATOM      7  C1' I4B d   1      -0.349  -0.872  -0.092  0.00  0.00     0.060 C 
BRANCH   7   8
ATOM      8  C2' I4B d   1       1.004  -1.510   0.150  0.00  0.00    -0.013 C 
ATOM      9  C4' I4B d   1       0.860  -2.877   0.765  0.00  0.00     0.013 C 
ATOM     10  C3' I4B d   1       1.724  -1.580  -1.164  0.00  0.00     0.013 C 
ENDBRANCH   7   8
ENDBRANCH   1   7
TORSDOF 2
ENDMDL
