MODEL 1
REMARK minimizedAffinity -3.15539503
REMARK minimizedRMSD -1
REMARK  2 active torsions:
REMARK  status: ('A' for Active; 'I' for Inactive)
REMARK    1  A    between atoms: C2'_3  and  C1'_4 
REMARK    2  A    between atoms: C1'_4  and  C1_5 
ROOT
ATOM      1  C1  I4B d   1      -0.670   0.507   0.232  0.00  0.00    -0.075 A 
ATOM      2  C2  I4B d   1      -1.477   0.193   1.297  0.00  0.00     0.003 A 
ATOM      3  C3  I4B d   1      -1.843   1.191   2.233  0.00  0.00     0.002 A 
ATOM      4  C4  I4B d   1      -1.341   2.469   2.095  0.00  0.00    -0.004 A 
ATOM      5  C5  I4B d   1      -0.542   2.791   1.002  0.00  0.00     0.002 A 
ATOM      6  C6  I4B d   1      -0.214   1.807   0.057  0.00  0.00     0.003 A 
ENDROOT
BRANCH   1   7
ATOM      7  C1' I4B d   1      -0.277  -0.579  -0.719  0.00  0.00     0.060 C 
BRANCH   7   8
ATOM      8  C2' I4B d   1       1.117  -1.041  -0.349  0.00  0.00    -0.013 C 
ATOM      9  C4' I4B d   1       1.085  -2.390   0.321  0.00  0.00     0.013 C 
ATOM     10  C3' I4B d   1       1.940  -1.079  -1.602  0.00  0.00     0.013 C 
ENDBRANCH   7   8
ENDBRANCH   1   7
TORSDOF 2
ENDMDL
