MODEL 1
REMARK minimizedAffinity -1.82324779
REMARK minimizedRMSD -1
REMARK  1 active torsions:
REMARK  status: ('A' for Active; 'I' for Inactive)
REMARK    1  A    between atoms: C1_2  and  C2_3 
ROOT
ATOM      1  C2  UNL d   1      -1.436   0.169  -0.845  0.00  0.00    -0.081 A 
ATOM      2  C3  UNL d   1      -1.196  -0.663   0.256  0.00  0.00     0.006 A 
ATOM      3  C4  UNL d   1      -0.011  -0.546   0.986  0.00  0.00     0.002 A 
ATOM      4  C5  UNL d   1       0.949   0.408   0.633  0.00  0.00    -0.080 A 
ATOM      5  C6  UNL d   1       2.212   0.564   1.427  0.00  0.00     0.076 C 
ATOM      6  C7  UNL d   1       0.717   1.227  -0.477  0.00  0.00     0.002 A 
ATOM      7  C8  UNL d   1      -0.467   1.110  -1.208  0.00  0.00     0.006 A 
ENDROOT
BRANCH   1   8
ATOM      8  C1  UNL d   1      -2.742   0.089  -1.595  0.00  0.00     0.054 C 
ATOM      9  C   UNL d   1      -2.794  -1.144  -2.485  0.00  0.00     0.018 C 
ENDBRANCH   1   8
TORSDOF 1
ENDMDL
