MODEL 1
REMARK minimizedAffinity -4.75829363
REMARK minimizedRMSD -1
REMARK  1 active torsions:
REMARK  status: ('A' for Active; 'I' for Inactive)
REMARK    1  A    between atoms: C1_2  and  C2_3 
ROOT
ATOM      1  C2  UNL d   1       0.343   0.881  -0.163  0.00  0.00    -0.081 A 
ATOM      2  C3  UNL d   1       0.776   0.650  -1.475  0.00  0.00     0.006 A 
ATOM      3  C4  UNL d   1      -0.096   0.112  -2.424  0.00  0.00     0.002 A 
ATOM      4  C5  UNL d   1      -1.417  -0.196  -2.080  0.00  0.00    -0.080 A 
ATOM      5  C6  UNL d   1      -2.372  -0.746  -3.098  0.00  0.00     0.076 C 
ATOM      6  C7  UNL d   1      -1.844   0.018  -0.766  0.00  0.00     0.002 A 
ATOM      7  C8  UNL d   1      -0.973   0.555   0.184  0.00  0.00     0.006 A 
ENDROOT
BRANCH   1   8
ATOM      8  C1  UNL d   1       1.262   1.521   0.846  0.00  0.00     0.054 C 
ATOM      9  C   UNL d   1       2.437   0.613   1.179  0.00  0.00     0.018 C 
ENDBRANCH   1   8
TORSDOF 1
ENDMDL
