MODEL 1
REMARK minimizedAffinity -3.65134525
REMARK minimizedRMSD -1
REMARK  1 active torsions:
REMARK  status: ('A' for Active; 'I' for Inactive)
REMARK    1  A    between atoms: C1_2  and  C2_3 
ROOT
ATOM      1  C2  UNL d   1       1.055  -0.400   1.419  0.00  0.00    -0.081 A 
ATOM      2  C3  UNL d   1       1.111   0.725   0.586  0.00  0.00     0.006 A 
ATOM      3  C4  UNL d   1      -0.029   1.161  -0.092  0.00  0.00     0.002 A 
ATOM      4  C5  UNL d   1      -1.245   0.486   0.057  0.00  0.00    -0.080 A 
ATOM      5  C6  UNL d   1      -2.484   0.962  -0.642  0.00  0.00     0.076 C 
ATOM      6  C7  UNL d   1      -1.297  -0.648   0.875  0.00  0.00     0.002 A 
ATOM      7  C8  UNL d   1      -0.157  -1.085   1.553  0.00  0.00     0.006 A 
ENDROOT
BRANCH   1   8
ATOM      8  C1  UNL d   1       2.267  -0.834   2.203  0.00  0.00     0.054 C 
ATOM      9  C   UNL d   1       1.897  -1.840   3.283  0.00  0.00     0.018 C 
ENDBRANCH   1   8
TORSDOF 1
ENDMDL
