MODEL 1
REMARK minimizedAffinity -4.24166965
REMARK minimizedRMSD -1
REMARK  1 active torsions:
REMARK  status: ('A' for Active; 'I' for Inactive)
REMARK    1  A    between atoms: C1_2  and  C2_3 
ROOT
ATOM      1  C2  UNL d   1      -0.951   0.245  -0.884  0.00  0.00    -0.081 A 
ATOM      2  C3  UNL d   1      -0.677  -0.761   0.051  0.00  0.00     0.006 A 
ATOM      3  C4  UNL d   1       0.487  -0.713   0.823  0.00  0.00     0.002 A 
ATOM      4  C5  UNL d   1       1.391   0.345   0.678  0.00  0.00    -0.080 A 
ATOM      5  C6  UNL d   1       2.628   0.425   1.522  0.00  0.00     0.076 C 
ATOM      6  C7  UNL d   1       1.126   1.341  -0.268  0.00  0.00     0.002 A 
ATOM      7  C8  UNL d   1      -0.037   1.293  -1.040  0.00  0.00     0.006 A 
ENDROOT
BRANCH   1   8
ATOM      8  C1  UNL d   1      -2.236   0.230  -1.671  0.00  0.00     0.054 C 
ATOM      9  C   UNL d   1      -2.305  -0.978  -2.595  0.00  0.00     0.018 C 
ENDBRANCH   1   8
TORSDOF 1
ENDMDL
