MODEL 1
REMARK minimizedAffinity -3.15877032
REMARK minimizedRMSD -1
REMARK  1 active torsions:
REMARK  status: ('A' for Active; 'I' for Inactive)
REMARK    1  A    between atoms: C1_2  and  C2_3 
ROOT
ATOM      1  C2  UNL d   1      -1.368   0.407  -0.474  0.00  0.00    -0.081 A 
ATOM      2  C3  UNL d   1      -0.467   1.451  -0.718  0.00  0.00     0.006 A 
ATOM      3  C4  UNL d   1       0.785   1.465  -0.100  0.00  0.00     0.002 A 
ATOM      4  C5  UNL d   1       1.161   0.432   0.765  0.00  0.00    -0.080 A 
ATOM      5  C6  UNL d   1       2.514   0.420   1.412  0.00  0.00     0.076 C 
ATOM      6  C7  UNL d   1       0.255  -0.602   1.023  0.00  0.00     0.002 A 
ATOM      7  C8  UNL d   1      -0.998  -0.616   0.406  0.00  0.00     0.006 A 
ENDROOT
BRANCH   1   8
ATOM      8  C1  UNL d   1      -2.694   0.355  -1.189  0.00  0.00     0.054 C 
ATOM      9  C   UNL d   1      -2.548  -0.241  -2.582  0.00  0.00     0.018 C 
ENDBRANCH   1   8
TORSDOF 1
ENDMDL
