MODEL 1
REMARK minimizedAffinity 1.26489961
REMARK minimizedRMSD -1
REMARK  0 active torsions:
REMARK  status: ('A' for Active; 'I' for Inactive)
ROOT
ATOM      1  C   UNL d   1      -0.689  -1.075  -0.067  0.00  0.00     0.023 A 
ATOM      2  C1  UNL d   1       0.399  -1.945  -0.136  0.00  0.00     0.003 A 
ATOM      3  C2  UNL d   1       1.377  -1.923   0.861  0.00  0.00     0.048 A 
ATOM      4  C3  UNL d   1       1.260  -1.028   1.924  0.00  0.00     0.023 A 
ATOM      5  C4  UNL d   1       0.173  -0.156   1.998  0.00  0.00     0.048 A 
ATOM      6  C5  UNL d   1      -0.802  -0.182   0.998  0.00  0.00     0.003 A 
ATOM      7  I   UNL d   1       2.714  -0.994   3.409  0.00  0.00    -0.146 I 
ENDROOT
TORSDOF 0
ENDMDL
