MODEL 1
REMARK minimizedAffinity -2.67801189
REMARK minimizedRMSD -1
REMARK  0 active torsions:
REMARK  status: ('A' for Active; 'I' for Inactive)
ROOT
ATOM      1  C   UNL d   1       2.806  -2.672  -0.007  0.00  0.00     0.023 A 
ATOM      2  C1  UNL d   1       2.829  -1.346   0.425  0.00  0.00     0.003 A 
ATOM      3  C2  UNL d   1       1.637  -0.698   0.756  0.00  0.00     0.048 A 
ATOM      4  C3  UNL d   1       0.426  -1.383   0.655  0.00  0.00     0.023 A 
ATOM      5  C4  UNL d   1       0.399  -2.710   0.225  0.00  0.00     0.048 A 
ATOM      6  C5  UNL d   1       1.593  -3.353  -0.107  0.00  0.00     0.003 A 
ATOM      7  I   UNL d   1      -1.349  -0.420   1.148  0.00  0.00    -0.146 I 
ENDROOT
TORSDOF 0
ENDMDL
