MODEL 1
REMARK minimizedAffinity 4.15205097
REMARK minimizedRMSD -1
REMARK  0 active torsions:
REMARK  status: ('A' for Active; 'I' for Inactive)
ROOT
ATOM      1  C   UNL d   1      -1.378  -2.095   0.874  0.00  0.00     0.023 A 
ATOM      2  C1  UNL d   1      -0.521  -2.963   0.198  0.00  0.00     0.003 A 
ATOM      3  C2  UNL d   1       0.789  -2.570  -0.088  0.00  0.00     0.048 A 
ATOM      4  C3  UNL d   1       1.234  -1.309   0.306  0.00  0.00     0.023 A 
ATOM      5  C4  UNL d   1       0.380  -0.438   0.983  0.00  0.00     0.048 A 
ATOM      6  C5  UNL d   1      -0.929  -0.834   1.266  0.00  0.00     0.003 A 
ATOM      7  I   UNL d   1       3.182  -0.723  -0.119  0.00  0.00    -0.146 I 
ENDROOT
TORSDOF 0
ENDMDL
