MODEL 1
REMARK minimizedAffinity 10.2743006
REMARK minimizedRMSD -1
REMARK  0 active torsions:
REMARK  status: ('A' for Active; 'I' for Inactive)
ROOT
ATOM      1  C   UNL d   1       1.827   2.443  -3.070  0.00  0.00     0.023 A 
ATOM      2  C1  UNL d   1       1.895   1.125  -3.521  0.00  0.00     0.003 A 
ATOM      3  C2  UNL d   1       3.071   0.390  -3.361  0.00  0.00     0.048 A 
ATOM      4  C3  UNL d   1       4.176   0.979  -2.747  0.00  0.00     0.023 A 
ATOM      5  C4  UNL d   1       4.113   2.298  -2.293  0.00  0.00     0.048 A 
ATOM      6  C5  UNL d   1       2.934   3.029  -2.457  0.00  0.00     0.003 A 
ATOM      7  I   UNL d   1       5.928  -0.112  -2.507  0.00  0.00    -0.146 I 
ENDROOT
TORSDOF 0
ENDMDL
