MODEL 1
REMARK minimizedAffinity -1.86874878
REMARK minimizedRMSD -1
REMARK  0 active torsions:
REMARK  status: ('A' for Active; 'I' for Inactive)
ROOT
ATOM      1  C   UNL d   1       1.040  -2.011   0.009  0.00  0.00     0.023 A 
ATOM      2  C1  UNL d   1      -0.322  -2.299  -0.079  0.00  0.00     0.003 A 
ATOM      3  C2  UNL d   1      -1.261  -1.412   0.451  0.00  0.00     0.048 A 
ATOM      4  C3  UNL d   1      -0.831  -0.237   1.067  0.00  0.00     0.023 A 
ATOM      5  C4  UNL d   1       0.531   0.056   1.156  0.00  0.00     0.048 A 
ATOM      6  C5  UNL d   1       1.466  -0.835   0.626  0.00  0.00     0.003 A 
ATOM      7  I   UNL d   1      -2.226   1.086   1.856  0.00  0.00    -0.146 I 
ENDROOT
TORSDOF 0
ENDMDL
