MODEL 1
REMARK minimizedAffinity 1.92637861
REMARK minimizedRMSD -1
REMARK  0 active torsions:
REMARK  status: ('A' for Active; 'I' for Inactive)
ROOT
ATOM      1  C   UNL d   1      -1.379   0.406   1.957  0.00  0.00     0.023 A 
ATOM      2  C1  UNL d   1      -2.110  -0.176   0.920  0.00  0.00     0.003 A 
ATOM      3  C2  UNL d   1      -1.578  -1.252   0.208  0.00  0.00     0.048 A 
ATOM      4  C3  UNL d   1      -0.315  -1.744   0.538  0.00  0.00     0.023 A 
ATOM      5  C4  UNL d   1       0.419  -1.166   1.575  0.00  0.00     0.048 A 
ATOM      6  C5  UNL d   1      -0.116  -0.089   2.283  0.00  0.00     0.003 A 
ATOM      7  I   UNL d   1       0.478  -3.347  -0.521  0.00  0.00    -0.146 I 
ENDROOT
TORSDOF 0
ENDMDL
