MODEL 1
REMARK minimizedAffinity 3.30473781
REMARK minimizedRMSD -1
REMARK  0 active torsions:
REMARK  status: ('A' for Active; 'I' for Inactive)
ROOT
ATOM      1  C   UNL d   1       4.192  -2.408   0.018  0.00  0.00     0.023 A 
ATOM      2  C1  UNL d   1       3.444  -3.538  -0.312  0.00  0.00     0.003 A 
ATOM      3  C2  UNL d   1       2.050  -3.500  -0.239  0.00  0.00     0.048 A 
ATOM      4  C3  UNL d   1       1.410  -2.328   0.164  0.00  0.00     0.023 A 
ATOM      5  C4  UNL d   1       2.155  -1.194   0.493  0.00  0.00     0.048 A 
ATOM      6  C5  UNL d   1       3.548  -1.237   0.420  0.00  0.00     0.003 A 
ATOM      7  I   UNL d   1      -0.664  -2.269   0.273  0.00  0.00    -0.146 I 
ENDROOT
TORSDOF 0
ENDMDL
