MODEL 1
REMARK minimizedAffinity 5.79463959
REMARK minimizedRMSD -1
REMARK  0 active torsions:
REMARK  status: ('A' for Active; 'I' for Inactive)
ROOT
ATOM      1  C   UNL d   1      -0.509  -3.001  -0.009  0.00  0.00     0.023 A 
ATOM      2  C1  UNL d   1      -0.595  -1.888   0.829  0.00  0.00     0.003 A 
ATOM      3  C2  UNL d   1       0.564  -1.208   1.208  0.00  0.00     0.048 A 
ATOM      4  C3  UNL d   1       1.805  -1.644   0.746  0.00  0.00     0.023 A 
ATOM      5  C4  UNL d   1       1.895  -2.756  -0.093  0.00  0.00     0.048 A 
ATOM      6  C5  UNL d   1       0.734  -3.434  -0.469  0.00  0.00     0.003 A 
ATOM      7  I   UNL d   1       3.531  -0.632   1.309  0.00  0.00    -0.146 I 
ENDROOT
TORSDOF 0
ENDMDL
