MODEL 1
REMARK minimizedAffinity -0.735948861
REMARK minimizedRMSD -1
REMARK  0 active torsions:
REMARK  status: ('A' for Active; 'I' for Inactive)
ROOT
ATOM      1  C   UNL d   1      -0.362  -0.632   1.107  0.00  0.00     0.023 A 
ATOM      2  C1  UNL d   1      -0.649  -1.989   1.256  0.00  0.00     0.003 A 
ATOM      3  C2  UNL d   1       0.224  -2.949   0.741  0.00  0.00     0.048 A 
ATOM      4  C3  UNL d   1       1.384  -2.546   0.080  0.00  0.00     0.023 A 
ATOM      5  C4  UNL d   1       1.676  -1.190  -0.070  0.00  0.00     0.048 A 
ATOM      6  C5  UNL d   1       0.800  -0.233   0.445  0.00  0.00     0.003 A 
ATOM      7  I   UNL d   1       2.685  -3.974  -0.686  0.00  0.00    -0.146 I 
ENDROOT
TORSDOF 0
ENDMDL
