MODEL 1
REMARK minimizedAffinity -2.10270762
REMARK minimizedRMSD -1
REMARK  0 active torsions:
REMARK  status: ('A' for Active; 'I' for Inactive)
ROOT
ATOM      1  C   UNL d   1      -0.159  -0.295   0.658  0.00  0.00     0.023 A 
ATOM      2  C1  UNL d   1      -0.751  -1.501   0.282  0.00  0.00     0.003 A 
ATOM      3  C2  UNL d   1       0.046  -2.598  -0.049  0.00  0.00     0.048 A 
ATOM      4  C3  UNL d   1       1.435  -2.483  -0.002  0.00  0.00     0.023 A 
ATOM      5  C4  UNL d   1       2.032  -1.279   0.374  0.00  0.00     0.048 A 
ATOM      6  C5  UNL d   1       1.231  -0.184   0.704  0.00  0.00     0.003 A 
ATOM      7  I   UNL d   1       2.624  -4.116  -0.494  0.00  0.00    -0.146 I 
ENDROOT
TORSDOF 0
ENDMDL
