MODEL 1
REMARK minimizedAffinity 1.86768186
REMARK minimizedRMSD -1
REMARK  0 active torsions:
REMARK  status: ('A' for Active; 'I' for Inactive)
ROOT
ATOM      1  C   UNL d   1       3.065  -3.259  -0.748  0.00  0.00     0.023 A 
ATOM      2  C1  UNL d   1       3.186  -1.930  -0.339  0.00  0.00     0.003 A 
ATOM      3  C2  UNL d   1       2.067  -1.238   0.128  0.00  0.00     0.048 A 
ATOM      4  C3  UNL d   1       0.830  -1.879   0.185  0.00  0.00     0.023 A 
ATOM      5  C4  UNL d   1       0.704  -3.208  -0.223  0.00  0.00     0.048 A 
ATOM      6  C5  UNL d   1       1.826  -3.897  -0.690  0.00  0.00     0.003 A 
ATOM      7  I   UNL d   1      -0.836  -0.850   0.880  0.00  0.00    -0.146 I 
ENDROOT
TORSDOF 0
ENDMDL
