MODEL 1
REMARK minimizedAffinity 4.17510843
REMARK minimizedRMSD -1
REMARK  0 active torsions:
REMARK  status: ('A' for Active; 'I' for Inactive)
ROOT
ATOM      1  C   UNL d   1      -0.508  -1.075   0.958  0.00  0.00     0.023 A 
ATOM      2  C1  UNL d   1       0.345  -0.334   1.775  0.00  0.00     0.003 A 
ATOM      3  C2  UNL d   1       1.726  -0.392   1.580  0.00  0.00     0.048 A 
ATOM      4  C3  UNL d   1       2.248  -1.192   0.564  0.00  0.00     0.023 A 
ATOM      5  C4  UNL d   1       1.398  -1.935  -0.258  0.00  0.00     0.048 A 
ATOM      6  C5  UNL d   1       0.018  -1.875  -0.058  0.00  0.00     0.003 A 
ATOM      7  I   UNL d   1       4.303  -1.279   0.270  0.00  0.00    -0.146 I 
ENDROOT
TORSDOF 0
ENDMDL
