MODEL 1
REMARK minimizedAffinity 6.71187067
REMARK minimizedRMSD -1
REMARK  0 active torsions:
REMARK  status: ('A' for Active; 'I' for Inactive)
ROOT
ATOM      1  C   UNL d   1      -0.015  -0.192   1.883  0.00  0.00     0.023 A 
ATOM      2  C1  UNL d   1       1.325  -0.577   1.925  0.00  0.00     0.003 A 
ATOM      3  C2  UNL d   1       1.770  -1.646   1.145  0.00  0.00     0.048 A 
ATOM      4  C3  UNL d   1       0.870  -2.325   0.324  0.00  0.00     0.023 A 
ATOM      5  C4  UNL d   1      -0.471  -1.943   0.278  0.00  0.00     0.048 A 
ATOM      6  C5  UNL d   1      -0.912  -0.874   1.060  0.00  0.00     0.003 A 
ATOM      7  I   UNL d   1       1.531  -3.917  -0.838  0.00  0.00    -0.146 I 
ENDROOT
TORSDOF 0
ENDMDL
