MODEL 1
REMARK minimizedAffinity -3.72649837
REMARK minimizedRMSD -1
REMARK  0 active torsions:
REMARK  status: ('A' for Active; 'I' for Inactive)
ROOT
ATOM      1  C   UNL d   1      -1.980   1.402   2.183  0.00  0.00     0.023 A 
ATOM      2  C1  UNL d   1      -2.600   1.100   0.971  0.00  0.00     0.003 A 
ATOM      3  C2  UNL d   1      -2.387  -0.140   0.365  0.00  0.00     0.048 A 
ATOM      4  C3  UNL d   1      -1.552  -1.074   0.978  0.00  0.00     0.023 A 
ATOM      5  C4  UNL d   1      -0.930  -0.776   2.191  0.00  0.00     0.048 A 
ATOM      6  C5  UNL d   1      -1.145   0.465   2.792  0.00  0.00     0.003 A 
ATOM      7  I   UNL d   1      -1.233  -2.920   0.078  0.00  0.00    -0.146 I 
ENDROOT
TORSDOF 0
ENDMDL
