MODEL 1
REMARK minimizedAffinity 0.701230586
REMARK minimizedRMSD -1
REMARK  0 active torsions:
REMARK  status: ('A' for Active; 'I' for Inactive)
ROOT
ATOM      1  C   UNL d   1       2.278  -2.299  -0.010  0.00  0.00     0.023 A 
ATOM      2  C1  UNL d   1       2.410  -0.983   0.434  0.00  0.00     0.003 A 
ATOM      3  C2  UNL d   1       1.320  -0.325   1.006  0.00  0.00     0.048 A 
ATOM      4  C3  UNL d   1       0.100  -0.989   1.133  0.00  0.00     0.023 A 
ATOM      5  C4  UNL d   1      -0.037  -2.306   0.691  0.00  0.00     0.048 A 
ATOM      6  C5  UNL d   1       1.056  -2.959   0.118  0.00  0.00     0.003 A 
ATOM      7  I   UNL d   1      -1.524  -0.012   1.985  0.00  0.00    -0.146 I 
ENDROOT
TORSDOF 0
ENDMDL
