MODEL 1
REMARK minimizedAffinity 10.2779093
REMARK minimizedRMSD -1
REMARK  0 active torsions:
REMARK  status: ('A' for Active; 'I' for Inactive)
ROOT
ATOM      1  C   UNL d   1       1.550   2.278  -3.339  0.00  0.00     0.023 A 
ATOM      2  C1  UNL d   1       1.690   1.048  -3.982  0.00  0.00     0.003 A 
ATOM      3  C2  UNL d   1       2.906   0.364  -3.927  0.00  0.00     0.048 A 
ATOM      4  C3  UNL d   1       3.979   0.915  -3.228  0.00  0.00     0.023 A 
ATOM      5  C4  UNL d   1       3.844   2.146  -2.583  0.00  0.00     0.048 A 
ATOM      6  C5  UNL d   1       2.626   2.826  -2.641  0.00  0.00     0.003 A 
ATOM      7  I   UNL d   1       5.790  -0.101  -3.145  0.00  0.00    -0.146 I 
ENDROOT
TORSDOF 0
ENDMDL
