MODEL 1
REMARK minimizedAffinity -1.69191122
REMARK minimizedRMSD -1
REMARK  0 active torsions:
REMARK  status: ('A' for Active; 'I' for Inactive)
ROOT
ATOM      1  C   UNL d   1       1.549  -2.934  -0.258  0.00  0.00     0.023 A 
ATOM      2  C1  UNL d   1       1.883  -1.729   0.361  0.00  0.00     0.003 A 
ATOM      3  C2  UNL d   1       0.878  -0.872   0.811  0.00  0.00     0.048 A 
ATOM      4  C3  UNL d   1      -0.460  -1.225   0.640  0.00  0.00     0.023 A 
ATOM      5  C4  UNL d   1      -0.800  -2.430   0.022  0.00  0.00     0.048 A 
ATOM      6  C5  UNL d   1       0.209  -3.284  -0.427  0.00  0.00     0.003 A 
ATOM      7  I   UNL d   1      -1.959   0.050   1.310  0.00  0.00    -0.146 I 
ENDROOT
TORSDOF 0
ENDMDL
