MODEL 1
REMARK minimizedAffinity -1.15192497
REMARK minimizedRMSD -1
REMARK  1 active torsions:
REMARK  status: ('A' for Active; 'I' for Inactive)
REMARK    1  A    between atoms: C3_4  and  O_7 
ROOT
ATOM      1  C   UNL d   1       1.150  -0.762  -0.519  0.00  0.00    -0.033 A 
ATOM      2  C1  UNL d   1       0.137   0.193  -0.619  0.00  0.00     0.039 A 
ATOM      3  C2  UNL d   1      -0.031   1.143   0.391  0.00  0.00    -0.080 A 
ATOM      4  C3  UNL d   1       0.820   1.127   1.493  0.00  0.00     0.150 A 
ATOM      5  C4  UNL d   1       1.833   0.180   1.597  0.00  0.00    -0.007 A 
ATOM      6  C5  UNL d   1       1.999  -0.768   0.588  0.00  0.00     0.039 A 
ENDROOT
BRANCH   4   7
ATOM      7  O   UNL d   1       0.691   2.030   2.506  0.00  0.00    -0.526 OA
ATOM      8  H5  UNL d   1      -0.069   2.604   2.312  0.00  0.00     0.418 HD
ENDBRANCH   4   7
TORSDOF 1
ENDMDL
