MODEL 1
REMARK minimizedAffinity -5.34561491
REMARK minimizedRMSD -1
REMARK  1 active torsions:
REMARK  status: ('A' for Active; 'I' for Inactive)
REMARK    1  A    between atoms: C3_4  and  O_7 
ROOT
ATOM      1  C   UNL d   1      -0.847   0.745   2.884  0.00  0.00    -0.033 A 
ATOM      2  C1  UNL d   1       0.404   0.171   2.650  0.00  0.00     0.039 A 
ATOM      3  C2  UNL d   1       0.783  -0.177   1.352  0.00  0.00    -0.080 A 
ATOM      4  C3  UNL d   1      -0.097   0.055   0.298  0.00  0.00     0.150 A 
ATOM      5  C4  UNL d   1      -1.343   0.631   0.523  0.00  0.00    -0.007 A 
ATOM      6  C5  UNL d   1      -1.720   0.977   1.820  0.00  0.00     0.039 A 
ENDROOT
BRANCH   4   7
ATOM      7  O   UNL d   1       0.227  -0.272  -0.985  0.00  0.00    -0.526 OA
ATOM      8  H5  UNL d   1       1.105  -0.687  -0.985  0.00  0.00     0.418 HD
ENDBRANCH   4   7
TORSDOF 1
ENDMDL
