MODEL 1
REMARK minimizedAffinity -4.99907494
REMARK minimizedRMSD -1
REMARK  1 active torsions:
REMARK  status: ('A' for Active; 'I' for Inactive)
REMARK    1  A    between atoms: C3_4  and  O_7 
ROOT
ATOM      1  C   UNL d   1      -0.928   1.376   3.090  0.00  0.00    -0.033 A 
ATOM      2  C1  UNL d   1      -1.828   0.781   2.203  0.00  0.00     0.039 A 
ATOM      3  C2  UNL d   1      -1.379   0.289   0.976  0.00  0.00    -0.080 A 
ATOM      4  C3  UNL d   1      -0.030   0.397   0.648  0.00  0.00     0.150 A 
ATOM      5  C4  UNL d   1       0.872   0.986   1.528  0.00  0.00    -0.007 A 
ATOM      6  C5  UNL d   1       0.422   1.477   2.753  0.00  0.00     0.039 A 
ENDROOT
BRANCH   4   7
ATOM      7  O   UNL d   1       0.454  -0.064  -0.540  0.00  0.00    -0.526 OA
ATOM      8  H5  UNL d   1      -0.289  -0.419  -1.057  0.00  0.00     0.418 HD
ENDBRANCH   4   7
TORSDOF 1
ENDMDL
