MODEL 1
REMARK minimizedAffinity -5.56491089
REMARK minimizedRMSD -1
REMARK  1 active torsions:
REMARK  status: ('A' for Active; 'I' for Inactive)
REMARK    1  A    between atoms: C3_4  and  O_7 
ROOT
ATOM      1  C   UNL d   1      -0.581  -0.400  -0.127  0.00  0.00    -0.033 A 
ATOM      2  C1  UNL d   1       0.579   0.083   0.483  0.00  0.00     0.039 A 
ATOM      3  C2  UNL d   1       0.486   0.957   1.568  0.00  0.00    -0.080 A 
ATOM      4  C3  UNL d   1      -0.769   1.339   2.033  0.00  0.00     0.150 A 
ATOM      5  C4  UNL d   1      -1.928   0.859   1.432  0.00  0.00    -0.007 A 
ATOM      6  C5  UNL d   1      -1.834  -0.014   0.349  0.00  0.00     0.039 A 
ENDROOT
BRANCH   4   7
ATOM      7  O   UNL d   1      -0.909   2.194   3.085  0.00  0.00    -0.526 OA
ATOM      8  H5  UNL d   1      -0.024   2.467   3.381  0.00  0.00     0.418 HD
ENDBRANCH   4   7
TORSDOF 1
ENDMDL
