MODEL 1
REMARK minimizedAffinity -4.42173433
REMARK minimizedRMSD -1
REMARK  1 active torsions:
REMARK  status: ('A' for Active; 'I' for Inactive)
REMARK    1  A    between atoms: C3_4  and  O_7 
ROOT
ATOM      1  C   UNL d   1      -0.545  -1.372  -0.428  0.00  0.00    -0.033 A 
ATOM      2  C1  UNL d   1      -1.841  -1.005  -0.061  0.00  0.00     0.039 A 
ATOM      3  C2  UNL d   1      -2.045  -0.120   0.999  0.00  0.00    -0.080 A 
ATOM      4  C3  UNL d   1      -0.945   0.391   1.683  0.00  0.00     0.150 A 
ATOM      5  C4  UNL d   1       0.349   0.033   1.321  0.00  0.00    -0.007 A 
ATOM      6  C5  UNL d   1       0.550  -0.852   0.262  0.00  0.00     0.039 A 
ENDROOT
BRANCH   4   7
ATOM      7  O   UNL d   1      -1.094   1.254   2.728  0.00  0.00    -0.526 OA
ATOM      8  H5  UNL d   1      -2.044   1.389   2.883  0.00  0.00     0.418 HD
ENDBRANCH   4   7
TORSDOF 1
ENDMDL
