MODEL 1
REMARK minimizedAffinity -5.02946997
REMARK minimizedRMSD -1
REMARK  1 active torsions:
REMARK  status: ('A' for Active; 'I' for Inactive)
REMARK    1  A    between atoms: C3_4  and  O_7 
ROOT
ATOM      1  C   UNL d   1       0.420   1.111   3.433  0.00  0.00    -0.033 A 
ATOM      2  C1  UNL d   1      -0.631   1.690   2.719  0.00  0.00     0.039 A 
ATOM      3  C2  UNL d   1      -0.808   1.391   1.367  0.00  0.00    -0.080 A 
ATOM      4  C3  UNL d   1       0.071   0.510   0.742  0.00  0.00     0.150 A 
ATOM      5  C4  UNL d   1       1.118  -0.074   1.448  0.00  0.00    -0.007 A 
ATOM      6  C5  UNL d   1       1.293   0.228   2.798  0.00  0.00     0.039 A 
ENDROOT
BRANCH   4   7
ATOM      7  O   UNL d   1      -0.058   0.191  -0.577  0.00  0.00    -0.526 OA
ATOM      8  H5  UNL d   1      -0.807   0.691  -0.943  0.00  0.00     0.418 HD
ENDBRANCH   4   7
TORSDOF 1
ENDMDL
