MODEL 1
REMARK minimizedAffinity 1.64206135
REMARK minimizedRMSD -1
REMARK  0 active torsions:
REMARK  status: ('A' for Active; 'I' for Inactive)
ROOT
ATOM      1  N1  IND d   1       4.758  -2.328   5.999  0.00  0.00    -0.196 N 
ATOM      2  C2  IND d   1       6.000  -2.298   5.427  0.00  0.00     0.054 A 
ATOM      3  C3  IND d   1       5.912  -1.931   4.129  0.00  0.00    -0.031 A 
ATOM      4  C4  IND d   1       3.844  -1.235   2.763  0.00  0.00     0.051 A 
ATOM      5  C5  IND d   1       2.483  -1.139   2.842  0.00  0.00    -0.031 A 
ATOM      6  C6  IND d   1       1.797  -1.438   4.002  0.00  0.00     0.015 A 
ATOM      7  C7  IND d   1       2.451  -1.835   5.134  0.00  0.00    -0.016 A 
ATOM      8  C8  IND d   1       3.832  -1.940   5.055  0.00  0.00    -0.047 A 
ATOM      9  C9  IND d   1       4.530  -1.679   3.869  0.00  0.00    -0.096 A 
ATOM     10  HN1 IND d   1       4.584  -2.551   6.811  0.00  0.00     0.298 HD
ENDROOT
TORSDOF 0
ENDMDL
