MODEL 1
REMARK minimizedAffinity 8.17300224
REMARK minimizedRMSD -1
REMARK  0 active torsions:
REMARK  status: ('A' for Active; 'I' for Inactive)
ROOT
ATOM      1  N1  IND d   1       2.440  -3.331   2.967  0.00  0.00    -0.196 N 
ATOM      2  C2  IND d   1       2.247  -2.483   4.022  0.00  0.00     0.054 A 
ATOM      3  C3  IND d   1       1.658  -1.340   3.605  0.00  0.00    -0.031 A 
ATOM      4  C4  IND d   1       0.831  -0.689   1.255  0.00  0.00     0.051 A 
ATOM      5  C5  IND d   1       0.820  -1.122  -0.041  0.00  0.00    -0.031 A 
ATOM      6  C6  IND d   1       1.356  -2.339  -0.408  0.00  0.00     0.015 A 
ATOM      7  C7  IND d   1       1.917  -3.178   0.514  0.00  0.00    -0.016 A 
ATOM      8  C8  IND d   1       1.937  -2.738   1.830  0.00  0.00    -0.047 A 
ATOM      9  C9  IND d   1       1.432  -1.485   2.202  0.00  0.00    -0.096 A 
ATOM     10  HN1 IND d   1       2.814  -4.104   3.007  0.00  0.00     0.298 HD
ENDROOT
TORSDOF 0
ENDMDL
