MODEL 1
REMARK minimizedAffinity 6.46649694
REMARK minimizedRMSD -1
REMARK  0 active torsions:
REMARK  status: ('A' for Active; 'I' for Inactive)
ROOT
ATOM      1  N1  IND d   1       1.210   0.423   1.091  0.00  0.00    -0.196 N 
ATOM      2  C2  IND d   1       0.930   1.191  -0.004  0.00  0.00     0.054 A 
ATOM      3  C3  IND d   1       1.516   2.404   0.109  0.00  0.00    -0.031 A 
ATOM      4  C4  IND d   1       3.062   3.307   1.959  0.00  0.00     0.051 A 
ATOM      5  C5  IND d   1       3.580   2.986   3.182  0.00  0.00    -0.031 A 
ATOM      6  C6  IND d   1       3.331   1.769   3.782  0.00  0.00     0.015 A 
ATOM      7  C7  IND d   1       2.561   0.818   3.173  0.00  0.00    -0.016 A 
ATOM      8  C8  IND d   1       2.029   1.144   1.934  0.00  0.00    -0.047 A 
ATOM      9  C9  IND d   1       2.243   2.394   1.339  0.00  0.00    -0.096 A 
ATOM     10  HN1 IND d   1       0.924  -0.375   1.231  0.00  0.00     0.298 HD
ENDROOT
TORSDOF 0
ENDMDL
