MODEL 1
REMARK minimizedAffinity 5.13003111
REMARK minimizedRMSD -1
REMARK  0 active torsions:
REMARK  status: ('A' for Active; 'I' for Inactive)
ROOT
ATOM      1  N1  IND d   1       1.023  -1.210   3.038  0.00  0.00    -0.196 N 
ATOM      2  C2  IND d   1       1.511   0.016   2.681  0.00  0.00     0.054 A 
ATOM      3  C3  IND d   1       2.841   0.081   2.917  0.00  0.00    -0.031 A 
ATOM      4  C4  IND d   1       4.437  -1.741   3.790  0.00  0.00     0.051 A 
ATOM      5  C5  IND d   1       4.449  -3.014   4.286  0.00  0.00    -0.031 A 
ATOM      6  C6  IND d   1       3.298  -3.767   4.391  0.00  0.00     0.015 A 
ATOM      7  C7  IND d   1       2.087  -3.277   3.992  0.00  0.00    -0.016 A 
ATOM      8  C8  IND d   1       2.069  -1.982   3.494  0.00  0.00    -0.047 A 
ATOM      9  C9  IND d   1       3.228  -1.197   3.424  0.00  0.00    -0.096 A 
ATOM     10  HN1 IND d   1       0.201  -1.457   2.987  0.00  0.00     0.298 HD
ENDROOT
TORSDOF 0
ENDMDL
