MODEL 1
REMARK minimizedAffinity 16.3315258
REMARK minimizedRMSD -1
REMARK  0 active torsions:
REMARK  status: ('A' for Active; 'I' for Inactive)
ROOT
ATOM      1  N1  IND d   1       0.302  -4.593   5.683  0.00  0.00    -0.196 N 
ATOM      2  C2  IND d   1       0.731  -5.884   5.545  0.00  0.00     0.054 A 
ATOM      3  C3  IND d   1       1.812  -5.936   4.735  0.00  0.00    -0.031 A 
ATOM      4  C4  IND d   1       3.106  -4.017   3.608  0.00  0.00     0.051 A 
ATOM      5  C5  IND d   1       3.071  -2.665   3.411  0.00  0.00    -0.031 A 
ATOM      6  C6  IND d   1       2.094  -1.870   3.975  0.00  0.00     0.015 A 
ATOM      7  C7  IND d   1       1.117  -2.399   4.770  0.00  0.00    -0.016 A 
ATOM      8  C8  IND d   1       1.144  -3.772   4.966  0.00  0.00    -0.047 A 
ATOM      9  C9  IND d   1       2.109  -4.589   4.362  0.00  0.00    -0.096 A 
ATOM     10  HN1 IND d   1      -0.379  -4.338   6.141  0.00  0.00     0.298 HD
ENDROOT
TORSDOF 0
ENDMDL
