MODEL 1
REMARK minimizedAffinity 15.8327894
REMARK minimizedRMSD -1
REMARK  0 active torsions:
REMARK  status: ('A' for Active; 'I' for Inactive)
ROOT
ATOM      1  N1  IND d   1       2.767   3.743  -0.619  0.00  0.00    -0.196 N 
ATOM      2  C2  IND d   1       1.724   4.591  -0.867  0.00  0.00     0.054 A 
ATOM      3  C3  IND d   1       0.639   4.225  -0.148  0.00  0.00    -0.031 A 
ATOM      4  C4  IND d   1       0.382   2.329   1.574  0.00  0.00     0.051 A 
ATOM      5  C5  IND d   1       1.049   1.265   2.112  0.00  0.00    -0.031 A 
ATOM      6  C6  IND d   1       2.350   0.967   1.762  0.00  0.00     0.015 A 
ATOM      7  C7  IND d   1       3.040   1.734   0.866  0.00  0.00    -0.016 A 
ATOM      8  C8  IND d   1       2.363   2.811   0.312  0.00  0.00    -0.047 A 
ATOM      9  C9  IND d   1       1.029   3.093   0.632  0.00  0.00    -0.096 A 
ATOM     10  HN1 IND d   1       3.545   3.784  -0.983  0.00  0.00     0.298 HD
ENDROOT
TORSDOF 0
ENDMDL
