MODEL 1
REMARK minimizedAffinity 13.493247
REMARK minimizedRMSD -1
REMARK  0 active torsions:
REMARK  status: ('A' for Active; 'I' for Inactive)
ROOT
ATOM      1  N1  IND d   1       1.516  -0.109   4.013  0.00  0.00    -0.196 N 
ATOM      2  C2  IND d   1       1.742  -1.421   3.702  0.00  0.00     0.054 A 
ATOM      3  C3  IND d   1       2.504  -1.516   2.589  0.00  0.00    -0.031 A 
ATOM      4  C4  IND d   1       3.576   0.350   1.176  0.00  0.00     0.051 A 
ATOM      5  C5  IND d   1       3.625   1.709   1.046  0.00  0.00    -0.031 A 
ATOM      6  C6  IND d   1       2.962   2.549   1.917  0.00  0.00     0.015 A 
ATOM      7  C7  IND d   1       2.232   2.059   2.963  0.00  0.00    -0.016 A 
ATOM      8  C8  IND d   1       2.174   0.679   3.094  0.00  0.00    -0.047 A 
ATOM      9  C9  IND d   1       2.810  -0.180   2.188  0.00  0.00    -0.096 A 
ATOM     10  HN1 IND d   1       1.043   0.176   4.671  0.00  0.00     0.298 HD
ENDROOT
TORSDOF 0
ENDMDL
