MODEL 1
REMARK minimizedAffinity 2.38563538
REMARK minimizedRMSD -1
REMARK  0 active torsions:
REMARK  status: ('A' for Active; 'I' for Inactive)
ROOT
ATOM      1  N1  IND d   1       4.786  -2.603   5.995  0.00  0.00    -0.196 N 
ATOM      2  C2  IND d   1       5.996  -2.529   5.364  0.00  0.00     0.054 A 
ATOM      3  C3  IND d   1       5.824  -2.314   4.040  0.00  0.00    -0.031 A 
ATOM      4  C4  IND d   1       3.649  -1.948   2.713  0.00  0.00     0.051 A 
ATOM      5  C5  IND d   1       2.289  -1.962   2.848  0.00  0.00    -0.031 A 
ATOM      6  C6  IND d   1       1.680  -2.191   4.065  0.00  0.00     0.015 A 
ATOM      7  C7  IND d   1       2.411  -2.406   5.199  0.00  0.00    -0.016 A 
ATOM      8  C8  IND d   1       3.792  -2.400   5.063  0.00  0.00    -0.047 A 
ATOM      9  C9  IND d   1       4.416  -2.210   3.823  0.00  0.00    -0.096 A 
ATOM     10  HN1 IND d   1       4.666  -2.751   6.834  0.00  0.00     0.298 HD
ENDROOT
TORSDOF 0
ENDMDL
