MODEL 1
REMARK minimizedAffinity 8.65325356
REMARK minimizedRMSD -1
REMARK  0 active torsions:
REMARK  status: ('A' for Active; 'I' for Inactive)
ROOT
ATOM      1  C   UNL d   1       1.449   0.480   2.902  0.00  0.00     0.124 A 
ATOM      2  C1  UNL d   1       2.079  -0.730   2.649  0.00  0.00     0.062 A 
ATOM      3  C2  UNL d   1       1.328  -1.853   2.313  0.00  0.00     0.162 A 
ATOM      4  C3  UNL d   1      -0.061  -1.771   2.227  0.00  0.00    -0.034 A 
ATOM      5  C4  UNL d   1      -0.688  -0.550   2.484  0.00  0.00     0.162 A 
ATOM      6  C5  UNL d   1       0.067   0.570   2.819  0.00  0.00     0.062 A 
ATOM      7  F   UNL d   1      -0.543   1.739   3.063  0.00  0.00    -0.097 F 
ATOM      8  F1  UNL d   1      -2.022  -0.435   2.410  0.00  0.00    -0.096 F 
ATOM      9  I   UNL d   1      -1.188  -3.447   1.725  0.00  0.00    -0.060 I 
ATOM     10  F2  UNL d   1       1.964  -3.010   2.075  0.00  0.00    -0.096 F 
ATOM     11  F3  UNL d   1       3.415  -0.820   2.730  0.00  0.00    -0.097 F 
ATOM     12  F4  UNL d   1       2.174   1.559   3.226  0.00  0.00    -0.092 F 
ENDROOT
TORSDOF 0
ENDMDL
