MODEL 1
REMARK minimizedAffinity 8.99513435
REMARK minimizedRMSD -1
REMARK  0 active torsions:
REMARK  status: ('A' for Active; 'I' for Inactive)
ROOT
ATOM      1  C   UNL d   1       2.514  -2.068   0.086  0.00  0.00     0.124 A 
ATOM      2  C1  UNL d   1       2.731  -1.911   1.448  0.00  0.00     0.062 A 
ATOM      3  C2  UNL d   1       1.713  -1.435   2.268  0.00  0.00     0.162 A 
ATOM      4  C3  UNL d   1       0.467  -1.114   1.730  0.00  0.00    -0.034 A 
ATOM      5  C4  UNL d   1       0.257  -1.274   0.359  0.00  0.00     0.162 A 
ATOM      6  C5  UNL d   1       1.278  -1.750  -0.457  0.00  0.00     0.062 A 
ATOM      7  F   UNL d   1       1.066  -1.901  -1.773  0.00  0.00    -0.097 F 
ATOM      8  F1  UNL d   1      -0.929  -0.974  -0.192  0.00  0.00    -0.096 F 
ATOM      9  I   UNL d   1      -1.058  -0.402   2.953  0.00  0.00    -0.060 I 
ATOM     10  F2  UNL d   1       1.951  -1.293   3.581  0.00  0.00    -0.096 F 
ATOM     11  F3  UNL d   1       3.926  -2.217   1.974  0.00  0.00    -0.097 F 
ATOM     12  F4  UNL d   1       3.496  -2.526  -0.702  0.00  0.00    -0.092 F 
ENDROOT
TORSDOF 0
ENDMDL
