MODEL 1
REMARK minimizedAffinity 8.80004501
REMARK minimizedRMSD -1
REMARK  0 active torsions:
REMARK  status: ('A' for Active; 'I' for Inactive)
ROOT
ATOM      1  C   UNL d   1       2.572  -2.115  -0.021  0.00  0.00     0.124 A 
ATOM      2  C1  UNL d   1       1.379  -1.738  -0.621  0.00  0.00     0.062 A 
ATOM      3  C2  UNL d   1       0.340  -1.225   0.150  0.00  0.00     0.162 A 
ATOM      4  C3  UNL d   1       0.490  -1.084   1.530  0.00  0.00    -0.034 A 
ATOM      5  C4  UNL d   1       1.693  -1.467   2.126  0.00  0.00     0.162 A 
ATOM      6  C5  UNL d   1       2.729  -1.979   1.351  0.00  0.00     0.062 A 
ATOM      7  F   UNL d   1       3.881  -2.343   1.932  0.00  0.00    -0.097 F 
ATOM      8  F1  UNL d   1       1.872  -1.345   3.450  0.00  0.00    -0.096 F 
ATOM      9  I   UNL d   1      -1.061  -0.317   2.686  0.00  0.00    -0.060 I 
ATOM     10  F2  UNL d   1      -0.803  -0.869  -0.456  0.00  0.00    -0.096 F 
ATOM     11  F3  UNL d   1       1.225  -1.869  -1.946  0.00  0.00    -0.097 F 
ATOM     12  F4  UNL d   1       3.570  -2.609  -0.766  0.00  0.00    -0.092 F 
ENDROOT
TORSDOF 0
ENDMDL
