MODEL 1
REMARK minimizedAffinity 4.85210514
REMARK minimizedRMSD -1
REMARK  0 active torsions:
REMARK  status: ('A' for Active; 'I' for Inactive)
ROOT
ATOM      1  C   UNL d   1       2.478  -1.883   0.665  0.00  0.00     0.124 A 
ATOM      2  C1  UNL d   1       1.389  -1.525  -0.117  0.00  0.00     0.062 A 
ATOM      3  C2  UNL d   1       0.242  -1.004   0.476  0.00  0.00     0.162 A 
ATOM      4  C3  UNL d   1       0.180  -0.837   1.860  0.00  0.00    -0.034 A 
ATOM      5  C4  UNL d   1       1.279  -1.200   2.640  0.00  0.00     0.162 A 
ATOM      6  C5  UNL d   1       2.422  -1.721   2.042  0.00  0.00     0.062 A 
ATOM      7  F   UNL d   1       3.474  -2.066   2.799  0.00  0.00    -0.097 F 
ATOM      8  F1  UNL d   1       1.253  -1.052   3.972  0.00  0.00    -0.096 F 
ATOM      9  I   UNL d   1      -1.532  -0.058   2.750  0.00  0.00    -0.060 I 
ATOM     10  F2  UNL d   1      -0.795  -0.667  -0.304  0.00  0.00    -0.096 F 
ATOM     11  F3  UNL d   1       1.440  -1.683  -1.448  0.00  0.00    -0.097 F 
ATOM     12  F4  UNL d   1       3.579  -2.386   0.092  0.00  0.00    -0.092 F 
ENDROOT
TORSDOF 0
ENDMDL
