MODEL 1
REMARK minimizedAffinity 17.7943382
REMARK minimizedRMSD -1
REMARK  0 active torsions:
REMARK  status: ('A' for Active; 'I' for Inactive)
ROOT
ATOM      1  C   UNL d   1       0.311  -1.878   2.368  0.00  0.00     0.124 A 
ATOM      2  C1  UNL d   1       1.598  -2.062   1.884  0.00  0.00     0.062 A 
ATOM      3  C2  UNL d   1       1.917  -1.682   0.583  0.00  0.00     0.162 A 
ATOM      4  C3  UNL d   1       0.947  -1.114  -0.243  0.00  0.00    -0.034 A 
ATOM      5  C4  UNL d   1      -0.346  -0.934   0.251  0.00  0.00     0.162 A 
ATOM      6  C5  UNL d   1      -0.660  -1.315   1.552  0.00  0.00     0.062 A 
ATOM      7  F   UNL d   1      -1.905  -1.137   2.018  0.00  0.00    -0.097 F 
ATOM      8  F1  UNL d   1      -1.303  -0.391  -0.515  0.00  0.00    -0.096 F 
ATOM      9  I   UNL d   1       1.420  -0.545  -2.188  0.00  0.00    -0.060 I 
ATOM     10  F2  UNL d   1       3.170  -1.871   0.141  0.00  0.00    -0.096 F 
ATOM     11  F3  UNL d   1       2.538  -2.607   2.670  0.00  0.00    -0.097 F 
ATOM     12  F4  UNL d   1       0.006  -2.245   3.619  0.00  0.00    -0.092 F 
ENDROOT
TORSDOF 0
ENDMDL
