MODEL 1
REMARK minimizedAffinity 21.9904366
REMARK minimizedRMSD -1
REMARK  0 active torsions:
REMARK  status: ('A' for Active; 'I' for Inactive)
ROOT
ATOM      1  C   UNL d   1       1.793   0.935  -1.316  0.00  0.00     0.124 A 
ATOM      2  C1  UNL d   1       1.614  -0.432  -1.161  0.00  0.00     0.062 A 
ATOM      3  C2  UNL d   1       1.618  -1.000   0.110  0.00  0.00     0.162 A 
ATOM      4  C3  UNL d   1       1.802  -0.199   1.237  0.00  0.00    -0.034 A 
ATOM      5  C4  UNL d   1       1.983   1.176   1.074  0.00  0.00     0.162 A 
ATOM      6  C5  UNL d   1       1.977   1.738  -0.199  0.00  0.00     0.062 A 
ATOM      7  F   UNL d   1       2.151   3.059  -0.346  0.00  0.00    -0.097 F 
ATOM      8  F1  UNL d   1       2.162   1.975   2.136  0.00  0.00    -0.096 F 
ATOM      9  I   UNL d   1       1.809  -1.043   3.140  0.00  0.00    -0.060 I 
ATOM     10  F2  UNL d   1       1.442  -2.324   0.230  0.00  0.00    -0.096 F 
ATOM     11  F3  UNL d   1       1.436  -1.210  -2.239  0.00  0.00    -0.097 F 
ATOM     12  F4  UNL d   1       1.789   1.478  -2.540  0.00  0.00    -0.092 F 
ENDROOT
TORSDOF 0
ENDMDL
