MODEL 1
REMARK minimizedAffinity 14.3823032
REMARK minimizedRMSD -1
REMARK  0 active torsions:
REMARK  status: ('A' for Active; 'I' for Inactive)
ROOT
ATOM      1  C   UNL d   1       3.622  -1.577  -0.984  0.00  0.00     0.124 A 
ATOM      2  C1  UNL d   1       3.641  -2.479   0.071  0.00  0.00     0.062 A 
ATOM      3  C2  UNL d   1       2.658  -2.425   1.056  0.00  0.00     0.162 A 
ATOM      4  C3  UNL d   1       1.648  -1.465   0.990  0.00  0.00    -0.034 A 
ATOM      5  C4  UNL d   1       1.637  -0.561  -0.073  0.00  0.00     0.162 A 
ATOM      6  C5  UNL d   1       2.621  -0.619  -1.055  0.00  0.00     0.062 A 
ATOM      7  F   UNL d   1       2.602   0.254  -2.073  0.00  0.00    -0.097 F 
ATOM      8  F1  UNL d   1       0.681   0.375  -0.167  0.00  0.00    -0.096 F 
ATOM      9  I   UNL d   1       0.178  -1.381   2.460  0.00  0.00    -0.060 I 
ATOM     10  F2  UNL d   1       2.701  -3.310   2.063  0.00  0.00    -0.096 F 
ATOM     11  F3  UNL d   1       4.608  -3.405   0.142  0.00  0.00    -0.097 F 
ATOM     12  F4  UNL d   1       4.569  -1.630  -1.929  0.00  0.00    -0.092 F 
ENDROOT
TORSDOF 0
ENDMDL
