MODEL 1
REMARK minimizedAffinity 14.8169317
REMARK minimizedRMSD -1
REMARK  0 active torsions:
REMARK  status: ('A' for Active; 'I' for Inactive)
ROOT
ATOM      1  C   UNL d   1       1.556  -1.468   2.465  0.00  0.00     0.124 A 
ATOM      2  C1  UNL d   1       2.122  -1.380   1.200  0.00  0.00     0.062 A 
ATOM      3  C2  UNL d   1       1.323  -1.104   0.094  0.00  0.00     0.162 A 
ATOM      4  C3  UNL d   1      -0.050  -0.912   0.247  0.00  0.00    -0.034 A 
ATOM      5  C4  UNL d   1      -0.612  -1.003   1.522  0.00  0.00     0.162 A 
ATOM      6  C5  UNL d   1       0.191  -1.280   2.624  0.00  0.00     0.062 A 
ATOM      7  F   UNL d   1      -0.358  -1.364   3.845  0.00  0.00    -0.097 F 
ATOM      8  F1  UNL d   1      -1.928  -0.824   1.705  0.00  0.00    -0.096 F 
ATOM      9  I   UNL d   1      -1.247  -0.499  -1.404  0.00  0.00    -0.060 I 
ATOM     10  F2  UNL d   1       1.897  -1.025  -1.116  0.00  0.00    -0.096 F 
ATOM     11  F3  UNL d   1       3.441  -1.563   1.043  0.00  0.00    -0.097 F 
ATOM     12  F4  UNL d   1       2.326  -1.735   3.527  0.00  0.00    -0.092 F 
ENDROOT
TORSDOF 0
ENDMDL
