MODEL 1
REMARK minimizedAffinity 13.7995167
REMARK minimizedRMSD -1
REMARK  0 active torsions:
REMARK  status: ('A' for Active; 'I' for Inactive)
ROOT
ATOM      1  C   UNL d   1       0.340  -2.407   1.572  0.00  0.00     0.124 A 
ATOM      2  C1  UNL d   1       1.677  -2.195   1.264  0.00  0.00     0.062 A 
ATOM      3  C2  UNL d   1       2.029  -1.339   0.225  0.00  0.00     0.162 A 
ATOM      4  C3  UNL d   1       1.041  -0.687  -0.514  0.00  0.00    -0.034 A 
ATOM      5  C4  UNL d   1      -0.301  -0.906  -0.199  0.00  0.00     0.162 A 
ATOM      6  C5  UNL d   1      -0.647  -1.763   0.841  0.00  0.00     0.062 A 
ATOM      7  F   UNL d   1      -1.939  -1.967   1.137  0.00  0.00    -0.097 F 
ATOM      8  F1  UNL d   1      -1.275  -0.296  -0.890  0.00  0.00    -0.096 F 
ATOM      9  I   UNL d   1       1.563   0.594  -2.069  0.00  0.00    -0.060 I 
ATOM     10  F2  UNL d   1       3.328  -1.153  -0.051  0.00  0.00    -0.096 F 
ATOM     11  F3  UNL d   1       2.633  -2.817   1.969  0.00  0.00    -0.097 F 
ATOM     12  F4  UNL d   1       0.005  -3.233   2.572  0.00  0.00    -0.092 F 
ENDROOT
TORSDOF 0
ENDMDL
