MODEL 1
REMARK minimizedAffinity 0.902692378
REMARK minimizedRMSD -1
REMARK  0 active torsions:
REMARK  status: ('A' for Active; 'I' for Inactive)
ROOT
ATOM      1  C   UNL d   1       2.899  -2.289   0.880  0.00  0.00     0.124 A 
ATOM      2  C1  UNL d   1       2.954  -1.266  -0.057  0.00  0.00     0.062 A 
ATOM      3  C2  UNL d   1       2.868   0.062   0.351  0.00  0.00     0.162 A 
ATOM      4  C3  UNL d   1       2.726   0.375   1.703  0.00  0.00    -0.034 A 
ATOM      5  C4  UNL d   1       2.671  -0.659   2.639  0.00  0.00     0.162 A 
ATOM      6  C5  UNL d   1       2.757  -1.985   2.226  0.00  0.00     0.062 A 
ATOM      7  F   UNL d   1       2.703  -2.972   3.133  0.00  0.00    -0.097 F 
ATOM      8  F1  UNL d   1       2.535  -0.393   3.947  0.00  0.00    -0.096 F 
ATOM      9  I   UNL d   1       2.597   2.359   2.317  0.00  0.00    -0.060 I 
ATOM     10  F2  UNL d   1       2.924   1.030  -0.576  0.00  0.00    -0.096 F 
ATOM     11  F3  UNL d   1       3.090  -1.558  -1.358  0.00  0.00    -0.097 F 
ATOM     12  F4  UNL d   1       2.981  -3.566   0.485  0.00  0.00    -0.092 F 
ENDROOT
TORSDOF 0
ENDMDL
