MODEL 1
REMARK minimizedAffinity 6.67923355
REMARK minimizedRMSD -1
REMARK  0 active torsions:
REMARK  status: ('A' for Active; 'I' for Inactive)
ROOT
ATOM      1  C   UNL d   1       2.669   1.402  -2.640  0.00  0.00     0.124 A 
ATOM      2  C1  UNL d   1       2.413   1.958  -1.394  0.00  0.00     0.062 A 
ATOM      3  C2  UNL d   1       2.277   1.139  -0.277  0.00  0.00     0.162 A 
ATOM      4  C3  UNL d   1       2.398  -0.246  -0.400  0.00  0.00    -0.034 A 
ATOM      5  C4  UNL d   1       2.654  -0.797  -1.656  0.00  0.00     0.162 A 
ATOM      6  C5  UNL d   1       2.789   0.025  -2.770  0.00  0.00     0.062 A 
ATOM      7  F   UNL d   1       3.036  -0.513  -3.973  0.00  0.00    -0.097 F 
ATOM      8  F1  UNL d   1       2.776  -2.124  -1.810  0.00  0.00    -0.096 F 
ATOM      9  I   UNL d   1       2.196  -1.473   1.268  0.00  0.00    -0.060 I 
ATOM     10  F2  UNL d   1       2.031   1.703   0.915  0.00  0.00    -0.096 F 
ATOM     11  F3  UNL d   1       2.296   3.287  -1.266  0.00  0.00    -0.097 F 
ATOM     12  F4  UNL d   1       2.798   2.192  -3.713  0.00  0.00    -0.092 F 
ENDROOT
TORSDOF 0
ENDMDL
