MODEL 1
REMARK minimizedAffinity 15.3051376
REMARK minimizedRMSD -1
REMARK  0 active torsions:
REMARK  status: ('A' for Active; 'I' for Inactive)
ROOT
ATOM      1  C   UNL d   1       2.873  -1.754   0.930  0.00  0.00     0.124 A 
ATOM      2  C1  UNL d   1       1.784  -1.630   0.078  0.00  0.00     0.062 A 
ATOM      3  C2  UNL d   1       0.517  -1.375   0.594  0.00  0.00     0.162 A 
ATOM      4  C3  UNL d   1       0.331  -1.241   1.970  0.00  0.00    -0.034 A 
ATOM      5  C4  UNL d   1       1.431  -1.368   2.821  0.00  0.00     0.162 A 
ATOM      6  C5  UNL d   1       2.695  -1.623   2.300  0.00  0.00     0.062 A 
ATOM      7  F   UNL d   1       3.746  -1.742   3.125  0.00  0.00    -0.097 F 
ATOM      8  F1  UNL d   1       1.288  -1.245   4.149  0.00  0.00    -0.096 F 
ATOM      9  I   UNL d   1      -1.562  -0.860   2.746  0.00  0.00    -0.060 I 
ATOM     10  F2  UNL d   1      -0.517  -1.260  -0.253  0.00  0.00    -0.096 F 
ATOM     11  F3  UNL d   1       1.953  -1.758  -1.246  0.00  0.00    -0.097 F 
ATOM     12  F4  UNL d   1       4.091  -2.001   0.431  0.00  0.00    -0.092 F 
ENDROOT
TORSDOF 0
ENDMDL
