MODEL 1
REMARK minimizedAffinity 4.68304586
REMARK minimizedRMSD -1
REMARK  2 active torsions:
REMARK  status: ('A' for Active; 'I' for Inactive)
REMARK    1  A    between atoms: C1_2  and  C2_3 
REMARK    2  A    between atoms: C2_3  and  C3_4 
ROOT
ATOM      1  C3  UNL d   1       2.258   0.370   1.103  0.00  0.00    -0.075 A 
ATOM      2  C4  UNL d   1       1.549  -0.839   1.042  0.00  0.00     0.002 A 
ATOM      3  C5  UNL d   1       1.518  -1.698   2.141  0.00  0.00     0.002 A 
ATOM      4  C6  UNL d   1       2.201  -1.366   3.309  0.00  0.00    -0.004 A 
ATOM      5  C7  UNL d   1       2.922  -0.175   3.375  0.00  0.00     0.002 A 
ATOM      6  C8  UNL d   1       2.952   0.688   2.278  0.00  0.00     0.002 A 
ENDROOT
BRANCH   1   7
ATOM      7  C2  UNL d   1       2.271   1.318  -0.072  0.00  0.00     0.056 C 
BRANCH   7   8
ATOM      8  C1  UNL d   1       1.321   2.511   0.078  0.00  0.00     0.007 C 
ATOM      9  C   UNL d   1       1.470   3.540  -1.034  0.00  0.00     0.009 C 
ENDBRANCH   7   8
ENDBRANCH   1   7
TORSDOF 2
ENDMDL
