MODEL 1
REMARK minimizedAffinity 7.37498474
REMARK minimizedRMSD -1
REMARK  2 active torsions:
REMARK  status: ('A' for Active; 'I' for Inactive)
REMARK    1  A    between atoms: C1_2  and  C2_3 
REMARK    2  A    between atoms: C2_3  and  C3_4 
ROOT
ATOM      1  C3  UNL d   1       2.319  -0.579   2.331  0.00  0.00    -0.075 A 
ATOM      2  C4  UNL d   1       2.224   0.531   3.182  0.00  0.00     0.002 A 
ATOM      3  C5  UNL d   1       2.421   1.821   2.689  0.00  0.00     0.002 A 
ATOM      4  C6  UNL d   1       2.726   2.016   1.344  0.00  0.00    -0.004 A 
ATOM      5  C7  UNL d   1       2.839   0.920   0.492  0.00  0.00     0.002 A 
ATOM      6  C8  UNL d   1       2.637  -0.372   0.982  0.00  0.00     0.002 A 
ENDROOT
BRANCH   1   7
ATOM      7  C2  UNL d   1       2.077  -1.976   2.852  0.00  0.00     0.056 C 
BRANCH   7   8
ATOM      8  C1  UNL d   1       3.256  -2.562   3.636  0.00  0.00     0.007 C 
ATOM      9  C   UNL d   1       3.176  -4.074   3.800  0.00  0.00     0.009 C 
ENDBRANCH   7   8
ENDBRANCH   1   7
TORSDOF 2
ENDMDL
