MODEL 1
REMARK minimizedAffinity 2.69967556
REMARK minimizedRMSD -1
REMARK  2 active torsions:
REMARK  status: ('A' for Active; 'I' for Inactive)
REMARK    1  A    between atoms: C1_2  and  C2_3 
REMARK    2  A    between atoms: C2_3  and  C3_4 
ROOT
ATOM      1  C3  UNL d   1       0.973  -1.046   1.029  0.00  0.00    -0.075 A 
ATOM      2  C4  UNL d   1       1.140  -1.606   2.304  0.00  0.00     0.002 A 
ATOM      3  C5  UNL d   1       2.079  -1.079   3.191  0.00  0.00     0.002 A 
ATOM      4  C6  UNL d   1       2.869   0.004   2.813  0.00  0.00    -0.004 A 
ATOM      5  C7  UNL d   1       2.723   0.558   1.543  0.00  0.00     0.002 A 
ATOM      6  C8  UNL d   1       1.781   0.036   0.654  0.00  0.00     0.002 A 
ENDROOT
BRANCH   1   7
ATOM      7  C2  UNL d   1      -0.062  -1.592   0.074  0.00  0.00     0.056 C 
BRANCH   7   8
ATOM      8  C1  UNL d   1       0.524  -2.153  -1.226  0.00  0.00     0.007 C 
ATOM      9  C   UNL d   1      -0.296  -1.794  -2.458  0.00  0.00     0.009 C 
ENDBRANCH   7   8
ENDBRANCH   1   7
TORSDOF 2
ENDMDL
