MODEL 1
REMARK minimizedAffinity 4.83111668
REMARK minimizedRMSD -1
REMARK  0 active torsions:
REMARK  status: ('A' for Active; 'I' for Inactive)
ROOT
ATOM      1  C   UNL d   1      -5.159   2.398  -4.765  0.00  0.00     0.077 C 
ATOM      2  C1  UNL d   1      -4.312   1.570  -3.846  0.00  0.00    -0.074 A 
ATOM      3  C2  UNL d   1      -3.547   2.167  -2.839  0.00  0.00    -0.005 A 
ATOM      4  C3  UNL d   1      -2.772   1.383  -1.986  0.00  0.00     0.006 A 
ATOM      5  C4  UNL d   1      -2.753  -0.005  -2.130  0.00  0.00    -0.005 A 
ATOM      6  C5  UNL d   1      -3.513  -0.620  -3.130  0.00  0.00    -0.074 A 
ATOM      7  C6  UNL d   1      -3.512  -2.112  -3.292  0.00  0.00     0.077 C 
ATOM      8  C7  UNL d   1      -4.295   0.174  -3.979  0.00  0.00    -0.001 A 
ENDROOT
TORSDOF 0
ENDMDL
