MODEL 1
REMARK minimizedAffinity 3.51065946
REMARK minimizedRMSD -1
REMARK  0 active torsions:
REMARK  status: ('A' for Active; 'I' for Inactive)
ROOT
ATOM      1  C   UNL d   1       4.371  -3.629   5.196  0.00  0.00     0.077 C 
ATOM      2  C1  UNL d   1       3.204  -3.452   4.270  0.00  0.00    -0.074 A 
ATOM      3  C2  UNL d   1       2.444  -4.550   3.854  0.00  0.00    -0.005 A 
ATOM      4  C3  UNL d   1       1.356  -4.369   3.000  0.00  0.00     0.006 A 
ATOM      5  C4  UNL d   1       1.017  -3.091   2.555  0.00  0.00    -0.005 A 
ATOM      6  C5  UNL d   1       1.765  -1.981   2.961  0.00  0.00    -0.074 A 
ATOM      7  C6  UNL d   1       1.408  -0.600   2.499  0.00  0.00     0.077 C 
ATOM      8  C7  UNL d   1       2.852  -2.170   3.824  0.00  0.00    -0.001 A 
ENDROOT
TORSDOF 0
ENDMDL
