MODEL 1
REMARK minimizedAffinity 9.15027714
REMARK minimizedRMSD -1
REMARK  0 active torsions:
REMARK  status: ('A' for Active; 'I' for Inactive)
ROOT
ATOM      1  C   UNL d   1      -2.847  -0.068  -2.994  0.00  0.00     0.077 C 
ATOM      2  C1  UNL d   1      -3.774  -1.130  -2.482  0.00  0.00    -0.074 A 
ATOM      3  C2  UNL d   1      -5.149  -0.894  -2.377  0.00  0.00    -0.005 A 
ATOM      4  C3  UNL d   1      -6.000  -1.895  -1.909  0.00  0.00     0.006 A 
ATOM      5  C4  UNL d   1      -5.486  -3.139  -1.542  0.00  0.00    -0.005 A 
ATOM      6  C5  UNL d   1      -4.115  -3.394  -1.641  0.00  0.00    -0.074 A 
ATOM      7  C6  UNL d   1      -3.548  -4.729  -1.260  0.00  0.00     0.077 C 
ATOM      8  C7  UNL d   1      -3.267  -2.385  -2.119  0.00  0.00    -0.001 A 
ENDROOT
TORSDOF 0
ENDMDL
