MODEL 1
REMARK minimizedAffinity 6.76123095
REMARK minimizedRMSD -1
REMARK  0 active torsions:
REMARK  status: ('A' for Active; 'I' for Inactive)
ROOT
ATOM      1  C   UNL d   1      -1.568   0.374   0.190  0.00  0.00     0.077 C 
ATOM      2  C1  UNL d   1      -2.496   1.552   0.212  0.00  0.00    -0.074 A 
ATOM      3  C2  UNL d   1      -2.335   2.610  -0.689  0.00  0.00    -0.005 A 
ATOM      4  C3  UNL d   1      -3.211   3.695  -0.662  0.00  0.00     0.006 A 
ATOM      5  C4  UNL d   1      -4.255   3.734   0.264  0.00  0.00    -0.005 A 
ATOM      6  C5  UNL d   1      -4.431   2.685   1.172  0.00  0.00    -0.074 A 
ATOM      7  C6  UNL d   1      -5.553   2.706   2.167  0.00  0.00     0.077 C 
ATOM      8  C7  UNL d   1      -3.551   1.595   1.134  0.00  0.00    -0.001 A 
ENDROOT
TORSDOF 0
ENDMDL
