MODEL 1
REMARK minimizedAffinity 7.79227972
REMARK minimizedRMSD -1
REMARK  0 active torsions:
REMARK  status: ('A' for Active; 'I' for Inactive)
ROOT
ATOM      1  C   UNL d   1       4.512  -3.311   4.948  0.00  0.00     0.077 C 
ATOM      2  C1  UNL d   1       3.333  -2.950   4.094  0.00  0.00    -0.074 A 
ATOM      3  C2  UNL d   1       2.179  -3.740   4.091  0.00  0.00    -0.005 A 
ATOM      4  C3  UNL d   1       1.086  -3.386   3.300  0.00  0.00     0.006 A 
ATOM      5  C4  UNL d   1       1.137  -2.240   2.505  0.00  0.00    -0.005 A 
ATOM      6  C5  UNL d   1       2.282  -1.437   2.496  0.00  0.00    -0.074 A 
ATOM      7  C6  UNL d   1       2.349  -0.197   1.655  0.00  0.00     0.077 C 
ATOM      8  C7  UNL d   1       3.373  -1.796   3.299  0.00  0.00    -0.001 A 
ENDROOT
TORSDOF 0
ENDMDL
