MODEL 1
REMARK minimizedAffinity 10.9349976
REMARK minimizedRMSD -1
REMARK  0 active torsions:
REMARK  status: ('A' for Active; 'I' for Inactive)
ROOT
ATOM      1  C   UNL d   1       1.678  -0.706   2.220  0.00  0.00     0.077 C 
ATOM      2  C1  UNL d   1       2.260  -1.944   2.837  0.00  0.00    -0.074 A 
ATOM      3  C2  UNL d   1       1.659  -3.192   2.646  0.00  0.00    -0.005 A 
ATOM      4  C3  UNL d   1       2.217  -4.336   3.218  0.00  0.00     0.006 A 
ATOM      5  C4  UNL d   1       3.379  -4.242   3.985  0.00  0.00    -0.005 A 
ATOM      6  C5  UNL d   1       3.994  -3.003   4.186  0.00  0.00    -0.074 A 
ATOM      7  C6  UNL d   1       5.248  -2.886   5.000  0.00  0.00     0.077 C 
ATOM      8  C7  UNL d   1       3.431  -1.859   3.603  0.00  0.00    -0.001 A 
ENDROOT
TORSDOF 0
ENDMDL
