MODEL 1
REMARK minimizedAffinity 2.66463256
REMARK minimizedRMSD -1
REMARK  0 active torsions:
REMARK  status: ('A' for Active; 'I' for Inactive)
ROOT
ATOM      1  C   UNL d   1       5.623  -3.101   4.803  0.00  0.00     0.077 C 
ATOM      2  C1  UNL d   1       4.183  -3.192   4.394  0.00  0.00    -0.074 A 
ATOM      3  C2  UNL d   1       3.380  -4.253   4.825  0.00  0.00    -0.005 A 
ATOM      4  C3  UNL d   1       2.040  -4.320   4.444  0.00  0.00     0.006 A 
ATOM      5  C4  UNL d   1       1.490  -3.328   3.631  0.00  0.00    -0.005 A 
ATOM      6  C5  UNL d   1       2.278  -2.260   3.191  0.00  0.00    -0.074 A 
ATOM      7  C6  UNL d   1       1.700  -1.180   2.324  0.00  0.00     0.077 C 
ATOM      8  C7  UNL d   1       3.622  -2.196   3.583  0.00  0.00    -0.001 A 
ENDROOT
TORSDOF 0
ENDMDL
