MODEL 1
REMARK minimizedAffinity 4.50613785
REMARK minimizedRMSD -1
REMARK  0 active torsions:
REMARK  status: ('A' for Active; 'I' for Inactive)
ROOT
ATOM      1  C   UNL d   1       1.765  -5.204   2.463  0.00  0.00     0.077 C 
ATOM      2  C1  UNL d   1       1.935  -3.823   3.022  0.00  0.00    -0.074 A 
ATOM      3  C2  UNL d   1       1.644  -3.549   4.363  0.00  0.00    -0.005 A 
ATOM      4  C3  UNL d   1       1.815  -2.262   4.871  0.00  0.00     0.006 A 
ATOM      5  C4  UNL d   1       2.279  -1.236   4.046  0.00  0.00    -0.005 A 
ATOM      6  C5  UNL d   1       2.576  -1.491   2.703  0.00  0.00    -0.074 A 
ATOM      7  C6  UNL d   1       3.084  -0.403   1.805  0.00  0.00     0.077 C 
ATOM      8  C7  UNL d   1       2.408  -2.789   2.202  0.00  0.00    -0.001 A 
ENDROOT
TORSDOF 0
ENDMDL
