MODEL 1
REMARK minimizedAffinity 5.47464752
REMARK minimizedRMSD -1
REMARK  0 active torsions:
REMARK  status: ('A' for Active; 'I' for Inactive)
ROOT
ATOM      1  C   UNL d   1       0.369  -4.654   5.497  0.00  0.00     0.077 C 
ATOM      2  C1  UNL d   1       1.338  -3.997   4.560  0.00  0.00    -0.074 A 
ATOM      3  C2  UNL d   1       2.612  -4.534   4.351  0.00  0.00    -0.005 A 
ATOM      4  C3  UNL d   1       3.499  -3.917   3.469  0.00  0.00     0.006 A 
ATOM      5  C4  UNL d   1       3.122  -2.758   2.789  0.00  0.00    -0.005 A 
ATOM      6  C5  UNL d   1       1.851  -2.207   2.985  0.00  0.00    -0.074 A 
ATOM      7  C6  UNL d   1       1.426  -0.968   2.255  0.00  0.00     0.077 C 
ATOM      8  C7  UNL d   1       0.963  -2.837   3.868  0.00  0.00    -0.001 A 
ENDROOT
TORSDOF 0
ENDMDL
