MODEL 1
REMARK minimizedAffinity 9.66325283
REMARK minimizedRMSD -1
REMARK  0 active torsions:
REMARK  status: ('A' for Active; 'I' for Inactive)
ROOT
ATOM      1  C   UNL d   1       2.638  -0.465   3.037  0.00  0.00     0.077 C 
ATOM      2  C1  UNL d   1       2.342  -1.934   2.976  0.00  0.00    -0.074 A 
ATOM      3  C2  UNL d   1       1.335  -2.430   2.142  0.00  0.00    -0.005 A 
ATOM      4  C3  UNL d   1       1.078  -3.800   2.089  0.00  0.00     0.006 A 
ATOM      5  C4  UNL d   1       1.823  -4.686   2.867  0.00  0.00    -0.005 A 
ATOM      6  C5  UNL d   1       2.835  -4.208   3.706  0.00  0.00    -0.074 A 
ATOM      7  C6  UNL d   1       3.653  -5.148   4.542  0.00  0.00     0.077 C 
ATOM      8  C7  UNL d   1       3.093  -2.831   3.749  0.00  0.00    -0.001 A 
ENDROOT
TORSDOF 0
ENDMDL
