MODEL 1
REMARK minimizedAffinity 5.46374512
REMARK minimizedRMSD -1
REMARK  0 active torsions:
REMARK  status: ('A' for Active; 'I' for Inactive)
ROOT
ATOM      1  C   UNL d   1       3.226   1.930   0.267  0.00  0.00     0.077 C 
ATOM      2  C1  UNL d   1       2.798   1.313   1.565  0.00  0.00    -0.074 A 
ATOM      3  C2  UNL d   1       2.701   2.083   2.729  0.00  0.00    -0.005 A 
ATOM      4  C3  UNL d   1       2.292   1.498   3.927  0.00  0.00     0.006 A 
ATOM      5  C4  UNL d   1       1.976   0.140   3.974  0.00  0.00    -0.005 A 
ATOM      6  C5  UNL d   1       2.067  -0.646   2.821  0.00  0.00    -0.074 A 
ATOM      7  C6  UNL d   1       1.722  -2.105   2.852  0.00  0.00     0.077 C 
ATOM      8  C7  UNL d   1       2.472  -0.049   1.619  0.00  0.00    -0.001 A 
ENDROOT
TORSDOF 0
ENDMDL
