MODEL 1
REMARK minimizedAffinity 5.74781609
REMARK minimizedRMSD -1
REMARK  0 active torsions:
REMARK  status: ('A' for Active; 'I' for Inactive)
ROOT
ATOM      1  C1  DEN d   1       1.348   4.992  -4.463  0.00  0.00     0.130 A 
ATOM      2  C2  DEN d   1       1.053   5.221  -5.875  0.00  0.00    -0.031 A 
ATOM      3  C3  DEN d   1      -0.357   5.649  -5.983  0.00  0.00     0.027 A 
ATOM      4  C4  DEN d   1      -2.099   5.982  -4.112  0.00  0.00     0.027 A 
ATOM      5  C5  DEN d   1      -2.319   5.900  -2.754  0.00  0.00    -0.003 A 
ATOM      6  C6  DEN d   1      -1.349   5.479  -1.882  0.00  0.00     0.001 A 
ATOM      7  C7  DEN d   1      -0.101   5.169  -2.353  0.00  0.00     0.017 A 
ATOM      8  C8  DEN d   1       0.125   5.243  -3.721  0.00  0.00    -0.094 A 
ATOM      9  C9  DEN d   1      -0.864   5.681  -4.585  0.00  0.00    -0.072 A 
ENDROOT
TORSDOF 0
ENDMDL
