MODEL 1
REMARK minimizedAffinity 4.51609087
REMARK minimizedRMSD -1
REMARK  0 active torsions:
REMARK  status: ('A' for Active; 'I' for Inactive)
ROOT
ATOM      1  C1  DEN d   1       4.601   0.793   1.483  0.00  0.00     0.130 A 
ATOM      2  C2  DEN d   1       5.496   1.819   0.953  0.00  0.00    -0.031 A 
ATOM      3  C3  DEN d   1       4.673   2.822   0.247  0.00  0.00     0.027 A 
ATOM      4  C4  DEN d   1       2.114   2.889  -0.070  0.00  0.00     0.027 A 
ATOM      5  C5  DEN d   1       0.933   2.230   0.190  0.00  0.00    -0.003 A 
ATOM      6  C6  DEN d   1       0.895   1.038   0.865  0.00  0.00     0.001 A 
ATOM      7  C7  DEN d   1       2.057   0.491   1.342  0.00  0.00     0.017 A 
ATOM      8  C8  DEN d   1       3.253   1.146   1.077  0.00  0.00    -0.094 A 
ATOM      9  C9  DEN d   1       3.269   2.356   0.404  0.00  0.00    -0.072 A 
ENDROOT
TORSDOF 0
ENDMDL
