MODEL 1
REMARK minimizedAffinity 1.12126601
REMARK minimizedRMSD -1
REMARK  0 active torsions:
REMARK  status: ('A' for Active; 'I' for Inactive)
ROOT
ATOM      1  C1  DEN d   1       1.387   5.954  -3.743  0.00  0.00     0.130 A 
ATOM      2  C2  DEN d   1       1.370   5.949  -5.203  0.00  0.00    -0.031 A 
ATOM      3  C3  DEN d   1      -0.040   5.964  -5.643  0.00  0.00     0.027 A 
ATOM      4  C4  DEN d   1      -2.185   6.000  -4.212  0.00  0.00     0.027 A 
ATOM      5  C5  DEN d   1      -2.677   5.999  -2.926  0.00  0.00    -0.003 A 
ATOM      6  C6  DEN d   1      -1.856   5.950  -1.831  0.00  0.00     0.001 A 
ATOM      7  C7  DEN d   1      -0.497   5.944  -2.001  0.00  0.00     0.017 A 
ATOM      8  C8  DEN d   1       0.006   5.937  -3.295  0.00  0.00    -0.094 A 
ATOM      9  C9  DEN d   1      -0.840   6.000  -4.389  0.00  0.00    -0.072 A 
ENDROOT
TORSDOF 0
ENDMDL
