MODEL 1
REMARK minimizedAffinity 2.29557133
REMARK minimizedRMSD -1
REMARK  0 active torsions:
REMARK  status: ('A' for Active; 'I' for Inactive)
ROOT
ATOM      1  C1  DEN d   1       0.298  -0.369   0.746  0.00  0.00     0.130 A 
ATOM      2  C2  DEN d   1       0.100   0.161   2.093  0.00  0.00    -0.031 A 
ATOM      3  C3  DEN d   1       0.581   1.558   2.109  0.00  0.00     0.027 A 
ATOM      4  C4  DEN d   1       1.602   2.945   0.189  0.00  0.00     0.027 A 
ATOM      5  C5  DEN d   1       1.981   2.920  -1.135  0.00  0.00    -0.003 A 
ATOM      6  C6  DEN d   1       1.858   1.797  -1.909  0.00  0.00     0.001 A 
ATOM      7  C7  DEN d   1       1.301   0.664  -1.378  0.00  0.00     0.017 A 
ATOM      8  C8  DEN d   1       0.923   0.678  -0.041  0.00  0.00    -0.094 A 
ATOM      9  C9  DEN d   1       1.044   1.828   0.721  0.00  0.00    -0.072 A 
ENDROOT
TORSDOF 0
ENDMDL
