MODEL 1
REMARK minimizedAffinity 13.6141129
REMARK minimizedRMSD -1
REMARK  0 active torsions:
REMARK  status: ('A' for Active; 'I' for Inactive)
ROOT
ATOM      1  C1  DEN d   1      -2.308  -1.704  -1.489  0.00  0.00     0.130 A 
ATOM      2  C2  DEN d   1      -3.733  -1.945  -1.699  0.00  0.00    -0.031 A 
ATOM      3  C3  DEN d   1      -3.993  -1.914  -3.152  0.00  0.00     0.027 A 
ATOM      4  C4  DEN d   1      -2.334  -1.524  -5.088  0.00  0.00     0.027 A 
ATOM      5  C5  DEN d   1      -1.019  -1.264  -5.405  0.00  0.00    -0.003 A 
ATOM      6  C6  DEN d   1      -0.056  -1.100  -4.445  0.00  0.00     0.001 A 
ATOM      7  C7  DEN d   1      -0.385  -1.240  -3.122  0.00  0.00     0.017 A 
ATOM      8  C8  DEN d   1      -1.710  -1.494  -2.795  0.00  0.00    -0.094 A 
ATOM      9  C9  DEN d   1      -2.667  -1.669  -3.781  0.00  0.00    -0.072 A 
ENDROOT
TORSDOF 0
ENDMDL
