MODEL 1
REMARK minimizedAffinity 9.47550774
REMARK minimizedRMSD -1
REMARK  0 active torsions:
REMARK  status: ('A' for Active; 'I' for Inactive)
ROOT
ATOM      1  C1  DEN d   1       0.739  -0.316   0.663  0.00  0.00     0.130 A 
ATOM      2  C2  DEN d   1      -0.002  -0.084   1.900  0.00  0.00    -0.031 A 
ATOM      3  C3  DEN d   1      -0.121   1.375   2.095  0.00  0.00     0.027 A 
ATOM      4  C4  DEN d   1       0.762   3.287   0.607  0.00  0.00     0.027 A 
ATOM      5  C5  DEN d   1       1.462   3.584  -0.542  0.00  0.00    -0.003 A 
ATOM      6  C6  DEN d   1       1.995   2.611  -1.345  0.00  0.00     0.001 A 
ATOM      7  C7  DEN d   1       1.797   1.291  -1.034  0.00  0.00     0.017 A 
ATOM      8  C8  DEN d   1       1.099   0.984   0.127  0.00  0.00    -0.094 A 
ATOM      9  C9  DEN d   1       0.558   1.982   0.919  0.00  0.00    -0.072 A 
ENDROOT
TORSDOF 0
ENDMDL
