MODEL 1
REMARK minimizedAffinity 0.601924241
REMARK minimizedRMSD -1
REMARK  0 active torsions:
REMARK  status: ('A' for Active; 'I' for Inactive)
ROOT
ATOM      1  C1  DEN d   1      -2.929   5.962  -1.054  0.00  0.00     0.130 A 
ATOM      2  C2  DEN d   1      -4.379   5.987  -1.223  0.00  0.00    -0.031 A 
ATOM      3  C3  DEN d   1      -4.669   5.999  -2.671  0.00  0.00     0.027 A 
ATOM      4  C4  DEN d   1      -3.023   5.977  -4.656  0.00  0.00     0.027 A 
ATOM      5  C5  DEN d   1      -1.692   5.968  -5.011  0.00  0.00    -0.003 A 
ATOM      6  C6  DEN d   1      -0.688   5.990  -4.079  0.00  0.00     0.001 A 
ATOM      7  C7  DEN d   1      -1.000   5.977  -2.745  0.00  0.00     0.017 A 
ATOM      8  C8  DEN d   1      -2.339   5.994  -2.380  0.00  0.00    -0.094 A 
ATOM      9  C9  DEN d   1      -3.340   5.959  -3.337  0.00  0.00    -0.072 A 
ENDROOT
TORSDOF 0
ENDMDL
