MODEL 1
REMARK minimizedAffinity 3.91528368
REMARK minimizedRMSD -1
REMARK  0 active torsions:
REMARK  status: ('A' for Active; 'I' for Inactive)
ROOT
ATOM      1  C1  DEN d   1      -1.486   5.981  -5.238  0.00  0.00     0.130 A 
ATOM      2  C2  DEN d   1      -0.057   5.978  -4.939  0.00  0.00    -0.031 A 
ATOM      3  C3  DEN d   1       0.102   5.959  -3.471  0.00  0.00     0.027 A 
ATOM      4  C4  DEN d   1      -1.716   5.930  -1.642  0.00  0.00     0.027 A 
ATOM      5  C5  DEN d   1      -3.074   5.938  -1.408  0.00  0.00    -0.003 A 
ATOM      6  C6  DEN d   1      -3.989   5.994  -2.426  0.00  0.00     0.001 A 
ATOM      7  C7  DEN d   1      -3.559   6.000  -3.726  0.00  0.00     0.017 A 
ATOM      8  C8  DEN d   1      -2.192   6.000  -3.969  0.00  0.00    -0.094 A 
ATOM      9  C9  DEN d   1      -1.283   5.930  -2.928  0.00  0.00    -0.072 A 
ENDROOT
TORSDOF 0
ENDMDL
