MODEL 1
REMARK minimizedAffinity 5.39436769
REMARK minimizedRMSD -1
REMARK  0 active torsions:
REMARK  status: ('A' for Active; 'I' for Inactive)
ROOT
ATOM      1  C1  DEN d   1      -2.541   5.950  -0.183  0.00  0.00     0.130 A 
ATOM      2  C2  DEN d   1      -3.956   5.996  -0.541  0.00  0.00    -0.031 A 
ATOM      3  C3  DEN d   1      -4.055   5.995  -2.014  0.00  0.00     0.027 A 
ATOM      4  C4  DEN d   1      -2.164   5.921  -3.767  0.00  0.00     0.027 A 
ATOM      5  C5  DEN d   1      -0.798   5.886  -3.944  0.00  0.00    -0.003 A 
ATOM      6  C6  DEN d   1       0.076   5.904  -2.889  0.00  0.00     0.001 A 
ATOM      7  C7  DEN d   1      -0.408   5.912  -1.607  0.00  0.00     0.017 A 
ATOM      8  C8  DEN d   1      -1.783   5.956  -1.421  0.00  0.00    -0.094 A 
ATOM      9  C9  DEN d   1      -2.650   5.925  -2.500  0.00  0.00    -0.072 A 
ENDROOT
TORSDOF 0
ENDMDL
