MODEL 1
REMARK minimizedAffinity -2.26511526
REMARK minimizedRMSD -1
REMARK  0 active torsions:
REMARK  status: ('A' for Active; 'I' for Inactive)
ROOT
ATOM      1  C1  DEN d   1       0.962   5.922  -4.218  0.00  0.00     0.130 A 
ATOM      2  C2  DEN d   1       0.830   5.859  -5.671  0.00  0.00    -0.031 A 
ATOM      3  C3  DEN d   1      -0.609   5.858  -5.999  0.00  0.00     0.027 A 
ATOM      4  C4  DEN d   1      -2.637   5.950  -4.407  0.00  0.00     0.027 A 
ATOM      5  C5  DEN d   1      -3.026   6.000  -3.087  0.00  0.00    -0.003 A 
ATOM      6  C6  DEN d   1      -2.121   5.993  -2.058  0.00  0.00     0.001 A 
ATOM      7  C7  DEN d   1      -0.780   5.981  -2.334  0.00  0.00     0.017 A 
ATOM      8  C8  DEN d   1      -0.380   5.923  -3.663  0.00  0.00    -0.094 A 
ATOM      9  C9  DEN d   1      -1.309   5.943  -4.689  0.00  0.00    -0.072 A 
ENDROOT
TORSDOF 0
ENDMDL
