MODEL 1
REMARK minimizedAffinity 8.58558178
REMARK minimizedRMSD -1
REMARK  0 active torsions:
REMARK  status: ('A' for Active; 'I' for Inactive)
ROOT
ATOM      1  C1  DEN d   1       2.654   2.611  -3.395  0.00  0.00     0.130 A 
ATOM      2  C2  DEN d   1       4.042   2.181  -3.251  0.00  0.00    -0.031 A 
ATOM      3  C3  DEN d   1       4.895   3.137  -3.986  0.00  0.00     0.027 A 
ATOM      4  C4  DEN d   1       4.205   5.234  -5.319  0.00  0.00     0.027 A 
ATOM      5  C5  DEN d   1       3.138   5.999  -5.734  0.00  0.00    -0.003 A 
ATOM      6  C6  DEN d   1       1.843   5.673  -5.430  0.00  0.00     0.001 A 
ATOM      7  C7  DEN d   1       1.584   4.576  -4.651  0.00  0.00     0.017 A 
ATOM      8  C8  DEN d   1       2.655   3.796  -4.234  0.00  0.00    -0.094 A 
ATOM      9  C9  DEN d   1       3.957   4.149  -4.542  0.00  0.00    -0.072 A 
ENDROOT
TORSDOF 0
ENDMDL
