MODEL 1
REMARK minimizedAffinity -2.71423173
REMARK minimizedRMSD -1
REMARK  0 active torsions:
REMARK  status: ('A' for Active; 'I' for Inactive)
ROOT
ATOM      1  C1  DEN d   1      -0.706   5.823  -2.410  0.00  0.00     0.130 A 
ATOM      2  C2  DEN d   1      -2.073   5.614  -2.879  0.00  0.00    -0.031 A 
ATOM      3  C3  DEN d   1      -2.035   5.469  -4.348  0.00  0.00     0.027 A 
ATOM      4  C4  DEN d   1      -0.002   5.542  -5.933  0.00  0.00     0.027 A 
ATOM      5  C5  DEN d   1       1.364   5.708  -6.000  0.00  0.00    -0.003 A 
ATOM      6  C6  DEN d   1       2.125   5.955  -4.888  0.00  0.00     0.001 A 
ATOM      7  C7  DEN d   1       1.530   5.999  -3.655  0.00  0.00     0.017 A 
ATOM      8  C8  DEN d   1       0.153   5.841  -3.580  0.00  0.00    -0.094 A 
ATOM      9  C9  DEN d   1      -0.597   5.579  -4.714  0.00  0.00    -0.072 A 
ENDROOT
TORSDOF 0
ENDMDL
