MODEL 1
REMARK minimizedAffinity 10.6647787
REMARK minimizedRMSD -1
REMARK  0 active torsions:
REMARK  status: ('A' for Active; 'I' for Inactive)
ROOT
ATOM      1  C1  DEN d   1      -2.664   1.234   3.365  0.00  0.00     0.130 A 
ATOM      2  C2  DEN d   1      -1.646   1.081   4.401  0.00  0.00    -0.031 A 
ATOM      3  C3  DEN d   1      -0.404   0.614   3.754  0.00  0.00     0.027 A 
ATOM      4  C4  DEN d   1       0.042   0.122   1.261  0.00  0.00     0.027 A 
ATOM      5  C5  DEN d   1      -0.520   0.095   0.004  0.00  0.00    -0.003 A 
ATOM      6  C6  DEN d   1      -1.835   0.410  -0.214  0.00  0.00     0.001 A 
ATOM      7  C7  DEN d   1      -2.620   0.811   0.835  0.00  0.00     0.017 A 
ATOM      8  C8  DEN d   1      -2.062   0.833   2.106  0.00  0.00    -0.094 A 
ATOM      9  C9  DEN d   1      -0.728   0.522   2.305  0.00  0.00    -0.072 A 
ENDROOT
TORSDOF 0
ENDMDL
