MODEL 1
REMARK minimizedAffinity 10.0162144
REMARK minimizedRMSD -1
REMARK  0 active torsions:
REMARK  status: ('A' for Active; 'I' for Inactive)
ROOT
ATOM      1  C1  DEN d   1       1.585   2.012  -2.000  0.00  0.00     0.130 A 
ATOM      2  C2  DEN d   1       2.502   3.004  -1.443  0.00  0.00    -0.031 A 
ATOM      3  C3  DEN d   1       2.613   2.757   0.009  0.00  0.00     0.027 A 
ATOM      4  C4  DEN d   1       1.467   0.943   1.439  0.00  0.00     0.027 A 
ATOM      5  C5  DEN d   1       0.592  -0.121   1.413  0.00  0.00    -0.003 A 
ATOM      6  C6  DEN d   1      -0.034  -0.524   0.263  0.00  0.00     0.001 A 
ATOM      7  C7  DEN d   1       0.241   0.114  -0.918  0.00  0.00     0.017 A 
ATOM      8  C8  DEN d   1       1.116   1.192  -0.898  0.00  0.00    -0.094 A 
ATOM      9  C9  DEN d   1       1.748   1.576   0.272  0.00  0.00    -0.072 A 
ENDROOT
TORSDOF 0
ENDMDL
