MODEL 1
REMARK minimizedAffinity -2.61143017
REMARK minimizedRMSD -1
REMARK  0 active torsions:
REMARK  status: ('A' for Active; 'I' for Inactive)
ROOT
ATOM      1  C1  DEN d   1       2.299   5.999  -5.999  0.00  0.00     0.130 A 
ATOM      2  C2  DEN d   1       1.321   5.046  -5.483  0.00  0.00    -0.031 A 
ATOM      3  C3  DEN d   1       2.057   3.934  -4.849  0.00  0.00     0.027 A 
ATOM      4  C4  DEN d   1       4.604   3.600  -4.613  0.00  0.00     0.027 A 
ATOM      5  C5  DEN d   1       5.838   4.138  -4.905  0.00  0.00    -0.003 A 
ATOM      6  C6  DEN d   1       5.979   5.306  -5.606  0.00  0.00     0.001 A 
ATOM      7  C7  DEN d   1       4.865   5.999  -6.000  0.00  0.00     0.017 A 
ATOM      8  C8  DEN d   1       3.617   5.460  -5.716  0.00  0.00    -0.094 A 
ATOM      9  C9  DEN d   1       3.496   4.284  -4.995  0.00  0.00    -0.072 A 
ENDROOT
TORSDOF 0
ENDMDL
