MODEL 1
REMARK minimizedAffinity 5.42647219
REMARK minimizedRMSD -1
REMARK  0 active torsions:
REMARK  status: ('A' for Active; 'I' for Inactive)
ROOT
ATOM      1  C1  DEN d   1       0.487   5.949  -2.381  0.00  0.00     0.130 A 
ATOM      2  C2  DEN d   1       0.714   5.966  -3.824  0.00  0.00    -0.031 A 
ATOM      3  C3  DEN d   1      -0.602   5.984  -4.493  0.00  0.00     0.027 A 
ATOM      4  C4  DEN d   1      -2.957   5.994  -3.441  0.00  0.00     0.027 A 
ATOM      5  C5  DEN d   1      -3.656   5.974  -2.254  0.00  0.00    -0.003 A 
ATOM      6  C6  DEN d   1      -3.030   5.910  -1.038  0.00  0.00     0.001 A 
ATOM      7  C7  DEN d   1      -1.661   5.910  -0.979  0.00  0.00     0.017 A 
ATOM      8  C8  DEN d   1      -0.949   5.923  -2.171  0.00  0.00    -0.094 A 
ATOM      9  C9  DEN d   1      -1.601   6.000  -3.390  0.00  0.00    -0.072 A 
ENDROOT
TORSDOF 0
ENDMDL
