MODEL 1
REMARK minimizedAffinity 2.87642121
REMARK minimizedRMSD -1
REMARK  0 active torsions:
REMARK  status: ('A' for Active; 'I' for Inactive)
ROOT
ATOM      1  C1  DEN d   1      -3.816   5.959  -1.889  0.00  0.00     0.130 A 
ATOM      2  C2  DEN d   1      -4.853   5.984  -2.917  0.00  0.00    -0.031 A 
ATOM      3  C3  DEN d   1      -4.188   6.000  -4.235  0.00  0.00     0.027 A 
ATOM      4  C4  DEN d   1      -1.667   5.984  -4.782  0.00  0.00     0.027 A 
ATOM      5  C5  DEN d   1      -0.401   5.977  -4.240  0.00  0.00    -0.003 A 
ATOM      6  C6  DEN d   1      -0.186   5.997  -2.888  0.00  0.00     0.001 A 
ATOM      7  C7  DEN d   1      -1.254   5.980  -2.030  0.00  0.00     0.017 A 
ATOM      8  C8  DEN d   1      -2.533   5.995  -2.569  0.00  0.00    -0.094 A 
ATOM      9  C9  DEN d   1      -2.731   5.962  -3.939  0.00  0.00    -0.072 A 
ENDROOT
TORSDOF 0
ENDMDL
