MODEL 1
REMARK minimizedAffinity 0.781082332
REMARK minimizedRMSD -1
REMARK  0 active torsions:
REMARK  status: ('A' for Active; 'I' for Inactive)
ROOT
ATOM      1  C   UNL d   1      -0.122   1.868   2.745  0.00  0.00     0.020 A 
ATOM      2  C1  UNL d   1       0.259   1.818   1.405  0.00  0.00     0.020 A 
ATOM      3  C2  UNL d   1      -0.331   0.888   0.546  0.00  0.00     0.034 A 
ATOM      4  C3  UNL d   1      -1.305   0.006   1.026  0.00  0.00     0.017 A 
ATOM      5  C4  UNL d   1      -1.687   0.057   2.371  0.00  0.00     0.017 A 
ATOM      6  C5  UNL d   1      -1.093   0.990   3.227  0.00  0.00     0.034 A 
ATOM      7 Cl   UNL d   1      -2.882  -0.999   3.036  0.00  0.00    -0.070 Cl
ATOM      8 Cl1  UNL d   1      -1.993  -1.117  -0.093  0.00  0.00    -0.070 Cl
ENDROOT
TORSDOF 0
ENDMDL
