MODEL 1
REMARK minimizedAffinity 0.931460977
REMARK minimizedRMSD -1
REMARK  0 active torsions:
REMARK  status: ('A' for Active; 'I' for Inactive)
ROOT
ATOM      1  C   UNL d   1      -1.061   0.668   2.477  0.00  0.00     0.020 A 
ATOM      2  C1  UNL d   1      -2.102   0.050   1.785  0.00  0.00     0.020 A 
ATOM      3  C2  UNL d   1      -1.934  -0.308   0.446  0.00  0.00     0.034 A 
ATOM      4  C3  UNL d   1      -0.722  -0.049  -0.205  0.00  0.00     0.017 A 
ATOM      5  C4  UNL d   1       0.322   0.571   0.490  0.00  0.00     0.017 A 
ATOM      6  C5  UNL d   1       0.148   0.928   1.831  0.00  0.00     0.034 A 
ATOM      7 Cl   UNL d   1       1.846   0.923  -0.246  0.00  0.00    -0.070 Cl
ATOM      8 Cl1  UNL d   1      -0.584  -0.520  -1.862  0.00  0.00    -0.070 Cl
ENDROOT
TORSDOF 0
ENDMDL
