MODEL 1
REMARK minimizedAffinity 1.78437603
REMARK minimizedRMSD -1
REMARK  0 active torsions:
REMARK  status: ('A' for Active; 'I' for Inactive)
ROOT
ATOM      1  C   UNL d   1       1.106  -0.813  -0.390  0.00  0.00     0.020 A 
ATOM      2  C1  UNL d   1       1.432  -0.393   0.899  0.00  0.00     0.020 A 
ATOM      3  C2  UNL d   1       0.423   0.004   1.780  0.00  0.00     0.034 A 
ATOM      4  C3  UNL d   1      -0.916  -0.019   1.372  0.00  0.00     0.017 A 
ATOM      5  C4  UNL d   1      -1.241  -0.441   0.078  0.00  0.00     0.017 A 
ATOM      6  C5  UNL d   1      -0.227  -0.837  -0.799  0.00  0.00     0.034 A 
ATOM      7 Cl   UNL d   1      -2.871  -0.495  -0.496  0.00  0.00    -0.070 Cl
ATOM      8 Cl1  UNL d   1      -2.111   0.485   2.514  0.00  0.00    -0.070 Cl
ENDROOT
TORSDOF 0
ENDMDL
