MODEL 1
REMARK minimizedAffinity -2.76581454
REMARK minimizedRMSD -1
REMARK  0 active torsions:
REMARK  status: ('A' for Active; 'I' for Inactive)
ROOT
ATOM      1  C   UNL d   1      -0.481   1.130   2.923  0.00  0.00     0.020 A 
ATOM      2  C1  UNL d   1      -1.626   0.827   2.188  0.00  0.00     0.020 A 
ATOM      3  C2  UNL d   1      -1.526   0.066   1.022  0.00  0.00     0.034 A 
ATOM      4  C3  UNL d   1      -0.278  -0.395   0.587  0.00  0.00     0.017 A 
ATOM      5  C4  UNL d   1       0.871  -0.090   1.326  0.00  0.00     0.017 A 
ATOM      6  C5  UNL d   1       0.765   0.673   2.493  0.00  0.00     0.034 A 
ATOM      7 Cl   UNL d   1       2.445  -0.624   0.853  0.00  0.00    -0.070 Cl
ATOM      8 Cl1  UNL d   1      -0.228  -1.332  -0.864  0.00  0.00    -0.070 Cl
ENDROOT
TORSDOF 0
ENDMDL
