MODEL 1
REMARK minimizedAffinity -5.34725189
REMARK minimizedRMSD -1
REMARK  0 active torsions:
REMARK  status: ('A' for Active; 'I' for Inactive)
ROOT
ATOM      1  C   UNL d   1       1.988  -0.659  -0.564  0.00  0.00     0.020 A 
ATOM      2  C1  UNL d   1       0.630  -0.490  -0.831  0.00  0.00     0.020 A 
ATOM      3  C2  UNL d   1      -0.219   0.010   0.158  0.00  0.00     0.034 A 
ATOM      4  C3  UNL d   1       0.289   0.343   1.419  0.00  0.00     0.017 A 
ATOM      5  C4  UNL d   1       1.652   0.172   1.686  0.00  0.00     0.017 A 
ATOM      6  C5  UNL d   1       2.497  -0.329   0.692  0.00  0.00     0.034 A 
ATOM      7 Cl   UNL d   1       2.352   0.560   3.218  0.00  0.00    -0.070 Cl
ATOM      8 Cl1  UNL d   1      -0.819   0.956   2.595  0.00  0.00    -0.070 Cl
ENDROOT
TORSDOF 0
ENDMDL
