MODEL 1
REMARK minimizedAffinity -5.05637264
REMARK minimizedRMSD -1
REMARK  0 active torsions:
REMARK  status: ('A' for Active; 'I' for Inactive)
ROOT
ATOM      1  C   UNL d   1      -1.438   0.986   1.754  0.00  0.00     0.020 A 
ATOM      2  C1  UNL d   1      -2.187   0.307   0.794  0.00  0.00     0.020 A 
ATOM      3  C2  UNL d   1      -1.542  -0.441  -0.194  0.00  0.00     0.034 A 
ATOM      4  C3  UNL d   1      -0.144  -0.512  -0.223  0.00  0.00     0.017 A 
ATOM      5  C4  UNL d   1       0.606   0.171   0.742  0.00  0.00     0.017 A 
ATOM      6  C5  UNL d   1      -0.045   0.918   1.728  0.00  0.00     0.034 A 
ATOM      7 Cl   UNL d   1       2.334   0.131   0.770  0.00  0.00    -0.070 Cl
ATOM      8 Cl1  UNL d   1       0.587  -1.455  -1.472  0.00  0.00    -0.070 Cl
ENDROOT
TORSDOF 0
ENDMDL
