MODEL 1
REMARK minimizedAffinity -3.22249341
REMARK minimizedRMSD -1
REMARK  0 active torsions:
REMARK  status: ('A' for Active; 'I' for Inactive)
ROOT
ATOM      1  C   UNL d   1       1.465  -0.201   0.243  0.00  0.00     0.020 A 
ATOM      2  C1  UNL d   1       0.546  -0.989  -0.449  0.00  0.00     0.020 A 
ATOM      3  C2  UNL d   1      -0.824  -0.787  -0.267  0.00  0.00     0.034 A 
ATOM      4  C3  UNL d   1      -1.279   0.206   0.608  0.00  0.00     0.017 A 
ATOM      5  C4  UNL d   1      -0.356   0.997   1.302  0.00  0.00     0.017 A 
ATOM      6  C5  UNL d   1       1.015   0.790   1.116  0.00  0.00     0.034 A 
ATOM      7 Cl   UNL d   1      -0.841   2.241   2.399  0.00  0.00    -0.070 Cl
ATOM      8 Cl1  UNL d   1      -2.987   0.401   0.784  0.00  0.00    -0.070 Cl
ENDROOT
TORSDOF 0
ENDMDL
