MODEL 1
REMARK minimizedAffinity -3.44215798
REMARK minimizedRMSD -1
REMARK  0 active torsions:
REMARK  status: ('A' for Active; 'I' for Inactive)
ROOT
ATOM      1  C   UNL d   1       1.394  -0.874  -0.148  0.00  0.00     0.020 A 
ATOM      2  C1  UNL d   1       0.281  -0.052  -0.318  0.00  0.00     0.020 A 
ATOM      3  C2  UNL d   1       0.168   0.741  -1.462  0.00  0.00     0.034 A 
ATOM      4  C3  UNL d   1       1.169   0.714  -2.440  0.00  0.00     0.017 A 
ATOM      5  C4  UNL d   1       2.285  -0.112  -2.268  0.00  0.00     0.017 A 
ATOM      6  C5  UNL d   1       2.394  -0.904  -1.121  0.00  0.00     0.034 A 
ATOM      7 Cl   UNL d   1       3.561  -0.200  -3.431  0.00  0.00    -0.070 Cl
ATOM      8 Cl1  UNL d   1       0.963   1.720  -3.829  0.00  0.00    -0.070 Cl
ENDROOT
TORSDOF 0
ENDMDL
