MODEL 1
REMARK minimizedAffinity -3.42880654
REMARK minimizedRMSD -1
REMARK  0 active torsions:
REMARK  status: ('A' for Active; 'I' for Inactive)
ROOT
ATOM      1  C   UNL d   1       1.217  -0.583  -0.841  0.00  0.00     0.020 A 
ATOM      2  C1  UNL d   1      -0.142  -0.316  -1.005  0.00  0.00     0.020 A 
ATOM      3  C2  UNL d   1      -0.942  -0.054   0.109  0.00  0.00     0.034 A 
ATOM      4  C3  UNL d   1      -0.383  -0.059   1.393  0.00  0.00     0.017 A 
ATOM      5  C4  UNL d   1       0.980  -0.327   1.556  0.00  0.00     0.017 A 
ATOM      6  C5  UNL d   1       1.777  -0.589   0.437  0.00  0.00     0.034 A 
ATOM      7 Cl   UNL d   1       1.741  -0.350   3.108  0.00  0.00    -0.070 Cl
ATOM      8 Cl1  UNL d   1      -1.431   0.274   2.725  0.00  0.00    -0.070 Cl
ENDROOT
TORSDOF 0
ENDMDL
