MODEL 1
REMARK minimizedAffinity -1.96966934
REMARK minimizedRMSD -1
REMARK  0 active torsions:
REMARK  status: ('A' for Active; 'I' for Inactive)
ROOT
ATOM      1  C   UNL d   1      -2.067   0.191   0.913  0.00  0.00     0.020 A 
ATOM      2  C1  UNL d   1      -2.319   0.166   2.284  0.00  0.00     0.020 A 
ATOM      3  C2  UNL d   1      -1.359  -0.343   3.161  0.00  0.00     0.034 A 
ATOM      4  C3  UNL d   1      -0.143  -0.829   2.669  0.00  0.00     0.017 A 
ATOM      5  C4  UNL d   1       0.110  -0.804   1.293  0.00  0.00     0.017 A 
ATOM      6  C5  UNL d   1      -0.855  -0.293   0.419  0.00  0.00     0.034 A 
ATOM      7 Cl   UNL d   1       1.587  -1.386   0.610  0.00  0.00    -0.070 Cl
ATOM      8 Cl1  UNL d   1       0.999  -1.444   3.812  0.00  0.00    -0.070 Cl
ENDROOT
TORSDOF 0
ENDMDL
