MODEL 1
REMARK minimizedAffinity 7.96091986
REMARK minimizedRMSD -1
REMARK  0 active torsions:
REMARK  status: ('A' for Active; 'I' for Inactive)
ROOT
ATOM      1  C1  DEN d   1      -1.376   1.031  -2.994  0.00  0.00     0.130 A 
ATOM      2  C2  DEN d   1      -1.576   0.456  -1.667  0.00  0.00    -0.031 A 
ATOM      3  C3  DEN d   1      -2.857  -0.278  -1.676  0.00  0.00     0.027 A 
ATOM      4  C4  DEN d   1      -4.540  -0.582  -3.606  0.00  0.00     0.027 A 
ATOM      5  C5  DEN d   1      -4.810  -0.268  -4.920  0.00  0.00    -0.003 A 
ATOM      6  C6  DEN d   1      -3.978   0.522  -5.668  0.00  0.00     0.001 A 
ATOM      7  C7  DEN d   1      -2.812   0.989  -5.120  0.00  0.00     0.017 A 
ATOM      8  C8  DEN d   1      -2.537   0.683  -3.794  0.00  0.00    -0.094 A 
ATOM      9  C9  DEN d   1      -3.385  -0.128  -3.059  0.00  0.00    -0.072 A 
ENDROOT
TORSDOF 0
ENDMDL
