MODEL 1
REMARK minimizedAffinity 6.75049973
REMARK minimizedRMSD -1
REMARK  0 active torsions:
REMARK  status: ('A' for Active; 'I' for Inactive)
ROOT
ATOM      1  C1  DEN d   1      -4.876  -1.003  -3.439  0.00  0.00     0.130 A 
ATOM      2  C2  DEN d   1      -5.985  -0.527  -4.262  0.00  0.00    -0.031 A 
ATOM      3  C3  DEN d   1      -5.510   0.637  -5.038  0.00  0.00     0.027 A 
ATOM      4  C4  DEN d   1      -3.177   1.737  -5.050  0.00  0.00     0.027 A 
ATOM      5  C5  DEN d   1      -1.912   1.692  -4.507  0.00  0.00    -0.003 A 
ATOM      6  C6  DEN d   1      -1.559   0.774  -3.554  0.00  0.00     0.001 A 
ATOM      7  C7  DEN d   1      -2.469  -0.166  -3.146  0.00  0.00     0.017 A 
ATOM      8  C8  DEN d   1      -3.749  -0.121  -3.683  0.00  0.00    -0.094 A 
ATOM      9  C9  DEN d   1      -4.082   0.806  -4.655  0.00  0.00    -0.072 A 
ENDROOT
TORSDOF 0
ENDMDL
