MODEL 1
REMARK minimizedAffinity 9.76951694
REMARK minimizedRMSD -1
REMARK  0 active torsions:
REMARK  status: ('A' for Active; 'I' for Inactive)
ROOT
ATOM      1  C1  DEN d   1       6.000  -0.699   1.234  0.00  0.00     0.130 A 
ATOM      2  C2  DEN d   1       5.415  -1.876   1.870  0.00  0.00    -0.031 A 
ATOM      3  C3  DEN d   1       4.106  -2.133   1.238  0.00  0.00     0.027 A 
ATOM      4  C4  DEN d   1       2.936  -0.833  -0.658  0.00  0.00     0.027 A 
ATOM      5  C5  DEN d   1       3.038   0.245  -1.509  0.00  0.00    -0.003 A 
ATOM      6  C6  DEN d   1       4.110   1.098  -1.482  0.00  0.00     0.001 A 
ATOM      7  C7  DEN d   1       5.145   0.859  -0.616  0.00  0.00     0.017 A 
ATOM      8  C8  DEN d   1       5.046  -0.222   0.249  0.00  0.00    -0.094 A 
ATOM      9  C9  DEN d   1       3.959  -1.079   0.198  0.00  0.00    -0.072 A 
ENDROOT
TORSDOF 0
ENDMDL
