MODEL 1
REMARK minimizedAffinity 11.5296144
REMARK minimizedRMSD -1
REMARK  0 active torsions:
REMARK  status: ('A' for Active; 'I' for Inactive)
ROOT
ATOM      1  C1  DEN d   1       5.287   2.129   0.510  0.00  0.00     0.130 A 
ATOM      2  C2  DEN d   1       5.071   1.417  -0.746  0.00  0.00    -0.031 A 
ATOM      3  C3  DEN d   1       5.213   2.387  -1.851  0.00  0.00     0.027 A 
ATOM      4  C4  DEN d   1       5.746   4.908  -1.738  0.00  0.00     0.027 A 
ATOM      5  C5  DEN d   1       6.000   5.965  -0.892  0.00  0.00    -0.003 A 
ATOM      6  C6  DEN d   1       6.000   5.826   0.471  0.00  0.00     0.001 A 
ATOM      7  C7  DEN d   1       5.786   4.592   1.027  0.00  0.00     0.017 A 
ATOM      8  C8  DEN d   1       5.522   3.523   0.181  0.00  0.00    -0.094 A 
ATOM      9  C9  DEN d   1       5.539   3.682  -1.195  0.00  0.00    -0.072 A 
ENDROOT
TORSDOF 0
ENDMDL
