MODEL 1
REMARK minimizedAffinity 12.9393272
REMARK minimizedRMSD -1
REMARK  0 active torsions:
REMARK  status: ('A' for Active; 'I' for Inactive)
ROOT
ATOM      1  C1  DEN d   1       3.116   0.217   1.179  0.00  0.00     0.130 A 
ATOM      2  C2  DEN d   1       3.689  -0.086  -0.130  0.00  0.00    -0.031 A 
ATOM      3  C3  DEN d   1       2.634   0.106  -1.145  0.00  0.00     0.027 A 
ATOM      4  C4  DEN d   1       0.184   0.844  -0.821  0.00  0.00     0.027 A 
ATOM      5  C5  DEN d   1      -0.767   1.203   0.109  0.00  0.00    -0.003 A 
ATOM      6  C6  DEN d   1      -0.501   1.225   1.453  0.00  0.00     0.001 A 
ATOM      7  C7  DEN d   1       0.758   0.926   1.901  0.00  0.00     0.017 A 
ATOM      8  C8  DEN d   1       1.720   0.556   0.970  0.00  0.00    -0.094 A 
ATOM      9  C9  DEN d   1       1.435   0.551  -0.385  0.00  0.00    -0.072 A 
ENDROOT
TORSDOF 0
ENDMDL
