MODEL 1
REMARK minimizedAffinity 3.1504705
REMARK minimizedRMSD -1
REMARK  0 active torsions:
REMARK  status: ('A' for Active; 'I' for Inactive)
ROOT
ATOM      1  C1  DEN d   1       2.076   0.037  -1.008  0.00  0.00     0.130 A 
ATOM      2  C2  DEN d   1       3.325   0.029  -0.252  0.00  0.00    -0.031 A 
ATOM      3  C3  DEN d   1       3.530  -1.335   0.276  0.00  0.00     0.027 A 
ATOM      4  C4  DEN d   1       2.044  -3.424  -0.005  0.00  0.00     0.027 A 
ATOM      5  C5  DEN d   1       0.876  -3.905  -0.554  0.00  0.00    -0.003 A 
ATOM      6  C6  DEN d   1       0.016  -3.104  -1.258  0.00  0.00     0.001 A 
ATOM      7  C7  DEN d   1       0.334  -1.789  -1.470  0.00  0.00     0.017 A 
ATOM      8  C8  DEN d   1       1.506  -1.295  -0.914  0.00  0.00    -0.094 A 
ATOM      9  C9  DEN d   1       2.369  -2.123  -0.216  0.00  0.00    -0.072 A 
ENDROOT
TORSDOF 0
ENDMDL
