MODEL 1
REMARK minimizedAffinity -3.37572336
REMARK minimizedRMSD -1
REMARK  2 active torsions:
REMARK  status: ('A' for Active; 'I' for Inactive)
REMARK    1  A    between atoms: C2'_3  and  C1'_4 
REMARK    2  A    between atoms: C1'_4  and  C1_5 
ROOT
ATOM      1  C1  I4B d   1       0.446  -0.656   0.389  0.00  0.00    -0.075 A 
ATOM      2  C2  I4B d   1       1.652  -1.308   0.333  0.00  0.00     0.003 A 
ATOM      3  C3  I4B d   1       2.023  -2.210   1.360  0.00  0.00     0.002 A 
ATOM      4  C4  I4B d   1       1.186  -2.389   2.442  0.00  0.00    -0.004 A 
ATOM      5  C5  I4B d   1      -0.047  -1.744   2.486  0.00  0.00     0.002 A 
ATOM      6  C6  I4B d   1      -0.425  -0.881   1.447  0.00  0.00     0.003 A 
ENDROOT
BRANCH   1   7
ATOM      7  C1' I4B d   1       0.101   0.314  -0.696  0.00  0.00     0.060 C 
BRANCH   7   8
ATOM      8  C2' I4B d   1      -1.139   1.073  -0.267  0.00  0.00    -0.013 C 
ATOM      9  C4' I4B d   1      -0.792   2.198   0.672  0.00  0.00     0.013 C 
ATOM     10  C3' I4B d   1      -1.817   1.587  -1.501  0.00  0.00     0.013 C 
ENDBRANCH   7   8
ENDBRANCH   1   7
TORSDOF 2
ENDMDL
