MODEL 1
REMARK minimizedAffinity -5.13393974
REMARK minimizedRMSD -1
REMARK  2 active torsions:
REMARK  status: ('A' for Active; 'I' for Inactive)
REMARK    1  A    between atoms: C2'_3  and  C1'_4 
REMARK    2  A    between atoms: C1'_4  and  C1_5 
ROOT
ATOM      1  C1  I4B d   1       0.032  -0.194   0.805  0.00  0.00    -0.075 A 
ATOM      2  C2  I4B d   1       1.175  -0.533   0.125  0.00  0.00     0.003 A 
ATOM      3  C3  I4B d   1       1.930  -1.663   0.521  0.00  0.00     0.002 A 
ATOM      4  C4  I4B d   1       1.536  -2.392   1.625  0.00  0.00    -0.004 A 
ATOM      5  C5  I4B d   1       0.364  -2.060   2.299  0.00  0.00     0.002 A 
ATOM      6  C6  I4B d   1      -0.400  -0.961   1.879  0.00  0.00     0.003 A 
ENDROOT
BRANCH   1   7
ATOM      7  C1' I4B d   1      -0.724   1.026   0.381  0.00  0.00     0.060 C 
BRANCH   7   8
ATOM      8  C2' I4B d   1      -0.915   0.958  -1.120  0.00  0.00    -0.013 C 
ATOM      9  C4' I4B d   1      -1.842  -0.166  -1.502  0.00  0.00     0.013 C 
ATOM     10  C3' I4B d   1      -1.451   2.281  -1.579  0.00  0.00     0.013 C 
ENDBRANCH   7   8
ENDBRANCH   1   7
TORSDOF 2
ENDMDL
