MODEL 1
REMARK minimizedAffinity -6.24134874
REMARK minimizedRMSD -1
REMARK  2 active torsions:
REMARK  status: ('A' for Active; 'I' for Inactive)
REMARK    1  A    between atoms: C2'_3  and  C1'_4 
REMARK    2  A    between atoms: C1'_4  and  C1_5 
ROOT
ATOM      1  C1  I4B d   1      -0.117  -1.124   0.177  0.00  0.00    -0.075 A 
ATOM      2  C2  I4B d   1      -0.980  -0.863   1.211  0.00  0.00     0.003 A 
ATOM      3  C3  I4B d   1      -1.528   0.433   1.372  0.00  0.00     0.002 A 
ATOM      4  C4  I4B d   1      -1.149   1.443   0.512  0.00  0.00    -0.004 A 
ATOM      5  C5  I4B d   1      -0.291   1.171  -0.550  0.00  0.00     0.002 A 
ATOM      6  C6  I4B d   1       0.219  -0.124  -0.726  0.00  0.00     0.003 A 
ENDROOT
BRANCH   1   7
ATOM      7  C1' I4B d   1       0.469  -2.495   0.056  0.00  0.00     0.060 C 
BRANCH   7   8
ATOM      8  C2' I4B d   1       1.564  -2.628   1.094  0.00  0.00    -0.013 C 
ATOM      9  C4' I4B d   1       2.438  -1.402   1.125  0.00  0.00     0.013 C 
ATOM     10  C3' I4B d   1       0.915  -2.864   2.425  0.00  0.00     0.013 C 
ENDBRANCH   7   8
ENDBRANCH   1   7
TORSDOF 2
ENDMDL
