MODEL 1
REMARK minimizedAffinity -4.66945314
REMARK minimizedRMSD -1
REMARK  2 active torsions:
REMARK  status: ('A' for Active; 'I' for Inactive)
REMARK    1  A    between atoms: C2'_3  and  C1'_4 
REMARK    2  A    between atoms: C1'_4  and  C1_5 
ROOT
ATOM      1  C1  I4B d   1       0.611  -0.214  -0.797  0.00  0.00    -0.075 A 
ATOM      2  C2  I4B d   1       1.749   0.119  -0.105  0.00  0.00     0.003 A 
ATOM      3  C3  I4B d   1       2.347  -0.815   0.775  0.00  0.00     0.002 A 
ATOM      4  C4  I4B d   1       1.749  -2.043   0.972  0.00  0.00    -0.004 A 
ATOM      5  C5  I4B d   1       0.608  -2.387   0.253  0.00  0.00     0.002 A 
ATOM      6  C6  I4B d   1       0.042  -1.472  -0.646  0.00  0.00     0.003 A 
ENDROOT
BRANCH   1   7
ATOM      7  C1' I4B d   1      -0.012   0.808  -1.694  0.00  0.00     0.060 C 
BRANCH   7   8
ATOM      8  C2' I4B d   1      -1.440   1.023  -1.234  0.00  0.00    -0.013 C 
ATOM      9  C4' I4B d   1      -1.489   1.457   0.208  0.00  0.00     0.013 C 
ATOM     10  C3' I4B d   1      -2.064   2.051  -2.130  0.00  0.00     0.013 C 
ENDBRANCH   7   8
ENDBRANCH   1   7
TORSDOF 2
ENDMDL
