MODEL 1
REMARK minimizedAffinity -6.02385569
REMARK minimizedRMSD -1
REMARK  2 active torsions:
REMARK  status: ('A' for Active; 'I' for Inactive)
REMARK    1  A    between atoms: C2'_3  and  C1'_4 
REMARK    2  A    between atoms: C1'_4  and  C1_5 
ROOT
ATOM      1  C1  I4B d   1       0.510  -0.760   0.413  0.00  0.00    -0.075 A 
ATOM      2  C2  I4B d   1       1.694  -1.337   0.028  0.00  0.00     0.003 A 
ATOM      3  C3  I4B d   1       2.191  -2.472   0.715  0.00  0.00     0.002 A 
ATOM      4  C4  I4B d   1       1.501  -2.963   1.805  0.00  0.00    -0.004 A 
ATOM      5  C5  I4B d   1       0.289  -2.390   2.179  0.00  0.00     0.002 A 
ATOM      6  C6  I4B d   1      -0.217  -1.290   1.472  0.00  0.00     0.003 A 
ENDROOT
BRANCH   1   7
ATOM      7  C1' I4B d   1       0.031   0.457  -0.313  0.00  0.00     0.060 C 
BRANCH   7   8
ATOM      8  C2' I4B d   1      -0.965   0.012  -1.364  0.00  0.00    -0.013 C 
ATOM      9  C4' I4B d   1      -2.085   1.008  -1.510  0.00  0.00     0.013 C 
ATOM     10  C3' I4B d   1      -0.227  -0.166  -2.656  0.00  0.00     0.013 C 
ENDBRANCH   7   8
ENDBRANCH   1   7
TORSDOF 2
ENDMDL
