MODEL 1
REMARK minimizedAffinity -4.38343906
REMARK minimizedRMSD -1
REMARK  2 active torsions:
REMARK  status: ('A' for Active; 'I' for Inactive)
REMARK    1  A    between atoms: C2'_3  and  C1'_4 
REMARK    2  A    between atoms: C1'_4  and  C1_5 
ROOT
ATOM      1  C1  I4B d   1       0.087  -0.286   0.908  0.00  0.00    -0.075 A 
ATOM      2  C2  I4B d   1      -0.804  -0.589   1.907  0.00  0.00     0.003 A 
ATOM      3  C3  I4B d   1      -0.508  -1.613   2.839  0.00  0.00     0.002 A 
ATOM      4  C4  I4B d   1       0.658  -2.338   2.705  0.00  0.00    -0.004 A 
ATOM      5  C5  I4B d   1       1.571  -2.014   1.705  0.00  0.00     0.002 A 
ATOM      6  C6  I4B d   1       1.290  -0.974   0.808  0.00  0.00     0.003 A 
ENDROOT
BRANCH   1   7
ATOM      7  C1' I4B d   1      -0.271   0.779  -0.079  0.00  0.00     0.060 C 
BRANCH   7   8
ATOM      8  C2' I4B d   1      -0.879   0.106  -1.293  0.00  0.00    -0.013 C 
ATOM      9  C4' I4B d   1      -1.665   1.086  -2.124  0.00  0.00     0.013 C 
ATOM     10  C3' I4B d   1       0.234  -0.508  -2.088  0.00  0.00     0.013 C 
ENDBRANCH   7   8
ENDBRANCH   1   7
TORSDOF 2
ENDMDL
