MODEL 1
REMARK minimizedAffinity -4.44276619
REMARK minimizedRMSD -1
REMARK  2 active torsions:
REMARK  status: ('A' for Active; 'I' for Inactive)
REMARK    1  A    between atoms: C2'_3  and  C1'_4 
REMARK    2  A    between atoms: C1'_4  and  C1_5 
ROOT
ATOM      1  C1  I4B d   1       0.569  -0.914   0.401  0.00  0.00    -0.075 A 
ATOM      2  C2  I4B d   1       1.572  -1.827   0.195  0.00  0.00     0.003 A 
ATOM      3  C3  I4B d   1       1.717  -2.936   1.064  0.00  0.00     0.002 A 
ATOM      4  C4  I4B d   1       0.874  -3.064   2.148  0.00  0.00    -0.004 A 
ATOM      5  C5  I4B d   1      -0.157  -2.149   2.343  0.00  0.00     0.002 A 
ATOM      6  C6  I4B d   1      -0.319  -1.074   1.457  0.00  0.00     0.003 A 
ENDROOT
BRANCH   1   7
ATOM      7  C1' I4B d   1       0.465   0.263  -0.516  0.00  0.00     0.060 C 
BRANCH   7   8
ATOM      8  C2' I4B d   1      -0.983   0.707  -0.544  0.00  0.00    -0.013 C 
ATOM      9  C4' I4B d   1      -1.132   2.114  -0.028  0.00  0.00     0.013 C 
ATOM     10  C3' I4B d   1      -1.475   0.593  -1.957  0.00  0.00     0.013 C 
ENDBRANCH   7   8
ENDBRANCH   1   7
TORSDOF 2
ENDMDL
