MODEL 1
REMARK minimizedAffinity -5.52240324
REMARK minimizedRMSD -1
REMARK  2 active torsions:
REMARK  status: ('A' for Active; 'I' for Inactive)
REMARK    1  A    between atoms: C2'_3  and  C1'_4 
REMARK    2  A    between atoms: C1'_4  and  C1_5 
ROOT
ATOM      1  C1  I4B d   1       0.139  -0.406   0.255  0.00  0.00    -0.075 A 
ATOM      2  C2  I4B d   1      -0.255  -1.280   1.237  0.00  0.00     0.003 A 
ATOM      3  C3  I4B d   1       0.527  -2.423   1.530  0.00  0.00     0.002 A 
ATOM      4  C4  I4B d   1       1.661  -2.679   0.786  0.00  0.00    -0.004 A 
ATOM      5  C5  I4B d   1       2.072  -1.780  -0.194  0.00  0.00     0.002 A 
ATOM      6  C6  I4B d   1       1.313  -0.630  -0.454  0.00  0.00     0.003 A 
ENDROOT
BRANCH   1   7
ATOM      7  C1' I4B d   1      -0.728   0.774  -0.051  0.00  0.00     0.060 C 
BRANCH   7   8
ATOM      8  C2' I4B d   1      -0.832   0.900  -1.557  0.00  0.00    -0.013 C 
ATOM      9  C4' I4B d   1      -2.005   0.119  -2.089  0.00  0.00     0.013 C 
ATOM     10  C3' I4B d   1      -0.954   2.356  -1.893  0.00  0.00     0.013 C 
ENDBRANCH   7   8
ENDBRANCH   1   7
TORSDOF 2
ENDMDL
