MODEL 1
REMARK minimizedAffinity -3.2146759
REMARK minimizedRMSD -1
REMARK  2 active torsions:
REMARK  status: ('A' for Active; 'I' for Inactive)
REMARK    1  A    between atoms: C2'_3  and  C1'_4 
REMARK    2  A    between atoms: C1'_4  and  C1_5 
ROOT
ATOM      1  C1  I4B d   1       0.281   0.007   0.644  0.00  0.00    -0.075 A 
ATOM      2  C2  I4B d   1      -0.446  -0.504   1.690  0.00  0.00     0.003 A 
ATOM      3  C3  I4B d   1       0.118  -1.491   2.535  0.00  0.00     0.002 A 
ATOM      4  C4  I4B d   1       1.384  -1.971   2.269  0.00  0.00    -0.004 A 
ATOM      5  C5  I4B d   1       2.128  -1.435   1.222  0.00  0.00     0.002 A 
ATOM      6  C6  I4B d   1       1.578  -0.431   0.411  0.00  0.00     0.003 A 
ENDROOT
BRANCH   1   7
ATOM      7  C1' I4B d   1      -0.357   1.024  -0.248  0.00  0.00     0.060 C 
BRANCH   7   8
ATOM      8  C2' I4B d   1      -1.256   0.291  -1.223  0.00  0.00    -0.013 C 
ATOM      9  C4' I4B d   1      -1.910   1.247  -2.186  0.00  0.00     0.013 C 
ATOM     10  C3' I4B d   1      -0.424  -0.723  -1.948  0.00  0.00     0.013 C 
ENDBRANCH   7   8
ENDBRANCH   1   7
TORSDOF 2
ENDMDL
