MODEL 1
REMARK minimizedAffinity -6.27052402
REMARK minimizedRMSD -1
REMARK  2 active torsions:
REMARK  status: ('A' for Active; 'I' for Inactive)
REMARK    1  A    between atoms: C2'_3  and  C1'_4 
REMARK    2  A    between atoms: C1'_4  and  C1_5 
ROOT
ATOM      1  C1  I4B d   1       0.184  -1.666   0.525  0.00  0.00    -0.075 A 
ATOM      2  C2  I4B d   1       1.330  -2.309   0.128  0.00  0.00     0.003 A 
ATOM      3  C3  I4B d   1       2.104  -3.031   1.069  0.00  0.00     0.002 A 
ATOM      4  C4  I4B d   1       1.726  -3.042   2.395  0.00  0.00    -0.004 A 
ATOM      5  C5  I4B d   1       0.551  -2.408   2.792  0.00  0.00     0.002 A 
ATOM      6  C6  I4B d   1      -0.232  -1.726   1.849  0.00  0.00     0.003 A 
ENDROOT
BRANCH   1   7
ATOM      7  C1' I4B d   1      -0.592  -0.885  -0.488  0.00  0.00     0.060 C 
BRANCH   7   8
ATOM      8  C2' I4B d   1      -0.289   0.584  -0.277  0.00  0.00    -0.013 C 
ATOM      9  C4' I4B d   1       1.172   0.876  -0.492  0.00  0.00     0.013 C 
ATOM     10  C3' I4B d   1      -1.144   1.374  -1.222  0.00  0.00     0.013 C 
ENDBRANCH   7   8
ENDBRANCH   1   7
TORSDOF 2
ENDMDL
