MODEL 1
REMARK minimizedAffinity -4.54113007
REMARK minimizedRMSD -1
REMARK  2 active torsions:
REMARK  status: ('A' for Active; 'I' for Inactive)
REMARK    1  A    between atoms: C2'_3  and  C1'_4 
REMARK    2  A    between atoms: C1'_4  and  C1_5 
ROOT
ATOM      1  C1  I4B d   1       0.246  -1.049   0.023  0.00  0.00    -0.075 A 
ATOM      2  C2  I4B d   1       0.659  -0.171  -0.947  0.00  0.00     0.003 A 
ATOM      3  C3  I4B d   1       0.082   1.119  -1.033  0.00  0.00     0.002 A 
ATOM      4  C4  I4B d   1      -0.934   1.468  -0.167  0.00  0.00    -0.004 A 
ATOM      5  C5  I4B d   1      -1.335   0.585   0.831  0.00  0.00     0.002 A 
ATOM      6  C6  I4B d   1      -0.733  -0.678   0.935  0.00  0.00     0.003 A 
ENDROOT
BRANCH   1   7
ATOM      7  C1' I4B d   1       0.855  -2.415   0.064  0.00  0.00     0.060 C 
BRANCH   7   8
ATOM      8  C2' I4B d   1       1.859  -2.445   1.198  0.00  0.00    -0.013 C 
ATOM      9  C4' I4B d   1       2.736  -1.221   1.182  0.00  0.00     0.013 C 
ATOM     10  C3' I4B d   1       1.099  -2.551   2.487  0.00  0.00     0.013 C 
ENDBRANCH   7   8
ENDBRANCH   1   7
TORSDOF 2
ENDMDL
