MODEL 1
REMARK minimizedAffinity -0.384652138
REMARK minimizedRMSD -1
REMARK  2 active torsions:
REMARK  status: ('A' for Active; 'I' for Inactive)
REMARK    1  A    between atoms: C2'_3  and  C1'_4 
REMARK    2  A    between atoms: C1'_4  and  C1_5 
ROOT
ATOM      1  C1  I4B d   1      -1.848   1.797  -1.224  0.00  0.00    -0.075 A 
ATOM      2  C2  I4B d   1      -3.059   1.152  -1.204  0.00  0.00     0.003 A 
ATOM      3  C3  I4B d   1      -4.046   1.458  -2.172  0.00  0.00     0.002 A 
ATOM      4  C4  I4B d   1      -3.800   2.446  -3.104  0.00  0.00    -0.004 A 
ATOM      5  C5  I4B d   1      -2.563   3.083  -3.137  0.00  0.00     0.002 A 
ATOM      6  C6  I4B d   1      -1.576   2.748  -2.199  0.00  0.00     0.003 A 
ENDROOT
BRANCH   1   7
ATOM      7  C1' I4B d   1      -0.840   1.473  -0.167  0.00  0.00     0.060 C 
BRANCH   7   8
ATOM      8  C2' I4B d   1      -0.582  -0.019  -0.211  0.00  0.00    -0.013 C 
ATOM      9  C4' I4B d   1       0.839  -0.315  -0.615  0.00  0.00     0.013 C 
ATOM     10  C3' I4B d   1      -0.887  -0.582   1.145  0.00  0.00     0.013 C 
ENDBRANCH   7   8
ENDBRANCH   1   7
TORSDOF 2
ENDMDL
