MODEL 1
REMARK minimizedAffinity -4.22474241
REMARK minimizedRMSD -1
REMARK  2 active torsions:
REMARK  status: ('A' for Active; 'I' for Inactive)
REMARK    1  A    between atoms: C2'_3  and  C1'_4 
REMARK    2  A    between atoms: C1'_4  and  C1_5 
ROOT
ATOM      1  C1  I4B d   1       0.011   0.128  -0.621  0.00  0.00    -0.075 A 
ATOM      2  C2  I4B d   1       0.732   0.011   0.541  0.00  0.00     0.003 A 
ATOM      3  C3  I4B d   1       1.859  -0.845   0.597  0.00  0.00     0.002 A 
ATOM      4  C4  I4B d   1       2.196  -1.598  -0.509  0.00  0.00    -0.004 A 
ATOM      5  C5  I4B d   1       1.476  -1.462  -1.692  0.00  0.00     0.002 A 
ATOM      6  C6  I4B d   1       0.384  -0.584  -1.753  0.00  0.00     0.003 A 
ENDROOT
BRANCH   1   7
ATOM      7  C1' I4B d   1      -1.193   1.016  -0.636  0.00  0.00     0.060 C 
BRANCH   7   8
ATOM      8  C2' I4B d   1      -1.460   1.417  -2.072  0.00  0.00    -0.013 C 
ATOM      9  C4' I4B d   1      -2.863   1.060  -2.486  0.00  0.00     0.013 C 
ATOM     10  C3' I4B d   1      -1.219   2.892  -2.194  0.00  0.00     0.013 C 
ENDBRANCH   7   8
ENDBRANCH   1   7
TORSDOF 2
ENDMDL
