MODEL 1
REMARK minimizedAffinity -1.89180064
REMARK minimizedRMSD -1
REMARK  0 active torsions:
REMARK  status: ('A' for Active; 'I' for Inactive)
ROOT
ATOM      1  C   UNL d   1      -1.250   0.111  -0.582  0.00  0.00     0.020 A 
ATOM      2  C1  UNL d   1      -0.398   1.213  -0.646  0.00  0.00     0.020 A 
ATOM      3  C2  UNL d   1       0.799   1.213   0.072  0.00  0.00     0.034 A 
ATOM      4  C3  UNL d   1       1.148   0.109   0.858  0.00  0.00     0.017 A 
ATOM      5  C4  UNL d   1       0.292  -0.997   0.922  0.00  0.00     0.017 A 
ATOM      6  C5  UNL d   1      -0.906  -0.991   0.201  0.00  0.00     0.034 A 
ATOM      7 Cl   UNL d   1       0.655  -2.396   1.870  0.00  0.00    -0.070 Cl
ATOM      8 Cl1  UNL d   1       2.644   0.176   1.720  0.00  0.00    -0.070 Cl
ENDROOT
TORSDOF 0
ENDMDL
