MODEL 1
REMARK minimizedAffinity -5.13656569
REMARK minimizedRMSD -1
REMARK  0 active torsions:
REMARK  status: ('A' for Active; 'I' for Inactive)
ROOT
ATOM      1  C   UNL d   1       2.375   1.313  -0.049  0.00  0.00     0.020 A 
ATOM      2  C1  UNL d   1       3.114   0.385   0.684  0.00  0.00     0.020 A 
ATOM      3  C2  UNL d   1       2.472  -0.698   1.288  0.00  0.00     0.034 A 
ATOM      4  C3  UNL d   1       1.087  -0.855   1.160  0.00  0.00     0.017 A 
ATOM      5  C4  UNL d   1       0.346   0.076   0.424  0.00  0.00     0.017 A 
ATOM      6  C5  UNL d   1       0.995   1.159  -0.179  0.00  0.00     0.034 A 
ATOM      7 Cl   UNL d   1      -1.365  -0.052   0.222  0.00  0.00    -0.070 Cl
ATOM      8 Cl1  UNL d   1       0.359  -2.218   1.934  0.00  0.00    -0.070 Cl
ENDROOT
TORSDOF 0
ENDMDL
