MODEL 1
REMARK minimizedAffinity -4.30253696
REMARK minimizedRMSD -1
REMARK  0 active torsions:
REMARK  status: ('A' for Active; 'I' for Inactive)
ROOT
ATOM      1  C   UNL d   1       2.003  -0.451   0.686  0.00  0.00     0.020 A 
ATOM      2  C1  UNL d   1       1.083  -1.458   0.394  0.00  0.00     0.020 A 
ATOM      3  C2  UNL d   1      -0.191  -1.125  -0.069  0.00  0.00     0.034 A 
ATOM      4  C3  UNL d   1      -0.550   0.217  -0.242  0.00  0.00     0.017 A 
ATOM      5  C4  UNL d   1       0.375   1.226   0.051  0.00  0.00     0.017 A 
ATOM      6  C5  UNL d   1       1.650   0.887   0.515  0.00  0.00     0.034 A 
ATOM      7 Cl   UNL d   1       0.006   2.904  -0.137  0.00  0.00    -0.070 Cl
ATOM      8 Cl1  UNL d   1      -2.143   0.555  -0.818  0.00  0.00    -0.070 Cl
ENDROOT
TORSDOF 0
ENDMDL
