MODEL 1
REMARK minimizedAffinity -3.52167177
REMARK minimizedRMSD -1
REMARK  0 active torsions:
REMARK  status: ('A' for Active; 'I' for Inactive)
ROOT
ATOM      1  C   UNL d   1       2.646  -0.275   1.352  0.00  0.00     0.020 A 
ATOM      2  C1  UNL d   1       2.926  -0.687   0.050  0.00  0.00     0.020 A 
ATOM      3  C2  UNL d   1       1.900  -0.763  -0.894  0.00  0.00     0.034 A 
ATOM      4  C3  UNL d   1       0.589  -0.427  -0.537  0.00  0.00     0.017 A 
ATOM      5  C4  UNL d   1       0.309  -0.015   0.771  0.00  0.00     0.017 A 
ATOM      6  C5  UNL d   1       1.340   0.060   1.712  0.00  0.00     0.034 A 
ATOM      7 Cl   UNL d   1      -1.284   0.415   1.286  0.00  0.00    -0.070 Cl
ATOM      8 Cl1  UNL d   1      -0.631  -0.544  -1.756  0.00  0.00    -0.070 Cl
ENDROOT
TORSDOF 0
ENDMDL
