MODEL 1
REMARK minimizedAffinity -0.491932839
REMARK minimizedRMSD -1
REMARK  0 active torsions:
REMARK  status: ('A' for Active; 'I' for Inactive)
ROOT
ATOM      1  C   UNL d   1      -1.509   0.037   0.394  0.00  0.00     0.020 A 
ATOM      2  C1  UNL d   1      -0.832  -1.165   0.598  0.00  0.00     0.020 A 
ATOM      3  C2  UNL d   1       0.564  -1.194   0.569  0.00  0.00     0.034 A 
ATOM      4  C3  UNL d   1       1.287  -0.019   0.335  0.00  0.00     0.017 A 
ATOM      5  C4  UNL d   1       0.607   1.187   0.130  0.00  0.00     0.017 A 
ATOM      6  C5  UNL d   1      -0.791   1.210   0.160  0.00  0.00     0.034 A 
ATOM      7 Cl   UNL d   1       1.430   2.677  -0.165  0.00  0.00    -0.070 Cl
ATOM      8 Cl1  UNL d   1       3.011  -0.128   0.313  0.00  0.00    -0.070 Cl
ENDROOT
TORSDOF 0
ENDMDL
