MODEL 1
REMARK minimizedAffinity -5.21529245
REMARK minimizedRMSD -1
REMARK  0 active torsions:
REMARK  status: ('A' for Active; 'I' for Inactive)
ROOT
ATOM      1  C   UNL d   1       3.396  -1.135   1.468  0.00  0.00     0.020 A 
ATOM      2  C1  UNL d   1       2.586  -2.250   1.682  0.00  0.00     0.020 A 
ATOM      3  C2  UNL d   1       1.215  -2.175   1.430  0.00  0.00     0.034 A 
ATOM      4  C3  UNL d   1       0.649  -0.983   0.963  0.00  0.00     0.017 A 
ATOM      5  C4  UNL d   1       1.463   0.135   0.748  0.00  0.00     0.017 A 
ATOM      6  C5  UNL d   1       2.835   0.055   1.002  0.00  0.00     0.034 A 
ATOM      7 Cl   UNL d   1       0.837   1.640   0.173  0.00  0.00    -0.070 Cl
ATOM      8 Cl1  UNL d   1      -1.054  -0.962   0.672  0.00  0.00    -0.070 Cl
ENDROOT
TORSDOF 0
ENDMDL
