MODEL 1
REMARK minimizedAffinity -3.50544739
REMARK minimizedRMSD -1
REMARK  0 active torsions:
REMARK  status: ('A' for Active; 'I' for Inactive)
ROOT
ATOM      1  C   UNL d   1      -0.956  -1.151   0.222  0.00  0.00     0.020 A 
ATOM      2  C1  UNL d   1       0.031  -2.134   0.189  0.00  0.00     0.020 A 
ATOM      3  C2  UNL d   1       1.367  -1.790   0.408  0.00  0.00     0.034 A 
ATOM      4  C3  UNL d   1       1.718  -0.459   0.661  0.00  0.00     0.017 A 
ATOM      5  C4  UNL d   1       0.726   0.527   0.694  0.00  0.00     0.017 A 
ATOM      6  C5  UNL d   1      -0.610   0.177   0.474  0.00  0.00     0.034 A 
ATOM      7 Cl   UNL d   1       1.083   2.191   1.001  0.00  0.00    -0.070 Cl
ATOM      8 Cl1  UNL d   1       3.389  -0.105   0.923  0.00  0.00    -0.070 Cl
ENDROOT
TORSDOF 0
ENDMDL
