MODEL 1
REMARK minimizedAffinity -5.86606836
REMARK minimizedRMSD -1
REMARK  0 active torsions:
REMARK  status: ('A' for Active; 'I' for Inactive)
ROOT
ATOM      1  C   UNL d   1       2.966  -0.166   0.344  0.00  0.00     0.020 A 
ATOM      2  C1  UNL d   1       2.982  -1.230   1.244  0.00  0.00     0.020 A 
ATOM      3  C2  UNL d   1       1.786  -1.838   1.629  0.00  0.00     0.034 A 
ATOM      4  C3  UNL d   1       0.567  -1.382   1.114  0.00  0.00     0.017 A 
ATOM      5  C4  UNL d   1       0.551  -0.314   0.209  0.00  0.00     0.017 A 
ATOM      6  C5  UNL d   1       1.752   0.291  -0.173  0.00  0.00     0.034 A 
ATOM      7 Cl   UNL d   1      -0.913   0.304  -0.470  0.00  0.00    -0.070 Cl
ATOM      8 Cl1  UNL d   1      -0.874  -2.181   1.633  0.00  0.00    -0.070 Cl
ENDROOT
TORSDOF 0
ENDMDL
