MODEL 1
REMARK minimizedAffinity -2.89956498
REMARK minimizedRMSD -1
REMARK  0 active torsions:
REMARK  status: ('A' for Active; 'I' for Inactive)
ROOT
ATOM      1  C   UNL d   1      -0.152   1.519  -0.207  0.00  0.00     0.020 A 
ATOM      2  C1  UNL d   1      -1.131   0.533  -0.099  0.00  0.00     0.020 A 
ATOM      3  C2  UNL d   1      -0.779  -0.759   0.297  0.00  0.00     0.034 A 
ATOM      4  C3  UNL d   1       0.555  -1.068   0.587  0.00  0.00     0.017 A 
ATOM      5  C4  UNL d   1       1.537  -0.077   0.478  0.00  0.00     0.017 A 
ATOM      6  C5  UNL d   1       1.179   1.215   0.081  0.00  0.00     0.034 A 
ATOM      7 Cl   UNL d   1       3.204  -0.383   0.819  0.00  0.00    -0.070 Cl
ATOM      8 Cl1  UNL d   1       0.918  -2.687   1.071  0.00  0.00    -0.070 Cl
ENDROOT
TORSDOF 0
ENDMDL
