MODEL 1
REMARK minimizedAffinity -6.07902193
REMARK minimizedRMSD -1
REMARK  0 active torsions:
REMARK  status: ('A' for Active; 'I' for Inactive)
ROOT
ATOM      1  C   UNL d   1       3.517  -0.734   1.473  0.00  0.00     0.020 A 
ATOM      2  C1  UNL d   1       3.001   0.311   0.706  0.00  0.00     0.020 A 
ATOM      3  C2  UNL d   1       1.635   0.359   0.422  0.00  0.00     0.034 A 
ATOM      4  C3  UNL d   1       0.780  -0.638   0.903  0.00  0.00     0.017 A 
ATOM      5  C4  UNL d   1       1.298  -1.686   1.673  0.00  0.00     0.017 A 
ATOM      6  C5  UNL d   1       2.667  -1.730   1.955  0.00  0.00     0.034 A 
ATOM      7 Cl   UNL d   1       0.306  -2.953   2.302  0.00  0.00    -0.070 Cl
ATOM      8 Cl1  UNL d   1      -0.899  -0.515   0.513  0.00  0.00    -0.070 Cl
ENDROOT
TORSDOF 0
ENDMDL
