MODEL 1
REMARK minimizedAffinity -4.76469803
REMARK minimizedRMSD -1
REMARK  0 active torsions:
REMARK  status: ('A' for Active; 'I' for Inactive)
ROOT
ATOM      1  C   UNL d   1       1.995  -1.071   1.200  0.00  0.00     0.020 A 
ATOM      2  C1  UNL d   1       2.642   0.164   1.228  0.00  0.00     0.020 A 
ATOM      3  C2  UNL d   1       1.970   1.314   0.808  0.00  0.00     0.034 A 
ATOM      4  C3  UNL d   1       0.648   1.232   0.358  0.00  0.00     0.017 A 
ATOM      5  C4  UNL d   1      -0.001  -0.008   0.330  0.00  0.00     0.017 A 
ATOM      6  C5  UNL d   1       0.677  -1.157   0.752  0.00  0.00     0.034 A 
ATOM      7 Cl   UNL d   1      -1.632  -0.189  -0.212  0.00  0.00    -0.070 Cl
ATOM      8 Cl1  UNL d   1      -0.122   2.694  -0.146  0.00  0.00    -0.070 Cl
ENDROOT
TORSDOF 0
ENDMDL
