MODEL 1
REMARK minimizedAffinity -3.34344745
REMARK minimizedRMSD -1
REMARK  1 active torsions:
REMARK  status: ('A' for Active; 'I' for Inactive)
REMARK    1  A    between atoms: N_2  and  C1_3 
ROOT
ATOM      1  C1  UNL d   1      -0.004  -0.074   0.087  0.00  0.00     0.143 A 
ATOM      2  C2  UNL d   1       0.694   1.123   0.284  0.00  0.00    -0.057 A 
ATOM      3  C3  UNL d   1       2.053   1.123   0.620  0.00  0.00     0.033 A 
ATOM      4  C4  UNL d   1       2.733  -0.078   0.795  0.00  0.00    -0.042 A 
ATOM      5  C5  UNL d   1       2.053  -1.279   0.628  0.00  0.00     0.033 A 
ATOM      6  C6  UNL d   1       0.697  -1.273   0.286  0.00  0.00    -0.057 A 
ENDROOT
BRANCH   1   7
ATOM      7  N   UNL d   1      -1.379  -0.141  -0.152  0.00  0.00    -0.732 N 
ATOM      8  C   UNL d   1      -1.943   0.401  -1.369  0.00  0.00     0.284 C 
ATOM      9  H3  UNL d   1      -1.779  -1.034   0.130  0.00  0.00     0.395 HD
ENDBRANCH   1   7
TORSDOF 1
ENDMDL
