MODEL 1
REMARK minimizedAffinity -2.913028
REMARK minimizedRMSD -1
REMARK  1 active torsions:
REMARK  status: ('A' for Active; 'I' for Inactive)
REMARK    1  A    between atoms: N_2  and  C1_3 
ROOT
ATOM      1  C1  UNL d   1       0.041   0.053  -0.250  0.00  0.00     0.143 A 
ATOM      2  C2  UNL d   1       0.497   0.747   0.876  0.00  0.00    -0.057 A 
ATOM      3  C3  UNL d   1       1.810   0.597   1.338  0.00  0.00     0.033 A 
ATOM      4  C4  UNL d   1       2.685  -0.274   0.697  0.00  0.00    -0.042 A 
ATOM      5  C5  UNL d   1       2.246  -0.993  -0.409  0.00  0.00     0.033 A 
ATOM      6  C6  UNL d   1       0.935  -0.834  -0.870  0.00  0.00    -0.057 A 
ENDROOT
BRANCH   1   7
ATOM      7  N   UNL d   1      -1.281   0.084  -0.700  0.00  0.00    -0.732 N 
ATOM      8  C   UNL d   1      -1.583  -0.033  -2.110  0.00  0.00     0.284 C 
ATOM      9  H3  UNL d   1      -1.909  -0.441  -0.096  0.00  0.00     0.395 HD
ENDBRANCH   1   7
TORSDOF 1
ENDMDL
