MODEL 1
REMARK minimizedAffinity -5.60123062
REMARK minimizedRMSD -1
REMARK  1 active torsions:
REMARK  status: ('A' for Active; 'I' for Inactive)
REMARK    1  A    between atoms: N_2  and  C1_3 
ROOT
ATOM      1  C1  UNL d   1       0.769  -1.010   0.716  0.00  0.00     0.143 A 
ATOM      2  C2  UNL d   1       2.011  -0.375   0.611  0.00  0.00    -0.057 A 
ATOM      3  C3  UNL d   1       3.088  -0.747   1.424  0.00  0.00     0.033 A 
ATOM      4  C4  UNL d   1       2.933  -1.745   2.380  0.00  0.00    -0.042 A 
ATOM      5  C5  UNL d   1       1.700  -2.373   2.519  0.00  0.00     0.033 A 
ATOM      6  C6  UNL d   1       0.630  -2.002   1.699  0.00  0.00    -0.057 A 
ENDROOT
BRANCH   1   7
ATOM      7  N   UNL d   1      -0.368  -0.619   0.004  0.00  0.00    -0.732 N 
ATOM      8  C   UNL d   1      -0.365   0.598  -0.778  0.00  0.00     0.284 C 
ATOM      9  H3  UNL d   1      -0.831  -1.403  -0.449  0.00  0.00     0.395 HD
ENDBRANCH   1   7
TORSDOF 1
ENDMDL
