MODEL 1
REMARK minimizedAffinity -4.6777029
REMARK minimizedRMSD -1
REMARK  1 active torsions:
REMARK  status: ('A' for Active; 'I' for Inactive)
REMARK    1  A    between atoms: N_2  and  C1_3 
ROOT
ATOM      1  C1  UNL d   1       0.328  -0.584   0.738  0.00  0.00     0.143 A 
ATOM      2  C2  UNL d   1      -0.268  -1.618   1.469  0.00  0.00    -0.057 A 
ATOM      3  C3  UNL d   1       0.503  -2.619   2.071  0.00  0.00     0.033 A 
ATOM      4  C4  UNL d   1       1.887  -2.620   1.928  0.00  0.00    -0.042 A 
ATOM      5  C5  UNL d   1       2.499  -1.617   1.186  0.00  0.00     0.033 A 
ATOM      6  C6  UNL d   1       1.724  -0.616   0.592  0.00  0.00    -0.057 A 
ENDROOT
BRANCH   1   7
ATOM      7  N   UNL d   1      -0.390   0.385   0.033  0.00  0.00    -0.732 N 
ATOM      8  C   UNL d   1      -0.204   1.792   0.316  0.00  0.00     0.284 C 
ATOM      9  H3  UNL d   1      -0.468   0.167  -0.957  0.00  0.00     0.395 HD
ENDBRANCH   1   7
TORSDOF 1
ENDMDL
