MODEL 1
REMARK minimizedAffinity -1.37213683
REMARK minimizedRMSD -1
REMARK  1 active torsions:
REMARK  status: ('A' for Active; 'I' for Inactive)
REMARK    1  A    between atoms: N_2  and  C1_3 
ROOT
ATOM      1  C1  UNL d   1       1.418   0.732   1.809  0.00  0.00     0.143 A 
ATOM      2  C2  UNL d   1       2.419   1.407   2.517  0.00  0.00    -0.057 A 
ATOM      3  C3  UNL d   1       2.882   0.932   3.750  0.00  0.00     0.033 A 
ATOM      4  C4  UNL d   1       2.331  -0.214   4.312  0.00  0.00    -0.042 A 
ATOM      5  C5  UNL d   1       1.318  -0.887   3.639  0.00  0.00     0.033 A 
ATOM      6  C6  UNL d   1       0.864  -0.412   2.405  0.00  0.00    -0.057 A 
ENDROOT
BRANCH   1   7
ATOM      7  N   UNL d   1       0.846   1.207   0.627  0.00  0.00    -0.732 N 
ATOM      8  C   UNL d   1      -0.588   1.369   0.515  0.00  0.00     0.284 C 
ATOM      9  H3  UNL d   1       1.384   1.965   0.212  0.00  0.00     0.395 HD
ENDBRANCH   1   7
TORSDOF 1
ENDMDL
