MODEL 1
REMARK minimizedAffinity -2.09705353
REMARK minimizedRMSD -1
REMARK  1 active torsions:
REMARK  status: ('A' for Active; 'I' for Inactive)
REMARK    1  A    between atoms: N_2  and  C1_3 
ROOT
ATOM      1  C1  UNL d   1       1.111  -0.187   0.936  0.00  0.00     0.143 A 
ATOM      2  C2  UNL d   1       0.613  -1.389   1.449  0.00  0.00    -0.057 A 
ATOM      3  C3  UNL d   1       1.345  -2.143   2.375  0.00  0.00     0.033 A 
ATOM      4  C4  UNL d   1       2.606  -1.720   2.783  0.00  0.00    -0.042 A 
ATOM      5  C5  UNL d   1       3.131  -0.540   2.267  0.00  0.00     0.033 A 
ATOM      6  C6  UNL d   1       2.392   0.211   1.348  0.00  0.00    -0.057 A 
ENDROOT
BRANCH   1   7
ATOM      7  N   UNL d   1       0.474   0.556  -0.061  0.00  0.00    -0.732 N 
ATOM      8  C   UNL d   1      -0.143   1.828   0.249  0.00  0.00     0.284 C 
ATOM      9  H3  UNL d   1       0.986   0.546  -0.940  0.00  0.00     0.395 HD
ENDBRANCH   1   7
TORSDOF 1
ENDMDL
