MODEL 1
REMARK minimizedAffinity -3.33549762
REMARK minimizedRMSD -1
REMARK  1 active torsions:
REMARK  status: ('A' for Active; 'I' for Inactive)
REMARK    1  A    between atoms: N_2  and  C1_3 
ROOT
ATOM      1  C1  UNL d   1       2.530  -0.376   0.855  0.00  0.00     0.143 A 
ATOM      2  C2  UNL d   1       2.197   0.943   1.185  0.00  0.00    -0.057 A 
ATOM      3  C3  UNL d   1       0.871   1.389   1.141  0.00  0.00     0.033 A 
ATOM      4  C4  UNL d   1      -0.145   0.530   0.737  0.00  0.00    -0.042 A 
ATOM      5  C5  UNL d   1       0.166  -0.778   0.381  0.00  0.00     0.033 A 
ATOM      6  C6  UNL d   1       1.491  -1.219   0.433  0.00  0.00    -0.057 A 
ENDROOT
BRANCH   1   7
ATOM      7  N   UNL d   1       3.842  -0.852   0.785  0.00  0.00    -0.732 N 
ATOM      8  C   UNL d   1       4.386  -1.673   1.845  0.00  0.00     0.284 C 
ATOM      9  H3  UNL d   1       4.092  -1.162  -0.151  0.00  0.00     0.395 HD
ENDBRANCH   1   7
TORSDOF 1
ENDMDL
