MODEL 1
REMARK minimizedAffinity 2.35268378
REMARK minimizedRMSD -1
REMARK  1 active torsions:
REMARK  status: ('A' for Active; 'I' for Inactive)
REMARK    1  A    between atoms: C3_4  and  O_7 
ROOT
ATOM      1  C   UNL d   1       3.905   4.046  -4.847  0.00  0.00    -0.033 A 
ATOM      2  C1  UNL d   1       2.682   3.475  -4.490  0.00  0.00     0.039 A 
ATOM      3  C2  UNL d   1       1.486   4.086  -4.872  0.00  0.00    -0.080 A 
ATOM      4  C3  UNL d   1       1.526   5.266  -5.609  0.00  0.00     0.150 A 
ATOM      5  C4  UNL d   1       2.741   5.839  -5.971  0.00  0.00    -0.007 A 
ATOM      6  C5  UNL d   1       3.934   5.228  -5.588  0.00  0.00     0.039 A 
ENDROOT
BRANCH   4   7
ATOM      7  O   UNL d   1       0.385   5.902  -6.000  0.00  0.00    -0.526 OA
ATOM      8  H5  UNL d   1      -0.376   5.407  -5.654  0.00  0.00     0.418 HD
ENDBRANCH   4   7
TORSDOF 1
ENDMDL
