MODEL 1
REMARK minimizedAffinity 4.31883764
REMARK minimizedRMSD -1
REMARK  1 active torsions:
REMARK  status: ('A' for Active; 'I' for Inactive)
REMARK    1  A    between atoms: C3_4  and  O_7 
ROOT
ATOM      1  C   UNL d   1       4.085   5.229  -4.266  0.00  0.00    -0.033 A 
ATOM      2  C1  UNL d   1       3.828   5.999  -5.402  0.00  0.00     0.039 A 
ATOM      3  C2  UNL d   1       2.566   5.967  -5.998  0.00  0.00    -0.080 A 
ATOM      4  C3  UNL d   1       1.571   5.164  -5.450  0.00  0.00     0.150 A 
ATOM      5  C4  UNL d   1       1.818   4.397  -4.316  0.00  0.00    -0.007 A 
ATOM      6  C5  UNL d   1       3.079   4.429  -3.722  0.00  0.00     0.039 A 
ENDROOT
BRANCH   4   7
ATOM      7  O   UNL d   1       0.325   5.096  -6.000  0.00  0.00    -0.526 OA
ATOM      8  H5  UNL d   1       0.309   5.656  -6.794  0.00  0.00     0.418 HD
ENDBRANCH   4   7
TORSDOF 1
ENDMDL
