MODEL 1
REMARK minimizedAffinity 14.1397429
REMARK minimizedRMSD -1
REMARK  1 active torsions:
REMARK  status: ('A' for Active; 'I' for Inactive)
REMARK    1  A    between atoms: C3_4  and  O_7 
ROOT
ATOM      1  C   UNL d   1      -4.372   2.239   6.000  0.00  0.00    -0.033 A 
ATOM      2  C1  UNL d   1      -3.769   2.740   4.845  0.00  0.00     0.039 A 
ATOM      3  C2  UNL d   1      -3.715   1.960   3.688  0.00  0.00    -0.080 A 
ATOM      4  C3  UNL d   1      -4.268   0.682   3.700  0.00  0.00     0.150 A 
ATOM      5  C4  UNL d   1      -4.875   0.178   4.846  0.00  0.00    -0.007 A 
ATOM      6  C5  UNL d   1      -4.927   0.958   6.000  0.00  0.00     0.039 A 
ENDROOT
BRANCH   4   7
ATOM      7  O   UNL d   1      -4.236  -0.118   2.597  0.00  0.00    -0.526 OA
ATOM      8  H5  UNL d   1      -3.761   0.351   1.890  0.00  0.00     0.418 HD
ENDBRANCH   4   7
TORSDOF 1
ENDMDL
