MODEL 1
REMARK minimizedAffinity 9.63116741
REMARK minimizedRMSD -1
REMARK  1 active torsions:
REMARK  status: ('A' for Active; 'I' for Inactive)
REMARK    1  A    between atoms: C3_4  and  O_7 
ROOT
ATOM      1  C   UNL d   1      -0.675  -4.004   1.492  0.00  0.00    -0.033 A 
ATOM      2  C1  UNL d   1      -1.822  -3.312   1.100  0.00  0.00     0.039 A 
ATOM      3  C2  UNL d   1      -3.058  -3.963   1.076  0.00  0.00    -0.080 A 
ATOM      4  C3  UNL d   1      -3.132  -5.302   1.446  0.00  0.00     0.150 A 
ATOM      5  C4  UNL d   1      -1.993  -5.997   1.841  0.00  0.00    -0.007 A 
ATOM      6  C5  UNL d   1      -0.761  -5.346   1.864  0.00  0.00     0.039 A 
ENDROOT
BRANCH   4   7
ATOM      7  O   UNL d   1      -4.315  -5.981   1.434  0.00  0.00    -0.526 OA
ATOM      8  H5  UNL d   1      -5.009  -5.382   1.112  0.00  0.00     0.418 HD
ENDBRANCH   4   7
TORSDOF 1
ENDMDL
