MODEL 1
REMARK minimizedAffinity 14.4218864
REMARK minimizedRMSD -1
REMARK  1 active torsions:
REMARK  status: ('A' for Active; 'I' for Inactive)
REMARK    1  A    between atoms: C3_4  and  O_7 
ROOT
ATOM      1  C   UNL d   1       2.016   2.127   0.053  0.00  0.00    -0.033 A 
ATOM      2  C1  UNL d   1       2.675   3.061  -0.749  0.00  0.00     0.039 A 
ATOM      3  C2  UNL d   1       3.056   4.295  -0.218  0.00  0.00    -0.080 A 
ATOM      4  C3  UNL d   1       2.774   4.581   1.115  0.00  0.00     0.150 A 
ATOM      5  C4  UNL d   1       2.122   3.654   1.921  0.00  0.00    -0.007 A 
ATOM      6  C5  UNL d   1       1.741   2.423   1.389  0.00  0.00     0.039 A 
ENDROOT
BRANCH   4   7
ATOM      7  O   UNL d   1       3.123   5.774   1.677  0.00  0.00    -0.526 OA
ATOM      8  H5  UNL d   1       3.540   6.325   0.994  0.00  0.00     0.418 HD
ENDBRANCH   4   7
TORSDOF 1
ENDMDL
