MODEL 1
REMARK minimizedAffinity 4.45252323
REMARK minimizedRMSD -1
REMARK  1 active torsions:
REMARK  status: ('A' for Active; 'I' for Inactive)
REMARK    1  A    between atoms: C3_4  and  O_7 
ROOT
ATOM      1  C   UNL d   1       1.010   3.597   1.649  0.00  0.00    -0.033 A 
ATOM      2  C1  UNL d   1      -0.194   4.226   1.327  0.00  0.00     0.039 A 
ATOM      3  C2  UNL d   1      -0.876   3.877   0.159  0.00  0.00    -0.080 A 
ATOM      4  C3  UNL d   1      -0.345   2.897  -0.675  0.00  0.00     0.150 A 
ATOM      5  C4  UNL d   1       0.852   2.264  -0.359  0.00  0.00    -0.007 A 
ATOM      6  C5  UNL d   1       1.532   2.615   0.807  0.00  0.00     0.039 A 
ENDROOT
BRANCH   4   7
ATOM      7  O   UNL d   1      -0.972   2.526  -1.828  0.00  0.00    -0.526 OA
ATOM      8  H5  UNL d   1      -1.772   3.068  -1.931  0.00  0.00     0.418 HD
ENDBRANCH   4   7
TORSDOF 1
ENDMDL
