MODEL 1
REMARK minimizedAffinity 11.3248386
REMARK minimizedRMSD -1
REMARK  1 active torsions:
REMARK  status: ('A' for Active; 'I' for Inactive)
REMARK    1  A    between atoms: C3_4  and  O_7 
ROOT
ATOM      1  C   UNL d   1      -2.830   3.251   3.466  0.00  0.00    -0.033 A 
ATOM      2  C1  UNL d   1      -2.594   2.038   4.116  0.00  0.00     0.039 A 
ATOM      3  C2  UNL d   1      -3.381   0.922   3.823  0.00  0.00    -0.080 A 
ATOM      4  C3  UNL d   1      -4.396   1.032   2.877  0.00  0.00     0.150 A 
ATOM      5  C4  UNL d   1      -4.634   2.235   2.222  0.00  0.00    -0.007 A 
ATOM      6  C5  UNL d   1      -3.849   3.349   2.517  0.00  0.00     0.039 A 
ENDROOT
BRANCH   4   7
ATOM      7  O   UNL d   1      -5.193  -0.029   2.561  0.00  0.00    -0.526 OA
ATOM      8  H5  UNL d   1      -4.931  -0.785   3.113  0.00  0.00     0.418 HD
ENDBRANCH   4   7
TORSDOF 1
ENDMDL
