MODEL 1
REMARK minimizedAffinity 12.1075439
REMARK minimizedRMSD -1
REMARK  1 active torsions:
REMARK  status: ('A' for Active; 'I' for Inactive)
REMARK    1  A    between atoms: C3_4  and  O_7 
ROOT
ATOM      1  C   UNL d   1       0.195   2.220   2.765  0.00  0.00    -0.033 A 
ATOM      2  C1  UNL d   1      -0.391   3.427   2.380  0.00  0.00     0.039 A 
ATOM      3  C2  UNL d   1       0.403   4.467   1.893  0.00  0.00    -0.080 A 
ATOM      4  C3  UNL d   1       1.780   4.287   1.796  0.00  0.00     0.150 A 
ATOM      5  C4  UNL d   1       2.370   3.086   2.174  0.00  0.00    -0.007 A 
ATOM      6  C5  UNL d   1       1.576   2.049   2.660  0.00  0.00     0.039 A 
ENDROOT
BRANCH   4   7
ATOM      7  O   UNL d   1       2.597   5.275   1.331  0.00  0.00    -0.526 OA
ATOM      8  H5  UNL d   1       2.053   6.057   1.135  0.00  0.00     0.418 HD
ENDBRANCH   4   7
TORSDOF 1
ENDMDL
