MODEL 1
REMARK minimizedAffinity 10.1564732
REMARK minimizedRMSD -1
REMARK  1 active torsions:
REMARK  status: ('A' for Active; 'I' for Inactive)
REMARK    1  A    between atoms: C3_4  and  O_7 
ROOT
ATOM      1  C   UNL d   1      -2.908   6.000  -0.012  0.00  0.00    -0.033 A 
ATOM      2  C1  UNL d   1      -3.135   5.589  -1.327  0.00  0.00     0.039 A 
ATOM      3  C2  UNL d   1      -2.313   4.624  -1.910  0.00  0.00    -0.080 A 
ATOM      4  C3  UNL d   1      -1.269   4.077  -1.169  0.00  0.00     0.150 A 
ATOM      5  C4  UNL d   1      -1.039   4.479   0.143  0.00  0.00    -0.007 A 
ATOM      6  C5  UNL d   1      -1.861   5.444   0.724  0.00  0.00     0.039 A 
ENDROOT
BRANCH   4   7
ATOM      7  O   UNL d   1      -0.437   3.135  -1.697  0.00  0.00    -0.526 OA
ATOM      8  H5  UNL d   1      -0.698   2.977  -2.620  0.00  0.00     0.418 HD
ENDBRANCH   4   7
TORSDOF 1
ENDMDL
