MODEL 1
REMARK minimizedAffinity 8.07496929
REMARK minimizedRMSD -1
REMARK  1 active torsions:
REMARK  status: ('A' for Active; 'I' for Inactive)
REMARK    1  A    between atoms: C3_4  and  O_7 
ROOT
ATOM      1  C   UNL d   1      -5.376  -5.999  -2.536  0.00  0.00    -0.033 A 
ATOM      2  C1  UNL d   1      -6.000  -4.827  -2.968  0.00  0.00     0.039 A 
ATOM      3  C2  UNL d   1      -5.260  -3.651  -3.110  0.00  0.00    -0.080 A 
ATOM      4  C3  UNL d   1      -3.898  -3.662  -2.819  0.00  0.00     0.150 A 
ATOM      5  C4  UNL d   1      -3.269  -4.827  -2.393  0.00  0.00    -0.007 A 
ATOM      6  C5  UNL d   1      -4.010  -5.999  -2.251  0.00  0.00     0.039 A 
ENDROOT
BRANCH   4   7
ATOM      7  O   UNL d   1      -3.135  -2.538  -2.938  0.00  0.00    -0.526 OA
ATOM      8  H5  UNL d   1      -3.710  -1.804  -3.214  0.00  0.00     0.418 HD
ENDBRANCH   4   7
TORSDOF 1
ENDMDL
