MODEL 1
REMARK minimizedAffinity 17.1497612
REMARK minimizedRMSD -1
REMARK  1 active torsions:
REMARK  status: ('A' for Active; 'I' for Inactive)
REMARK    1  A    between atoms: C3_4  and  O_7 
ROOT
ATOM      1  C   UNL d   1       0.479   1.535   3.339  0.00  0.00    -0.033 A 
ATOM      2  C1  UNL d   1       0.938   1.113   4.588  0.00  0.00     0.039 A 
ATOM      3  C2  UNL d   1       2.105   0.353   4.685  0.00  0.00    -0.080 A 
ATOM      4  C3  UNL d   1       2.803   0.022   3.526  0.00  0.00     0.150 A 
ATOM      5  C4  UNL d   1       2.353   0.442   2.279  0.00  0.00    -0.007 A 
ATOM      6  C5  UNL d   1       1.187   1.201   2.185  0.00  0.00     0.039 A 
ENDROOT
BRANCH   4   7
ATOM      7  O   UNL d   1       3.944  -0.722   3.570  0.00  0.00    -0.526 OA
ATOM      8  H5  UNL d   1       4.118  -0.965   4.494  0.00  0.00     0.418 HD
ENDBRANCH   4   7
TORSDOF 1
ENDMDL
