MODEL 1
REMARK minimizedAffinity 16.8002605
REMARK minimizedRMSD -1
REMARK  1 active torsions:
REMARK  status: ('A' for Active; 'I' for Inactive)
REMARK    1  A    between atoms: C3_4  and  O_7 
ROOT
ATOM      1  C   UNL d   1      -3.285  -4.798  -2.154  0.00  0.00    -0.033 A 
ATOM      2  C1  UNL d   1      -4.597  -5.232  -2.353  0.00  0.00     0.039 A 
ATOM      3  C2  UNL d   1      -5.484  -4.457  -3.104  0.00  0.00    -0.080 A 
ATOM      4  C3  UNL d   1      -5.047  -3.253  -3.649  0.00  0.00     0.150 A 
ATOM      5  C4  UNL d   1      -3.740  -2.817  -3.457  0.00  0.00    -0.007 A 
ATOM      6  C5  UNL d   1      -2.856  -3.591  -2.707  0.00  0.00     0.039 A 
ENDROOT
BRANCH   4   7
ATOM      7  O   UNL d   1      -5.877  -2.461  -4.385  0.00  0.00    -0.526 OA
ATOM      8  H5  UNL d   1      -6.756  -2.875  -4.409  0.00  0.00     0.418 HD
ENDBRANCH   4   7
TORSDOF 1
ENDMDL
