MODEL 1
REMARK minimizedAffinity 13.4718685
REMARK minimizedRMSD -1
REMARK  1 active torsions:
REMARK  status: ('A' for Active; 'I' for Inactive)
REMARK    1  A    between atoms: C3_4  and  O_7 
ROOT
ATOM      1  C   UNL d   1      -1.653  -3.663   0.841  0.00  0.00    -0.033 A 
ATOM      2  C1  UNL d   1      -1.575  -4.188   2.133  0.00  0.00     0.039 A 
ATOM      3  C2  UNL d   1      -1.209  -3.367   3.201  0.00  0.00    -0.080 A 
ATOM      4  C3  UNL d   1      -0.924  -2.025   2.965  0.00  0.00     0.150 A 
ATOM      5  C4  UNL d   1      -1.003  -1.495   1.681  0.00  0.00    -0.007 A 
ATOM      6  C5  UNL d   1      -1.369  -2.316   0.616  0.00  0.00     0.039 A 
ENDROOT
BRANCH   4   7
ATOM      7  O   UNL d   1      -0.558  -1.185   3.974  0.00  0.00    -0.526 OA
ATOM      8  H5  UNL d   1      -0.517  -1.696   4.800  0.00  0.00     0.418 HD
ENDBRANCH   4   7
TORSDOF 1
ENDMDL
