MODEL 1
REMARK minimizedAffinity 4.66679096
REMARK minimizedRMSD -1
REMARK  1 active torsions:
REMARK  status: ('A' for Active; 'I' for Inactive)
REMARK    1  A    between atoms: C3_4  and  O_7 
ROOT
ATOM      1  C   UNL d   1      -3.686  -5.090  -2.028  0.00  0.00    -0.033 A 
ATOM      2  C1  UNL d   1      -3.082  -3.923  -2.499  0.00  0.00     0.039 A 
ATOM      3  C2  UNL d   1      -3.727  -3.139  -3.457  0.00  0.00    -0.080 A 
ATOM      4  C3  UNL d   1      -4.974  -3.532  -3.935  0.00  0.00     0.150 A 
ATOM      5  C4  UNL d   1      -5.583  -4.692  -3.467  0.00  0.00    -0.007 A 
ATOM      6  C5  UNL d   1      -4.937  -5.474  -2.511  0.00  0.00     0.039 A 
ENDROOT
BRANCH   4   7
ATOM      7  O   UNL d   1      -5.640  -2.802  -4.874  0.00  0.00    -0.526 OA
ATOM      8  H5  UNL d   1      -5.087  -2.044  -5.124  0.00  0.00     0.418 HD
ENDBRANCH   4   7
TORSDOF 1
ENDMDL
