MODEL 1
REMARK minimizedAffinity -3.66218019
REMARK minimizedRMSD -1
REMARK  0 active torsions:
REMARK  status: ('A' for Active; 'I' for Inactive)
ROOT
ATOM      1  C   UNL d   1      -1.369   1.203  -1.948  0.00  0.00     0.077 C 
ATOM      2  C1  UNL d   1      -0.185   0.475  -1.385  0.00  0.00    -0.074 A 
ATOM      3  C2  UNL d   1       0.642  -0.297  -2.207  0.00  0.00    -0.005 A 
ATOM      4  C3  UNL d   1       1.745  -0.961  -1.670  0.00  0.00     0.006 A 
ATOM      5  C4  UNL d   1       2.033  -0.859  -0.308  0.00  0.00    -0.005 A 
ATOM      6  C5  UNL d   1       1.218  -0.090   0.529  0.00  0.00    -0.074 A 
ATOM      7  C6  UNL d   1       1.518   0.038   1.993  0.00  0.00     0.077 C 
ATOM      8  C7  UNL d   1       0.115   0.579  -0.019  0.00  0.00    -0.001 A 
ENDROOT
TORSDOF 0
ENDMDL
