MODEL 1
REMARK minimizedAffinity -3.5704155
REMARK minimizedRMSD -1
REMARK  0 active torsions:
REMARK  status: ('A' for Active; 'I' for Inactive)
ROOT
ATOM      1  C   UNL d   1       0.427   0.786  -1.995  0.00  0.00     0.077 C 
ATOM      2  C1  UNL d   1      -0.115   0.375  -0.659  0.00  0.00    -0.074 A 
ATOM      3  C2  UNL d   1      -1.486   0.437  -0.389  0.00  0.00    -0.005 A 
ATOM      4  C3  UNL d   1      -1.976   0.042   0.856  0.00  0.00     0.006 A 
ATOM      5  C4  UNL d   1      -1.102  -0.418   1.842  0.00  0.00    -0.005 A 
ATOM      6  C5  UNL d   1       0.272  -0.487   1.590  0.00  0.00    -0.074 A 
ATOM      7  C6  UNL d   1       1.224  -0.988   2.635  0.00  0.00     0.077 C 
ATOM      8  C7  UNL d   1       0.756  -0.095   0.334  0.00  0.00    -0.001 A 
ENDROOT
TORSDOF 0
ENDMDL
