MODEL 1
REMARK minimizedAffinity -1.17403352
REMARK minimizedRMSD -1
REMARK  0 active torsions:
REMARK  status: ('A' for Active; 'I' for Inactive)
ROOT
ATOM      1  C   UNL d   1       1.716  -0.484   2.560  0.00  0.00     0.077 C 
ATOM      2  C1  UNL d   1       1.446  -0.467   1.084  0.00  0.00    -0.074 A 
ATOM      3  C2  UNL d   1       2.185  -1.271   0.210  0.00  0.00    -0.005 A 
ATOM      4  C3  UNL d   1       1.916  -1.252  -1.159  0.00  0.00     0.006 A 
ATOM      5  C4  UNL d   1       0.908  -0.431  -1.666  0.00  0.00    -0.005 A 
ATOM      6  C5  UNL d   1       0.158   0.379  -0.806  0.00  0.00    -0.074 A 
ATOM      7  C6  UNL d   1      -0.936   1.259  -1.333  0.00  0.00     0.077 C 
ATOM      8  C7  UNL d   1       0.430   0.349   0.569  0.00  0.00    -0.001 A 
ENDROOT
TORSDOF 0
ENDMDL
