MODEL 1
REMARK minimizedAffinity -4.31472158
REMARK minimizedRMSD -1
REMARK  0 active torsions:
REMARK  status: ('A' for Active; 'I' for Inactive)
ROOT
ATOM      1  C   UNL d   1      -1.293   0.564  -1.161  0.00  0.00     0.077 C 
ATOM      2  C1  UNL d   1      -0.024   0.018  -0.577  0.00  0.00    -0.074 A 
ATOM      3  C2  UNL d   1       1.039  -0.367  -1.401  0.00  0.00    -0.005 A 
ATOM      4  C3  UNL d   1       2.217  -0.864  -0.844  0.00  0.00     0.006 A 
ATOM      5  C4  UNL d   1       2.344  -0.982   0.541  0.00  0.00    -0.005 A 
ATOM      6  C5  UNL d   1       1.292  -0.602   1.381  0.00  0.00    -0.074 A 
ATOM      7  C6  UNL d   1       1.416  -0.713   2.871  0.00  0.00     0.077 C 
ATOM      8  C7  UNL d   1       0.115  -0.096   0.813  0.00  0.00    -0.001 A 
ENDROOT
TORSDOF 0
ENDMDL
