MODEL 1
REMARK minimizedAffinity -3.3819921
REMARK minimizedRMSD -1
REMARK  0 active torsions:
REMARK  status: ('A' for Active; 'I' for Inactive)
ROOT
ATOM      1  C   UNL d   1       1.450  -0.172   1.855  0.00  0.00     0.077 C 
ATOM      2  C1  UNL d   1       1.157  -0.269   0.387  0.00  0.00    -0.074 A 
ATOM      3  C2  UNL d   1       1.922  -1.093  -0.445  0.00  0.00    -0.005 A 
ATOM      4  C3  UNL d   1       1.632  -1.180  -1.807  0.00  0.00     0.006 A 
ATOM      5  C4  UNL d   1       0.577  -0.446  -2.349  0.00  0.00    -0.005 A 
ATOM      6  C5  UNL d   1      -0.199   0.383  -1.532  0.00  0.00    -0.074 A 
ATOM      7  C6  UNL d   1      -1.343   1.172  -2.097  0.00  0.00     0.077 C 
ATOM      8  C7  UNL d   1       0.094   0.460  -0.163  0.00  0.00    -0.001 A 
ENDROOT
TORSDOF 0
ENDMDL
