MODEL 1
REMARK minimizedAffinity -1.6630615
REMARK minimizedRMSD -1
REMARK  0 active torsions:
REMARK  status: ('A' for Active; 'I' for Inactive)
ROOT
ATOM      1  C   UNL d   1       1.329  -0.282   1.815  0.00  0.00     0.077 C 
ATOM      2  C1  UNL d   1       0.998  -0.264   0.352  0.00  0.00    -0.074 A 
ATOM      3  C2  UNL d   1       1.712  -1.052  -0.556  0.00  0.00    -0.005 A 
ATOM      4  C3  UNL d   1       1.387  -1.032  -1.912  0.00  0.00     0.006 A 
ATOM      5  C4  UNL d   1       0.346  -0.224  -2.373  0.00  0.00    -0.005 A 
ATOM      6  C5  UNL d   1      -0.379   0.570  -1.480  0.00  0.00    -0.074 A 
ATOM      7  C6  UNL d   1      -1.507   1.436  -1.957  0.00  0.00     0.077 C 
ATOM      8  C7  UNL d   1      -0.051   0.539  -0.117  0.00  0.00    -0.001 A 
ENDROOT
TORSDOF 0
ENDMDL
