MODEL 1
REMARK minimizedAffinity -2.27500248
REMARK minimizedRMSD -1
REMARK  0 active torsions:
REMARK  status: ('A' for Active; 'I' for Inactive)
ROOT
ATOM      1  C   UNL d   1       1.609  -1.297   2.534  0.00  0.00     0.077 C 
ATOM      2  C1  UNL d   1       0.820  -0.807   1.356  0.00  0.00    -0.074 A 
ATOM      3  C2  UNL d   1       1.460  -0.423   0.173  0.00  0.00    -0.005 A 
ATOM      4  C3  UNL d   1       0.713   0.021  -0.918  0.00  0.00     0.006 A 
ATOM      5  C4  UNL d   1      -0.679   0.087  -0.837  0.00  0.00    -0.005 A 
ATOM      6  C5  UNL d   1      -1.336  -0.294   0.338  0.00  0.00    -0.074 A 
ATOM      7  C6  UNL d   1      -2.831  -0.239   0.438  0.00  0.00     0.077 C 
ATOM      8  C7  UNL d   1      -0.578  -0.746   1.427  0.00  0.00    -0.001 A 
ENDROOT
TORSDOF 0
ENDMDL
