MODEL 1
REMARK minimizedAffinity 2.30828834
REMARK minimizedRMSD -1
REMARK  1 active torsions:
REMARK  status: ('A' for Active; 'I' for Inactive)
REMARK    1  A    between atoms: C1_2  and  C2_3 
ROOT
ATOM      1  C2  UNL d   1      -0.603   1.283  -0.526  0.00  0.00    -0.076 A 
ATOM      2  C3  UNL d   1      -0.584   0.298   0.476  0.00  0.00     0.004 A 
ATOM      3  C4  UNL d   1       0.047   0.528   1.697  0.00  0.00    -0.003 A 
ATOM      4  C5  UNL d   1       0.669   1.749   1.936  0.00  0.00     0.000 A 
ATOM      5  C6  UNL d   1       0.644   2.745   0.960  0.00  0.00     0.000 A 
ATOM      6  C7  UNL d   1      -0.002   2.534  -0.270  0.00  0.00    -0.073 A 
ATOM      7  C8  UNL d   1       0.008   3.640  -1.289  0.00  0.00     0.078 C 
ENDROOT
BRANCH   1   8
ATOM      8  C1  UNL d   1      -1.279   0.966  -1.841  0.00  0.00     0.053 C 
ATOM      9  C   UNL d   1      -2.792   1.104  -1.766  0.00  0.00     0.018 C 
ENDBRANCH   1   8
TORSDOF 1
ENDMDL
