MODEL 1
REMARK minimizedAffinity -3.68502784
REMARK minimizedRMSD -1
REMARK  1 active torsions:
REMARK  status: ('A' for Active; 'I' for Inactive)
REMARK    1  A    between atoms: C1_2  and  C2_3 
ROOT
ATOM      1  C2  UNL d   1       2.112   1.033   3.346  0.00  0.00    -0.076 A 
ATOM      2  C3  UNL d   1       1.172   1.870   2.720  0.00  0.00     0.004 A 
ATOM      3  C4  UNL d   1       0.467   1.442   1.596  0.00  0.00    -0.003 A 
ATOM      4  C5  UNL d   1       0.689   0.169   1.082  0.00  0.00     0.000 A 
ATOM      5  C6  UNL d   1       1.604  -0.681   1.701  0.00  0.00     0.000 A 
ATOM      6  C7  UNL d   1       2.312  -0.271   2.844  0.00  0.00    -0.073 A 
ATOM      7  C8  UNL d   1       3.291  -1.227   3.468  0.00  0.00     0.078 C 
ENDROOT
BRANCH   1   8
ATOM      8  C1  UNL d   1       2.867   1.561   4.545  0.00  0.00     0.053 C 
ATOM      9  C   UNL d   1       3.007   3.075   4.524  0.00  0.00     0.018 C 
ENDBRANCH   1   8
TORSDOF 1
ENDMDL
