MODEL 1
REMARK minimizedAffinity 1.56848013
REMARK minimizedRMSD -1
REMARK  1 active torsions:
REMARK  status: ('A' for Active; 'I' for Inactive)
REMARK    1  A    between atoms: C1_2  and  C2_3 
ROOT
ATOM      1  C2  UNL d   1       0.562   3.379   0.103  0.00  0.00    -0.076 A 
ATOM      2  C3  UNL d   1       1.028   4.705   0.089  0.00  0.00     0.004 A 
ATOM      3  C4  UNL d   1       1.043   5.448  -1.090  0.00  0.00    -0.003 A 
ATOM      4  C5  UNL d   1       0.593   4.877  -2.275  0.00  0.00     0.000 A 
ATOM      5  C6  UNL d   1       0.111   3.568  -2.276  0.00  0.00     0.000 A 
ATOM      6  C7  UNL d   1       0.073   2.811  -1.093  0.00  0.00    -0.073 A 
ATOM      7  C8  UNL d   1      -0.451   1.402  -1.153  0.00  0.00     0.078 C 
ENDROOT
BRANCH   1   8
ATOM      8  C1  UNL d   1       0.595   2.614   1.406  0.00  0.00     0.053 C 
ATOM      9  C   UNL d   1       1.751   3.034   2.300  0.00  0.00     0.018 C 
ENDBRANCH   1   8
TORSDOF 1
ENDMDL
