MODEL 1
REMARK minimizedAffinity -0.60447675
REMARK minimizedRMSD -1
REMARK  1 active torsions:
REMARK  status: ('A' for Active; 'I' for Inactive)
REMARK    1  A    between atoms: C1_2  and  C2_3 
ROOT
ATOM      1  C2  UNL d   1      -0.480   3.342  -1.743  0.00  0.00    -0.076 A 
ATOM      2  C3  UNL d   1       0.481   3.733  -0.794  0.00  0.00     0.004 A 
ATOM      3  C4  UNL d   1       0.932   5.050  -0.730  0.00  0.00    -0.003 A 
ATOM      4  C5  UNL d   1       0.428   5.999  -1.613  0.00  0.00     0.000 A 
ATOM      5  C6  UNL d   1      -0.539   5.633  -2.548  0.00  0.00     0.000 A 
ATOM      6  C7  UNL d   1      -1.016   4.313  -2.616  0.00  0.00    -0.073 A 
ATOM      7  C8  UNL d   1      -2.055   3.973  -3.649  0.00  0.00     0.078 C 
ENDROOT
BRANCH   1   8
ATOM      8  C1  UNL d   1      -0.911   1.894  -1.783  0.00  0.00     0.053 C 
ATOM      9  C   UNL d   1       0.060   0.976  -1.057  0.00  0.00     0.018 C 
ENDBRANCH   1   8
TORSDOF 1
ENDMDL
