MODEL 1
REMARK minimizedAffinity -2.05913353
REMARK minimizedRMSD -1
REMARK  1 active torsions:
REMARK  status: ('A' for Active; 'I' for Inactive)
REMARK    1  A    between atoms: C1_2  and  C2_3 
ROOT
ATOM      1  C2  UNL d   1       0.350   2.537  -0.100  0.00  0.00    -0.076 A 
ATOM      2  C3  UNL d   1       0.347   3.028   1.217  0.00  0.00     0.004 A 
ATOM      3  C4  UNL d   1       0.452   2.164   2.306  0.00  0.00    -0.003 A 
ATOM      4  C5  UNL d   1       0.562   0.794   2.094  0.00  0.00     0.000 A 
ATOM      5  C6  UNL d   1       0.584   0.291   0.794  0.00  0.00     0.000 A 
ATOM      6  C7  UNL d   1       0.495   1.150  -0.315  0.00  0.00    -0.073 A 
ATOM      7  C8  UNL d   1       0.517   0.553  -1.695  0.00  0.00     0.078 C 
ENDROOT
BRANCH   1   8
ATOM      8  C1  UNL d   1       0.206   3.520  -1.239  0.00  0.00     0.053 C 
ATOM      9  C   UNL d   1       0.955   4.819  -0.987  0.00  0.00     0.018 C 
ENDBRANCH   1   8
TORSDOF 1
ENDMDL
