MODEL 1
REMARK minimizedAffinity 0.301663727
REMARK minimizedRMSD -1
REMARK  1 active torsions:
REMARK  status: ('A' for Active; 'I' for Inactive)
REMARK    1  A    between atoms: C1_2  and  C2_3 
ROOT
ATOM      1  C2  UNL d   1       0.316   2.461  -0.031  0.00  0.00    -0.076 A 
ATOM      2  C3  UNL d   1       0.501   2.935   1.279  0.00  0.00     0.004 A 
ATOM      3  C4  UNL d   1       0.635   2.052   2.349  0.00  0.00    -0.003 A 
ATOM      4  C5  UNL d   1       0.588   0.680   2.126  0.00  0.00     0.000 A 
ATOM      5  C6  UNL d   1       0.422   0.192   0.830  0.00  0.00     0.000 A 
ATOM      6  C7  UNL d   1       0.301   1.069  -0.262  0.00  0.00    -0.073 A 
ATOM      7  C8  UNL d   1       0.119   0.488  -1.637  0.00  0.00     0.078 C 
ENDROOT
BRANCH   1   8
ATOM      8  C1  UNL d   1       0.149   3.467  -1.148  0.00  0.00     0.053 C 
ATOM      9  C   UNL d   1       0.702   4.837  -0.786  0.00  0.00     0.018 C 
ENDBRANCH   1   8
TORSDOF 1
ENDMDL
