MODEL 1
REMARK minimizedAffinity 4.00719786
REMARK minimizedRMSD -1
REMARK  1 active torsions:
REMARK  status: ('A' for Active; 'I' for Inactive)
REMARK    1  A    between atoms: C1_2  and  C2_3 
ROOT
ATOM      1  C2  UNL d   1       0.695   3.716   0.398  0.00  0.00    -0.076 A 
ATOM      2  C3  UNL d   1       0.856   2.933   1.554  0.00  0.00     0.004 A 
ATOM      3  C4  UNL d   1       0.716   1.547   1.507  0.00  0.00    -0.003 A 
ATOM      4  C5  UNL d   1       0.413   0.922   0.302  0.00  0.00     0.000 A 
ATOM      5  C6  UNL d   1       0.268   1.682  -0.858  0.00  0.00     0.000 A 
ATOM      6  C7  UNL d   1       0.422   3.078  -0.831  0.00  0.00    -0.073 A 
ATOM      7  C8  UNL d   1       0.247   3.849  -2.111  0.00  0.00     0.078 C 
ENDROOT
BRANCH   1   8
ATOM      8  C1  UNL d   1       0.832   5.218   0.516  0.00  0.00     0.053 C 
ATOM      9  C   UNL d   1       2.278   5.679   0.430  0.00  0.00     0.018 C 
ENDBRANCH   1   8
TORSDOF 1
ENDMDL
