MODEL 1
REMARK minimizedAffinity 10.7003956
REMARK minimizedRMSD -1
REMARK  0 active torsions:
REMARK  status: ('A' for Active; 'I' for Inactive)
ROOT
ATOM      1  C   UNL d   1      -3.491   6.000   5.999  0.00  0.00    -0.002 A 
ATOM      2  C1  UNL d   1      -2.290   5.482   5.535  0.00  0.00     0.010 A 
ATOM      3  C2  UNL d   1      -2.219   4.867   4.284  0.00  0.00     0.041 A 
ATOM      4  C3  UNL d   1      -3.385   4.782   3.498  0.00  0.00    -0.075 A 
ATOM      5  S   UNL d   1      -3.535   4.074   1.933  0.00  0.00     0.015 SA
ATOM      6  C4  UNL d   1      -5.196   4.443   1.843  0.00  0.00     0.022 A 
ATOM      7  C5  UNL d   1      -5.642   5.091   2.971  0.00  0.00     0.026 A 
ATOM      8  C6  UNL d   1      -4.606   5.297   3.943  0.00  0.00    -0.082 A 
ATOM      9  C7  UNL d   1      -4.646   5.914   5.217  0.00  0.00     0.045 A 
ENDROOT
TORSDOF 0
ENDMDL
