MODEL 1
REMARK minimizedAffinity 15.3134422
REMARK minimizedRMSD -1
REMARK  0 active torsions:
REMARK  status: ('A' for Active; 'I' for Inactive)
ROOT
ATOM      1  C   UNL d   1      -2.910   1.508   3.852  0.00  0.00    -0.002 A 
ATOM      2  C1  UNL d   1      -2.715   2.124   2.624  0.00  0.00     0.010 A 
ATOM      3  C2  UNL d   1      -2.623   3.515   2.534  0.00  0.00     0.041 A 
ATOM      4  C3  UNL d   1      -2.729   4.283   3.710  0.00  0.00    -0.075 A 
ATOM      5  S   UNL d   1      -2.645   6.000   3.841  0.00  0.00     0.015 SA
ATOM      6  C4  UNL d   1      -2.865   5.956   5.531  0.00  0.00     0.022 A 
ATOM      7  C5  UNL d   1      -3.001   4.671   6.000  0.00  0.00     0.026 A 
ATOM      8  C6  UNL d   1      -2.924   3.685   4.958  0.00  0.00    -0.082 A 
ATOM      9  C7  UNL d   1      -3.015   2.273   5.017  0.00  0.00     0.045 A 
ENDROOT
TORSDOF 0
ENDMDL
