MODEL 1
REMARK minimizedAffinity 15.8178043
REMARK minimizedRMSD -1
REMARK  0 active torsions:
REMARK  status: ('A' for Active; 'I' for Inactive)
ROOT
ATOM      1  C   UNL d   1      -1.860  -0.961  -0.689  0.00  0.00    -0.002 A 
ATOM      2  C1  UNL d   1      -2.773  -1.918  -0.270  0.00  0.00     0.010 A 
ATOM      3  C2  UNL d   1      -3.409  -1.800   0.968  0.00  0.00     0.041 A 
ATOM      4  C3  UNL d   1      -3.110  -0.692   1.784  0.00  0.00    -0.075 A 
ATOM      5  S   UNL d   1      -3.766  -0.339   3.339  0.00  0.00     0.015 SA
ATOM      6  C4  UNL d   1      -2.851   1.092   3.483  0.00  0.00     0.022 A 
ATOM      7  C5  UNL d   1      -2.058   1.310   2.381  0.00  0.00     0.026 A 
ATOM      8  C6  UNL d   1      -2.195   0.286   1.383  0.00  0.00    -0.082 A 
ATOM      9  C7  UNL d   1      -1.566   0.137   0.124  0.00  0.00     0.045 A 
ENDROOT
TORSDOF 0
ENDMDL
