MODEL 1
REMARK minimizedAffinity 13.1183834
REMARK minimizedRMSD -1
REMARK  0 active torsions:
REMARK  status: ('A' for Active; 'I' for Inactive)
ROOT
ATOM      1  C   UNL d   1      -3.951   3.377   2.267  0.00  0.00    -0.002 A 
ATOM      2  C1  UNL d   1      -5.016   4.179   2.652  0.00  0.00     0.010 A 
ATOM      3  C2  UNL d   1      -4.907   5.021   3.760  0.00  0.00     0.041 A 
ATOM      4  C3  UNL d   1      -3.696   5.046   4.481  0.00  0.00    -0.075 A 
ATOM      5  S   UNL d   1      -3.333   6.000   5.870  0.00  0.00     0.015 SA
ATOM      6  C4  UNL d   1      -1.755   5.366   5.985  0.00  0.00     0.022 A 
ATOM      7  C5  UNL d   1      -1.495   4.447   4.996  0.00  0.00     0.026 A 
ATOM      8  C6  UNL d   1      -2.609   4.248   4.112  0.00  0.00    -0.082 A 
ATOM      9  C7  UNL d   1      -2.752   3.404   2.985  0.00  0.00     0.045 A 
ENDROOT
TORSDOF 0
ENDMDL
