MODEL 1
REMARK minimizedAffinity 15.3330011
REMARK minimizedRMSD -1
REMARK  0 active torsions:
REMARK  status: ('A' for Active; 'I' for Inactive)
ROOT
ATOM      1  C   UNL d   1      -3.773   4.929   2.985  0.00  0.00    -0.002 A 
ATOM      2  C1  UNL d   1      -4.805   4.596   2.119  0.00  0.00     0.010 A 
ATOM      3  C2  UNL d   1      -4.953   3.286   1.660  0.00  0.00     0.041 A 
ATOM      4  C3  UNL d   1      -4.039   2.305   2.093  0.00  0.00    -0.075 A 
ATOM      5  S   UNL d   1      -4.025   0.635   1.663  0.00  0.00     0.015 SA
ATOM      6  C4  UNL d   1      -2.650   0.324   2.621  0.00  0.00     0.022 A 
ATOM      7  C5  UNL d   1      -2.199   1.454   3.259  0.00  0.00     0.026 A 
ATOM      8  C6  UNL d   1      -2.993   2.615   2.966  0.00  0.00    -0.082 A 
ATOM      9  C7  UNL d   1      -2.869   3.953   3.413  0.00  0.00     0.045 A 
ENDROOT
TORSDOF 0
ENDMDL
