MODEL 1
REMARK minimizedAffinity 18.0540333
REMARK minimizedRMSD -1
REMARK  0 active torsions:
REMARK  status: ('A' for Active; 'I' for Inactive)
ROOT
ATOM      1  C   UNL d   1       2.000   1.285  -1.642  0.00  0.00    -0.002 A 
ATOM      2  C1  UNL d   1       2.247   2.582  -2.067  0.00  0.00     0.010 A 
ATOM      3  C2  UNL d   1       1.890   2.988  -3.354  0.00  0.00     0.041 A 
ATOM      4  C3  UNL d   1       1.273   2.060  -4.215  0.00  0.00    -0.075 A 
ATOM      5  S   UNL d   1       0.748   2.333  -5.834  0.00  0.00     0.015 SA
ATOM      6  C4  UNL d   1       0.182   0.734  -6.000  0.00  0.00     0.022 A 
ATOM      7  C5  UNL d   1       0.381  -0.005  -4.857  0.00  0.00     0.026 A 
ATOM      8  C6  UNL d   1       1.013   0.747  -3.810  0.00  0.00    -0.082 A 
ATOM      9  C7  UNL d   1       1.387   0.366  -2.499  0.00  0.00     0.045 A 
ENDROOT
TORSDOF 0
ENDMDL
