MODEL 1
REMARK minimizedAffinity 15.0251179
REMARK minimizedRMSD -1
REMARK  0 active torsions:
REMARK  status: ('A' for Active; 'I' for Inactive)
ROOT
ATOM      1  C   UNL d   1      -2.931   2.152   2.687  0.00  0.00    -0.002 A 
ATOM      2  C1  UNL d   1      -4.130   2.650   2.195  0.00  0.00     0.010 A 
ATOM      3  C2  UNL d   1      -4.665   3.838   2.698  0.00  0.00     0.041 A 
ATOM      4  C3  UNL d   1      -3.968   4.524   3.712  0.00  0.00    -0.075 A 
ATOM      5  S   UNL d   1      -4.433   5.997   4.479  0.00  0.00     0.015 SA
ATOM      6  C4  UNL d   1      -3.051   6.000   5.477  0.00  0.00     0.022 A 
ATOM      7  C5  UNL d   1      -2.244   4.911   5.244  0.00  0.00     0.026 A 
ATOM      8  C6  UNL d   1      -2.760   4.043   4.223  0.00  0.00    -0.082 A 
ATOM      9  C7  UNL d   1      -2.243   2.836   3.693  0.00  0.00     0.045 A 
ENDROOT
TORSDOF 0
ENDMDL
