MODEL 1
REMARK minimizedAffinity 18.9053497
REMARK minimizedRMSD -1
REMARK  0 active torsions:
REMARK  status: ('A' for Active; 'I' for Inactive)
ROOT
ATOM      1  C   UNL d   1      -4.222  -2.971  -0.762  0.00  0.00    -0.002 A 
ATOM      2  C1  UNL d   1      -5.551  -3.073  -0.376  0.00  0.00     0.010 A 
ATOM      3  C2  UNL d   1      -6.000  -2.457   0.794  0.00  0.00     0.041 A 
ATOM      4  C3  UNL d   1      -5.082  -1.730   1.577  0.00  0.00    -0.075 A 
ATOM      5  S   UNL d   1      -5.405  -0.892   3.049  0.00  0.00     0.015 SA
ATOM      6  C4  UNL d   1      -3.787  -0.379   3.200  0.00  0.00     0.022 A 
ATOM      7  C5  UNL d   1      -3.005  -0.827   2.161  0.00  0.00     0.026 A 
ATOM      8  C6  UNL d   1      -3.738  -1.612   1.209  0.00  0.00    -0.082 A 
ATOM      9  C7  UNL d   1      -3.314  -2.249   0.017  0.00  0.00     0.045 A 
ENDROOT
TORSDOF 0
ENDMDL
