MODEL 1
REMARK minimizedAffinity 5.00864124
REMARK minimizedRMSD -1
REMARK  0 active torsions:
REMARK  status: ('A' for Active; 'I' for Inactive)
ROOT
ATOM      1  C   UNL d   1      -4.236   4.017   1.587  0.00  0.00    -0.002 A 
ATOM      2  C1  UNL d   1      -3.036   3.419   1.944  0.00  0.00     0.010 A 
ATOM      3  C2  UNL d   1      -2.460   3.673   3.191  0.00  0.00     0.041 A 
ATOM      4  C3  UNL d   1      -3.118   4.544   4.081  0.00  0.00    -0.075 A 
ATOM      5  S   UNL d   1      -2.600   5.001   5.661  0.00  0.00     0.015 SA
ATOM      6  C4  UNL d   1      -3.961   6.000   5.899  0.00  0.00     0.022 A 
ATOM      7  C5  UNL d   1      -4.799   5.997   4.809  0.00  0.00     0.026 A 
ATOM      8  C6  UNL d   1      -4.328   5.157   3.744  0.00  0.00    -0.082 A 
ATOM      9  C7  UNL d   1      -4.886   4.881   2.473  0.00  0.00     0.045 A 
ENDROOT
TORSDOF 0
ENDMDL
