MODEL 1
REMARK minimizedAffinity 14.7296124
REMARK minimizedRMSD -1
REMARK  0 active torsions:
REMARK  status: ('A' for Active; 'I' for Inactive)
ROOT
ATOM      1  C   UNL d   1       1.428   1.264  -4.810  0.00  0.00    -0.002 A 
ATOM      2  C1  UNL d   1       1.065   0.016  -5.296  0.00  0.00     0.010 A 
ATOM      3  C2  UNL d   1       1.130  -1.112  -4.475  0.00  0.00     0.041 A 
ATOM      4  C3  UNL d   1       1.567  -0.962  -3.144  0.00  0.00    -0.075 A 
ATOM      5  S   UNL d   1       1.726  -2.201  -1.956  0.00  0.00     0.015 SA
ATOM      6  C4  UNL d   1       2.277  -1.103  -0.776  0.00  0.00     0.022 A 
ATOM      7  C5  UNL d   1       2.345   0.182  -1.259  0.00  0.00     0.026 A 
ATOM      8  C6  UNL d   1       1.937   0.285  -2.632  0.00  0.00    -0.082 A 
ATOM      9  C7  UNL d   1       1.861   1.409  -3.490  0.00  0.00     0.045 A 
ENDROOT
TORSDOF 0
ENDMDL
