MODEL 1
REMARK minimizedAffinity 5.52705383
REMARK minimizedRMSD -1
REMARK  0 active torsions:
REMARK  status: ('A' for Active; 'I' for Inactive)
ROOT
ATOM      1  C   UNL d   1      -3.922   0.701   3.152  0.00  0.00    -0.002 A 
ATOM      2  C1  UNL d   1      -5.242   0.749   3.579  0.00  0.00     0.010 A 
ATOM      3  C2  UNL d   1      -5.722   1.860   4.275  0.00  0.00     0.041 A 
ATOM      4  C3  UNL d   1      -4.847   2.933   4.534  0.00  0.00    -0.075 A 
ATOM      5  S   UNL d   1      -5.215   4.397   5.367  0.00  0.00     0.015 SA
ATOM      6  C4  UNL d   1      -3.630   4.993   5.174  0.00  0.00     0.022 A 
ATOM      7  C5  UNL d   1      -2.826   4.109   4.493  0.00  0.00     0.026 A 
ATOM      8  C6  UNL d   1      -3.515   2.908   4.112  0.00  0.00    -0.082 A 
ATOM      9  C7  UNL d   1      -3.057   1.767   3.410  0.00  0.00     0.045 A 
ENDROOT
TORSDOF 0
ENDMDL
