MODEL 1
REMARK minimizedAffinity 15.1367445
REMARK minimizedRMSD -1
REMARK  0 active torsions:
REMARK  status: ('A' for Active; 'I' for Inactive)
ROOT
ATOM      1  C   UNL d   1       1.882   1.161  -2.298  0.00  0.00    -0.002 A 
ATOM      2  C1  UNL d   1       1.118   0.702  -3.362  0.00  0.00     0.010 A 
ATOM      3  C2  UNL d   1       1.037   1.437  -4.547  0.00  0.00     0.041 A 
ATOM      4  C3  UNL d   1       1.746   2.650  -4.646  0.00  0.00    -0.075 A 
ATOM      5  S   UNL d   1       1.797   3.717  -6.000  0.00  0.00     0.015 SA
ATOM      6  C4  UNL d   1       2.835   4.805  -5.198  0.00  0.00     0.022 A 
ATOM      7  C5  UNL d   1       3.145   4.381  -3.928  0.00  0.00     0.026 A 
ATOM      8  C6  UNL d   1       2.523   3.132  -3.589  0.00  0.00    -0.082 A 
ATOM      9  C7  UNL d   1       2.584   2.365  -2.401  0.00  0.00     0.045 A 
ENDROOT
TORSDOF 0
ENDMDL
