MODEL 1
REMARK minimizedAffinity 10.1866341
REMARK minimizedRMSD -1
REMARK  0 active torsions:
REMARK  status: ('A' for Active; 'I' for Inactive)
ROOT
ATOM      1  C   UNL d   1       2.257   0.808  -1.502  0.00  0.00    -0.002 A 
ATOM      2  C1  UNL d   1       1.629   1.358  -2.610  0.00  0.00     0.010 A 
ATOM      3  C2  UNL d   1       1.163   0.541  -3.642  0.00  0.00     0.041 A 
ATOM      4  C3  UNL d   1       1.339  -0.853  -3.539  0.00  0.00    -0.075 A 
ATOM      5  S   UNL d   1       0.848  -2.049  -4.680  0.00  0.00     0.015 SA
ATOM      6  C4  UNL d   1       1.459  -3.320  -3.723  0.00  0.00     0.022 A 
ATOM      7  C5  UNL d   1       2.028  -2.861  -2.558  0.00  0.00     0.026 A 
ATOM      8  C6  UNL d   1       1.967  -1.431  -2.433  0.00  0.00    -0.082 A 
ATOM      9  C7  UNL d   1       2.430  -0.576  -1.404  0.00  0.00     0.045 A 
ENDROOT
TORSDOF 0
ENDMDL
