MODEL 1
REMARK minimizedAffinity 0.558944523
REMARK minimizedRMSD -1
REMARK  0 active torsions:
REMARK  status: ('A' for Active; 'I' for Inactive)
ROOT
ATOM      1  C   UNL d   1      -1.810   2.697   0.301  0.00  0.00    -0.002 A 
ATOM      2  C1  UNL d   1      -0.768   3.029   1.155  0.00  0.00     0.010 A 
ATOM      3  C2  UNL d   1       0.348   2.197   1.271  0.00  0.00     0.041 A 
ATOM      4  C3  UNL d   1       0.399   1.016   0.505  0.00  0.00    -0.075 A 
ATOM      5  S   UNL d   1       1.665  -0.154   0.482  0.00  0.00     0.015 SA
ATOM      6  C4  UNL d   1       0.853  -1.121  -0.662  0.00  0.00     0.022 A 
ATOM      7  C5  UNL d   1      -0.356  -0.580  -1.030  0.00  0.00     0.026 A 
ATOM      8  C6  UNL d   1      -0.637   0.661  -0.364  0.00  0.00    -0.082 A 
ATOM      9  C7  UNL d   1      -1.755   1.525  -0.458  0.00  0.00     0.045 A 
ENDROOT
TORSDOF 0
ENDMDL
