MODEL 1
REMARK minimizedAffinity 0.538046181
REMARK minimizedRMSD -1
REMARK  0 active torsions:
REMARK  status: ('A' for Active; 'I' for Inactive)
ROOT
ATOM      1  C   UNL d   1       0.801   0.539   2.750  0.00  0.00    -0.002 A 
ATOM      2  C1  UNL d   1       0.287   1.816   2.570  0.00  0.00     0.010 A 
ATOM      3  C2  UNL d   1      -0.167   2.228   1.316  0.00  0.00     0.041 A 
ATOM      4  C3  UNL d   1      -0.098   1.327   0.236  0.00  0.00    -0.075 A 
ATOM      5  S   UNL d   1      -0.597   1.612  -1.390  0.00  0.00     0.015 SA
ATOM      6  C4  UNL d   1      -0.140   0.046  -1.884  0.00  0.00     0.022 A 
ATOM      7  C5  UNL d   1       0.382  -0.690  -0.846  0.00  0.00     0.026 A 
ATOM      8  C6  UNL d   1       0.415   0.036   0.392  0.00  0.00    -0.082 A 
ATOM      9  C7  UNL d   1       0.868  -0.352   1.676  0.00  0.00     0.045 A 
ENDROOT
TORSDOF 0
ENDMDL
