MODEL 1
REMARK minimizedAffinity 2.20417714
REMARK minimizedRMSD -1
REMARK  0 active torsions:
REMARK  status: ('A' for Active; 'I' for Inactive)
ROOT
ATOM      1  C   UNL d   1      -0.633  -4.289  -2.038  0.00  0.00    -0.002 A 
ATOM      2  C1  UNL d   1       0.431  -4.492  -1.171  0.00  0.00     0.010 A 
ATOM      3  C2  UNL d   1       0.992  -3.421  -0.472  0.00  0.00     0.041 A 
ATOM      4  C3  UNL d   1       0.458  -2.131  -0.659  0.00  0.00    -0.075 A 
ATOM      5  S   UNL d   1       0.983  -0.670   0.092  0.00  0.00     0.015 SA
ATOM      6  C4  UNL d   1      -0.194   0.257  -0.720  0.00  0.00     0.022 A 
ATOM      7  C5  UNL d   1      -0.977  -0.512  -1.548  0.00  0.00     0.026 A 
ATOM      8  C6  UNL d   1      -0.614  -1.902  -1.526  0.00  0.00    -0.082 A 
ATOM      9  C7  UNL d   1      -1.160  -3.008  -2.221  0.00  0.00     0.045 A 
ENDROOT
TORSDOF 0
ENDMDL
