MODEL 1
REMARK minimizedAffinity -4.26206303
REMARK minimizedRMSD -1
REMARK  0 active torsions:
REMARK  status: ('A' for Active; 'I' for Inactive)
ROOT
ATOM      1  C   UNL d   1      -0.029   3.309   1.269  0.00  0.00    -0.002 A 
ATOM      2  C1  UNL d   1      -0.109   3.861  -0.002  0.00  0.00     0.010 A 
ATOM      3  C2  UNL d   1      -0.063   3.046  -1.135  0.00  0.00     0.041 A 
ATOM      4  C3  UNL d   1       0.065   1.653  -0.967  0.00  0.00    -0.075 A 
ATOM      5  S   UNL d   1       0.141   0.459  -2.209  0.00  0.00     0.015 SA
ATOM      6  C4  UNL d   1       0.281  -0.812  -1.082  0.00  0.00     0.022 A 
ATOM      7  C5  UNL d   1       0.272  -0.354   0.215  0.00  0.00     0.026 A 
ATOM      8  C6  UNL d   1       0.146   1.073   0.302  0.00  0.00    -0.082 A 
ATOM      9  C7  UNL d   1       0.097   1.927   1.431  0.00  0.00     0.045 A 
ENDROOT
TORSDOF 0
ENDMDL
