MODEL 1
REMARK minimizedAffinity -2.21224499
REMARK minimizedRMSD -1
REMARK  0 active torsions:
REMARK  status: ('A' for Active; 'I' for Inactive)
ROOT
ATOM      1  C   UNL d   1      -0.165  -1.072  -1.120  0.00  0.00    -0.002 A 
ATOM      2  C1  UNL d   1       1.003  -1.203  -0.382  0.00  0.00     0.010 A 
ATOM      3  C2  UNL d   1       1.273  -0.338   0.681  0.00  0.00     0.041 A 
ATOM      4  C3  UNL d   1       0.339   0.669   0.994  0.00  0.00    -0.075 A 
ATOM      5  S   UNL d   1       0.457   1.841   2.253  0.00  0.00     0.015 SA
ATOM      6  C4  UNL d   1      -1.041   2.542   1.842  0.00  0.00     0.022 A 
ATOM      7  C5  UNL d   1      -1.630   1.910   0.772  0.00  0.00     0.026 A 
ATOM      8  C6  UNL d   1      -0.845   0.820   0.266  0.00  0.00    -0.082 A 
ATOM      9  C7  UNL d   1      -1.089  -0.072  -0.806  0.00  0.00     0.045 A 
ENDROOT
TORSDOF 0
ENDMDL
