MODEL 1
REMARK minimizedAffinity -3.54844356
REMARK minimizedRMSD -1
REMARK  0 active torsions:
REMARK  status: ('A' for Active; 'I' for Inactive)
ROOT
ATOM      1  C   UNL d   1      -1.627   3.024   0.187  0.00  0.00    -0.002 A 
ATOM      2  C1  UNL d   1      -1.369   2.966   1.549  0.00  0.00     0.010 A 
ATOM      3  C2  UNL d   1      -0.530   1.980   2.072  0.00  0.00     0.041 A 
ATOM      4  C3  UNL d   1       0.054   1.046   1.194  0.00  0.00    -0.075 A 
ATOM      5  S   UNL d   1       1.116  -0.247   1.608  0.00  0.00     0.015 SA
ATOM      6  C4  UNL d   1       1.254  -0.753  -0.013  0.00  0.00     0.022 A 
ATOM      7  C5  UNL d   1       0.514   0.034  -0.864  0.00  0.00     0.026 A 
ATOM      8  C6  UNL d   1      -0.189   1.085  -0.182  0.00  0.00    -0.082 A 
ATOM      9  C7  UNL d   1      -1.046   2.095  -0.681  0.00  0.00     0.045 A 
ENDROOT
TORSDOF 0
ENDMDL
