MODEL 1
REMARK minimizedAffinity 4.65800333
REMARK minimizedRMSD -1
REMARK  0 active torsions:
REMARK  status: ('A' for Active; 'I' for Inactive)
ROOT
ATOM      1  C   UNL d   1      -1.649  -4.140  -4.335  0.00  0.00    -0.002 A 
ATOM      2  C1  UNL d   1      -2.388  -3.158  -3.690  0.00  0.00     0.010 A 
ATOM      3  C2  UNL d   1      -2.155  -2.862  -2.346  0.00  0.00     0.041 A 
ATOM      4  C3  UNL d   1      -1.156  -3.575  -1.654  0.00  0.00    -0.075 A 
ATOM      5  S   UNL d   1      -0.696  -3.382  -0.004  0.00  0.00     0.015 SA
ATOM      6  C4  UNL d   1       0.493  -4.598  -0.116  0.00  0.00     0.022 A 
ATOM      7  C5  UNL d   1       0.551  -5.149  -1.374  0.00  0.00     0.026 A 
ATOM      8  C6  UNL d   1      -0.399  -4.568  -2.282  0.00  0.00    -0.082 A 
ATOM      9  C7  UNL d   1      -0.659  -4.845  -3.645  0.00  0.00     0.045 A 
ENDROOT
TORSDOF 0
ENDMDL
