MODEL 1
REMARK minimizedAffinity -1.12736654
REMARK minimizedRMSD -1
REMARK  1 active torsions:
REMARK  status: ('A' for Active; 'I' for Inactive)
REMARK    1  A    between atoms: N_2  and  C1_3 
ROOT
ATOM      1  C1  UNL d   1      -1.292   0.916   0.195  0.00  0.00     0.143 A 
ATOM      2  C2  UNL d   1      -2.157   0.450  -0.800  0.00  0.00    -0.057 A 
ATOM      3  C3  UNL d   1      -3.539   0.379  -0.586  0.00  0.00     0.033 A 
ATOM      4  C4  UNL d   1      -4.079   0.747   0.642  0.00  0.00    -0.042 A 
ATOM      5  C5  UNL d   1      -3.235   1.189   1.655  0.00  0.00     0.033 A 
ATOM      6  C6  UNL d   1      -1.857   1.263   1.433  0.00  0.00    -0.057 A 
ENDROOT
BRANCH   1   7
ATOM      7  N   UNL d   1       0.100   0.917   0.078  0.00  0.00    -0.732 N 
ATOM      8  C   UNL d   1       0.865  -0.277   0.370  0.00  0.00     0.284 C 
ATOM      9  H3  UNL d   1       0.420   1.425  -0.743  0.00  0.00     0.395 HD
ENDBRANCH   1   7
TORSDOF 1
ENDMDL
