MODEL 1
REMARK minimizedAffinity -4.90373087
REMARK minimizedRMSD -1
REMARK  1 active torsions:
REMARK  status: ('A' for Active; 'I' for Inactive)
REMARK    1  A    between atoms: N_2  and  C1_3 
ROOT
ATOM      1  C1  UNL d   1       0.654  -0.246   0.457  0.00  0.00     0.143 A 
ATOM      2  C2  UNL d   1       1.258   0.985   0.184  0.00  0.00    -0.057 A 
ATOM      3  C3  UNL d   1       2.651   1.130   0.201  0.00  0.00     0.033 A 
ATOM      4  C4  UNL d   1       3.465   0.049   0.521  0.00  0.00    -0.042 A 
ATOM      5  C5  UNL d   1       2.885  -1.179   0.821  0.00  0.00     0.033 A 
ATOM      6  C6  UNL d   1       1.494  -1.319   0.796  0.00  0.00    -0.057 A 
ENDROOT
BRANCH   1   7
ATOM      7  N   UNL d   1      -0.728  -0.430   0.553  0.00  0.00    -0.732 N 
ATOM      8  C   UNL d   1      -1.641   0.608   0.127  0.00  0.00     0.284 C 
ATOM      9  H3  UNL d   1      -1.014  -1.370   0.287  0.00  0.00     0.395 HD
ENDBRANCH   1   7
TORSDOF 1
ENDMDL
