MODEL 1
REMARK minimizedAffinity -4.55318165
REMARK minimizedRMSD -1
REMARK  1 active torsions:
REMARK  status: ('A' for Active; 'I' for Inactive)
REMARK    1  A    between atoms: N_2  and  C1_3 
ROOT
ATOM      1  C1  UNL d   1       0.849   0.479   0.213  0.00  0.00     0.143 A 
ATOM      2  C2  UNL d   1       1.052  -0.904   0.156  0.00  0.00    -0.057 A 
ATOM      3  C3  UNL d   1       2.336  -1.454   0.254  0.00  0.00     0.033 A 
ATOM      4  C4  UNL d   1       3.446  -0.627   0.383  0.00  0.00    -0.042 A 
ATOM      5  C5  UNL d   1       3.271   0.752   0.417  0.00  0.00     0.033 A 
ATOM      6  C6  UNL d   1       1.986   1.296   0.325  0.00  0.00    -0.057 A 
ENDROOT
BRANCH   1   7
ATOM      7  N   UNL d   1      -0.391   1.092   0.022  0.00  0.00    -0.732 N 
ATOM      8  C   UNL d   1      -1.524   0.330  -0.458  0.00  0.00     0.284 C 
ATOM      9  H3  UNL d   1      -0.618   1.750   0.765  0.00  0.00     0.395 HD
ENDBRANCH   1   7
TORSDOF 1
ENDMDL
