MODEL 1
REMARK minimizedAffinity -3.78268361
REMARK minimizedRMSD -1
REMARK  1 active torsions:
REMARK  status: ('A' for Active; 'I' for Inactive)
REMARK    1  A    between atoms: N_2  and  C1_3 
ROOT
ATOM      1  C1  UNL d   1       1.033  -0.434   0.590  0.00  0.00     0.143 A 
ATOM      2  C2  UNL d   1       0.374   0.790   0.743  0.00  0.00    -0.057 A 
ATOM      3  C3  UNL d   1      -0.907   0.996   0.215  0.00  0.00     0.033 A 
ATOM      4  C4  UNL d   1      -1.539  -0.012  -0.504  0.00  0.00    -0.042 A 
ATOM      5  C5  UNL d   1      -0.892  -1.229  -0.691  0.00  0.00     0.033 A 
ATOM      6  C6  UNL d   1       0.383  -1.431  -0.155  0.00  0.00    -0.057 A 
ENDROOT
BRANCH   1   7
ATOM      7  N   UNL d   1       2.346  -0.668   1.006  0.00  0.00    -0.732 N 
ATOM      8  C   UNL d   1       3.137  -1.716   0.399  0.00  0.00     0.284 C 
ATOM      9  H3  UNL d   1       2.859   0.195   1.176  0.00  0.00     0.395 HD
ENDBRANCH   1   7
TORSDOF 1
ENDMDL
