MODEL 1
REMARK minimizedAffinity -5.61261702
REMARK minimizedRMSD -1
REMARK  1 active torsions:
REMARK  status: ('A' for Active; 'I' for Inactive)
REMARK    1  A    between atoms: N_2  and  C1_3 
ROOT
ATOM      1  C1  UNL d   1       0.723   0.479   0.113  0.00  0.00     0.143 A 
ATOM      2  C2  UNL d   1       1.023  -0.812   0.559  0.00  0.00    -0.057 A 
ATOM      3  C3  UNL d   1       2.308  -1.146   1.004  0.00  0.00     0.033 A 
ATOM      4  C4  UNL d   1       3.326  -0.199   0.983  0.00  0.00    -0.042 A 
ATOM      5  C5  UNL d   1       3.057   1.084   0.520  0.00  0.00     0.033 A 
ATOM      6  C6  UNL d   1       1.770   1.414   0.084  0.00  0.00    -0.057 A 
ENDROOT
BRANCH   1   7
ATOM      7  N   UNL d   1      -0.509   0.847  -0.434  0.00  0.00    -0.732 N 
ATOM      8  C   UNL d   1      -1.696   0.901   0.392  0.00  0.00     0.284 C 
ATOM      9  H3  UNL d   1      -0.427   1.616  -1.095  0.00  0.00     0.395 HD
ENDBRANCH   1   7
TORSDOF 1
ENDMDL
