MODEL 1
REMARK minimizedAffinity -5.26406479
REMARK minimizedRMSD -1
REMARK  1 active torsions:
REMARK  status: ('A' for Active; 'I' for Inactive)
REMARK    1  A    between atoms: N_2  and  C1_3 
ROOT
ATOM      1  C1  UNL d   1       0.324  -0.122   0.165  0.00  0.00     0.143 A 
ATOM      2  C2  UNL d   1       1.298   0.605   0.857  0.00  0.00    -0.057 A 
ATOM      3  C3  UNL d   1       2.529   0.030   1.196  0.00  0.00     0.033 A 
ATOM      4  C4  UNL d   1       2.797  -1.296   0.873  0.00  0.00    -0.042 A 
ATOM      5  C5  UNL d   1       1.834  -2.046   0.207  0.00  0.00     0.033 A 
ATOM      6  C6  UNL d   1       0.609  -1.464  -0.135  0.00  0.00    -0.057 A 
ENDROOT
BRANCH   1   7
ATOM      7  N   UNL d   1      -0.956   0.362  -0.114  0.00  0.00    -0.732 N 
ATOM      8  C   UNL d   1      -1.944   0.482   0.937  0.00  0.00     0.284 C 
ATOM      9  H3  UNL d   1      -0.942   1.146  -0.763  0.00  0.00     0.395 HD
ENDBRANCH   1   7
TORSDOF 1
ENDMDL
