MODEL 1
REMARK minimizedAffinity -2.05445409
REMARK minimizedRMSD -1
REMARK  1 active torsions:
REMARK  status: ('A' for Active; 'I' for Inactive)
REMARK    1  A    between atoms: N_2  and  C1_3 
ROOT
ATOM      1  C1  UNL d   1       0.986  -0.908   0.419  0.00  0.00     0.143 A 
ATOM      2  C2  UNL d   1       2.222  -1.466   0.763  0.00  0.00    -0.057 A 
ATOM      3  C3  UNL d   1       3.260  -0.675   1.269  0.00  0.00     0.033 A 
ATOM      4  C4  UNL d   1       3.091   0.698   1.412  0.00  0.00    -0.042 A 
ATOM      5  C5  UNL d   1       1.879   1.279   1.053  0.00  0.00     0.033 A 
ATOM      6  C6  UNL d   1       0.844   0.482   0.555  0.00  0.00    -0.057 A 
ENDROOT
BRANCH   1   7
ATOM      7  N   UNL d   1      -0.052  -1.625  -0.181  0.00  0.00    -0.732 N 
ATOM      8  C   UNL d   1      -0.055  -1.863  -1.608  0.00  0.00     0.284 C 
ATOM      9  H3  UNL d   1      -0.342  -2.427   0.375  0.00  0.00     0.395 HD
ENDBRANCH   1   7
TORSDOF 1
ENDMDL
