MODEL 1
REMARK minimizedAffinity -5.04861975
REMARK minimizedRMSD -1
REMARK  1 active torsions:
REMARK  status: ('A' for Active; 'I' for Inactive)
REMARK    1  A    between atoms: N_2  and  C1_3 
ROOT
ATOM      1  C1  UNL d   1       0.028  -0.079   0.333  0.00  0.00     0.143 A 
ATOM      2  C2  UNL d   1       0.144  -1.457   0.118  0.00  0.00    -0.057 A 
ATOM      3  C3  UNL d   1       1.348  -2.130   0.359  0.00  0.00     0.033 A 
ATOM      4  C4  UNL d   1       2.469  -1.429   0.792  0.00  0.00    -0.042 A 
ATOM      5  C5  UNL d   1       2.383  -0.056   0.989  0.00  0.00     0.033 A 
ATOM      6  C6  UNL d   1       1.176   0.610   0.753  0.00  0.00    -0.057 A 
ENDROOT
BRANCH   1   7
ATOM      7  N   UNL d   1      -1.113   0.663   0.019  0.00  0.00    -0.732 N 
ATOM      8  C   UNL d   1      -2.356   0.439   0.724  0.00  0.00     0.284 C 
ATOM      9  H3  UNL d   1      -0.903   1.644  -0.152  0.00  0.00     0.395 HD
ENDBRANCH   1   7
TORSDOF 1
ENDMDL
