MODEL 1
REMARK minimizedAffinity -4.30076885
REMARK minimizedRMSD -1
REMARK  1 active torsions:
REMARK  status: ('A' for Active; 'I' for Inactive)
REMARK    1  A    between atoms: C3_4  and  O_7 
ROOT
ATOM      1  C   UNL d   1      -1.551   2.188   1.406  0.00  0.00    -0.033 A 
ATOM      2  C1  UNL d   1      -1.046   1.116   0.667  0.00  0.00     0.039 A 
ATOM      3  C2  UNL d   1      -0.284   1.353  -0.479  0.00  0.00    -0.080 A 
ATOM      4  C3  UNL d   1      -0.032   2.665  -0.873  0.00  0.00     0.150 A 
ATOM      5  C4  UNL d   1      -0.529   3.737  -0.139  0.00  0.00    -0.007 A 
ATOM      6  C5  UNL d   1      -1.291   3.498   1.003  0.00  0.00     0.039 A 
ENDROOT
BRANCH   4   7
ATOM      7  O   UNL d   1       0.703   2.946  -1.986  0.00  0.00    -0.526 OA
ATOM      8  H5  UNL d   1       0.955   2.107  -2.408  0.00  0.00     0.418 HD
ENDBRANCH   4   7
TORSDOF 1
ENDMDL
