MODEL 1
REMARK minimizedAffinity -5.62093353
REMARK minimizedRMSD -1
REMARK  1 active torsions:
REMARK  status: ('A' for Active; 'I' for Inactive)
REMARK    1  A    between atoms: C3_4  and  O_7 
ROOT
ATOM      1  C   UNL d   1      -2.079   3.099   1.400  0.00  0.00    -0.033 A 
ATOM      2  C1  UNL d   1      -2.215   1.802   1.901  0.00  0.00     0.039 A 
ATOM      3  C2  UNL d   1      -1.521   0.746   1.307  0.00  0.00    -0.080 A 
ATOM      4  C3  UNL d   1      -0.694   1.000   0.217  0.00  0.00     0.150 A 
ATOM      5  C4  UNL d   1      -0.551   2.289  -0.285  0.00  0.00    -0.007 A 
ATOM      6  C5  UNL d   1      -1.245   3.342   0.308  0.00  0.00     0.039 A 
ENDROOT
BRANCH   4   7
ATOM      7  O   UNL d   1       0.000   0.001  -0.399  0.00  0.00    -0.526 OA
ATOM      8  H5  UNL d   1      -0.219  -0.840   0.037  0.00  0.00     0.418 HD
ENDBRANCH   4   7
TORSDOF 1
ENDMDL
