MODEL 1
REMARK minimizedAffinity -4.56406593
REMARK minimizedRMSD -1
REMARK  1 active torsions:
REMARK  status: ('A' for Active; 'I' for Inactive)
REMARK    1  A    between atoms: C3_4  and  O_7 
ROOT
ATOM      1  C   UNL d   1      -0.692   2.515   0.564  0.00  0.00    -0.033 A 
ATOM      2  C1  UNL d   1      -0.880   1.391   1.370  0.00  0.00     0.039 A 
ATOM      3  C2  UNL d   1      -0.396   0.147   0.961  0.00  0.00    -0.080 A 
ATOM      4  C3  UNL d   1       0.273   0.040  -0.255  0.00  0.00     0.150 A 
ATOM      5  C4  UNL d   1       0.468   1.157  -1.061  0.00  0.00    -0.007 A 
ATOM      6  C5  UNL d   1      -0.017   2.398  -0.651  0.00  0.00     0.039 A 
ENDROOT
BRANCH   4   7
ATOM      7  O   UNL d   1       0.759  -1.154  -0.698  0.00  0.00    -0.526 OA
ATOM      8  H5  UNL d   1       0.526  -1.840  -0.052  0.00  0.00     0.418 HD
ENDBRANCH   4   7
TORSDOF 1
ENDMDL
