MODEL 1
REMARK minimizedAffinity -4.88453722
REMARK minimizedRMSD -1
REMARK  1 active torsions:
REMARK  status: ('A' for Active; 'I' for Inactive)
REMARK    1  A    between atoms: C3_4  and  O_7 
ROOT
ATOM      1  C   UNL d   1      -2.083   3.377   0.992  0.00  0.00    -0.033 A 
ATOM      2  C1  UNL d   1      -2.309   2.133   1.583  0.00  0.00     0.039 A 
ATOM      3  C2  UNL d   1      -1.598   1.012   1.149  0.00  0.00    -0.080 A 
ATOM      4  C3  UNL d   1      -0.665   1.149   0.125  0.00  0.00     0.150 A 
ATOM      5  C4  UNL d   1      -0.432   2.387  -0.466  0.00  0.00    -0.007 A 
ATOM      6  C5  UNL d   1      -1.143   3.504  -0.032  0.00  0.00     0.039 A 
ENDROOT
BRANCH   4   7
ATOM      7  O   UNL d   1       0.050   0.083  -0.335  0.00  0.00    -0.526 OA
ATOM      8  H5  UNL d   1      -0.237  -0.711   0.146  0.00  0.00     0.418 HD
ENDBRANCH   4   7
TORSDOF 1
ENDMDL
