MODEL 1
REMARK minimizedAffinity -4.61433411
REMARK minimizedRMSD -1
REMARK  1 active torsions:
REMARK  status: ('A' for Active; 'I' for Inactive)
REMARK    1  A    between atoms: C3_4  and  O_7 
ROOT
ATOM      1  C   UNL d   1      -1.625   2.076   1.718  0.00  0.00    -0.033 A 
ATOM      2  C1  UNL d   1      -1.568   0.799   2.282  0.00  0.00     0.039 A 
ATOM      3  C2  UNL d   1      -0.827  -0.208   1.660  0.00  0.00    -0.080 A 
ATOM      4  C3  UNL d   1      -0.148   0.074   0.478  0.00  0.00     0.150 A 
ATOM      5  C4  UNL d   1      -0.197   1.345  -0.087  0.00  0.00    -0.007 A 
ATOM      6  C5  UNL d   1      -0.938   2.349   0.535  0.00  0.00     0.039 A 
ENDROOT
BRANCH   4   7
ATOM      7  O   UNL d   1       0.584  -0.877  -0.168  0.00  0.00    -0.526 OA
ATOM      8  H5  UNL d   1       0.504  -1.712   0.322  0.00  0.00     0.418 HD
ENDBRANCH   4   7
TORSDOF 1
ENDMDL
