MODEL 1
REMARK minimizedAffinity -2.01490355
REMARK minimizedRMSD -1
REMARK  1 active torsions:
REMARK  status: ('A' for Active; 'I' for Inactive)
REMARK    1  A    between atoms: C3_4  and  O_7 
ROOT
ATOM      1  C   UNL d   1       0.072  -2.079  -2.543  0.00  0.00    -0.033 A 
ATOM      2  C1  UNL d   1       1.395  -2.113  -2.099  0.00  0.00     0.039 A 
ATOM      3  C2  UNL d   1       1.858  -3.205  -1.362  0.00  0.00    -0.080 A 
ATOM      4  C3  UNL d   1       0.990  -4.256  -1.079  0.00  0.00     0.150 A 
ATOM      5  C4  UNL d   1      -0.328  -4.230  -1.522  0.00  0.00    -0.007 A 
ATOM      6  C5  UNL d   1      -0.789  -3.139  -2.256  0.00  0.00     0.039 A 
ENDROOT
BRANCH   4   7
ATOM      7  O   UNL d   1       1.395  -5.340  -0.359  0.00  0.00    -0.526 OA
ATOM      8  H5  UNL d   1       2.321  -5.206  -0.095  0.00  0.00     0.418 HD
ENDBRANCH   4   7
TORSDOF 1
ENDMDL
