MODEL 1
REMARK minimizedAffinity -3.81414509
REMARK minimizedRMSD -1
REMARK  1 active torsions:
REMARK  status: ('A' for Active; 'I' for Inactive)
REMARK    1  A    between atoms: C3_4  and  O_7 
ROOT
ATOM      1  C   UNL d   1      -0.543  -0.295   1.530  0.00  0.00    -0.033 A 
ATOM      2  C1  UNL d   1      -0.981   0.847   2.203  0.00  0.00     0.039 A 
ATOM      3  C2  UNL d   1      -0.869   2.101   1.600  0.00  0.00    -0.080 A 
ATOM      4  C3  UNL d   1      -0.320   2.199   0.324  0.00  0.00     0.150 A 
ATOM      5  C4  UNL d   1       0.115   1.065  -0.353  0.00  0.00    -0.007 A 
ATOM      6  C5  UNL d   1       0.004  -0.187   0.251  0.00  0.00     0.039 A 
ENDROOT
BRANCH   4   7
ATOM      7  O   UNL d   1      -0.186   3.401  -0.303  0.00  0.00    -0.526 OA
ATOM      8  H5  UNL d   1      -0.502   4.098   0.296  0.00  0.00     0.418 HD
ENDBRANCH   4   7
TORSDOF 1
ENDMDL
