MODEL 1
REMARK minimizedAffinity -2.21369958
REMARK minimizedRMSD -1
REMARK  1 active torsions:
REMARK  status: ('A' for Active; 'I' for Inactive)
REMARK    1  A    between atoms: C3_4  and  O_7 
ROOT
ATOM      1  C   UNL d   1      -0.152  -4.198  -2.266  0.00  0.00    -0.033 A 
ATOM      2  C1  UNL d   1      -0.214  -2.998  -2.978  0.00  0.00     0.039 A 
ATOM      3  C2  UNL d   1       0.264  -1.818  -2.404  0.00  0.00    -0.080 A 
ATOM      4  C3  UNL d   1       0.802  -1.852  -1.120  0.00  0.00     0.150 A 
ATOM      5  C4  UNL d   1       0.870  -3.045  -0.407  0.00  0.00    -0.007 A 
ATOM      6  C5  UNL d   1       0.392  -4.221  -0.982  0.00  0.00     0.039 A 
ENDROOT
BRANCH   4   7
ATOM      7  O   UNL d   1       1.277  -0.726  -0.517  0.00  0.00    -0.526 OA
ATOM      8  H5  UNL d   1       1.138   0.026  -1.116  0.00  0.00     0.418 HD
ENDBRANCH   4   7
TORSDOF 1
ENDMDL
