MODEL 1
REMARK minimizedAffinity -2.07142925
REMARK minimizedRMSD -1
REMARK  1 active torsions:
REMARK  status: ('A' for Active; 'I' for Inactive)
REMARK    1  A    between atoms: C3_4  and  O_7 
ROOT
ATOM      1  C   UNL d   1       0.568  -1.245   0.488  0.00  0.00    -0.033 A 
ATOM      2  C1  UNL d   1      -0.244  -0.265   1.064  0.00  0.00     0.039 A 
ATOM      3  C2  UNL d   1      -0.310   1.010   0.499  0.00  0.00    -0.080 A 
ATOM      4  C3  UNL d   1       0.439   1.292  -0.640  0.00  0.00     0.150 A 
ATOM      5  C4  UNL d   1       1.247   0.321  -1.221  0.00  0.00    -0.007 A 
ATOM      6  C5  UNL d   1       1.312  -0.952  -0.655  0.00  0.00     0.039 A 
ENDROOT
BRANCH   4   7
ATOM      7  O   UNL d   1       0.411   2.524  -1.224  0.00  0.00    -0.526 OA
ATOM      8  H5  UNL d   1      -0.167   3.101  -0.698  0.00  0.00     0.418 HD
ENDBRANCH   4   7
TORSDOF 1
ENDMDL
