MODEL 1
REMARK minimizedAffinity -4.80518246
REMARK minimizedRMSD -1
REMARK  1 active torsions:
REMARK  status: ('A' for Active; 'I' for Inactive)
REMARK    1  A    between atoms: C3_4  and  O_7 
ROOT
ATOM      1  C   UNL d   1      -2.401   2.077   1.055  0.00  0.00    -0.033 A 
ATOM      2  C1  UNL d   1      -2.018   2.995   0.076  0.00  0.00     0.039 A 
ATOM      3  C2  UNL d   1      -0.874   2.764  -0.691  0.00  0.00    -0.080 A 
ATOM      4  C3  UNL d   1      -0.123   1.613  -0.469  0.00  0.00     0.150 A 
ATOM      5  C4  UNL d   1      -0.501   0.692   0.503  0.00  0.00    -0.007 A 
ATOM      6  C5  UNL d   1      -1.643   0.925   1.268  0.00  0.00     0.039 A 
ENDROOT
BRANCH   4   7
ATOM      7  O   UNL d   1       1.004   1.347  -1.189  0.00  0.00    -0.526 OA
ATOM      8  H5  UNL d   1       1.157   2.084  -1.803  0.00  0.00     0.418 HD
ENDBRANCH   4   7
TORSDOF 1
ENDMDL
