MODEL 1
REMARK minimizedAffinity -4.76285744
REMARK minimizedRMSD -1
REMARK  1 active torsions:
REMARK  status: ('A' for Active; 'I' for Inactive)
REMARK    1  A    between atoms: C3_4  and  O_7 
ROOT
ATOM      1  C   UNL d   1       0.397   1.644  -0.963  0.00  0.00    -0.033 A 
ATOM      2  C1  UNL d   1      -0.082   0.781   0.025  0.00  0.00     0.039 A 
ATOM      3  C2  UNL d   1      -1.072   1.211   0.911  0.00  0.00    -0.080 A 
ATOM      4  C3  UNL d   1      -1.575   2.504   0.798  0.00  0.00     0.150 A 
ATOM      5  C4  UNL d   1      -1.106   3.368  -0.187  0.00  0.00    -0.007 A 
ATOM      6  C5  UNL d   1      -0.116   2.937  -1.069  0.00  0.00     0.039 A 
ENDROOT
BRANCH   4   7
ATOM      7  O   UNL d   1      -2.538   2.970   1.642  0.00  0.00    -0.526 OA
ATOM      8  H5  UNL d   1      -2.745   2.274   2.288  0.00  0.00     0.418 HD
ENDBRANCH   4   7
TORSDOF 1
ENDMDL
