MODEL 1
REMARK minimizedAffinity -4.95783615
REMARK minimizedRMSD -1
REMARK  1 active torsions:
REMARK  status: ('A' for Active; 'I' for Inactive)
REMARK    1  A    between atoms: C3_4  and  O_7 
ROOT
ATOM      1  C   UNL d   1       0.593   2.116  -0.511  0.00  0.00    -0.033 A 
ATOM      2  C1  UNL d   1       0.115   0.889  -0.046  0.00  0.00     0.039 A 
ATOM      3  C2  UNL d   1      -1.153   0.806   0.533  0.00  0.00    -0.080 A 
ATOM      4  C3  UNL d   1      -1.932   1.955   0.640  0.00  0.00     0.150 A 
ATOM      5  C4  UNL d   1      -1.463   3.180   0.176  0.00  0.00    -0.007 A 
ATOM      6  C5  UNL d   1      -0.196   3.261  -0.401  0.00  0.00     0.039 A 
ENDROOT
BRANCH   4   7
ATOM      7  O   UNL d   1      -3.173   1.925   1.201  0.00  0.00    -0.526 OA
ATOM      8  H5  UNL d   1      -3.353   1.018   1.503  0.00  0.00     0.418 HD
ENDBRANCH   4   7
TORSDOF 1
ENDMDL
