MODEL 1
REMARK minimizedAffinity -5.92109299
REMARK minimizedRMSD -1
REMARK  1 active torsions:
REMARK  status: ('A' for Active; 'I' for Inactive)
REMARK    1  A    between atoms: C3_4  and  O_7 
ROOT
ATOM      1  C   UNL d   1       0.574   2.455  -0.584  0.00  0.00    -0.033 A 
ATOM      2  C1  UNL d   1      -0.372   3.474  -0.453  0.00  0.00     0.039 A 
ATOM      3  C2  UNL d   1      -1.579   3.228   0.203  0.00  0.00    -0.080 A 
ATOM      4  C3  UNL d   1      -1.829   1.961   0.723  0.00  0.00     0.150 A 
ATOM      5  C4  UNL d   1      -0.890   0.942   0.599  0.00  0.00    -0.007 A 
ATOM      6  C5  UNL d   1       0.315   1.189  -0.057  0.00  0.00     0.039 A 
ENDROOT
BRANCH   4   7
ATOM      7  O   UNL d   1      -2.995   1.672   1.367  0.00  0.00    -0.526 OA
ATOM      8  H5  UNL d   1      -3.559   2.463   1.352  0.00  0.00     0.418 HD
ENDBRANCH   4   7
TORSDOF 1
ENDMDL
