MODEL 1
REMARK minimizedAffinity -5.5068593
REMARK minimizedRMSD -1
REMARK  1 active torsions:
REMARK  status: ('A' for Active; 'I' for Inactive)
REMARK    1  A    between atoms: C3_4  and  O_7 
ROOT
ATOM      1  C   UNL d   1      -1.909   3.423   0.922  0.00  0.00    -0.033 A 
ATOM      2  C1  UNL d   1      -0.789   3.714   0.141  0.00  0.00     0.039 A 
ATOM      3  C2  UNL d   1       0.052   2.685  -0.287  0.00  0.00    -0.080 A 
ATOM      4  C3  UNL d   1      -0.238   1.371   0.071  0.00  0.00     0.150 A 
ATOM      5  C4  UNL d   1      -1.354   1.074   0.845  0.00  0.00    -0.007 A 
ATOM      6  C5  UNL d   1      -2.192   2.102   1.273  0.00  0.00     0.039 A 
ENDROOT
BRANCH   4   7
ATOM      7  O   UNL d   1       0.557   0.335  -0.320  0.00  0.00    -0.526 OA
ATOM      8  H5  UNL d   1       1.305   0.694  -0.825  0.00  0.00     0.418 HD
ENDBRANCH   4   7
TORSDOF 1
ENDMDL
