MODEL 1
REMARK minimizedAffinity 8.77254581
REMARK minimizedRMSD -1
REMARK  3 active torsions:
REMARK  status: ('A' for Active; 'I' for Inactive)
REMARK    1  A    between atoms: C3'_2  and  C2'_3 
REMARK    2  A    between atoms: C2'_3  and  C1'_4 
REMARK    3  A    between atoms: C1'_4  and  C1_5 
ROOT
ATOM      1  C1  N4B d   1       2.277   2.314   2.542  0.00  0.00    -0.075 A 
ATOM      2  C2  N4B d   1       1.977   1.555   3.694  0.00  0.00     0.002 A 
ATOM      3  C3  N4B d   1       1.075   2.031   4.614  0.00  0.00     0.002 A 
ATOM      4  C4  N4B d   1       0.478   3.267   4.413  0.00  0.00    -0.004 A 
ATOM      5  C5  N4B d   1       0.754   3.982   3.285  0.00  0.00     0.002 A 
ATOM      6  C6  N4B d   1       1.655   3.514   2.350  0.00  0.00     0.002 A 
ENDROOT
BRANCH   1   7
ATOM      7  C1' N4B d   1       3.320   1.875   1.551  0.00  0.00     0.057 C 
BRANCH   7   8
ATOM      8  C2' N4B d   1       2.902   0.539   0.943  0.00  0.00     0.009 C 
BRANCH   8   9
ATOM      9  C3' N4B d   1       2.688   0.640  -0.557  0.00  0.00     0.004 C 
ATOM     10  C4' N4B d   1       3.663   1.565  -1.222  0.00  0.00     0.003 C 
ENDBRANCH   8   9
ENDBRANCH   7   8
ENDBRANCH   1   7
TORSDOF 3
ENDMDL
