MODEL 1
REMARK minimizedAffinity 7.70726442
REMARK minimizedRMSD -1
REMARK  3 active torsions:
REMARK  status: ('A' for Active; 'I' for Inactive)
REMARK    1  A    between atoms: C3'_2  and  C2'_3 
REMARK    2  A    between atoms: C2'_3  and  C1'_4 
REMARK    3  A    between atoms: C1'_4  and  C1_5 
ROOT
ATOM      1  C1  N4B d   1       3.946   0.771  -0.773  0.00  0.00    -0.075 A 
ATOM      2  C2  N4B d   1       4.155   0.677  -2.167  0.00  0.00     0.002 A 
ATOM      3  C3  N4B d   1       5.181   1.374  -2.756  0.00  0.00     0.002 A 
ATOM      4  C4  N4B d   1       5.996   2.183  -1.978  0.00  0.00    -0.004 A 
ATOM      5  C5  N4B d   1       5.803   2.249  -0.629  0.00  0.00     0.002 A 
ATOM      6  C6  N4B d   1       4.778   1.551  -0.023  0.00  0.00     0.002 A 
ENDROOT
BRANCH   1   7
ATOM      7  C1' N4B d   1       2.784   0.096  -0.097  0.00  0.00     0.057 C 
BRANCH   7   8
ATOM      8  C2' N4B d   1       1.505   0.406  -0.869  0.00  0.00     0.009 C 
BRANCH   8   9
ATOM      9  C3' N4B d   1       1.088   1.859  -0.715  0.00  0.00     0.004 C 
ATOM     10  C4' N4B d   1      -0.338   2.098  -1.113  0.00  0.00     0.003 C 
ENDBRANCH   8   9
ENDBRANCH   7   8
ENDBRANCH   1   7
TORSDOF 3
ENDMDL
