MODEL 1
REMARK minimizedAffinity 3.5845983
REMARK minimizedRMSD -1
REMARK  3 active torsions:
REMARK  status: ('A' for Active; 'I' for Inactive)
REMARK    1  A    between atoms: C3'_2  and  C2'_3 
REMARK    2  A    between atoms: C2'_3  and  C1'_4 
REMARK    3  A    between atoms: C1'_4  and  C1_5 
ROOT
ATOM      1  C1  N4B d   1       5.075   1.699  -2.068  0.00  0.00    -0.075 A 
ATOM      2  C2  N4B d   1       5.420   1.629  -0.701  0.00  0.00     0.002 A 
ATOM      3  C3  N4B d   1       4.707   0.816   0.146  0.00  0.00     0.002 A 
ATOM      4  C4  N4B d   1       3.638   0.082  -0.346  0.00  0.00    -0.004 A 
ATOM      5  C5  N4B d   1       3.327   0.137  -1.673  0.00  0.00     0.002 A 
ATOM      6  C6  N4B d   1       4.037   0.946  -2.536  0.00  0.00     0.002 A 
ENDROOT
BRANCH   1   7
ATOM      7  C1' N4B d   1       5.770   2.638  -3.016  0.00  0.00     0.057 C 
BRANCH   7   8
ATOM      8  C2' N4B d   1       4.917   3.891  -3.195  0.00  0.00     0.009 C 
BRANCH   8   9
ATOM      9  C3' N4B d   1       5.768   5.133  -3.401  0.00  0.00     0.004 C 
ATOM     10  C4' N4B d   1       5.837   5.998  -2.178  0.00  0.00     0.003 C 
ENDBRANCH   8   9
ENDBRANCH   7   8
ENDBRANCH   1   7
TORSDOF 3
ENDMDL
