MODEL 1
REMARK minimizedAffinity 4.92500877
REMARK minimizedRMSD -1
REMARK  3 active torsions:
REMARK  status: ('A' for Active; 'I' for Inactive)
REMARK    1  A    between atoms: C3'_2  and  C2'_3 
REMARK    2  A    between atoms: C2'_3  and  C1'_4 
REMARK    3  A    between atoms: C1'_4  and  C1_5 
ROOT
ATOM      1  C1  N4B d   1       0.480   0.654  -1.377  0.00  0.00    -0.075 A 
ATOM      2  C2  N4B d   1       0.424   1.855  -0.636  0.00  0.00     0.002 A 
ATOM      3  C3  N4B d   1      -0.790   2.439  -0.366  0.00  0.00     0.002 A 
ATOM      4  C4  N4B d   1      -1.954   1.853  -0.841  0.00  0.00    -0.004 A 
ATOM      5  C5  N4B d   1      -1.893   0.679  -1.534  0.00  0.00     0.002 A 
ATOM      6  C6  N4B d   1      -0.680   0.079  -1.809  0.00  0.00     0.002 A 
ENDROOT
BRANCH   1   7
ATOM      7  C1' N4B d   1       1.788   0.024  -1.771  0.00  0.00     0.057 C 
BRANCH   7   8
ATOM      8  C2' N4B d   1       2.925   0.991  -1.452  0.00  0.00     0.009 C 
BRANCH   8   9
ATOM      9  C3' N4B d   1       3.747   1.327  -2.684  0.00  0.00     0.004 C 
ATOM     10  C4' N4B d   1       4.821   2.336  -2.408  0.00  0.00     0.003 C 
ENDBRANCH   8   9
ENDBRANCH   7   8
ENDBRANCH   1   7
TORSDOF 3
ENDMDL
