MODEL 1
REMARK minimizedAffinity 3.30955791
REMARK minimizedRMSD -1
REMARK  3 active torsions:
REMARK  status: ('A' for Active; 'I' for Inactive)
REMARK    1  A    between atoms: C3'_2  and  C2'_3 
REMARK    2  A    between atoms: C2'_3  and  C1'_4 
REMARK    3  A    between atoms: C1'_4  and  C1_5 
ROOT
ATOM      1  C1  N4B d   1       3.231   0.821  -1.376  0.00  0.00    -0.075 A 
ATOM      2  C2  N4B d   1       3.931   1.228  -2.533  0.00  0.00     0.002 A 
ATOM      3  C3  N4B d   1       5.158   1.834  -2.415  0.00  0.00     0.002 A 
ATOM      4  C4  N4B d   1       5.695   2.058  -1.156  0.00  0.00    -0.004 A 
ATOM      5  C5  N4B d   1       5.024   1.639  -0.045  0.00  0.00     0.002 A 
ATOM      6  C6  N4B d   1       3.791   1.025  -0.148  0.00  0.00     0.002 A 
ENDROOT
BRANCH   1   7
ATOM      7  C1' N4B d   1       1.848   0.233  -1.450  0.00  0.00     0.057 C 
BRANCH   7   8
ATOM      8  C2' N4B d   1       0.964   0.899  -0.400  0.00  0.00     0.009 C 
BRANCH   8   9
ATOM      9  C3' N4B d   1      -0.155   1.709  -1.030  0.00  0.00     0.004 C 
ATOM     10  C4' N4B d   1      -0.685   2.775  -0.118  0.00  0.00     0.003 C 
ENDBRANCH   8   9
ENDBRANCH   7   8
ENDBRANCH   1   7
TORSDOF 3
ENDMDL
