MODEL 1
REMARK minimizedAffinity -2.35041547
REMARK minimizedRMSD -1
REMARK  1 active torsions:
REMARK  status: ('A' for Active; 'I' for Inactive)
REMARK    1  A    between atoms: C1_2  and  C2_3 
ROOT
ATOM      1  C2  UNL d   1       0.012  -0.172   0.676  0.00  0.00    -0.077 A 
ATOM      2  C3  UNL d   1      -1.108  -0.345  -0.150  0.00  0.00     0.002 A 
ATOM      3  C4  UNL d   1      -2.347   0.183   0.220  0.00  0.00     0.002 A 
ATOM      4  C5  UNL d   1      -2.476   0.890   1.413  0.00  0.00    -0.004 A 
ATOM      5  C6  UNL d   1      -1.369   1.067   2.242  0.00  0.00     0.002 A 
ATOM      6  C7  UNL d   1      -0.130   0.539   1.875  0.00  0.00     0.002 A 
ENDROOT
BRANCH   1   7
ATOM      7  C1  UNL d   1       1.359  -0.698   0.255  0.00  0.00     0.055 C 
ATOM      8  C   UNL d   1       2.346  -0.683   1.414  0.00  0.00     0.019 C 
ENDBRANCH   1   7
TORSDOF 1
ENDMDL
