MODEL 1
REMARK minimizedAffinity -1.402668
REMARK minimizedRMSD -1
REMARK  1 active torsions:
REMARK  status: ('A' for Active; 'I' for Inactive)
REMARK    1  A    between atoms: C1_2  and  C2_3 
ROOT
ATOM      1  C2  UNL d   1       1.481  -0.347  -2.075  0.00  0.00    -0.077 A 
ATOM      2  C3  UNL d   1       2.725  -0.796  -2.542  0.00  0.00     0.002 A 
ATOM      3  C4  UNL d   1       3.343  -0.164  -3.623  0.00  0.00     0.002 A 
ATOM      4  C5  UNL d   1       2.728   0.922  -4.242  0.00  0.00    -0.004 A 
ATOM      5  C6  UNL d   1       1.491   1.374  -3.786  0.00  0.00     0.002 A 
ATOM      6  C7  UNL d   1       0.870   0.744  -2.707  0.00  0.00     0.002 A 
ENDROOT
BRANCH   1   7
ATOM      7  C1  UNL d   1       0.836  -0.996  -0.878  0.00  0.00     0.055 C 
ATOM      8  C   UNL d   1       0.324   0.045   0.106  0.00  0.00     0.019 C 
ENDBRANCH   1   7
TORSDOF 1
ENDMDL
