MODEL 1
REMARK minimizedAffinity -3.47183013
REMARK minimizedRMSD -1
REMARK  1 active torsions:
REMARK  status: ('A' for Active; 'I' for Inactive)
REMARK    1  A    between atoms: C1_2  and  C2_3 
ROOT
ATOM      1  C2  UNL d   1      -1.737  -0.074   1.705  0.00  0.00    -0.077 A 
ATOM      2  C3  UNL d   1      -1.067   0.778   2.595  0.00  0.00     0.002 A 
ATOM      3  C4  UNL d   1       0.119   1.407   2.212  0.00  0.00     0.002 A 
ATOM      4  C5  UNL d   1       0.643   1.194   0.938  0.00  0.00    -0.004 A 
ATOM      5  C6  UNL d   1      -0.015   0.347   0.047  0.00  0.00     0.002 A 
ATOM      6  C7  UNL d   1      -1.201  -0.283   0.429  0.00  0.00     0.002 A 
ENDROOT
BRANCH   1   7
ATOM      7  C1  UNL d   1      -3.043  -0.714   2.099  0.00  0.00     0.055 C 
ATOM      8  C   UNL d   1      -2.925  -1.437   3.433  0.00  0.00     0.019 C 
ENDBRANCH   1   7
TORSDOF 1
ENDMDL
