MODEL 1
REMARK minimizedAffinity -1.59507084
REMARK minimizedRMSD -1
REMARK  1 active torsions:
REMARK  status: ('A' for Active; 'I' for Inactive)
REMARK    1  A    between atoms: C1_2  and  C2_3 
ROOT
ATOM      1  C2  UNL d   1       0.152   0.948   1.284  0.00  0.00    -0.077 A 
ATOM      2  C3  UNL d   1      -0.663   0.449   0.259  0.00  0.00     0.002 A 
ATOM      3  C4  UNL d   1      -0.280  -0.685  -0.460  0.00  0.00     0.002 A 
ATOM      4  C5  UNL d   1       0.916  -1.332  -0.158  0.00  0.00    -0.004 A 
ATOM      5  C6  UNL d   1       1.735  -0.843   0.859  0.00  0.00     0.002 A 
ATOM      6  C7  UNL d   1       1.355   0.292   1.577  0.00  0.00     0.002 A 
ENDROOT
BRANCH   1   7
ATOM      7  C1  UNL d   1      -0.283   2.142   2.094  0.00  0.00     0.055 C 
ATOM      8  C   UNL d   1      -1.088   1.720   3.314  0.00  0.00     0.019 C 
ENDBRANCH   1   7
TORSDOF 1
ENDMDL
