MODEL 1
REMARK minimizedAffinity 1.45494938
REMARK minimizedRMSD -1
REMARK  1 active torsions:
REMARK  status: ('A' for Active; 'I' for Inactive)
REMARK    1  A    between atoms: C1_2  and  C2_3 
ROOT
ATOM      1  C2  UNL d   1      -0.932   0.087   1.946  0.00  0.00    -0.077 A 
ATOM      2  C3  UNL d   1      -1.028   0.048   0.548  0.00  0.00     0.002 A 
ATOM      3  C4  UNL d   1       0.122  -0.059  -0.236  0.00  0.00     0.002 A 
ATOM      4  C5  UNL d   1       1.375  -0.132   0.369  0.00  0.00    -0.004 A 
ATOM      5  C6  UNL d   1       1.481  -0.092   1.759  0.00  0.00     0.002 A 
ATOM      6  C7  UNL d   1       0.332   0.017   2.544  0.00  0.00     0.002 A 
ENDROOT
BRANCH   1   7
ATOM      7  C1  UNL d   1      -2.175   0.153   2.795  0.00  0.00     0.055 C 
ATOM      8  C   UNL d   1      -2.381  -1.137   3.576  0.00  0.00     0.019 C 
ENDBRANCH   1   7
TORSDOF 1
ENDMDL
