MODEL 1
REMARK minimizedAffinity -1.95726514
REMARK minimizedRMSD -1
REMARK  1 active torsions:
REMARK  status: ('A' for Active; 'I' for Inactive)
REMARK    1  A    between atoms: C1_2  and  C2_3 
ROOT
ATOM      1  C2  UNL d   1       0.306   1.058   1.448  0.00  0.00    -0.077 A 
ATOM      2  C3  UNL d   1      -0.529   0.475   0.485  0.00  0.00     0.002 A 
ATOM      3  C4  UNL d   1      -0.111  -0.653  -0.223  0.00  0.00     0.002 A 
ATOM      4  C5  UNL d   1       1.142  -1.209   0.027  0.00  0.00    -0.004 A 
ATOM      5  C6  UNL d   1       1.981  -0.636   0.981  0.00  0.00     0.002 A 
ATOM      6  C7  UNL d   1       1.564   0.492   1.689  0.00  0.00     0.002 A 
ENDROOT
BRANCH   1   7
ATOM      7  C1  UNL d   1      -0.163   2.245   2.248  0.00  0.00     0.055 C 
ATOM      8  C   UNL d   1      -0.801   1.812   3.560  0.00  0.00     0.019 C 
ENDBRANCH   1   7
TORSDOF 1
ENDMDL
