MODEL 1
REMARK minimizedAffinity -1.92423856
REMARK minimizedRMSD -1
REMARK  2 active torsions:
REMARK  status: ('A' for Active; 'I' for Inactive)
REMARK    1  A    between atoms: C2'_3  and  C1'_4 
REMARK    2  A    between atoms: C1'_4  and  C1_5 
ROOT
ATOM      1  C1  I4B d   1      -0.791   0.292  -0.318  0.00  0.00    -0.075 A 
ATOM      2  C2  I4B d   1       0.126   1.312  -0.362  0.00  0.00     0.003 A 
ATOM      3  C3  I4B d   1       1.365   1.186   0.312  0.00  0.00     0.002 A 
ATOM      4  C4  I4B d   1       1.622   0.052   1.055  0.00  0.00    -0.004 A 
ATOM      5  C5  I4B d   1       0.700  -0.991   1.079  0.00  0.00     0.002 A 
ATOM      6  C6  I4B d   1      -0.509  -0.876   0.378  0.00  0.00     0.003 A 
ENDROOT
BRANCH   1   7
ATOM      7  C1' I4B d   1      -2.103   0.472  -1.015  0.00  0.00     0.060 C 
BRANCH   7   8
ATOM      8  C2' I4B d   1      -1.929   0.039  -2.456  0.00  0.00    -0.013 C 
ATOM      9  C4' I4B d   1      -1.978  -1.460  -2.585  0.00  0.00     0.013 C 
ATOM     10  C3' I4B d   1      -3.011   0.688  -3.268  0.00  0.00     0.013 C 
ENDBRANCH   7   8
ENDBRANCH   1   7
TORSDOF 2
ENDMDL
