MODEL 1
REMARK minimizedAffinity -4.0855608
REMARK minimizedRMSD -1
REMARK  2 active torsions:
REMARK  status: ('A' for Active; 'I' for Inactive)
REMARK    1  A    between atoms: C2'_3  and  C1'_4 
REMARK    2  A    between atoms: C1'_4  and  C1_5 
ROOT
ATOM      1  C1  I4B d   1       0.972  -0.325   0.832  0.00  0.00    -0.075 A 
ATOM      2  C2  I4B d   1       2.175   0.229   1.195  0.00  0.00     0.003 A 
ATOM      3  C3  I4B d   1       2.920  -0.323   2.264  0.00  0.00     0.002 A 
ATOM      4  C4  I4B d   1       2.406  -1.391   2.971  0.00  0.00    -0.004 A 
ATOM      5  C5  I4B d   1       1.198  -1.966   2.587  0.00  0.00     0.002 A 
ATOM      6  C6  I4B d   1       0.482  -1.437   1.504  0.00  0.00     0.003 A 
ENDROOT
BRANCH   1   7
ATOM      7  C1' I4B d   1       0.195   0.304  -0.280  0.00  0.00     0.060 C 
BRANCH   7   8
ATOM      8  C2' I4B d   1      -1.117   0.803   0.290  0.00  0.00    -0.013 C 
ATOM      9  C4' I4B d   1      -1.033   2.262   0.655  0.00  0.00     0.013 C 
ATOM     10  C3' I4B d   1      -2.188   0.561  -0.731  0.00  0.00     0.013 C 
ENDBRANCH   7   8
ENDBRANCH   1   7
TORSDOF 2
ENDMDL
