MODEL 1
REMARK minimizedAffinity -4.99503231
REMARK minimizedRMSD -1
REMARK  2 active torsions:
REMARK  status: ('A' for Active; 'I' for Inactive)
REMARK    1  A    between atoms: C2'_3  and  C1'_4 
REMARK    2  A    between atoms: C1'_4  and  C1_5 
ROOT
ATOM      1  C1  I4B d   1       1.363  -0.752   1.092  0.00  0.00    -0.075 A 
ATOM      2  C2  I4B d   1       0.710   0.224   0.381  0.00  0.00     0.003 A 
ATOM      3  C3  I4B d   1      -0.682   0.122   0.141  0.00  0.00     0.002 A 
ATOM      4  C4  I4B d   1      -1.367  -0.991   0.584  0.00  0.00    -0.004 A 
ATOM      5  C5  I4B d   1      -0.709  -1.968   1.324  0.00  0.00     0.002 A 
ATOM      6  C6  I4B d   1       0.662  -1.843   1.591  0.00  0.00     0.003 A 
ENDROOT
BRANCH   1   7
ATOM      7  C1' I4B d   1       2.839  -0.629   1.298  0.00  0.00     0.060 C 
BRANCH   7   8
ATOM      8  C2' I4B d   1       3.070  -0.011   2.662  0.00  0.00    -0.013 C 
ATOM      9  C4' I4B d   1       2.557   1.404   2.714  0.00  0.00     0.013 C 
ATOM     10  C3' I4B d   1       2.386  -0.872   3.682  0.00  0.00     0.013 C 
ENDBRANCH   7   8
ENDBRANCH   1   7
TORSDOF 2
ENDMDL
