MODEL 1
REMARK minimizedAffinity -5.48518848
REMARK minimizedRMSD -1
REMARK  2 active torsions:
REMARK  status: ('A' for Active; 'I' for Inactive)
REMARK    1  A    between atoms: C2'_3  and  C1'_4 
REMARK    2  A    between atoms: C1'_4  and  C1_5 
ROOT
ATOM      1  C1  I4B d   1      -0.465   0.010   0.188  0.00  0.00    -0.075 A 
ATOM      2  C2  I4B d   1       0.419  -0.918   0.681  0.00  0.00     0.003 A 
ATOM      3  C3  I4B d   1       1.731  -0.531   1.044  0.00  0.00     0.002 A 
ATOM      4  C4  I4B d   1       2.132   0.776   0.850  0.00  0.00    -0.004 A 
ATOM      5  C5  I4B d   1       1.229   1.720   0.371  0.00  0.00     0.002 A 
ATOM      6  C6  I4B d   1      -0.082   1.338   0.050  0.00  0.00     0.003 A 
ENDROOT
BRANCH   1   7
ATOM      7  C1' I4B d   1      -1.833  -0.440  -0.215  0.00  0.00     0.060 C 
BRANCH   7   8
ATOM      8  C2' I4B d   1      -1.956  -0.272  -1.716  0.00  0.00    -0.013 C 
ATOM      9  C4' I4B d   1      -2.083  -1.604  -2.405  0.00  0.00     0.013 C 
ATOM     10  C3' I4B d   1      -3.150   0.595  -1.988  0.00  0.00     0.013 C 
ENDBRANCH   7   8
ENDBRANCH   1   7
TORSDOF 2
ENDMDL
