MODEL 1
REMARK minimizedAffinity -2.78008223
REMARK minimizedRMSD -1
REMARK  0 active torsions:
REMARK  status: ('A' for Active; 'I' for Inactive)
ROOT
ATOM      1  C4' PXY d   1       0.585   2.113  -2.609  0.00  0.00     0.077 C 
ATOM      2  C1' PXY d   1       0.180  -2.108   1.319  0.00  0.00     0.077 C 
ATOM      3  C1  PXY d   1       0.280  -0.993   0.297  0.00  0.00    -0.082 A 
ATOM      4  C2  PXY d   1       0.376  -1.290  -0.989  0.00  0.00     0.003 A 
ATOM      5  C3  PXY d   1       0.500  -0.295  -1.923  0.00  0.00     0.003 A 
ATOM      6  C4  PXY d   1       0.472   1.020  -1.543  0.00  0.00    -0.082 A 
ATOM      7  C5  PXY d   1       0.364   1.332  -0.234  0.00  0.00     0.003 A 
ATOM      8  C6  PXY d   1       0.281   0.306   0.703  0.00  0.00     0.003 A 
ENDROOT
TORSDOF 0
ENDMDL
