MODEL 1
REMARK minimizedAffinity -1.53768694
REMARK minimizedRMSD -1
REMARK  0 active torsions:
REMARK  status: ('A' for Active; 'I' for Inactive)
ROOT
ATOM      1  C4' PXY d   1       1.045  -2.891   3.361  0.00  0.00     0.077 C 
ATOM      2  C1' PXY d   1       0.150   0.765  -1.026  0.00  0.00     0.077 C 
ATOM      3  C1  PXY d   1       0.372  -0.195   0.125  0.00  0.00    -0.082 A 
ATOM      4  C2  PXY d   1       1.489  -0.123   0.831  0.00  0.00     0.003 A 
ATOM      5  C3  PXY d   1       1.720  -1.005   1.856  0.00  0.00     0.003 A 
ATOM      6  C4  PXY d   1       0.775  -1.936   2.195  0.00  0.00    -0.082 A 
ATOM      7  C5  PXY d   1      -0.372  -2.009   1.486  0.00  0.00     0.003 A 
ATOM      8  C6  PXY d   1      -0.569  -1.132   0.424  0.00  0.00     0.003 A 
ENDROOT
TORSDOF 0
ENDMDL
