MODEL 1
REMARK minimizedAffinity -1.8577522
REMARK minimizedRMSD -1
REMARK  0 active torsions:
REMARK  status: ('A' for Active; 'I' for Inactive)
ROOT
ATOM      1  C4' PXY d   1       1.038   1.833  -1.877  0.00  0.00     0.077 C 
ATOM      2  C1' PXY d   1       0.057  -2.494   1.829  0.00  0.00     0.077 C 
ATOM      3  C1  PXY d   1       0.303  -1.355   0.860  0.00  0.00    -0.082 A 
ATOM      4  C2  PXY d   1       1.178  -1.507  -0.121  0.00  0.00     0.003 A 
ATOM      5  C3  PXY d   1       1.436  -0.475  -0.987  0.00  0.00     0.003 A 
ATOM      6  C4  PXY d   1       0.752   0.706  -0.881  0.00  0.00    -0.082 A 
ATOM      7  C5  PXY d   1      -0.151   0.865   0.110  0.00  0.00     0.003 A 
ATOM      8  C6  PXY d   1      -0.368  -0.180   1.004  0.00  0.00     0.003 A 
ENDROOT
TORSDOF 0
ENDMDL
