MODEL 1
REMARK minimizedAffinity -2.71310568
REMARK minimizedRMSD -1
REMARK  0 active torsions:
REMARK  status: ('A' for Active; 'I' for Inactive)
ROOT
ATOM      1  C4' PXY d   1      -3.043   0.495   2.343  0.00  0.00     0.077 C 
ATOM      2  C1' PXY d   1       1.434  -2.362   0.061  0.00  0.00     0.077 C 
ATOM      3  C1  PXY d   1       0.254  -1.624   0.663  0.00  0.00    -0.082 A 
ATOM      4  C2  PXY d   1      -0.006  -0.385   0.279  0.00  0.00     0.003 A 
ATOM      5  C3  PXY d   1      -1.050   0.308   0.836  0.00  0.00     0.003 A 
ATOM      6  C4  PXY d   1      -1.868  -0.292   1.756  0.00  0.00    -0.082 A 
ATOM      7  C5  PXY d   1      -1.615  -1.559   2.144  0.00  0.00     0.003 A 
ATOM      8  C6  PXY d   1      -0.525  -2.231   1.597  0.00  0.00     0.003 A 
ENDROOT
TORSDOF 0
ENDMDL
