MODEL 1
REMARK minimizedAffinity -2.50060773
REMARK minimizedRMSD -1
REMARK  0 active torsions:
REMARK  status: ('A' for Active; 'I' for Inactive)
ROOT
ATOM      1  C4' PXY d   1      -0.421  -0.967   1.227  0.00  0.00     0.077 C 
ATOM      2  C1' PXY d   1       1.198   2.528  -3.083  0.00  0.00     0.077 C 
ATOM      3  C1  PXY d   1       0.784   1.615  -1.946  0.00  0.00    -0.082 A 
ATOM      4  C2  PXY d   1      -0.049   0.614  -2.181  0.00  0.00     0.003 A 
ATOM      5  C3  PXY d   1      -0.458  -0.202  -1.159  0.00  0.00     0.003 A 
ATOM      6  C4  PXY d   1       0.031  -0.025   0.108  0.00  0.00    -0.082 A 
ATOM      7  C5  PXY d   1       0.890   0.987   0.353  0.00  0.00     0.003 A 
ATOM      8  C6  PXY d   1       1.261   1.830  -0.690  0.00  0.00     0.003 A 
ENDROOT
TORSDOF 0
ENDMDL
