MODEL 1
REMARK minimizedAffinity -2.79077578
REMARK minimizedRMSD -1
REMARK  0 active torsions:
REMARK  status: ('A' for Active; 'I' for Inactive)
ROOT
ATOM      1  C4' PXY d   1       1.577   2.145  -1.850  0.00  0.00     0.077 C 
ATOM      2  C1' PXY d   1      -0.265  -2.021   1.708  0.00  0.00     0.077 C 
ATOM      3  C1  PXY d   1       0.206  -0.924   0.774  0.00  0.00    -0.082 A 
ATOM      4  C2  PXY d   1       1.337  -1.076   0.104  0.00  0.00     0.003 A 
ATOM      5  C3  PXY d   1       1.793  -0.081  -0.721  0.00  0.00     0.003 A 
ATOM      6  C4  PXY d   1       1.058   1.060  -0.903  0.00  0.00    -0.082 A 
ATOM      7  C5  PXY d   1      -0.102   1.218  -0.231  0.00  0.00     0.003 A 
ATOM      8  C6  PXY d   1      -0.527   0.213   0.633  0.00  0.00     0.003 A 
ENDROOT
TORSDOF 0
ENDMDL
