MODEL 1
REMARK minimizedAffinity -3.76832652
REMARK minimizedRMSD -1
REMARK  0 active torsions:
REMARK  status: ('A' for Active; 'I' for Inactive)
ROOT
ATOM      1  C4' PXY d   1       1.216   1.918  -0.891  0.00  0.00     0.077 C 
ATOM      2  C1' PXY d   1      -1.266  -2.597   1.729  0.00  0.00     0.077 C 
ATOM      3  C1  PXY d   1      -0.627  -1.408   1.041  0.00  0.00    -0.082 A 
ATOM      4  C2  PXY d   1       0.554  -1.545   0.460  0.00  0.00     0.003 A 
ATOM      5  C3  PXY d   1       1.161  -0.471  -0.139  0.00  0.00     0.003 A 
ATOM      6  C4  PXY d   1       0.529   0.742  -0.192  0.00  0.00    -0.082 A 
ATOM      7  C5  PXY d   1      -0.681   0.887   0.389  0.00  0.00     0.003 A 
ATOM      8  C6  PXY d   1      -1.262  -0.204   1.028  0.00  0.00     0.003 A 
ENDROOT
TORSDOF 0
ENDMDL
