MODEL 1
REMARK minimizedAffinity -4.01905727
REMARK minimizedRMSD -1
REMARK  0 active torsions:
REMARK  status: ('A' for Active; 'I' for Inactive)
ROOT
ATOM      1  C4' PXY d   1      -2.905   0.067   2.561  0.00  0.00     0.077 C 
ATOM      2  C1' PXY d   1       1.630  -1.915  -0.425  0.00  0.00     0.077 C 
ATOM      3  C1  PXY d   1       0.435  -1.407   0.358  0.00  0.00    -0.082 A 
ATOM      4  C2  PXY d   1       0.115  -0.125   0.304  0.00  0.00     0.003 A 
ATOM      5  C3  PXY d   1      -0.943   0.358   1.031  0.00  0.00     0.003 A 
ATOM      6  C4  PXY d   1      -1.713  -0.492   1.780  0.00  0.00    -0.082 A 
ATOM      7  C5  PXY d   1      -1.399  -1.803   1.832  0.00  0.00     0.003 A 
ATOM      8  C6  PXY d   1      -0.297  -2.266   1.119  0.00  0.00     0.003 A 
ENDROOT
TORSDOF 0
ENDMDL
