MODEL 1
REMARK minimizedAffinity -3.93652964
REMARK minimizedRMSD -1
REMARK  0 active torsions:
REMARK  status: ('A' for Active; 'I' for Inactive)
ROOT
ATOM      1  C4' PXY d   1       0.912   1.640  -1.869  0.00  0.00     0.077 C 
ATOM      2  C1' PXY d   1      -0.399  -2.431   2.020  0.00  0.00     0.077 C 
ATOM      3  C1  PXY d   1      -0.045  -1.371   0.996  0.00  0.00    -0.082 A 
ATOM      4  C2  PXY d   1      -0.434  -0.120   1.188  0.00  0.00     0.003 A 
ATOM      5  C3  PXY d   1      -0.150   0.845   0.257  0.00  0.00     0.003 A 
ATOM      6  C4  PXY d   1       0.585   0.538  -0.857  0.00  0.00    -0.082 A 
ATOM      7  C5  PXY d   1       0.994  -0.733  -1.055  0.00  0.00     0.003 A 
ATOM      8  C6  PXY d   1       0.660  -1.707  -0.118  0.00  0.00     0.003 A 
ENDROOT
TORSDOF 0
ENDMDL
