MODEL 1
REMARK minimizedAffinity -1.63230824
REMARK minimizedRMSD -1
REMARK  0 active torsions:
REMARK  status: ('A' for Active; 'I' for Inactive)
ROOT
ATOM      1  C4' PXY d   1       1.243   1.806  -1.740  0.00  0.00     0.077 C 
ATOM      2  C1' PXY d   1      -0.608  -2.443   1.716  0.00  0.00     0.077 C 
ATOM      3  C1  PXY d   1      -0.135  -1.323   0.809  0.00  0.00    -0.082 A 
ATOM      4  C2  PXY d   1       0.931  -1.505   0.047  0.00  0.00     0.003 A 
ATOM      5  C3  PXY d   1       1.392  -0.493  -0.754  0.00  0.00     0.003 A 
ATOM      6  C4  PXY d   1       0.723   0.700  -0.816  0.00  0.00    -0.082 A 
ATOM      7  C5  PXY d   1      -0.372   0.890  -0.050  0.00  0.00     0.003 A 
ATOM      8  C6  PXY d   1      -0.799  -0.136   0.788  0.00  0.00     0.003 A 
ENDROOT
TORSDOF 0
ENDMDL
