MODEL 1
REMARK minimizedAffinity 0.0999472216
REMARK minimizedRMSD -1
REMARK  0 active torsions:
REMARK  status: ('A' for Active; 'I' for Inactive)
ROOT
ATOM      1  C4' PXY d   1       1.550   2.306  -1.561  0.00  0.00     0.077 C 
ATOM      2  C1' PXY d   1      -0.592  -1.803   1.894  0.00  0.00     0.077 C 
ATOM      3  C1  PXY d   1      -0.042  -0.720   0.987  0.00  0.00    -0.082 A 
ATOM      4  C2  PXY d   1       1.067  -0.943   0.300  0.00  0.00     0.003 A 
ATOM      5  C3  PXY d   1       1.595   0.037  -0.500  0.00  0.00     0.003 A 
ATOM      6  C4  PXY d   1       0.954   1.238  -0.640  0.00  0.00    -0.082 A 
ATOM      7  C5  PXY d   1      -0.183   1.469   0.049  0.00  0.00     0.003 A 
ATOM      8  C6  PXY d   1      -0.681   0.477   0.888  0.00  0.00     0.003 A 
ENDROOT
TORSDOF 0
ENDMDL
