MODEL 1
REMARK minimizedAffinity 6.60504723
REMARK minimizedRMSD -1
REMARK  0 active torsions:
REMARK  status: ('A' for Active; 'I' for Inactive)
ROOT
ATOM      1  C4' PXY d   1       3.346   2.272  -3.659  0.00  0.00     0.077 C 
ATOM      2  C1' PXY d   1       5.215   3.977   1.538  0.00  0.00     0.077 C 
ATOM      3  C1  PXY d   1       4.725   3.517   0.180  0.00  0.00    -0.082 A 
ATOM      4  C2  PXY d   1       4.948   4.270  -0.885  0.00  0.00     0.003 A 
ATOM      5  C3  PXY d   1       4.483   3.885  -2.117  0.00  0.00     0.003 A 
ATOM      6  C4  PXY d   1       3.831   2.691  -2.269  0.00  0.00    -0.082 A 
ATOM      7  C5  PXY d   1       3.609   1.912  -1.189  0.00  0.00     0.003 A 
ATOM      8  C6  PXY d   1       4.053   2.340   0.059  0.00  0.00     0.003 A 
ENDROOT
TORSDOF 0
ENDMDL
