MODEL 1
REMARK minimizedAffinity -2.22892094
REMARK minimizedRMSD -1
REMARK  0 active torsions:
REMARK  status: ('A' for Active; 'I' for Inactive)
ROOT
ATOM      1  C4' PXY d   1       0.818   2.175  -1.818  0.00  0.00     0.077 C 
ATOM      2  C1' PXY d   1       0.034  -2.577   1.379  0.00  0.00     0.077 C 
ATOM      3  C1  PXY d   1       0.227  -1.329   0.541  0.00  0.00    -0.082 A 
ATOM      4  C2  PXY d   1       1.306  -1.209  -0.215  0.00  0.00     0.003 A 
ATOM      5  C3  PXY d   1       1.512  -0.073  -0.955  0.00  0.00     0.003 A 
ATOM      6  C4  PXY d   1       0.577   0.928  -0.962  0.00  0.00    -0.082 A 
ATOM      7  C5  PXY d   1      -0.531   0.809  -0.201  0.00  0.00     0.003 A 
ATOM      8  C6  PXY d   1      -0.702  -0.334   0.574  0.00  0.00     0.003 A 
ENDROOT
TORSDOF 0
ENDMDL
