MODEL 1
REMARK minimizedAffinity -2.43983269
REMARK minimizedRMSD -1
REMARK  0 active torsions:
REMARK  status: ('A' for Active; 'I' for Inactive)
ROOT
ATOM      1  C4' PXY d   1       2.521  -1.349   0.014  0.00  0.00     0.077 C 
ATOM      2  C1' PXY d   1      -2.586   1.213   0.891  0.00  0.00     0.077 C 
ATOM      3  C1  PXY d   1      -1.250   0.531   0.669  0.00  0.00    -0.082 A 
ATOM      4  C2  PXY d   1      -0.206   1.248   0.283  0.00  0.00     0.003 A 
ATOM      5  C3  PXY d   1       1.001   0.642   0.047  0.00  0.00     0.003 A 
ATOM      6  C4  PXY d   1       1.156  -0.702   0.259  0.00  0.00    -0.082 A 
ATOM      7  C5  PXY d   1       0.098  -1.437   0.663  0.00  0.00     0.003 A 
ATOM      8  C6  PXY d   1      -1.129  -0.811   0.857  0.00  0.00     0.003 A 
ENDROOT
TORSDOF 0
ENDMDL
