MODEL 1
REMARK minimizedAffinity -3.57440329
REMARK minimizedRMSD -1
REMARK  0 active torsions:
REMARK  status: ('A' for Active; 'I' for Inactive)
ROOT
ATOM      1  C4' PXY d   1       1.133   1.858  -1.359  0.00  0.00     0.077 C 
ATOM      2  C1' PXY d   1      -1.524  -1.888   2.152  0.00  0.00     0.077 C 
ATOM      3  C1  PXY d   1      -0.838  -0.898   1.231  0.00  0.00    -0.082 A 
ATOM      4  C2  PXY d   1       0.146  -1.308   0.447  0.00  0.00     0.003 A 
ATOM      5  C3  PXY d   1       0.799  -0.419  -0.368  0.00  0.00     0.003 A 
ATOM      6  C4  PXY d   1       0.405   0.891  -0.421  0.00  0.00    -0.082 A 
ATOM      7  C5  PXY d   1      -0.605   1.315   0.369  0.00  0.00     0.003 A 
ATOM      8  C6  PXY d   1      -1.227   0.406   1.219  0.00  0.00     0.003 A 
ENDROOT
TORSDOF 0
ENDMDL
