MODEL 1
REMARK minimizedAffinity -1.5777849
REMARK minimizedRMSD -1
REMARK  0 active torsions:
REMARK  status: ('A' for Active; 'I' for Inactive)
ROOT
ATOM      1  C4' PXY d   1      -0.719  -0.013   0.453  0.00  0.00     0.077 C 
ATOM      2  C1' PXY d   1       1.879   2.840  -3.851  0.00  0.00     0.077 C 
ATOM      3  C1  PXY d   1       1.209   2.088  -2.719  0.00  0.00    -0.082 A 
ATOM      4  C2  PXY d   1      -0.070   1.763  -2.815  0.00  0.00     0.003 A 
ATOM      5  C3  PXY d   1      -0.699   1.111  -1.786  0.00  0.00     0.003 A 
ATOM      6  C4  PXY d   1       0.001   0.739  -0.670  0.00  0.00    -0.082 A 
ATOM      7  C5  PXY d   1       1.309   1.057  -0.569  0.00  0.00     0.003 A 
ATOM      8  C6  PXY d   1       1.919   1.756  -1.606  0.00  0.00     0.003 A 
ENDROOT
TORSDOF 0
ENDMDL
