MODEL 1
REMARK minimizedAffinity -0.101489186
REMARK minimizedRMSD -1
REMARK  0 active torsions:
REMARK  status: ('A' for Active; 'I' for Inactive)
ROOT
ATOM      1  C4' PXY d   1      -4.245  -1.209  -3.372  0.00  0.00     0.077 C 
ATOM      2  C1' PXY d   1      -1.240  -5.390  -5.999  0.00  0.00     0.077 C 
ATOM      3  C1  PXY d   1      -2.031  -4.289  -5.322  0.00  0.00    -0.082 A 
ATOM      4  C2  PXY d   1      -1.762  -3.968  -4.067  0.00  0.00     0.003 A 
ATOM      5  C3  PXY d   1      -2.489  -2.996  -3.429  0.00  0.00     0.003 A 
ATOM      6  C4  PXY d   1      -3.466  -2.309  -4.099  0.00  0.00    -0.082 A 
ATOM      7  C5  PXY d   1      -3.738  -2.623  -5.383  0.00  0.00     0.003 A 
ATOM      8  C6  PXY d   1      -3.016  -3.641  -6.000  0.00  0.00     0.003 A 
ENDROOT
TORSDOF 0
ENDMDL
