MODEL 1
REMARK minimizedAffinity -3.04799414
REMARK minimizedRMSD -1
REMARK  0 active torsions:
REMARK  status: ('A' for Active; 'I' for Inactive)
ROOT
ATOM      1  C4' PXY d   1       0.698   2.279  -2.914  0.00  0.00     0.077 C 
ATOM      2  C1' PXY d   1       0.347  -1.968   0.992  0.00  0.00     0.077 C 
ATOM      3  C1  PXY d   1       0.438  -0.845  -0.022  0.00  0.00    -0.082 A 
ATOM      4  C2  PXY d   1       0.089  -1.070  -1.279  0.00  0.00     0.003 A 
ATOM      5  C3  PXY d   1       0.196  -0.075  -2.217  0.00  0.00     0.003 A 
ATOM      6  C4  PXY d   1       0.613   1.178  -1.853  0.00  0.00    -0.082 A 
ATOM      7  C5  PXY d   1       0.960   1.417  -0.571  0.00  0.00     0.003 A 
ATOM      8  C6  PXY d   1       0.884   0.383   0.357  0.00  0.00     0.003 A 
ENDROOT
TORSDOF 0
ENDMDL
