MODEL 1
REMARK minimizedAffinity -1.98867524
REMARK minimizedRMSD -1
REMARK  0 active torsions:
REMARK  status: ('A' for Active; 'I' for Inactive)
ROOT
ATOM      1  C4' PXY d   1      -0.419  -1.266   1.318  0.00  0.00     0.077 C 
ATOM      2  C1' PXY d   1       1.668   2.608  -2.431  0.00  0.00     0.077 C 
ATOM      3  C1  PXY d   1       1.113   1.587  -1.457  0.00  0.00    -0.082 A 
ATOM      4  C2  PXY d   1       1.117   1.850  -0.160  0.00  0.00     0.003 A 
ATOM      5  C3  PXY d   1       0.648   0.925   0.737  0.00  0.00     0.003 A 
ATOM      6  C4  PXY d   1       0.122  -0.260   0.298  0.00  0.00    -0.082 A 
ATOM      7  C5  PXY d   1       0.105  -0.532  -1.024  0.00  0.00     0.003 A 
ATOM      8  C6  PXY d   1       0.623   0.403  -1.915  0.00  0.00     0.003 A 
ENDROOT
TORSDOF 0
ENDMDL
