MODEL 1
REMARK minimizedAffinity 8.48337364
REMARK minimizedRMSD -1
REMARK  0 active torsions:
REMARK  status: ('A' for Active; 'I' for Inactive)
ROOT
ATOM      1  C   UNL d   1       2.390   1.842   1.887  0.00  0.00     0.172 C 
ATOM      2  N   UNL d   1       2.277   0.517   2.451  0.00  0.00    -0.070 N 
ATOM      3  C1  UNL d   1       1.790   0.218   3.695  0.00  0.00    -0.004 A 
ATOM      4  C2  UNL d   1       1.848  -1.149   3.854  0.00  0.00    -0.047 A 
ATOM      5  C3  UNL d   1       2.390  -1.691   2.664  0.00  0.00    -0.047 A 
ATOM      6  C4  UNL d   1       2.646  -0.637   1.812  0.00  0.00    -0.004 A 
ENDROOT
TORSDOF 0
ENDMDL
