MODEL 1
REMARK minimizedAffinity 2.23277211
REMARK minimizedRMSD -1
REMARK  0 active torsions:
REMARK  status: ('A' for Active; 'I' for Inactive)
ROOT
ATOM      1  C   UNL d   1       5.762  -5.996  -5.993  0.00  0.00     0.172 C 
ATOM      2  N   UNL d   1       5.014  -5.997  -4.757  0.00  0.00    -0.070 N 
ATOM      3  C1  UNL d   1       5.553  -5.995  -3.499  0.00  0.00    -0.004 A 
ATOM      4  C2  UNL d   1       4.514  -5.996  -2.594  0.00  0.00    -0.047 A 
ATOM      5  C3  UNL d   1       3.308  -5.999  -3.335  0.00  0.00    -0.047 A 
ATOM      6  C4  UNL d   1       3.647  -6.000  -4.672  0.00  0.00    -0.004 A 
ENDROOT
TORSDOF 0
ENDMDL
