MODEL 1
REMARK minimizedAffinity 9.30402088
REMARK minimizedRMSD -1
REMARK  0 active torsions:
REMARK  status: ('A' for Active; 'I' for Inactive)
ROOT
ATOM      1  C   UNL d   1       2.939  -3.472   4.180  0.00  0.00     0.172 C 
ATOM      2  N   UNL d   1       2.564  -2.270   3.473  0.00  0.00    -0.070 N 
ATOM      3  C1  UNL d   1       2.518  -2.126   2.112  0.00  0.00    -0.004 A 
ATOM      4  C2  UNL d   1       2.116  -0.836   1.838  0.00  0.00    -0.047 A 
ATOM      5  C3  UNL d   1       1.913  -0.183   3.077  0.00  0.00    -0.047 A 
ATOM      6  C4  UNL d   1       2.198  -1.094   4.072  0.00  0.00    -0.004 A 
ENDROOT
TORSDOF 0
ENDMDL
