MODEL 1
REMARK minimizedAffinity 3.94743228
REMARK minimizedRMSD -1
REMARK  0 active torsions:
REMARK  status: ('A' for Active; 'I' for Inactive)
ROOT
ATOM      1  C   UNL d   1      -2.490   3.272   0.752  0.00  0.00     0.172 C 
ATOM      2  N   UNL d   1      -3.873   3.458   1.122  0.00  0.00    -0.070 N 
ATOM      3  C1  UNL d   1      -4.460   3.002   2.272  0.00  0.00    -0.004 A 
ATOM      4  C2  UNL d   1      -5.784   3.384   2.250  0.00  0.00    -0.047 A 
ATOM      5  C3  UNL d   1      -6.000   4.094   1.045  0.00  0.00    -0.047 A 
ATOM      6  C4  UNL d   1      -4.800   4.125   0.366  0.00  0.00    -0.004 A 
ENDROOT
TORSDOF 0
ENDMDL
