MODEL 1
REMARK minimizedAffinity -0.428304911
REMARK minimizedRMSD -1
REMARK  0 active torsions:
REMARK  status: ('A' for Active; 'I' for Inactive)
ROOT
ATOM      1  C   UNL d   1       2.179   2.869   0.485  0.00  0.00     0.172 C 
ATOM      2  N   UNL d   1       2.484   1.604   1.112  0.00  0.00    -0.070 N 
ATOM      3  C1  UNL d   1       3.535   0.787   0.791  0.00  0.00    -0.004 A 
ATOM      4  C2  UNL d   1       3.477  -0.317   1.614  0.00  0.00    -0.047 A 
ATOM      5  C3  UNL d   1       2.352  -0.158   2.458  0.00  0.00    -0.047 A 
ATOM      6  C4  UNL d   1       1.756   1.039   2.126  0.00  0.00    -0.004 A 
ENDROOT
TORSDOF 0
ENDMDL
