MODEL 1
REMARK minimizedAffinity 1.63677967
REMARK minimizedRMSD -1
REMARK  0 active torsions:
REMARK  status: ('A' for Active; 'I' for Inactive)
ROOT
ATOM      1  C   UNL d   1       4.084   5.759  -1.908  0.00  0.00     0.172 C 
ATOM      2  N   UNL d   1       3.100   5.037  -1.137  0.00  0.00    -0.070 N 
ATOM      3  C1  UNL d   1       1.829   5.467  -0.861  0.00  0.00    -0.004 A 
ATOM      4  C2  UNL d   1       1.210   4.496  -0.104  0.00  0.00    -0.047 A 
ATOM      5  C3  UNL d   1       2.142   3.447   0.084  0.00  0.00    -0.047 A 
ATOM      6  C4  UNL d   1       3.303   3.808  -0.566  0.00  0.00    -0.004 A 
ENDROOT
TORSDOF 0
ENDMDL
