MODEL 1
REMARK minimizedAffinity 4.48026228
REMARK minimizedRMSD -1
REMARK  0 active torsions:
REMARK  status: ('A' for Active; 'I' for Inactive)
ROOT
ATOM      1  C   UNL d   1       2.820   0.382   5.487  0.00  0.00     0.172 C 
ATOM      2  N   UNL d   1       2.522  -0.083   4.153  0.00  0.00    -0.070 N 
ATOM      3  C1  UNL d   1       2.293  -1.384   3.794  0.00  0.00    -0.004 A 
ATOM      4  C2  UNL d   1       2.045  -1.411   2.439  0.00  0.00    -0.047 A 
ATOM      5  C3  UNL d   1       2.130  -0.080   1.967  0.00  0.00    -0.047 A 
ATOM      6  C4  UNL d   1       2.426   0.722   3.049  0.00  0.00    -0.004 A 
ENDROOT
TORSDOF 0
ENDMDL
