MODEL 1
REMARK minimizedAffinity -0.363529444
REMARK minimizedRMSD -1
REMARK  0 active torsions:
REMARK  status: ('A' for Active; 'I' for Inactive)
ROOT
ATOM      1  C   UNL d   1       0.184  -5.609   5.881  0.00  0.00     0.172 C 
ATOM      2  N   UNL d   1       1.370  -4.933   5.410  0.00  0.00    -0.070 N 
ATOM      3  C1  UNL d   1       1.440  -4.113   4.316  0.00  0.00    -0.004 A 
ATOM      4  C2  UNL d   1       2.739  -3.668   4.204  0.00  0.00    -0.047 A 
ATOM      5  C3  UNL d   1       3.476  -4.241   5.267  0.00  0.00    -0.047 A 
ATOM      6  C4  UNL d   1       2.604  -5.020   5.998  0.00  0.00    -0.004 A 
ENDROOT
TORSDOF 0
ENDMDL
