MODEL 1
REMARK minimizedAffinity 1.83298111
REMARK minimizedRMSD -1
REMARK  0 active torsions:
REMARK  status: ('A' for Active; 'I' for Inactive)
ROOT
ATOM      1  C   UNL d   1       4.525   5.963  -2.280  0.00  0.00     0.172 C 
ATOM      2  N   UNL d   1       4.808   5.773  -3.684  0.00  0.00    -0.070 N 
ATOM      3  C1  UNL d   1       6.000   5.347  -4.207  0.00  0.00    -0.004 A 
ATOM      4  C2  UNL d   1       5.865   5.296  -5.577  0.00  0.00    -0.047 A 
ATOM      5  C3  UNL d   1       4.546   5.706  -5.889  0.00  0.00    -0.047 A 
ATOM      6  C4  UNL d   1       3.915   5.996  -4.698  0.00  0.00    -0.004 A 
ENDROOT
TORSDOF 0
ENDMDL
