MODEL 1
REMARK minimizedAffinity 1.16118419
REMARK minimizedRMSD -1
REMARK  0 active torsions:
REMARK  status: ('A' for Active; 'I' for Inactive)
ROOT
ATOM      1  C   UNL d   1       2.544   1.438   5.292  0.00  0.00     0.172 C 
ATOM      2  N   UNL d   1       2.496   0.286   4.422  0.00  0.00    -0.070 N 
ATOM      3  C1  UNL d   1       2.882  -0.984   4.758  0.00  0.00    -0.004 A 
ATOM      4  C2  UNL d   1       2.682  -1.790   3.658  0.00  0.00    -0.047 A 
ATOM      5  C3  UNL d   1       2.158  -0.976   2.626  0.00  0.00    -0.047 A 
ATOM      6  C4  UNL d   1       2.053   0.305   3.126  0.00  0.00    -0.004 A 
ENDROOT
TORSDOF 0
ENDMDL
