MODEL 1
REMARK minimizedAffinity 3.78193665
REMARK minimizedRMSD -1
REMARK  0 active torsions:
REMARK  status: ('A' for Active; 'I' for Inactive)
ROOT
ATOM      1  C   UNL d   1       2.258   0.993   5.315  0.00  0.00     0.172 C 
ATOM      2  N   UNL d   1       2.443  -0.146   4.448  0.00  0.00    -0.070 N 
ATOM      3  C1  UNL d   1       2.844  -1.394   4.844  0.00  0.00    -0.004 A 
ATOM      4  C2  UNL d   1       2.899  -2.195   3.724  0.00  0.00    -0.047 A 
ATOM      5  C3  UNL d   1       2.518  -1.401   2.616  0.00  0.00    -0.047 A 
ATOM      6  C4  UNL d   1       2.241  -0.137   3.093  0.00  0.00    -0.004 A 
ENDROOT
TORSDOF 0
ENDMDL
