MODEL 1
REMARK minimizedAffinity -1.85071301
REMARK minimizedRMSD -1
REMARK  0 active torsions:
REMARK  status: ('A' for Active; 'I' for Inactive)
ROOT
ATOM      1  C   UNL d   1       1.394  -4.034   0.028  0.00  0.00     0.077 C 
ATOM      2  C1  UNL d   1       1.094  -2.617   0.417  0.00  0.00    -0.074 A 
ATOM      3  C2  UNL d   1       2.115  -1.751   0.821  0.00  0.00    -0.005 A 
ATOM      4  C3  UNL d   1       1.822  -0.433   1.170  0.00  0.00     0.006 A 
ATOM      5  C4  UNL d   1       0.507   0.032   1.118  0.00  0.00    -0.005 A 
ATOM      6  C5  UNL d   1      -0.527  -0.819   0.715  0.00  0.00    -0.074 A 
ATOM      7  C6  UNL d   1      -1.944  -0.333   0.644  0.00  0.00     0.077 C 
ATOM      8  C7  UNL d   1      -0.223  -2.140   0.359  0.00  0.00    -0.001 A 
ENDROOT
TORSDOF 0
ENDMDL
