MODEL 1
REMARK minimizedAffinity -2.33463979
REMARK minimizedRMSD -1
REMARK  0 active torsions:
REMARK  status: ('A' for Active; 'I' for Inactive)
ROOT
ATOM      1  C   UNL d   1      -1.333  -2.258   1.284  0.00  0.00     0.077 C 
ATOM      2  C1  UNL d   1       0.064  -1.998   0.802  0.00  0.00    -0.074 A 
ATOM      3  C2  UNL d   1       0.563  -0.695   0.715  0.00  0.00    -0.005 A 
ATOM      4  C3  UNL d   1       1.868  -0.470   0.274  0.00  0.00     0.006 A 
ATOM      5  C4  UNL d   1       2.684  -1.544  -0.083  0.00  0.00    -0.005 A 
ATOM      6  C5  UNL d   1       2.202  -2.854  -0.000  0.00  0.00    -0.074 A 
ATOM      7  C6  UNL d   1       3.070  -4.020  -0.370  0.00  0.00     0.077 C 
ATOM      8  C7  UNL d   1       0.893  -3.072   0.450  0.00  0.00    -0.001 A 
ENDROOT
TORSDOF 0
ENDMDL
