MODEL 1
REMARK minimizedAffinity -5.71469498
REMARK minimizedRMSD -1
REMARK  0 active torsions:
REMARK  status: ('A' for Active; 'I' for Inactive)
ROOT
ATOM      1  C   UNL d   1       2.998  -4.573   0.205  0.00  0.00     0.077 C 
ATOM      2  C1  UNL d   1       2.381  -3.212   0.327  0.00  0.00    -0.074 A 
ATOM      3  C2  UNL d   1       3.177  -2.062   0.358  0.00  0.00    -0.005 A 
ATOM      4  C3  UNL d   1       2.588  -0.802   0.463  0.00  0.00     0.006 A 
ATOM      5  C4  UNL d   1       1.200  -0.679   0.538  0.00  0.00    -0.005 A 
ATOM      6  C5  UNL d   1       0.388  -1.817   0.507  0.00  0.00    -0.074 A 
ATOM      7  C6  UNL d   1      -1.105  -1.702   0.576  0.00  0.00     0.077 C 
ATOM      8  C7  UNL d   1       0.987  -3.079   0.395  0.00  0.00    -0.001 A 
ENDROOT
TORSDOF 0
ENDMDL
