MODEL 1
REMARK minimizedAffinity 7.59049082
REMARK minimizedRMSD -1
REMARK  0 active torsions:
REMARK  status: ('A' for Active; 'I' for Inactive)
ROOT
ATOM      1  C   UNL d   1      -0.017  -3.486  -0.835  0.00  0.00     0.077 C 
ATOM      2  C1  UNL d   1       0.075  -2.214  -0.045  0.00  0.00    -0.074 A 
ATOM      3  C2  UNL d   1      -1.074  -1.484   0.277  0.00  0.00    -0.005 A 
ATOM      4  C3  UNL d   1      -0.973  -0.307   1.020  0.00  0.00     0.006 A 
ATOM      5  C4  UNL d   1       0.274   0.150   1.448  0.00  0.00    -0.005 A 
ATOM      6  C5  UNL d   1       1.433  -0.568   1.136  0.00  0.00    -0.074 A 
ATOM      7  C6  UNL d   1       2.780  -0.096   1.596  0.00  0.00     0.077 C 
ATOM      8  C7  UNL d   1       1.323  -1.753   0.395  0.00  0.00    -0.001 A 
ENDROOT
TORSDOF 0
ENDMDL
