MODEL 1
REMARK minimizedAffinity -1.88225067
REMARK minimizedRMSD -1
REMARK  0 active torsions:
REMARK  status: ('A' for Active; 'I' for Inactive)
ROOT
ATOM      1  C   UNL d   1       1.516   0.006   0.975  0.00  0.00     0.077 C 
ATOM      2  C1  UNL d   1       1.465  -1.442   0.586  0.00  0.00    -0.074 A 
ATOM      3  C2  UNL d   1       0.242  -2.090   0.387  0.00  0.00    -0.005 A 
ATOM      4  C3  UNL d   1       0.211  -3.434   0.016  0.00  0.00     0.006 A 
ATOM      5  C4  UNL d   1       1.400  -4.143  -0.159  0.00  0.00    -0.005 A 
ATOM      6  C5  UNL d   1       2.633  -3.511   0.035  0.00  0.00    -0.074 A 
ATOM      7  C6  UNL d   1       3.921  -4.255  -0.159  0.00  0.00     0.077 C 
ATOM      8  C7  UNL d   1       2.656  -2.158   0.400  0.00  0.00    -0.001 A 
ENDROOT
TORSDOF 0
ENDMDL
