MODEL 1
REMARK minimizedAffinity 1.03952217
REMARK minimizedRMSD -1
REMARK  0 active torsions:
REMARK  status: ('A' for Active; 'I' for Inactive)
ROOT
ATOM      1  C   UNL d   1      -1.897  -1.851   1.584  0.00  0.00     0.077 C 
ATOM      2  C1  UNL d   1      -0.499  -1.735   1.052  0.00  0.00    -0.074 A 
ATOM      3  C2  UNL d   1       0.128  -0.490   0.944  0.00  0.00    -0.005 A 
ATOM      4  C3  UNL d   1       1.431  -0.399   0.456  0.00  0.00     0.006 A 
ATOM      5  C4  UNL d   1       2.120  -1.550   0.072  0.00  0.00    -0.005 A 
ATOM      6  C5  UNL d   1       1.509  -2.804   0.174  0.00  0.00    -0.074 A 
ATOM      7  C6  UNL d   1       2.239  -4.052  -0.225  0.00  0.00     0.077 C 
ATOM      8  C7  UNL d   1       0.202  -2.888   0.672  0.00  0.00    -0.001 A 
ENDROOT
TORSDOF 0
ENDMDL
