MODEL 1
REMARK minimizedAffinity -5.6369729
REMARK minimizedRMSD -1
REMARK  0 active torsions:
REMARK  status: ('A' for Active; 'I' for Inactive)
ROOT
ATOM      1  C   UNL d   1      -1.383  -2.522   1.124  0.00  0.00     0.077 C 
ATOM      2  C1  UNL d   1       0.015  -2.135   0.743  0.00  0.00    -0.074 A 
ATOM      3  C2  UNL d   1       0.412  -0.794   0.727  0.00  0.00    -0.005 A 
ATOM      4  C3  UNL d   1       1.718  -0.451   0.380  0.00  0.00     0.006 A 
ATOM      5  C4  UNL d   1       2.640  -1.444   0.046  0.00  0.00    -0.005 A 
ATOM      6  C5  UNL d   1       2.263  -2.790   0.058  0.00  0.00    -0.074 A 
ATOM      7  C6  UNL d   1       3.244  -3.870  -0.289  0.00  0.00     0.077 C 
ATOM      8  C7  UNL d   1       0.950  -3.128   0.414  0.00  0.00    -0.001 A 
ENDROOT
TORSDOF 0
ENDMDL
