MODEL 1
REMARK minimizedAffinity -1.14574862
REMARK minimizedRMSD -1
REMARK  0 active torsions:
REMARK  status: ('A' for Active; 'I' for Inactive)
ROOT
ATOM      1  C   UNL d   1       1.342  -4.231  -0.177  0.00  0.00     0.077 C 
ATOM      2  C1  UNL d   1       0.802  -2.913   0.293  0.00  0.00    -0.074 A 
ATOM      3  C2  UNL d   1      -0.523  -2.791   0.723  0.00  0.00    -0.005 A 
ATOM      4  C3  UNL d   1      -1.008  -1.560   1.165  0.00  0.00     0.006 A 
ATOM      5  C4  UNL d   1      -0.175  -0.441   1.182  0.00  0.00    -0.005 A 
ATOM      6  C5  UNL d   1       1.153  -0.544   0.757  0.00  0.00    -0.074 A 
ATOM      7  C6  UNL d   1       2.065   0.646   0.778  0.00  0.00     0.077 C 
ATOM      8  C7  UNL d   1       1.635  -1.786   0.320  0.00  0.00    -0.001 A 
ENDROOT
TORSDOF 0
ENDMDL
