MODEL 1
REMARK minimizedAffinity -3.72822237
REMARK minimizedRMSD -1
REMARK  0 active torsions:
REMARK  status: ('A' for Active; 'I' for Inactive)
ROOT
ATOM      1  C   UNL d   1       2.348  -4.409  -0.343  0.00  0.00     0.077 C 
ATOM      2  C1  UNL d   1       2.008  -3.001   0.046  0.00  0.00    -0.074 A 
ATOM      3  C2  UNL d   1       3.000  -2.018   0.125  0.00  0.00    -0.005 A 
ATOM      4  C3  UNL d   1       2.668  -0.711   0.479  0.00  0.00     0.006 A 
ATOM      5  C4  UNL d   1       1.342  -0.373   0.757  0.00  0.00    -0.005 A 
ATOM      6  C5  UNL d   1       0.337  -1.343   0.682  0.00  0.00    -0.074 A 
ATOM      7  C6  UNL d   1      -1.093  -0.995   0.969  0.00  0.00     0.077 C 
ATOM      8  C7  UNL d   1       0.678  -2.653   0.319  0.00  0.00    -0.001 A 
ENDROOT
TORSDOF 0
ENDMDL
