MODEL 1
REMARK minimizedAffinity 1.73696125
REMARK minimizedRMSD -1
REMARK  0 active torsions:
REMARK  status: ('A' for Active; 'I' for Inactive)
ROOT
ATOM      1  C   UNL d   1       4.387   5.562  -1.869  0.00  0.00     0.077 C 
ATOM      2  C1  UNL d   1       4.012   4.113  -1.964  0.00  0.00    -0.074 A 
ATOM      3  C2  UNL d   1       4.279   3.231  -0.912  0.00  0.00    -0.005 A 
ATOM      4  C3  UNL d   1       3.916   1.888  -1.010  0.00  0.00     0.006 A 
ATOM      5  C4  UNL d   1       3.283   1.414  -2.160  0.00  0.00    -0.005 A 
ATOM      6  C5  UNL d   1       3.007   2.281  -3.222  0.00  0.00    -0.074 A 
ATOM      7  C6  UNL d   1       2.318   1.790  -4.461  0.00  0.00     0.077 C 
ATOM      8  C7  UNL d   1       3.368   3.631  -3.112  0.00  0.00    -0.001 A 
ENDROOT
TORSDOF 0
ENDMDL
