MODEL 1
REMARK minimizedAffinity 0.0391766876
REMARK minimizedRMSD -1
REMARK  0 active torsions:
REMARK  status: ('A' for Active; 'I' for Inactive)
ROOT
ATOM      1  C   UNL d   1      -1.087  -0.357   0.503  0.00  0.00     0.077 C 
ATOM      2  C1  UNL d   1       0.300  -0.922   0.419  0.00  0.00    -0.074 A 
ATOM      3  C2  UNL d   1       1.420  -0.111   0.629  0.00  0.00    -0.005 A 
ATOM      4  C3  UNL d   1       2.704  -0.653   0.557  0.00  0.00     0.006 A 
ATOM      5  C4  UNL d   1       2.879  -2.008   0.276  0.00  0.00    -0.005 A 
ATOM      6  C5  UNL d   1       1.771  -2.835   0.064  0.00  0.00    -0.074 A 
ATOM      7  C6  UNL d   1       1.942  -4.295  -0.229  0.00  0.00     0.077 C 
ATOM      8  C7  UNL d   1       0.485  -2.284   0.145  0.00  0.00    -0.001 A 
ENDROOT
TORSDOF 0
ENDMDL
