MODEL 1
REMARK minimizedAffinity 0.612470865
REMARK minimizedRMSD -1
REMARK  0 active torsions:
REMARK  status: ('A' for Active; 'I' for Inactive)
ROOT
ATOM      1  C   UNL d   1      -2.247  -1.136  -0.076  0.00  0.00     0.077 C 
ATOM      2  C1  UNL d   1      -0.823  -1.327   0.356  0.00  0.00    -0.074 A 
ATOM      3  C2  UNL d   1      -0.102  -0.279   0.937  0.00  0.00    -0.005 A 
ATOM      4  C3  UNL d   1       1.219  -0.474   1.342  0.00  0.00     0.006 A 
ATOM      5  C4  UNL d   1       1.830  -1.716   1.170  0.00  0.00    -0.005 A 
ATOM      6  C5  UNL d   1       1.125  -2.776   0.591  0.00  0.00    -0.074 A 
ATOM      7  C6  UNL d   1       1.764  -4.120   0.408  0.00  0.00     0.077 C 
ATOM      8  C7  UNL d   1      -0.204  -2.574   0.193  0.00  0.00    -0.001 A 
ENDROOT
TORSDOF 0
ENDMDL
