MODEL 1
REMARK minimizedAffinity -3.93198872
REMARK minimizedRMSD -1
REMARK  0 active torsions:
REMARK  status: ('A' for Active; 'I' for Inactive)
ROOT
ATOM      1  C   UNL d   1       4.095  -4.073  -0.153  0.00  0.00     0.077 C 
ATOM      2  C1  UNL d   1       2.875  -3.240   0.108  0.00  0.00    -0.074 A 
ATOM      3  C2  UNL d   1       1.595  -3.736  -0.158  0.00  0.00    -0.005 A 
ATOM      4  C3  UNL d   1       0.470  -2.954   0.099  0.00  0.00     0.006 A 
ATOM      5  C4  UNL d   1       0.613  -1.669   0.625  0.00  0.00    -0.005 A 
ATOM      6  C5  UNL d   1       1.885  -1.156   0.899  0.00  0.00    -0.074 A 
ATOM      7  C6  UNL d   1       2.055   0.219   1.473  0.00  0.00     0.077 C 
ATOM      8  C7  UNL d   1       3.010  -1.951   0.644  0.00  0.00    -0.001 A 
ENDROOT
TORSDOF 0
ENDMDL
