MODEL 1
REMARK minimizedAffinity -3.39117503
REMARK minimizedRMSD -1
REMARK  0 active torsions:
REMARK  status: ('A' for Active; 'I' for Inactive)
ROOT
ATOM      1  C   UNL d   1      -1.647  -0.126   1.330  0.00  0.00     0.077 C 
ATOM      2  C1  UNL d   1      -0.503  -0.975   0.861  0.00  0.00    -0.074 A 
ATOM      3  C2  UNL d   1      -0.697  -2.316   0.515  0.00  0.00    -0.005 A 
ATOM      4  C3  UNL d   1       0.375  -3.091   0.072  0.00  0.00     0.006 A 
ATOM      5  C4  UNL d   1       1.650  -2.533  -0.030  0.00  0.00    -0.005 A 
ATOM      6  C5  UNL d   1       1.863  -1.193   0.310  0.00  0.00    -0.074 A 
ATOM      7  C6  UNL d   1       3.225  -0.575   0.197  0.00  0.00     0.077 C 
ATOM      8  C7  UNL d   1       0.779  -0.420   0.748  0.00  0.00    -0.001 A 
ENDROOT
TORSDOF 0
ENDMDL
