MODEL 1
REMARK minimizedAffinity -2.11081982
REMARK minimizedRMSD -1
REMARK  0 active torsions:
REMARK  status: ('A' for Active; 'I' for Inactive)
ROOT
ATOM      1  C   UNL d   1       0.487  -3.814  -0.449  0.00  0.00     0.077 C 
ATOM      2  C1  UNL d   1       0.593  -2.447   0.159  0.00  0.00    -0.074 A 
ATOM      3  C2  UNL d   1       1.840  -1.856   0.388  0.00  0.00    -0.005 A 
ATOM      4  C3  UNL d   1       1.922  -0.580   0.946  0.00  0.00     0.006 A 
ATOM      5  C4  UNL d   1       0.760   0.117   1.280  0.00  0.00    -0.005 A 
ATOM      6  C5  UNL d   1      -0.495  -0.457   1.058  0.00  0.00    -0.074 A 
ATOM      7  C6  UNL d   1      -1.754   0.282   1.402  0.00  0.00     0.077 C 
ATOM      8  C7  UNL d   1      -0.570  -1.737   0.490  0.00  0.00    -0.001 A 
ENDROOT
TORSDOF 0
ENDMDL
