MODEL 1
REMARK minimizedAffinity -4.08745718
REMARK minimizedRMSD -1
REMARK  0 active torsions:
REMARK  status: ('A' for Active; 'I' for Inactive)
ROOT
ATOM      1  C   UNL d   1       4.014  -2.102   0.421  0.00  0.00     0.077 C 
ATOM      2  C1  UNL d   1       2.518  -2.203   0.447  0.00  0.00    -0.074 A 
ATOM      3  C2  UNL d   1       1.874  -3.408   0.150  0.00  0.00    -0.005 A 
ATOM      4  C3  UNL d   1       0.482  -3.490   0.188  0.00  0.00     0.006 A 
ATOM      5  C4  UNL d   1      -0.279  -2.369   0.523  0.00  0.00    -0.005 A 
ATOM      6  C5  UNL d   1       0.348  -1.155   0.824  0.00  0.00    -0.074 A 
ATOM      7  C6  UNL d   1      -0.454   0.056   1.196  0.00  0.00     0.077 C 
ATOM      8  C7  UNL d   1       1.747  -1.083   0.791  0.00  0.00    -0.001 A 
ENDROOT
TORSDOF 0
ENDMDL
