MODEL 1
REMARK minimizedAffinity -5.85199833
REMARK minimizedRMSD -1
REMARK  0 active torsions:
REMARK  status: ('A' for Active; 'I' for Inactive)
ROOT
ATOM      1  C   UNL d   1      -0.353   0.039   1.126  0.00  0.00     0.077 C 
ATOM      2  C1  UNL d   1       0.465  -1.168   0.774  0.00  0.00    -0.074 A 
ATOM      3  C2  UNL d   1      -0.149  -2.384   0.457  0.00  0.00    -0.005 A 
ATOM      4  C3  UNL d   1       0.624  -3.496   0.122  0.00  0.00     0.006 A 
ATOM      5  C4  UNL d   1       2.017  -3.403   0.101  0.00  0.00    -0.005 A 
ATOM      6  C5  UNL d   1       2.648  -2.195   0.414  0.00  0.00    -0.074 A 
ATOM      7  C6  UNL d   1       4.143  -2.075   0.387  0.00  0.00     0.077 C 
ATOM      8  C7  UNL d   1       1.864  -1.081   0.743  0.00  0.00    -0.001 A 
ENDROOT
TORSDOF 0
ENDMDL
