MODEL 1
REMARK minimizedAffinity 22.6062126
REMARK minimizedRMSD -1
REMARK  0 active torsions:
REMARK  status: ('A' for Active; 'I' for Inactive)
ROOT
ATOM      1  C   UNL d   1       1.238  -5.206  -1.821  0.00  0.00     0.124 A 
ATOM      2  C1  UNL d   1       2.340  -4.450  -1.446  0.00  0.00     0.062 A 
ATOM      3  C2  UNL d   1       2.278  -3.630  -0.322  0.00  0.00     0.162 A 
ATOM      4  C3  UNL d   1       1.109  -3.563   0.435  0.00  0.00    -0.034 A 
ATOM      5  C4  UNL d   1       0.004  -4.325   0.051  0.00  0.00     0.162 A 
ATOM      6  C5  UNL d   1       0.071  -5.142  -1.072  0.00  0.00     0.062 A 
ATOM      7  F   UNL d   1      -0.995  -5.872  -1.433  0.00  0.00    -0.097 F 
ATOM      8  F1  UNL d   1      -1.136  -4.283   0.757  0.00  0.00    -0.096 F 
ATOM      9  I   UNL d   1       1.011  -2.338   2.115  0.00  0.00    -0.060 I 
ATOM     10  F2  UNL d   1       3.358  -2.911   0.017  0.00  0.00    -0.096 F 
ATOM     11  F3  UNL d   1       3.468  -4.509  -2.168  0.00  0.00    -0.097 F 
ATOM     12  F4  UNL d   1       1.300  -5.993  -2.902  0.00  0.00    -0.092 F 
ENDROOT
TORSDOF 0
ENDMDL
