MODEL 1
REMARK minimizedAffinity 13.7834291
REMARK minimizedRMSD -1
REMARK  0 active torsions:
REMARK  status: ('A' for Active; 'I' for Inactive)
ROOT
ATOM      1  C   UNL d   1       1.846  -1.529   4.748  0.00  0.00     0.124 A 
ATOM      2  C1  UNL d   1       1.332  -0.809   3.679  0.00  0.00     0.062 A 
ATOM      3  C2  UNL d   1       1.501  -1.272   2.377  0.00  0.00     0.162 A 
ATOM      4  C3  UNL d   1       2.187  -2.463   2.137  0.00  0.00    -0.034 A 
ATOM      5  C4  UNL d   1       2.702  -3.181   3.217  0.00  0.00     0.162 A 
ATOM      6  C5  UNL d   1       2.530  -2.714   4.516  0.00  0.00     0.062 A 
ATOM      7  F   UNL d   1       3.028  -3.412   5.548  0.00  0.00    -0.097 F 
ATOM      8  F1  UNL d   1       3.366  -4.330   3.022  0.00  0.00    -0.096 F 
ATOM      9  I   UNL d   1       2.442  -3.158   0.192  0.00  0.00    -0.060 I 
ATOM     10  F2  UNL d   1       0.994  -0.555   1.363  0.00  0.00    -0.096 F 
ATOM     11  F3  UNL d   1       0.671   0.337   3.900  0.00  0.00    -0.097 F 
ATOM     12  F4  UNL d   1       1.683  -1.081   5.999  0.00  0.00    -0.092 F 
ENDROOT
TORSDOF 0
ENDMDL
