MODEL 1
REMARK minimizedAffinity 19.2985477
REMARK minimizedRMSD -1
REMARK  0 active torsions:
REMARK  status: ('A' for Active; 'I' for Inactive)
ROOT
ATOM      1  C   UNL d   1      -1.453   0.610  -0.955  0.00  0.00     0.124 A 
ATOM      2  C1  UNL d   1      -2.011  -0.569  -0.479  0.00  0.00     0.062 A 
ATOM      3  C2  UNL d   1      -1.382  -1.282   0.537  0.00  0.00     0.162 A 
ATOM      4  C3  UNL d   1      -0.186  -0.817   1.086  0.00  0.00    -0.034 A 
ATOM      5  C4  UNL d   1       0.370   0.368   0.602  0.00  0.00     0.162 A 
ATOM      6  C5  UNL d   1      -0.263   1.077  -0.414  0.00  0.00     0.062 A 
ATOM      7  F   UNL d   1       0.278   2.215  -0.872  0.00  0.00    -0.097 F 
ATOM      8  F1  UNL d   1       1.518   0.843   1.107  0.00  0.00    -0.096 F 
ATOM      9  I   UNL d   1       0.758  -1.880   2.606  0.00  0.00    -0.060 I 
ATOM     10  F2  UNL d   1      -1.944  -2.417   0.977  0.00  0.00    -0.096 F 
ATOM     11  F3  UNL d   1      -3.160  -1.023  -1.001  0.00  0.00    -0.097 F 
ATOM     12  F4  UNL d   1      -2.060   1.293  -1.933  0.00  0.00    -0.092 F 
ENDROOT
TORSDOF 0
ENDMDL
