MODEL 1
REMARK minimizedAffinity 21.9631252
REMARK minimizedRMSD -1
REMARK  0 active torsions:
REMARK  status: ('A' for Active; 'I' for Inactive)
ROOT
ATOM      1  C   UNL d   1      -4.282   4.014  -3.727  0.00  0.00     0.124 A 
ATOM      2  C1  UNL d   1      -4.175   4.066  -2.344  0.00  0.00     0.062 A 
ATOM      3  C2  UNL d   1      -3.661   2.982  -1.640  0.00  0.00     0.162 A 
ATOM      4  C3  UNL d   1      -3.248   1.835  -2.317  0.00  0.00    -0.034 A 
ATOM      5  C4  UNL d   1      -3.359   1.789  -3.708  0.00  0.00     0.162 A 
ATOM      6  C5  UNL d   1      -3.874   2.876  -4.407  0.00  0.00     0.062 A 
ATOM      7  F   UNL d   1      -3.976   2.823  -5.743  0.00  0.00    -0.097 F 
ATOM      8  F1  UNL d   1      -2.970   0.702  -4.391  0.00  0.00    -0.096 F 
ATOM      9  I   UNL d   1      -2.477   0.211  -1.268  0.00  0.00    -0.060 I 
ATOM     10  F2  UNL d   1      -3.570   3.060  -0.304  0.00  0.00    -0.096 F 
ATOM     11  F3  UNL d   1      -4.570   5.165  -1.684  0.00  0.00    -0.097 F 
ATOM     12  F4  UNL d   1      -4.778   5.059  -4.402  0.00  0.00    -0.092 F 
ENDROOT
TORSDOF 0
ENDMDL
