MODEL 1
REMARK minimizedAffinity 23.0763302
REMARK minimizedRMSD -1
REMARK  0 active torsions:
REMARK  status: ('A' for Active; 'I' for Inactive)
ROOT
ATOM      1  C   UNL d   1       1.902  -1.491   1.520  0.00  0.00     0.124 A 
ATOM      2  C1  UNL d   1       1.287  -0.747   2.516  0.00  0.00     0.062 A 
ATOM      3  C2  UNL d   1       1.142  -1.275   3.796  0.00  0.00     0.162 A 
ATOM      4  C3  UNL d   1       1.615  -2.555   4.087  0.00  0.00    -0.034 A 
ATOM      5  C4  UNL d   1       2.233  -3.297   3.079  0.00  0.00     0.162 A 
ATOM      6  C5  UNL d   1       2.375  -2.765   1.801  0.00  0.00     0.062 A 
ATOM      7  F   UNL d   1       2.970  -3.485   0.839  0.00  0.00    -0.097 F 
ATOM      8  F1  UNL d   1       2.699  -4.531   3.324  0.00  0.00    -0.096 F 
ATOM      9  I   UNL d   1       1.401  -3.348   5.999  0.00  0.00    -0.060 I 
ATOM     10  F2  UNL d   1       0.543  -0.534   4.740  0.00  0.00    -0.096 F 
ATOM     11  F3  UNL d   1       0.828   0.484   2.247  0.00  0.00    -0.097 F 
ATOM     12  F4  UNL d   1       2.039  -0.980   0.289  0.00  0.00    -0.092 F 
ENDROOT
TORSDOF 0
ENDMDL
