MODEL 1
REMARK minimizedAffinity 18.015234
REMARK minimizedRMSD -1
REMARK  0 active torsions:
REMARK  status: ('A' for Active; 'I' for Inactive)
ROOT
ATOM      1  C   UNL d   1       2.233  -0.453   4.936  0.00  0.00     0.124 A 
ATOM      2  C1  UNL d   1       2.704  -1.759   4.918  0.00  0.00     0.062 A 
ATOM      3  C2  UNL d   1       2.465  -2.573   3.815  0.00  0.00     0.162 A 
ATOM      4  C3  UNL d   1       1.753  -2.084   2.720  0.00  0.00    -0.034 A 
ATOM      5  C4  UNL d   1       1.281  -0.771   2.746  0.00  0.00     0.162 A 
ATOM      6  C5  UNL d   1       1.522   0.039   3.851  0.00  0.00     0.062 A 
ATOM      7  F   UNL d   1       1.066   1.300   3.867  0.00  0.00    -0.097 F 
ATOM      8  F1  UNL d   1       0.592  -0.269   1.710  0.00  0.00    -0.096 F 
ATOM      9  I   UNL d   1       1.394  -3.299   1.068  0.00  0.00    -0.060 I 
ATOM     10  F2  UNL d   1       2.933  -3.831   3.824  0.00  0.00    -0.096 F 
ATOM     11  F3  UNL d   1       3.390  -2.237   5.966  0.00  0.00    -0.097 F 
ATOM     12  F4  UNL d   1       2.463   0.328   5.999  0.00  0.00    -0.092 F 
ENDROOT
TORSDOF 0
ENDMDL
