MODEL 1
REMARK minimizedAffinity 12.5673609
REMARK minimizedRMSD -1
REMARK  0 active torsions:
REMARK  status: ('A' for Active; 'I' for Inactive)
ROOT
ATOM      1  C   UNL d   1       1.532  -1.539   4.783  0.00  0.00     0.124 A 
ATOM      2  C1  UNL d   1       2.093  -2.787   4.546  0.00  0.00     0.062 A 
ATOM      3  C2  UNL d   1       2.581  -3.106   3.282  0.00  0.00     0.162 A 
ATOM      4  C3  UNL d   1       2.511  -2.175   2.245  0.00  0.00    -0.034 A 
ATOM      5  C4  UNL d   1       1.944  -0.923   2.491  0.00  0.00     0.162 A 
ATOM      6  C5  UNL d   1       1.458  -0.609   3.756  0.00  0.00     0.062 A 
ATOM      7  F   UNL d   1       0.916   0.596   3.983  0.00  0.00    -0.097 F 
ATOM      8  F1  UNL d   1       1.861  -0.005   1.517  0.00  0.00    -0.096 F 
ATOM      9  I   UNL d   1       3.239  -2.649   0.354  0.00  0.00    -0.060 I 
ATOM     10  F2  UNL d   1       3.118  -4.318   3.081  0.00  0.00    -0.096 F 
ATOM     11  F3  UNL d   1       2.164  -3.688   5.536  0.00  0.00    -0.097 F 
ATOM     12  F4  UNL d   1       1.062  -1.236   6.000  0.00  0.00    -0.092 F 
ENDROOT
TORSDOF 0
ENDMDL
