MODEL 1
REMARK minimizedAffinity 10.0977688
REMARK minimizedRMSD -1
REMARK  0 active torsions:
REMARK  status: ('A' for Active; 'I' for Inactive)
ROOT
ATOM      1  C   UNL d   1       2.158  -1.231   1.530  0.00  0.00     0.124 A 
ATOM      2  C1  UNL d   1       1.691  -0.439   2.570  0.00  0.00     0.062 A 
ATOM      3  C2  UNL d   1       1.527  -0.978   3.842  0.00  0.00     0.162 A 
ATOM      4  C3  UNL d   1       1.831  -2.318   4.083  0.00  0.00    -0.034 A 
ATOM      5  C4  UNL d   1       2.300  -3.109   3.032  0.00  0.00     0.162 A 
ATOM      6  C5  UNL d   1       2.462  -2.565   1.762  0.00  0.00     0.062 A 
ATOM      7  F   UNL d   1       2.914  -3.332   0.759  0.00  0.00    -0.097 F 
ATOM      8  F1  UNL d   1       2.602  -4.401   3.228  0.00  0.00    -0.096 F 
ATOM      9  I   UNL d   1       1.588  -3.129   5.984  0.00  0.00    -0.060 I 
ATOM     10  F2  UNL d   1       1.074  -0.190   4.828  0.00  0.00    -0.096 F 
ATOM     11  F3  UNL d   1       1.396   0.850   2.348  0.00  0.00    -0.097 F 
ATOM     12  F4  UNL d   1       2.314  -0.709   0.307  0.00  0.00    -0.092 F 
ENDROOT
TORSDOF 0
ENDMDL
