MODEL 1
REMARK minimizedAffinity 14.6215143
REMARK minimizedRMSD -1
REMARK  0 active torsions:
REMARK  status: ('A' for Active; 'I' for Inactive)
ROOT
ATOM      1  C   UNL d   1      -0.919  -4.335  -0.632  0.00  0.00     0.124 A 
ATOM      2  C1  UNL d   1      -1.640  -3.265  -0.120  0.00  0.00     0.062 A 
ATOM      3  C2  UNL d   1      -1.117  -2.500   0.918  0.00  0.00     0.162 A 
ATOM      4  C3  UNL d   1       0.136  -2.803   1.453  0.00  0.00    -0.034 A 
ATOM      5  C4  UNL d   1       0.854  -3.882   0.934  0.00  0.00     0.162 A 
ATOM      6  C5  UNL d   1       0.327  -4.642  -0.104  0.00  0.00     0.062 A 
ATOM      7  F   UNL d   1       1.025  -5.676  -0.597  0.00  0.00    -0.097 F 
ATOM      8  F1  UNL d   1       2.062  -4.201   1.424  0.00  0.00    -0.096 F 
ATOM      9  I   UNL d   1       0.922  -1.663   3.006  0.00  0.00    -0.060 I 
ATOM     10  F2  UNL d   1      -1.835  -1.472   1.393  0.00  0.00    -0.096 F 
ATOM     11  F3  UNL d   1      -2.845  -2.966  -0.628  0.00  0.00    -0.097 F 
ATOM     12  F4  UNL d   1      -1.426  -5.069  -1.631  0.00  0.00    -0.092 F 
ENDROOT
TORSDOF 0
ENDMDL
