MODEL 1
REMARK minimizedAffinity 19.1914902
REMARK minimizedRMSD -1
REMARK  0 active torsions:
REMARK  status: ('A' for Active; 'I' for Inactive)
ROOT
ATOM      1  C   UNL d   1      -1.263  -4.111  -0.146  0.00  0.00     0.124 A 
ATOM      2  C1  UNL d   1      -1.904  -2.954   0.275  0.00  0.00     0.062 A 
ATOM      3  C2  UNL d   1      -1.215  -2.006   1.027  0.00  0.00     0.162 A 
ATOM      4  C3  UNL d   1       0.124  -2.211   1.361  0.00  0.00    -0.034 A 
ATOM      5  C4  UNL d   1       0.761  -3.378   0.934  0.00  0.00     0.162 A 
ATOM      6  C5  UNL d   1       0.068  -4.322   0.184  0.00  0.00     0.062 A 
ATOM      7  F   UNL d   1       0.688  -5.439  -0.223  0.00  0.00    -0.097 F 
ATOM      8  F1  UNL d   1       2.047  -3.606   1.238  0.00  0.00    -0.096 F 
ATOM      9  I   UNL d   1       1.158  -0.797   2.484  0.00  0.00    -0.060 I 
ATOM     10  F2  UNL d   1      -1.859  -0.897   1.420  0.00  0.00    -0.096 F 
ATOM     11  F3  UNL d   1      -3.190  -2.748  -0.041  0.00  0.00    -0.097 F 
ATOM     12  F4  UNL d   1      -1.929  -5.021  -0.868  0.00  0.00    -0.092 F 
ENDROOT
TORSDOF 0
ENDMDL
