MODEL 1
REMARK minimizedAffinity 18.8712807
REMARK minimizedRMSD -1
REMARK  0 active torsions:
REMARK  status: ('A' for Active; 'I' for Inactive)
ROOT
ATOM      1  C   UNL d   1       0.804  -1.455   1.863  0.00  0.00     0.124 A 
ATOM      2  C1  UNL d   1      -0.515  -1.234   1.491  0.00  0.00     0.062 A 
ATOM      3  C2  UNL d   1      -1.285  -2.278   0.987  0.00  0.00     0.162 A 
ATOM      4  C3  UNL d   1      -0.738  -3.554   0.853  0.00  0.00    -0.034 A 
ATOM      5  C4  UNL d   1       0.590  -3.768   1.228  0.00  0.00     0.162 A 
ATOM      6  C5  UNL d   1       1.355  -2.721   1.731  0.00  0.00     0.062 A 
ATOM      7  F   UNL d   1       2.629  -2.936   2.089  0.00  0.00    -0.097 F 
ATOM      8  F1  UNL d   1       1.147  -4.983   1.112  0.00  0.00    -0.096 F 
ATOM      9  I   UNL d   1      -1.885  -5.119   0.100  0.00  0.00    -0.060 I 
ATOM     10  F2  UNL d   1      -2.557  -2.036   0.636  0.00  0.00    -0.096 F 
ATOM     11  F3  UNL d   1      -1.050  -0.011   1.617  0.00  0.00    -0.097 F 
ATOM     12  F4  UNL d   1       1.542  -0.447   2.346  0.00  0.00    -0.092 F 
ENDROOT
TORSDOF 0
ENDMDL
