MODEL 1
REMARK minimizedAffinity -1.4652791
REMARK minimizedRMSD -1
REMARK  0 active torsions:
REMARK  status: ('A' for Active; 'I' for Inactive)
ROOT
ATOM      1  C   UNL d   1      -2.779  -0.678   3.051  0.00  0.00     0.077 C 
ATOM      2  C1  UNL d   1      -2.902   0.326   1.943  0.00  0.00    -0.074 A 
ATOM      3  C2  UNL d   1      -3.249  -0.073   0.648  0.00  0.00    -0.005 A 
ATOM      4  C3  UNL d   1      -3.369   0.873  -0.371  0.00  0.00     0.006 A 
ATOM      5  C4  UNL d   1      -3.143   2.224  -0.105  0.00  0.00    -0.005 A 
ATOM      6  C5  UNL d   1      -2.796   2.641   1.184  0.00  0.00    -0.074 A 
ATOM      7  C6  UNL d   1      -2.559   4.091   1.489  0.00  0.00     0.077 C 
ATOM      8  C7  UNL d   1      -2.684   1.686   2.204  0.00  0.00    -0.001 A 
ENDROOT
TORSDOF 0
ENDMDL
