MODEL 1
REMARK minimizedAffinity 3.4178195
REMARK minimizedRMSD -1
REMARK  0 active torsions:
REMARK  status: ('A' for Active; 'I' for Inactive)
ROOT
ATOM      1  C   UNL d   1      -3.358   3.542   0.484  0.00  0.00     0.077 C 
ATOM      2  C1  UNL d   1      -3.241   2.048   0.440  0.00  0.00    -0.074 A 
ATOM      3  C2  UNL d   1      -3.272   1.360  -0.778  0.00  0.00    -0.005 A 
ATOM      4  C3  UNL d   1      -3.153  -0.029  -0.804  0.00  0.00     0.006 A 
ATOM      5  C4  UNL d   1      -3.001  -0.744   0.385  0.00  0.00    -0.005 A 
ATOM      6  C5  UNL d   1      -2.968  -0.074   1.612  0.00  0.00    -0.074 A 
ATOM      7  C6  UNL d   1      -2.796  -0.826   2.898  0.00  0.00     0.077 C 
ATOM      8  C7  UNL d   1      -3.081   1.323   1.629  0.00  0.00    -0.001 A 
ENDROOT
TORSDOF 0
ENDMDL
