MODEL 1
REMARK minimizedAffinity 7.4639411
REMARK minimizedRMSD -1
REMARK  0 active torsions:
REMARK  status: ('A' for Active; 'I' for Inactive)
ROOT
ATOM      1  C   UNL d   1      -5.997   0.645  -0.922  0.00  0.00     0.077 C 
ATOM      2  C1  UNL d   1      -5.095   0.513   0.269  0.00  0.00    -0.074 A 
ATOM      3  C2  UNL d   1      -3.726   0.783   0.168  0.00  0.00    -0.005 A 
ATOM      4  C3  UNL d   1      -2.902   0.665   1.287  0.00  0.00     0.006 A 
ATOM      5  C4  UNL d   1      -3.436   0.276   2.516  0.00  0.00    -0.005 A 
ATOM      6  C5  UNL d   1      -4.802   0.002   2.636  0.00  0.00    -0.074 A 
ATOM      7  C6  UNL d   1      -5.394  -0.407   3.952  0.00  0.00     0.077 C 
ATOM      8  C7  UNL d   1      -5.626   0.130   1.509  0.00  0.00    -0.001 A 
ENDROOT
TORSDOF 0
ENDMDL
