MODEL 1
REMARK minimizedAffinity 1.60285568
REMARK minimizedRMSD -1
REMARK  0 active torsions:
REMARK  status: ('A' for Active; 'I' for Inactive)
ROOT
ATOM      1  C   UNL d   1      -2.982   1.038   2.237  0.00  0.00     0.077 C 
ATOM      2  C1  UNL d   1      -2.991   2.358   1.526  0.00  0.00    -0.074 A 
ATOM      3  C2  UNL d   1      -2.662   2.446   0.169  0.00  0.00    -0.005 A 
ATOM      4  C3  UNL d   1      -2.684   3.679  -0.482  0.00  0.00     0.006 A 
ATOM      5  C4  UNL d   1      -3.034   4.836   0.216  0.00  0.00    -0.005 A 
ATOM      6  C5  UNL d   1      -3.366   4.767   1.573  0.00  0.00    -0.074 A 
ATOM      7  C6  UNL d   1      -3.754   5.999   2.336  0.00  0.00     0.077 C 
ATOM      8  C7  UNL d   1      -3.349   3.523   2.218  0.00  0.00    -0.001 A 
ENDROOT
TORSDOF 0
ENDMDL
