MODEL 1
REMARK minimizedAffinity -2.00699806
REMARK minimizedRMSD -1
REMARK  0 active torsions:
REMARK  status: ('A' for Active; 'I' for Inactive)
ROOT
ATOM      1  C   UNL d   1      -5.648  -1.960   3.001  0.00  0.00     0.077 C 
ATOM      2  C1  UNL d   1      -4.402  -1.128   2.932  0.00  0.00    -0.074 A 
ATOM      3  C2  UNL d   1      -3.622  -0.907   4.071  0.00  0.00    -0.005 A 
ATOM      4  C3  UNL d   1      -2.460  -0.140   3.990  0.00  0.00     0.006 A 
ATOM      5  C4  UNL d   1      -2.068   0.414   2.770  0.00  0.00    -0.005 A 
ATOM      6  C5  UNL d   1      -2.835   0.203   1.620  0.00  0.00    -0.074 A 
ATOM      7  C6  UNL d   1      -2.422   0.782   0.300  0.00  0.00     0.077 C 
ATOM      8  C7  UNL d   1      -3.997  -0.575   1.709  0.00  0.00    -0.001 A 
ENDROOT
TORSDOF 0
ENDMDL
