MODEL 1
REMARK minimizedAffinity -2.23252392
REMARK minimizedRMSD -1
REMARK  0 active torsions:
REMARK  status: ('A' for Active; 'I' for Inactive)
ROOT
ATOM      1  C   UNL d   1      -2.352  -0.098   3.831  0.00  0.00     0.077 C 
ATOM      2  C1  UNL d   1      -2.608   0.290   2.405  0.00  0.00    -0.074 A 
ATOM      3  C2  UNL d   1      -2.859  -0.681   1.430  0.00  0.00    -0.005 A 
ATOM      4  C3  UNL d   1      -3.105  -0.305   0.110  0.00  0.00     0.006 A 
ATOM      5  C4  UNL d   1      -3.103   1.044  -0.248  0.00  0.00    -0.005 A 
ATOM      6  C5  UNL d   1      -2.854   2.029   0.713  0.00  0.00    -0.074 A 
ATOM      7  C6  UNL d   1      -2.857   3.483   0.347  0.00  0.00     0.077 C 
ATOM      8  C7  UNL d   1      -2.615   1.643   2.039  0.00  0.00    -0.001 A 
ENDROOT
TORSDOF 0
ENDMDL
