MODEL 1
REMARK minimizedAffinity 1.93348444
REMARK minimizedRMSD -1
REMARK  0 active torsions:
REMARK  status: ('A' for Active; 'I' for Inactive)
ROOT
ATOM      1  C   UNL d   1      -0.365   1.142  -1.456  0.00  0.00     0.077 C 
ATOM      2  C1  UNL d   1      -1.660   1.395  -0.744  0.00  0.00    -0.074 A 
ATOM      3  C2  UNL d   1      -2.469   0.334  -0.325  0.00  0.00    -0.005 A 
ATOM      4  C3  UNL d   1      -3.667   0.584   0.345  0.00  0.00     0.006 A 
ATOM      5  C4  UNL d   1      -4.066   1.896   0.603  0.00  0.00    -0.005 A 
ATOM      6  C5  UNL d   1      -3.269   2.970   0.192  0.00  0.00    -0.074 A 
ATOM      7  C6  UNL d   1      -3.679   4.385   0.470  0.00  0.00     0.077 C 
ATOM      8  C7  UNL d   1      -2.064   2.710  -0.474  0.00  0.00    -0.001 A 
ENDROOT
TORSDOF 0
ENDMDL
