MODEL 1
REMARK minimizedAffinity 9.653862
REMARK minimizedRMSD -1
REMARK  0 active torsions:
REMARK  status: ('A' for Active; 'I' for Inactive)
ROOT
ATOM      1  C   UNL d   1      -2.224   0.625   0.612  0.00  0.00     0.077 C 
ATOM      2  C1  UNL d   1      -2.671   0.256   1.995  0.00  0.00    -0.074 A 
ATOM      3  C2  UNL d   1      -1.988   0.727   3.121  0.00  0.00    -0.005 A 
ATOM      4  C3  UNL d   1      -2.422   0.383   4.402  0.00  0.00     0.006 A 
ATOM      5  C4  UNL d   1      -3.541  -0.434   4.569  0.00  0.00    -0.005 A 
ATOM      6  C5  UNL d   1      -4.237  -0.914   3.455  0.00  0.00    -0.074 A 
ATOM      7  C6  UNL d   1      -5.447  -1.785   3.617  0.00  0.00     0.077 C 
ATOM      8  C7  UNL d   1      -3.799  -0.558   2.172  0.00  0.00    -0.001 A 
ENDROOT
TORSDOF 0
ENDMDL
