MODEL 1
REMARK minimizedAffinity -1.54947948
REMARK minimizedRMSD -1
REMARK  0 active torsions:
REMARK  status: ('A' for Active; 'I' for Inactive)
ROOT
ATOM      1  C   UNL d   1      -1.927   0.471   3.584  0.00  0.00     0.077 C 
ATOM      2  C1  UNL d   1      -2.361   0.773   2.181  0.00  0.00    -0.074 A 
ATOM      3  C2  UNL d   1      -2.662  -0.257   1.284  0.00  0.00    -0.005 A 
ATOM      4  C3  UNL d   1      -3.073   0.039  -0.016  0.00  0.00     0.006 A 
ATOM      5  C4  UNL d   1      -3.187   1.367  -0.431  0.00  0.00    -0.005 A 
ATOM      6  C5  UNL d   1      -2.892   2.410   0.452  0.00  0.00    -0.074 A 
ATOM      7  C6  UNL d   1      -3.019   3.842   0.025  0.00  0.00     0.077 C 
ATOM      8  C7  UNL d   1      -2.486   2.104   1.759  0.00  0.00    -0.001 A 
ENDROOT
TORSDOF 0
ENDMDL
