MODEL 1
REMARK minimizedAffinity -0.861743927
REMARK minimizedRMSD -1
REMARK  0 active torsions:
REMARK  status: ('A' for Active; 'I' for Inactive)
ROOT
ATOM      1  C   UNL d   1      -2.852   2.973   0.371  0.00  0.00     0.077 C 
ATOM      2  C1  UNL d   1      -2.932   1.602   0.974  0.00  0.00    -0.074 A 
ATOM      3  C2  UNL d   1      -3.165   0.478   0.175  0.00  0.00    -0.005 A 
ATOM      4  C3  UNL d   1      -3.228  -0.791   0.750  0.00  0.00     0.006 A 
ATOM      5  C4  UNL d   1      -3.058  -0.950   2.125  0.00  0.00    -0.005 A 
ATOM      6  C5  UNL d   1      -2.823   0.163   2.940  0.00  0.00    -0.074 A 
ATOM      7  C6  UNL d   1      -2.628   0.010   4.419  0.00  0.00     0.077 C 
ATOM      8  C7  UNL d   1      -2.754   1.435   2.354  0.00  0.00    -0.001 A 
ENDROOT
TORSDOF 0
ENDMDL
