MODEL 1
REMARK minimizedAffinity -2.50593948
REMARK minimizedRMSD -1
REMARK  0 active torsions:
REMARK  status: ('A' for Active; 'I' for Inactive)
ROOT
ATOM      1  C   UNL d   1      -3.343   3.524   3.250  0.00  0.00     0.077 C 
ATOM      2  C1  UNL d   1      -3.534   2.041   3.368  0.00  0.00    -0.074 A 
ATOM      3  C2  UNL d   1      -4.366   1.500   4.353  0.00  0.00    -0.005 A 
ATOM      4  C3  UNL d   1      -4.542   0.119   4.445  0.00  0.00     0.006 A 
ATOM      5  C4  UNL d   1      -3.889  -0.733   3.553  0.00  0.00    -0.005 A 
ATOM      6  C5  UNL d   1      -3.054  -0.210   2.560  0.00  0.00    -0.074 A 
ATOM      7  C6  UNL d   1      -2.353  -1.111   1.588  0.00  0.00     0.077 C 
ATOM      8  C7  UNL d   1      -2.888   1.179   2.471  0.00  0.00    -0.001 A 
ENDROOT
TORSDOF 0
ENDMDL
