MODEL 1
REMARK minimizedAffinity 3.3129971
REMARK minimizedRMSD -1
REMARK  0 active torsions:
REMARK  status: ('A' for Active; 'I' for Inactive)
ROOT
ATOM      1  C   UNL d   1      -4.250   2.312   5.992  0.00  0.00     0.077 C 
ATOM      2  C1  UNL d   1      -4.092   1.360   4.844  0.00  0.00    -0.074 A 
ATOM      3  C2  UNL d   1      -3.098   1.556   3.880  0.00  0.00    -0.005 A 
ATOM      4  C3  UNL d   1      -2.957   0.657   2.822  0.00  0.00     0.006 A 
ATOM      5  C4  UNL d   1      -3.808  -0.444   2.718  0.00  0.00    -0.005 A 
ATOM      6  C5  UNL d   1      -4.807  -0.656   3.673  0.00  0.00    -0.074 A 
ATOM      7  C6  UNL d   1      -5.724  -1.840   3.581  0.00  0.00     0.077 C 
ATOM      8  C7  UNL d   1      -4.938   0.247   4.736  0.00  0.00    -0.001 A 
ENDROOT
TORSDOF 0
ENDMDL
