MODEL 1
REMARK minimizedAffinity -3.06677198
REMARK minimizedRMSD -1
REMARK  0 active torsions:
REMARK  status: ('A' for Active; 'I' for Inactive)
ROOT
ATOM      1  C   UNL d   1      -2.562  -0.444   3.670  0.00  0.00     0.077 C 
ATOM      2  C1  UNL d   1      -2.500   0.004   2.240  0.00  0.00    -0.074 A 
ATOM      3  C2  UNL d   1      -2.335  -0.920   1.204  0.00  0.00    -0.005 A 
ATOM      4  C3  UNL d   1      -2.289  -0.489  -0.122  0.00  0.00     0.006 A 
ATOM      5  C4  UNL d   1      -2.407   0.868  -0.424  0.00  0.00    -0.005 A 
ATOM      6  C5  UNL d   1      -2.573   1.806   0.599  0.00  0.00    -0.074 A 
ATOM      7  C6  UNL d   1      -2.712   3.268   0.291  0.00  0.00     0.077 C 
ATOM      8  C7  UNL d   1      -2.626   1.365   1.928  0.00  0.00    -0.001 A 
ENDROOT
TORSDOF 0
ENDMDL
