MODEL 1
REMARK minimizedAffinity 6.60753536
REMARK minimizedRMSD -1
REMARK  0 active torsions:
REMARK  status: ('A' for Active; 'I' for Inactive)
ROOT
ATOM      1  C   UNL d   1      -3.739  -0.375   3.730  0.00  0.00     0.077 C 
ATOM      2  C1  UNL d   1      -3.625  -0.110   2.258  0.00  0.00    -0.074 A 
ATOM      3  C2  UNL d   1      -2.375   0.022   1.646  0.00  0.00    -0.005 A 
ATOM      4  C3  UNL d   1      -2.285   0.259   0.274  0.00  0.00     0.006 A 
ATOM      5  C4  UNL d   1      -3.442   0.367  -0.498  0.00  0.00    -0.005 A 
ATOM      6  C5  UNL d   1      -4.702   0.237   0.097  0.00  0.00    -0.074 A 
ATOM      7  C6  UNL d   1      -5.955   0.340  -0.720  0.00  0.00     0.077 C 
ATOM      8  C7  UNL d   1      -4.784  -0.008   1.474  0.00  0.00    -0.001 A 
ENDROOT
TORSDOF 0
ENDMDL
