MODEL 1
REMARK minimizedAffinity 1.53814209
REMARK minimizedRMSD -1
REMARK  0 active torsions:
REMARK  status: ('A' for Active; 'I' for Inactive)
ROOT
ATOM      1  C   UNL d   1       5.999   0.842   5.994  0.00  0.00     0.077 C 
ATOM      2  C1  UNL d   1       5.186   0.727   4.739  0.00  0.00    -0.074 A 
ATOM      3  C2  UNL d   1       4.620  -0.494   4.359  0.00  0.00    -0.005 A 
ATOM      4  C3  UNL d   1       3.858  -0.584   3.194  0.00  0.00     0.006 A 
ATOM      5  C4  UNL d   1       3.653   0.545   2.400  0.00  0.00    -0.005 A 
ATOM      6  C5  UNL d   1       4.210   1.775   2.764  0.00  0.00    -0.074 A 
ATOM      7  C6  UNL d   1       3.992   3.000   1.927  0.00  0.00     0.077 C 
ATOM      8  C7  UNL d   1       4.969   1.858   3.940  0.00  0.00    -0.001 A 
ENDROOT
TORSDOF 0
ENDMDL
