MODEL 1
REMARK minimizedAffinity 0.684663832
REMARK minimizedRMSD -1
REMARK  0 active torsions:
REMARK  status: ('A' for Active; 'I' for Inactive)
ROOT
ATOM      1  C   UNL d   1      -2.638   0.396   3.398  0.00  0.00     0.077 C 
ATOM      2  C1  UNL d   1      -2.966   0.903   2.025  0.00  0.00    -0.074 A 
ATOM      3  C2  UNL d   1      -3.590   0.078   1.084  0.00  0.00    -0.005 A 
ATOM      4  C3  UNL d   1      -3.897   0.566  -0.186  0.00  0.00     0.006 A 
ATOM      5  C4  UNL d   1      -3.584   1.882  -0.527  0.00  0.00    -0.005 A 
ATOM      6  C5  UNL d   1      -2.961   2.723   0.401  0.00  0.00    -0.074 A 
ATOM      7  C6  UNL d   1      -2.626   4.143   0.053  0.00  0.00     0.077 C 
ATOM      8  C7  UNL d   1      -2.661   2.226   1.677  0.00  0.00    -0.001 A 
ENDROOT
TORSDOF 0
ENDMDL
