MODEL 1
REMARK minimizedAffinity -2.7129662
REMARK minimizedRMSD -1
REMARK  0 active torsions:
REMARK  status: ('A' for Active; 'I' for Inactive)
ROOT
ATOM      1  C   UNL d   1      -2.701  -0.635   3.720  0.00  0.00     0.077 C 
ATOM      2  C1  UNL d   1      -2.676   0.052   2.387  0.00  0.00    -0.074 A 
ATOM      3  C2  UNL d   1      -2.744  -0.683   1.199  0.00  0.00    -0.005 A 
ATOM      4  C3  UNL d   1      -2.729  -0.030  -0.033  0.00  0.00     0.006 A 
ATOM      5  C4  UNL d   1      -2.646   1.362  -0.090  0.00  0.00    -0.005 A 
ATOM      6  C5  UNL d   1      -2.577   2.113   1.088  0.00  0.00    -0.074 A 
ATOM      7  C6  UNL d   1      -2.497   3.610   1.045  0.00  0.00     0.077 C 
ATOM      8  C7  UNL d   1      -2.600   1.450   2.322  0.00  0.00    -0.001 A 
ENDROOT
TORSDOF 0
ENDMDL
