MODEL 1
REMARK minimizedAffinity 9.03635597
REMARK minimizedRMSD -1
REMARK  0 active torsions:
REMARK  status: ('A' for Active; 'I' for Inactive)
ROOT
ATOM      1  C2' OXE d   1      -1.159  -5.528  -3.737  0.00  0.00     0.078 C 
ATOM      2  C1' OXE d   1      -3.520  -5.997  -2.293  0.00  0.00     0.078 C 
ATOM      3  C1  OXE d   1      -3.014  -4.579  -2.371  0.00  0.00    -0.078 A 
ATOM      4  C2  OXE d   1      -1.833  -4.365  -3.041  0.00  0.00    -0.078 A 
ATOM      5  C3  OXE d   1      -1.350  -3.068  -3.189  0.00  0.00     0.003 A 
ATOM      6  C4  OXE d   1      -1.973  -2.000  -2.533  0.00  0.00    -0.002 A 
ATOM      7  C5  OXE d   1      -3.155  -2.202  -1.813  0.00  0.00    -0.002 A 
ATOM      8  C6  OXE d   1      -3.711  -3.475  -1.758  0.00  0.00     0.003 A 
ENDROOT
TORSDOF 0
ENDMDL
