MODEL 1
REMARK minimizedAffinity 10.9014997
REMARK minimizedRMSD -1
REMARK  0 active torsions:
REMARK  status: ('A' for Active; 'I' for Inactive)
ROOT
ATOM      1  C2' OXE d   1       0.592   0.946   2.122  0.00  0.00     0.078 C 
ATOM      2  C1' OXE d   1       1.108   3.362   0.788  0.00  0.00     0.078 C 
ATOM      3  C1  OXE d   1       2.192   2.314   0.790  0.00  0.00    -0.078 A 
ATOM      4  C2  OXE d   1       1.949   1.153   1.484  0.00  0.00    -0.078 A 
ATOM      5  C3  OXE d   1       2.894   0.131   1.472  0.00  0.00     0.003 A 
ATOM      6  C4  OXE d   1       4.150   0.335   0.889  0.00  0.00    -0.002 A 
ATOM      7  C5  OXE d   1       4.434   1.525   0.210  0.00  0.00    -0.002 A 
ATOM      8  C6  OXE d   1       3.452   2.505   0.115  0.00  0.00     0.003 A 
ENDROOT
TORSDOF 0
ENDMDL
