MODEL 1
REMARK minimizedAffinity 5.32280827
REMARK minimizedRMSD -1
REMARK  0 active torsions:
REMARK  status: ('A' for Active; 'I' for Inactive)
ROOT
ATOM      1  C2' OXE d   1      -3.412   0.753   2.974  0.00  0.00     0.078 C 
ATOM      2  C1' OXE d   1      -1.512  -1.288   3.296  0.00  0.00     0.078 C 
ATOM      3  C1  OXE d   1      -1.021   0.065   2.845  0.00  0.00    -0.078 A 
ATOM      4  C2  OXE d   1      -1.964   1.045   2.645  0.00  0.00    -0.078 A 
ATOM      5  C3  OXE d   1      -1.560   2.326   2.282  0.00  0.00     0.003 A 
ATOM      6  C4  OXE d   1      -0.220   2.585   1.970  0.00  0.00    -0.002 A 
ATOM      7  C5  OXE d   1       0.751   1.590   2.128  0.00  0.00    -0.002 A 
ATOM      8  C6  OXE d   1       0.374   0.340   2.605  0.00  0.00     0.003 A 
ENDROOT
TORSDOF 0
ENDMDL
