MODEL 1
REMARK minimizedAffinity 5.32439375
REMARK minimizedRMSD -1
REMARK  0 active torsions:
REMARK  status: ('A' for Active; 'I' for Inactive)
ROOT
ATOM      1  C2' OXE d   1       4.445   1.966   0.098  0.00  0.00     0.078 C 
ATOM      2  C1' OXE d   1       4.259  -0.533   1.362  0.00  0.00     0.078 C 
ATOM      3  C1  OXE d   1       3.125   0.441   1.560  0.00  0.00    -0.078 A 
ATOM      4  C2  OXE d   1       3.246   1.679   0.976  0.00  0.00    -0.078 A 
ATOM      5  C3  OXE d   1       2.204   2.596   1.081  0.00  0.00     0.003 A 
ATOM      6  C4  OXE d   1       1.103   2.326   1.903  0.00  0.00    -0.002 A 
ATOM      7  C5  OXE d   1       0.979   1.086   2.539  0.00  0.00    -0.002 A 
ATOM      8  C6  OXE d   1       1.958   0.119   2.344  0.00  0.00     0.003 A 
ENDROOT
TORSDOF 0
ENDMDL
