MODEL 1
REMARK minimizedAffinity 11.8683319
REMARK minimizedRMSD -1
REMARK  0 active torsions:
REMARK  status: ('A' for Active; 'I' for Inactive)
ROOT
ATOM      1  C2' OXE d   1       4.082   1.879   0.103  0.00  0.00     0.078 C 
ATOM      2  C1' OXE d   1       4.242  -0.528   1.539  0.00  0.00     0.078 C 
ATOM      3  C1  OXE d   1       2.969   0.273   1.648  0.00  0.00    -0.078 A 
ATOM      4  C2  OXE d   1       2.917   1.472   0.980  0.00  0.00    -0.078 A 
ATOM      5  C3  OXE d   1       1.746   2.225   1.003  0.00  0.00     0.003 A 
ATOM      6  C4  OXE d   1       0.677   1.847   1.824  0.00  0.00    -0.002 A 
ATOM      7  C5  OXE d   1       0.724   0.649   2.544  0.00  0.00    -0.002 A 
ATOM      8  C6  OXE d   1       1.844  -0.169   2.434  0.00  0.00     0.003 A 
ENDROOT
TORSDOF 0
ENDMDL
