MODEL 1
REMARK minimizedAffinity 3.9092567
REMARK minimizedRMSD -1
REMARK  0 active torsions:
REMARK  status: ('A' for Active; 'I' for Inactive)
ROOT
ATOM      1  C2' OXE d   1      -1.589  -1.862  -2.058  0.00  0.00     0.078 C 
ATOM      2  C1' OXE d   1      -1.772  -2.683  -4.736  0.00  0.00     0.078 C 
ATOM      3  C1  OXE d   1      -2.771  -3.248  -3.758  0.00  0.00    -0.078 A 
ATOM      4  C2  OXE d   1      -2.645  -2.877  -2.440  0.00  0.00    -0.078 A 
ATOM      5  C3  OXE d   1      -3.574  -3.325  -1.506  0.00  0.00     0.003 A 
ATOM      6  C4  OXE d   1      -4.542  -4.271  -1.866  0.00  0.00    -0.002 A 
ATOM      7  C5  OXE d   1      -4.663  -4.693  -3.194  0.00  0.00    -0.002 A 
ATOM      8  C6  OXE d   1      -3.814  -4.159  -4.158  0.00  0.00     0.003 A 
ENDROOT
TORSDOF 0
ENDMDL
