MODEL 1
REMARK minimizedAffinity 3.0230062
REMARK minimizedRMSD -1
REMARK  0 active torsions:
REMARK  status: ('A' for Active; 'I' for Inactive)
ROOT
ATOM      1  C2' OXE d   1       6.000   1.882   0.755  0.00  0.00     0.078 C 
ATOM      2  C1' OXE d   1       5.336  -0.414   2.227  0.00  0.00     0.078 C 
ATOM      3  C1  OXE d   1       4.209   0.382   1.619  0.00  0.00    -0.078 A 
ATOM      4  C2  OXE d   1       4.539   1.530   0.940  0.00  0.00    -0.078 A 
ATOM      5  C3  OXE d   1       3.542   2.271   0.313  0.00  0.00     0.003 A 
ATOM      6  C4  OXE d   1       2.193   1.944   0.497  0.00  0.00    -0.002 A 
ATOM      7  C5  OXE d   1       1.832   0.801   1.219  0.00  0.00    -0.002 A 
ATOM      8  C6  OXE d   1       2.828  -0.012   1.749  0.00  0.00     0.003 A 
ENDROOT
TORSDOF 0
ENDMDL
