MODEL 1
REMARK minimizedAffinity 7.65788031
REMARK minimizedRMSD -1
REMARK  0 active torsions:
REMARK  status: ('A' for Active; 'I' for Inactive)
ROOT
ATOM      1  C2' OXE d   1      -4.209   1.343   3.399  0.00  0.00     0.078 C 
ATOM      2  C1' OXE d   1      -5.264   1.275   6.000  0.00  0.00     0.078 C 
ATOM      3  C1  OXE d   1      -5.339   0.013   5.177  0.00  0.00    -0.078 A 
ATOM      4  C2  OXE d   1      -4.863   0.069   3.889  0.00  0.00    -0.078 A 
ATOM      5  C3  OXE d   1      -4.858  -1.081   3.106  0.00  0.00     0.003 A 
ATOM      6  C4  OXE d   1      -5.473  -2.253   3.563  0.00  0.00    -0.002 A 
ATOM      7  C5  OXE d   1      -6.000  -2.320   4.857  0.00  0.00    -0.002 A 
ATOM      8  C6  OXE d   1      -5.903  -1.211   5.690  0.00  0.00     0.003 A 
ENDROOT
TORSDOF 0
ENDMDL
