MODEL 1
REMARK minimizedAffinity 11.5513344
REMARK minimizedRMSD -1
REMARK  0 active torsions:
REMARK  status: ('A' for Active; 'I' for Inactive)
ROOT
ATOM      1  C2' OXE d   1      -0.587  -2.009   0.777  0.00  0.00     0.078 C 
ATOM      2  C1' OXE d   1       1.261  -3.514  -0.707  0.00  0.00     0.078 C 
ATOM      3  C1  OXE d   1      -0.114  -3.313  -1.292  0.00  0.00    -0.078 A 
ATOM      4  C2  OXE d   1      -1.026  -2.615  -0.538  0.00  0.00    -0.078 A 
ATOM      5  C3  OXE d   1      -2.292  -2.354  -1.055  0.00  0.00     0.003 A 
ATOM      6  C4  OXE d   1      -2.694  -2.926  -2.268  0.00  0.00    -0.002 A 
ATOM      7  C5  OXE d   1      -1.793  -3.673  -3.034  0.00  0.00    -0.002 A 
ATOM      8  C6  OXE d   1      -0.489  -3.840  -2.581  0.00  0.00     0.003 A 
ENDROOT
TORSDOF 0
ENDMDL
