MODEL 1
REMARK minimizedAffinity 15.4792442
REMARK minimizedRMSD -1
REMARK  0 active torsions:
REMARK  status: ('A' for Active; 'I' for Inactive)
ROOT
ATOM      1  C2' OXE d   1       0.564   2.397   2.373  0.00  0.00     0.078 C 
ATOM      2  C1' OXE d   1       2.874   3.858   1.730  0.00  0.00     0.078 C 
ATOM      3  C1  OXE d   1       2.763   2.449   1.203  0.00  0.00    -0.078 A 
ATOM      4  C2  OXE d   1       1.651   1.725   1.561  0.00  0.00    -0.078 A 
ATOM      5  C3  OXE d   1       1.473   0.440   1.057  0.00  0.00     0.003 A 
ATOM      6  C4  OXE d   1       2.487  -0.177   0.315  0.00  0.00    -0.002 A 
ATOM      7  C5  OXE d   1       3.646   0.528  -0.028  0.00  0.00    -0.002 A 
ATOM      8  C6  OXE d   1       3.780   1.853   0.371  0.00  0.00     0.003 A 
ENDROOT
TORSDOF 0
ENDMDL
