MODEL 1
REMARK minimizedAffinity 10.4477968
REMARK minimizedRMSD -1
REMARK  0 active torsions:
REMARK  status: ('A' for Active; 'I' for Inactive)
ROOT
ATOM      1  C2' OXE d   1      -3.492  -3.452  -2.728  0.00  0.00     0.078 C 
ATOM      2  C1' OXE d   1      -0.882  -4.155  -3.487  0.00  0.00     0.078 C 
ATOM      3  C1  OXE d   1      -1.103  -3.694  -2.067  0.00  0.00    -0.078 A 
ATOM      4  C2  OXE d   1      -2.374  -3.308  -1.718  0.00  0.00    -0.078 A 
ATOM      5  C3  OXE d   1      -2.644  -2.927  -0.407  0.00  0.00     0.003 A 
ATOM      6  C4  OXE d   1      -1.602  -2.786   0.518  0.00  0.00    -0.002 A 
ATOM      7  C5  OXE d   1      -0.293  -3.136   0.172  0.00  0.00    -0.002 A 
ATOM      8  C6  OXE d   1      -0.034  -3.632  -1.101  0.00  0.00     0.003 A 
ENDROOT
TORSDOF 0
ENDMDL
