MODEL 1
REMARK minimizedAffinity 13.3136883
REMARK minimizedRMSD -1
REMARK  0 active torsions:
REMARK  status: ('A' for Active; 'I' for Inactive)
ROOT
ATOM      1  C2' OXE d   1      -2.036  -2.253  -3.223  0.00  0.00     0.078 C 
ATOM      2  C1' OXE d   1      -1.874  -1.875  -6.000  0.00  0.00     0.078 C 
ATOM      3  C1  OXE d   1      -0.666  -2.439  -5.295  0.00  0.00    -0.078 A 
ATOM      4  C2  OXE d   1      -0.737  -2.577  -3.930  0.00  0.00    -0.078 A 
ATOM      5  C3  OXE d   1       0.329  -3.143  -3.237  0.00  0.00     0.003 A 
ATOM      6  C4  OXE d   1       1.531  -3.429  -3.897  0.00  0.00    -0.002 A 
ATOM      7  C5  OXE d   1       1.639  -3.259  -5.281  0.00  0.00    -0.002 A 
ATOM      8  C6  OXE d   1       0.538  -2.806  -6.000  0.00  0.00     0.003 A 
ENDROOT
TORSDOF 0
ENDMDL
