MODEL 1
REMARK minimizedAffinity 15.8266296
REMARK minimizedRMSD -1
REMARK  0 active torsions:
REMARK  status: ('A' for Active; 'I' for Inactive)
ROOT
ATOM      1  C2' OXE d   1       0.668   2.833   1.811  0.00  0.00     0.078 C 
ATOM      2  C1' OXE d   1       2.756   0.991   1.458  0.00  0.00     0.078 C 
ATOM      3  C1  OXE d   1       1.933   0.888   2.718  0.00  0.00    -0.078 A 
ATOM      4  C2  OXE d   1       0.943   1.823   2.904  0.00  0.00    -0.078 A 
ATOM      5  C3  OXE d   1       0.119   1.741   4.023  0.00  0.00     0.003 A 
ATOM      6  C4  OXE d   1       0.387   0.810   5.034  0.00  0.00    -0.002 A 
ATOM      7  C5  OXE d   1       1.416  -0.126   4.883  0.00  0.00    -0.002 A 
ATOM      8  C6  OXE d   1       2.169  -0.127   3.714  0.00  0.00     0.003 A 
ENDROOT
TORSDOF 0
ENDMDL
