MODEL 1
REMARK minimizedAffinity 4.62045717
REMARK minimizedRMSD -1
REMARK  0 active torsions:
REMARK  status: ('A' for Active; 'I' for Inactive)
ROOT
ATOM      1  C2' OXE d   1       4.883   0.464  -4.806  0.00  0.00     0.078 C 
ATOM      2  C1' OXE d   1       4.996   1.891  -2.391  0.00  0.00     0.078 C 
ATOM      3  C1  OXE d   1       4.603   2.646  -3.636  0.00  0.00    -0.078 A 
ATOM      4  C2  OXE d   1       4.595   1.950  -4.821  0.00  0.00    -0.078 A 
ATOM      5  C3  OXE d   1       4.187   2.586  -5.991  0.00  0.00     0.003 A 
ATOM      6  C4  OXE d   1       3.933   3.962  -5.998  0.00  0.00    -0.002 A 
ATOM      7  C5  OXE d   1       3.974   4.698  -4.809  0.00  0.00    -0.002 A 
ATOM      8  C6  OXE d   1       4.265   4.048  -3.615  0.00  0.00     0.003 A 
ENDROOT
TORSDOF 0
ENDMDL
