MODEL 1
REMARK minimizedAffinity 7.4574542
REMARK minimizedRMSD -1
REMARK  0 active torsions:
REMARK  status: ('A' for Active; 'I' for Inactive)
ROOT
ATOM      1  C2' OXE d   1       5.272  -0.483   1.929  0.00  0.00     0.078 C 
ATOM      2  C1' OXE d   1       4.643   1.171  -0.251  0.00  0.00     0.078 C 
ATOM      3  C1  OXE d   1       3.561   0.905   0.766  0.00  0.00    -0.078 A 
ATOM      4  C2  OXE d   1       3.864   0.057   1.804  0.00  0.00    -0.078 A 
ATOM      5  C3  OXE d   1       2.919  -0.179   2.799  0.00  0.00     0.003 A 
ATOM      6  C4  OXE d   1       1.616   0.315   2.670  0.00  0.00    -0.002 A 
ATOM      7  C5  OXE d   1       1.275   1.149   1.600  0.00  0.00    -0.002 A 
ATOM      8  C6  OXE d   1       2.246   1.487   0.663  0.00  0.00     0.003 A 
ENDROOT
TORSDOF 0
ENDMDL
