MODEL 1
REMARK minimizedAffinity 12.6749315
REMARK minimizedRMSD -1
REMARK  0 active torsions:
REMARK  status: ('A' for Active; 'I' for Inactive)
ROOT
ATOM      1  C2' OXE d   1      -1.515  -2.641  -3.005  0.00  0.00     0.078 C 
ATOM      2  C1' OXE d   1      -4.021  -3.077  -1.816  0.00  0.00     0.078 C 
ATOM      3  C1  OXE d   1      -2.832  -2.898  -0.906  0.00  0.00    -0.078 A 
ATOM      4  C2  OXE d   1      -1.602  -2.732  -1.497  0.00  0.00    -0.078 A 
ATOM      5  C3  OXE d   1      -0.480  -2.508  -0.704  0.00  0.00     0.003 A 
ATOM      6  C4  OXE d   1      -0.568  -2.603   0.691  0.00  0.00    -0.002 A 
ATOM      7  C5  OXE d   1      -1.804  -2.811   1.312  0.00  0.00    -0.002 A 
ATOM      8  C6  OXE d   1      -2.949  -2.918   0.531  0.00  0.00     0.003 A 
ENDROOT
TORSDOF 0
ENDMDL
