MODEL 1
REMARK minimizedAffinity 7.77906752
REMARK minimizedRMSD -1
REMARK  0 active torsions:
REMARK  status: ('A' for Active; 'I' for Inactive)
ROOT
ATOM      1  C2' OXE d   1      -2.823  -2.539   0.912  0.00  0.00     0.078 C 
ATOM      2  C1' OXE d   1      -0.153  -3.396   0.787  0.00  0.00     0.078 C 
ATOM      3  C1  OXE d   1      -0.957  -3.411  -0.489  0.00  0.00    -0.078 A 
ATOM      4  C2  OXE d   1      -2.276  -3.034  -0.409  0.00  0.00    -0.078 A 
ATOM      5  C3  OXE d   1      -3.048  -2.977  -1.566  0.00  0.00     0.003 A 
ATOM      6  C4  OXE d   1      -2.537  -3.446  -2.783  0.00  0.00    -0.002 A 
ATOM      7  C5  OXE d   1      -1.208  -3.872  -2.878  0.00  0.00    -0.002 A 
ATOM      8  C6  OXE d   1      -0.394  -3.820  -1.752  0.00  0.00     0.003 A 
ENDROOT
TORSDOF 0
ENDMDL
