MODEL 1
REMARK minimizedAffinity 1.00607467
REMARK minimizedRMSD -1
REMARK  0 active torsions:
REMARK  status: ('A' for Active; 'I' for Inactive)
ROOT
ATOM      1  C1  DEN d   1      -5.990   3.656  -1.625  0.00  0.00     0.130 A 
ATOM      2  C2  DEN d   1      -5.257   2.797  -2.550  0.00  0.00    -0.031 A 
ATOM      3  C3  DEN d   1      -4.417   1.880  -1.754  0.00  0.00     0.027 A 
ATOM      4  C4  DEN d   1      -4.187   1.704   0.809  0.00  0.00     0.027 A 
ATOM      5  C5  DEN d   1      -4.602   2.231   2.012  0.00  0.00    -0.003 A 
ATOM      6  C6  DEN d   1      -5.475   3.284   2.086  0.00  0.00     0.001 A 
ATOM      7  C7  DEN d   1      -5.998   3.814   0.936  0.00  0.00     0.017 A 
ATOM      8  C8  DEN d   1      -5.578   3.293  -0.281  0.00  0.00    -0.094 A 
ATOM      9  C9  DEN d   1      -4.704   2.221  -0.334  0.00  0.00    -0.072 A 
ENDROOT
TORSDOF 0
ENDMDL
