MODEL 1
REMARK minimizedAffinity 8.72644901
REMARK minimizedRMSD -1
REMARK  0 active torsions:
REMARK  status: ('A' for Active; 'I' for Inactive)
ROOT
ATOM      1  C1  DEN d   1       0.284  -5.001   0.735  0.00  0.00     0.130 A 
ATOM      2  C2  DEN d   1       0.824  -4.932  -0.620  0.00  0.00    -0.031 A 
ATOM      3  C3  DEN d   1       1.589  -3.675  -0.743  0.00  0.00     0.027 A 
ATOM      4  C4  DEN d   1       1.992  -1.841   1.025  0.00  0.00     0.027 A 
ATOM      5  C5  DEN d   1       1.725  -1.451   2.319  0.00  0.00    -0.003 A 
ATOM      6  C6  DEN d   1       0.937  -2.194   3.158  0.00  0.00     0.001 A 
ATOM      7  C7  DEN d   1       0.425  -3.389   2.727  0.00  0.00     0.017 A 
ATOM      8  C8  DEN d   1       0.685  -3.786   1.421  0.00  0.00    -0.094 A 
ATOM      9  C9  DEN d   1       1.494  -3.027   0.593  0.00  0.00    -0.072 A 
ENDROOT
TORSDOF 0
ENDMDL
