MODEL 1
REMARK minimizedAffinity 6.09541368
REMARK minimizedRMSD -1
REMARK  0 active torsions:
REMARK  status: ('A' for Active; 'I' for Inactive)
ROOT
ATOM      1  C1  DEN d   1       1.639  -2.250   1.715  0.00  0.00     0.130 A 
ATOM      2  C2  DEN d   1       1.509  -0.875   2.191  0.00  0.00    -0.031 A 
ATOM      3  C3  DEN d   1       1.829  -0.858   3.632  0.00  0.00     0.027 A 
ATOM      4  C4  DEN d   1       2.514  -2.816   5.165  0.00  0.00     0.027 A 
ATOM      5  C5  DEN d   1       2.747  -4.173   5.217  0.00  0.00    -0.003 A 
ATOM      6  C6  DEN d   1       2.596  -4.982   4.123  0.00  0.00     0.001 A 
ATOM      7  C7  DEN d   1       2.243  -4.435   2.917  0.00  0.00     0.017 A 
ATOM      8  C8  DEN d   1       1.999  -3.069   2.859  0.00  0.00    -0.094 A 
ATOM      9  C9  DEN d   1       2.170  -2.266   3.973  0.00  0.00    -0.072 A 
ENDROOT
TORSDOF 0
ENDMDL
