MODEL 1
REMARK minimizedAffinity 11.4808493
REMARK minimizedRMSD -1
REMARK  0 active torsions:
REMARK  status: ('A' for Active; 'I' for Inactive)
ROOT
ATOM      1  C1  DEN d   1       1.185   0.994   2.243  0.00  0.00     0.130 A 
ATOM      2  C2  DEN d   1       0.780   1.605   3.506  0.00  0.00    -0.031 A 
ATOM      3  C3  DEN d   1       0.577   0.525   4.493  0.00  0.00     0.027 A 
ATOM      4  C4  DEN d   1       0.853  -2.021   4.190  0.00  0.00     0.027 A 
ATOM      5  C5  DEN d   1       1.170  -3.017   3.293  0.00  0.00    -0.003 A 
ATOM      6  C6  DEN d   1       1.478  -2.751   1.985  0.00  0.00     0.001 A 
ATOM      7  C7  DEN d   1       1.521  -1.453   1.548  0.00  0.00     0.017 A 
ATOM      8  C8  DEN d   1       1.195  -0.444   2.445  0.00  0.00    -0.094 A 
ATOM      9  C9  DEN d   1       0.898  -0.733   3.766  0.00  0.00    -0.072 A 
ENDROOT
TORSDOF 0
ENDMDL
