MODEL 1
REMARK minimizedAffinity 9.45763683
REMARK minimizedRMSD -1
REMARK  0 active torsions:
REMARK  status: ('A' for Active; 'I' for Inactive)
ROOT
ATOM      1  C1  DEN d   1       2.262  -4.192   1.734  0.00  0.00     0.130 A 
ATOM      2  C2  DEN d   1       1.881  -5.094   2.817  0.00  0.00    -0.031 A 
ATOM      3  C3  DEN d   1       1.187  -4.299   3.850  0.00  0.00     0.027 A 
ATOM      4  C4  DEN d   1       0.664  -1.773   3.875  0.00  0.00     0.027 A 
ATOM      5  C5  DEN d   1       0.800  -0.592   3.181  0.00  0.00    -0.003 A 
ATOM      6  C6  DEN d   1       1.458  -0.522   1.981  0.00  0.00     0.001 A 
ATOM      7  C7  DEN d   1       1.965  -1.663   1.417  0.00  0.00     0.017 A 
ATOM      8  C8  DEN d   1       1.838  -2.857   2.115  0.00  0.00    -0.094 A 
ATOM      9  C9  DEN d   1       1.159  -2.909   3.321  0.00  0.00    -0.072 A 
ENDROOT
TORSDOF 0
ENDMDL
