MODEL 1
REMARK minimizedAffinity 3.17274451
REMARK minimizedRMSD -1
REMARK  0 active torsions:
REMARK  status: ('A' for Active; 'I' for Inactive)
ROOT
ATOM      1  C1  DEN d   1       4.941  -2.257   3.614  0.00  0.00     0.130 A 
ATOM      2  C2  DEN d   1       5.397  -1.981   2.254  0.00  0.00    -0.031 A 
ATOM      3  C3  DEN d   1       4.245  -1.476   1.480  0.00  0.00     0.027 A 
ATOM      4  C4  DEN d   1       1.814  -1.092   2.253  0.00  0.00     0.027 A 
ATOM      5  C5  DEN d   1       0.945  -1.192   3.317  0.00  0.00    -0.003 A 
ATOM      6  C6  DEN d   1       1.336  -1.683   4.535  0.00  0.00     0.001 A 
ATOM      7  C7  DEN d   1       2.641  -2.049   4.732  0.00  0.00     0.017 A 
ATOM      8  C8  DEN d   1       3.521  -1.957   3.662  0.00  0.00    -0.094 A 
ATOM      9  C9  DEN d   1       3.110  -1.447   2.442  0.00  0.00    -0.072 A 
ENDROOT
TORSDOF 0
ENDMDL
