MODEL 1
REMARK minimizedAffinity 12.4051628
REMARK minimizedRMSD -1
REMARK  0 active torsions:
REMARK  status: ('A' for Active; 'I' for Inactive)
ROOT
ATOM      1  C1  DEN d   1       5.738  -5.474  -4.574  0.00  0.00     0.130 A 
ATOM      2  C2  DEN d   1       5.367  -5.759  -5.958  0.00  0.00    -0.031 A 
ATOM      3  C3  DEN d   1       3.910  -6.000  -5.999  0.00  0.00     0.027 A 
ATOM      4  C4  DEN d   1       2.202  -5.953  -4.067  0.00  0.00     0.027 A 
ATOM      5  C5  DEN d   1       2.046  -5.769  -2.711  0.00  0.00    -0.003 A 
ATOM      6  C6  DEN d   1       3.105  -5.509  -1.883  0.00  0.00     0.001 A 
ATOM      7  C7  DEN d   1       4.363  -5.381  -2.410  0.00  0.00     0.017 A 
ATOM      8  C8  DEN d   1       4.530  -5.574  -3.775  0.00  0.00    -0.094 A 
ATOM      9  C9  DEN d   1       3.445  -5.823  -4.597  0.00  0.00    -0.072 A 
ENDROOT
TORSDOF 0
ENDMDL
