MODEL 1
REMARK minimizedAffinity -3.78355861
REMARK minimizedRMSD -1
REMARK  0 active torsions:
REMARK  status: ('A' for Active; 'I' for Inactive)
ROOT
ATOM      1  C1  DEN d   1      -5.417  -4.317  -2.072  0.00  0.00     0.130 A 
ATOM      2  C2  DEN d   1      -4.473  -5.182  -1.370  0.00  0.00    -0.031 A 
ATOM      3  C3  DEN d   1      -3.764  -5.997  -2.377  0.00  0.00     0.027 A 
ATOM      4  C4  DEN d   1      -4.031  -6.000  -4.942  0.00  0.00     0.027 A 
ATOM      5  C5  DEN d   1      -4.717  -5.445  -6.000  0.00  0.00    -0.003 A 
ATOM      6  C6  DEN d   1      -5.700  -4.508  -5.822  0.00  0.00     0.001 A 
ATOM      7  C7  DEN d   1      -5.994  -4.064  -4.560  0.00  0.00     0.017 A 
ATOM      8  C8  DEN d   1      -5.311  -4.624  -3.488  0.00  0.00    -0.094 A 
ATOM      9  C9  DEN d   1      -4.313  -5.561  -3.689  0.00  0.00    -0.072 A 
ENDROOT
TORSDOF 0
ENDMDL
