MODEL 1
REMARK minimizedAffinity 4.64541149
REMARK minimizedRMSD -1
REMARK  1 active torsions:
REMARK  status: ('A' for Active; 'I' for Inactive)
REMARK    1  A    between atoms: C1_2  and  C2_3 
ROOT
ATOM      1  C2  UNL d   1      -1.279   1.244   0.726  0.00  0.00    -0.081 A 
ATOM      2  C3  UNL d   1      -0.736   0.110   1.343  0.00  0.00     0.006 A 
ATOM      3  C4  UNL d   1      -0.844  -1.145   0.740  0.00  0.00     0.002 A 
ATOM      4  C5  UNL d   1      -1.491  -1.287  -0.493  0.00  0.00    -0.080 A 
ATOM      5  C6  UNL d   1      -1.588  -2.624  -1.166  0.00  0.00     0.076 C 
ATOM      6  C7  UNL d   1      -2.049  -0.157  -1.101  0.00  0.00     0.002 A 
ATOM      7  C8  UNL d   1      -1.941   1.098  -0.498  0.00  0.00     0.006 A 
ENDROOT
BRANCH   1   8
ATOM      8  C1  UNL d   1      -1.107   2.608   1.343  0.00  0.00     0.054 C 
ATOM      9  C   UNL d   1      -0.558   2.510   2.759  0.00  0.00     0.018 C 
ENDBRANCH   1   8
TORSDOF 1
ENDMDL
