MODEL 1
REMARK minimizedAffinity -0.859433055
REMARK minimizedRMSD -1
REMARK  1 active torsions:
REMARK  status: ('A' for Active; 'I' for Inactive)
REMARK    1  A    between atoms: C1_2  and  C2_3 
ROOT
ATOM      1  C2  UNL d   1       0.074   0.545   0.448  0.00  0.00    -0.081 A 
ATOM      2  C3  UNL d   1       1.459   0.736   0.368  0.00  0.00     0.006 A 
ATOM      3  C4  UNL d   1       1.994   2.025   0.311  0.00  0.00     0.002 A 
ATOM      4  C5  UNL d   1       1.154   3.144   0.341  0.00  0.00    -0.080 A 
ATOM      5  C6  UNL d   1       1.717   4.534   0.312  0.00  0.00     0.076 C 
ATOM      6  C7  UNL d   1      -0.230   2.953   0.404  0.00  0.00     0.002 A 
ATOM      7  C8  UNL d   1      -0.766   1.664   0.460  0.00  0.00     0.006 A 
ENDROOT
BRANCH   1   8
ATOM      8  C1  UNL d   1      -0.502  -0.842   0.575  0.00  0.00     0.054 C 
ATOM      9  C   UNL d   1       0.283  -1.678   1.576  0.00  0.00     0.018 C 
ENDBRANCH   1   8
TORSDOF 1
ENDMDL
