MODEL 1
REMARK minimizedAffinity -3.20722556
REMARK minimizedRMSD -1
REMARK  1 active torsions:
REMARK  status: ('A' for Active; 'I' for Inactive)
REMARK    1  A    between atoms: C1_2  and  C2_3 
ROOT
ATOM      1  C2  UNL d   1      -0.045  -1.422   0.086  0.00  0.00    -0.081 A 
ATOM      2  C3  UNL d   1      -0.779  -0.229   0.076  0.00  0.00     0.006 A 
ATOM      3  C4  UNL d   1      -0.167   0.981   0.409  0.00  0.00     0.002 A 
ATOM      4  C5  UNL d   1       1.190   1.021   0.749  0.00  0.00    -0.080 A 
ATOM      5  C6  UNL d   1       1.866   2.319   1.078  0.00  0.00     0.076 C 
ATOM      6  C7  UNL d   1       1.919  -0.172   0.775  0.00  0.00     0.002 A 
ATOM      7  C8  UNL d   1       1.307  -1.383   0.444  0.00  0.00     0.006 A 
ENDROOT
BRANCH   1   8
ATOM      8  C1  UNL d   1      -0.686  -2.720  -0.335  0.00  0.00     0.054 C 
ATOM      9  C   UNL d   1      -0.022  -3.286  -1.581  0.00  0.00     0.018 C 
ENDBRANCH   1   8
TORSDOF 1
ENDMDL
