MODEL 1
REMARK minimizedAffinity -4.79239464
REMARK minimizedRMSD -1
REMARK  1 active torsions:
REMARK  status: ('A' for Active; 'I' for Inactive)
REMARK    1  A    between atoms: C1_2  and  C2_3 
ROOT
ATOM      1  C2  UNL d   1       0.609   0.891  -0.349  0.00  0.00    -0.081 A 
ATOM      2  C3  UNL d   1       1.960   1.095  -0.044  0.00  0.00     0.006 A 
ATOM      3  C4  UNL d   1       2.457   2.387   0.145  0.00  0.00     0.002 A 
ATOM      4  C5  UNL d   1       1.609   3.495   0.040  0.00  0.00    -0.080 A 
ATOM      5  C6  UNL d   1       2.123   4.886   0.270  0.00  0.00     0.076 C 
ATOM      6  C7  UNL d   1       0.263   3.293  -0.282  0.00  0.00     0.002 A 
ATOM      7  C8  UNL d   1      -0.234   2.002  -0.472  0.00  0.00     0.006 A 
ENDROOT
BRANCH   1   8
ATOM      8  C1  UNL d   1       0.057  -0.504  -0.490  0.00  0.00     0.054 C 
ATOM      9  C   UNL d   1      -1.024  -0.779   0.547  0.00  0.00     0.018 C 
ENDBRANCH   1   8
TORSDOF 1
ENDMDL
