MODEL 1
REMARK minimizedAffinity 2.18804789
REMARK minimizedRMSD -1
REMARK  1 active torsions:
REMARK  status: ('A' for Active; 'I' for Inactive)
REMARK    1  A    between atoms: C1_2  and  C2_3 
ROOT
ATOM      1  C2  UNL d   1       0.691  -1.524  -1.098  0.00  0.00    -0.081 A 
ATOM      2  C3  UNL d   1       0.376  -2.534  -2.015  0.00  0.00     0.006 A 
ATOM      3  C4  UNL d   1      -0.863  -3.178  -1.961  0.00  0.00     0.002 A 
ATOM      4  C5  UNL d   1      -1.809  -2.818  -0.995  0.00  0.00    -0.080 A 
ATOM      5  C6  UNL d   1      -3.153  -3.481  -0.945  0.00  0.00     0.076 C 
ATOM      6  C7  UNL d   1      -1.487  -1.821  -0.068  0.00  0.00     0.002 A 
ATOM      7  C8  UNL d   1      -0.249  -1.177  -0.122  0.00  0.00     0.006 A 
ENDROOT
BRANCH   1   8
ATOM      8  C1  UNL d   1       2.000  -0.783  -1.195  0.00  0.00     0.054 C 
ATOM      9  C   UNL d   1       2.570  -0.485   0.185  0.00  0.00     0.018 C 
ENDBRANCH   1   8
TORSDOF 1
ENDMDL
