MODEL 1
REMARK minimizedAffinity -3.2791307
REMARK minimizedRMSD -1
REMARK  1 active torsions:
REMARK  status: ('A' for Active; 'I' for Inactive)
REMARK    1  A    between atoms: C1_2  and  C2_3 
ROOT
ATOM      1  C2  UNL d   1       0.320   0.254   0.656  0.00  0.00    -0.081 A 
ATOM      2  C3  UNL d   1      -0.704   1.209   0.682  0.00  0.00     0.006 A 
ATOM      3  C4  UNL d   1      -0.400   2.572   0.713  0.00  0.00     0.002 A 
ATOM      4  C5  UNL d   1       0.930   3.003   0.710  0.00  0.00    -0.080 A 
ATOM      5  C6  UNL d   1       1.269   4.464   0.712  0.00  0.00     0.076 C 
ATOM      6  C7  UNL d   1       1.954   2.049   0.702  0.00  0.00     0.002 A 
ATOM      7  C8  UNL d   1       1.651   0.686   0.672  0.00  0.00     0.006 A 
ENDROOT
BRANCH   1   8
ATOM      8  C1  UNL d   1      -0.004  -1.215   0.557  0.00  0.00     0.054 C 
ATOM      9  C   UNL d   1      -0.029  -1.680  -0.892  0.00  0.00     0.018 C 
ENDBRANCH   1   8
TORSDOF 1
ENDMDL
