MODEL 1
REMARK minimizedAffinity -3.272995
REMARK minimizedRMSD -1
REMARK  1 active torsions:
REMARK  status: ('A' for Active; 'I' for Inactive)
REMARK    1  A    between atoms: C1_2  and  C2_3 
ROOT
ATOM      1  C2  UNL d   1      -0.679  -2.130  -0.086  0.00  0.00    -0.081 A 
ATOM      2  C3  UNL d   1      -1.232  -1.590   1.081  0.00  0.00     0.006 A 
ATOM      3  C4  UNL d   1      -1.040  -0.243   1.398  0.00  0.00     0.002 A 
ATOM      4  C5  UNL d   1      -0.300   0.588   0.549  0.00  0.00    -0.080 A 
ATOM      5  C6  UNL d   1      -0.113   2.042   0.862  0.00  0.00     0.076 C 
ATOM      6  C7  UNL d   1       0.267   0.044  -0.608  0.00  0.00     0.002 A 
ATOM      7  C8  UNL d   1       0.076  -1.303  -0.925  0.00  0.00     0.006 A 
ENDROOT
BRANCH   1   8
ATOM      8  C1  UNL d   1      -0.938  -3.566  -0.463  0.00  0.00     0.054 C 
ATOM      9  C   UNL d   1      -0.944  -3.749  -1.974  0.00  0.00     0.018 C 
ENDBRANCH   1   8
TORSDOF 1
ENDMDL
