MODEL 1
REMARK minimizedAffinity 1.62403703
REMARK minimizedRMSD -1
REMARK  1 active torsions:
REMARK  status: ('A' for Active; 'I' for Inactive)
REMARK    1  A    between atoms: C1_2  and  C2_3 
ROOT
ATOM      1  C2  UNL d   1      -0.183   1.543   0.756  0.00  0.00    -0.081 A 
ATOM      2  C3  UNL d   1       0.943   0.762   0.466  0.00  0.00     0.006 A 
ATOM      3  C4  UNL d   1       0.812  -0.607   0.223  0.00  0.00     0.002 A 
ATOM      4  C5  UNL d   1      -0.446  -1.217   0.257  0.00  0.00    -0.080 A 
ATOM      5  C6  UNL d   1      -0.604  -2.680  -0.032  0.00  0.00     0.076 C 
ATOM      6  C7  UNL d   1      -1.569  -0.441   0.564  0.00  0.00     0.002 A 
ATOM      7  C8  UNL d   1      -1.439   0.928   0.809  0.00  0.00     0.006 A 
ENDROOT
BRANCH   1   8
ATOM      8  C1  UNL d   1      -0.053   3.031   0.955  0.00  0.00     0.054 C 
ATOM      9  C   UNL d   1       1.147   3.370   1.828  0.00  0.00     0.018 C 
ENDBRANCH   1   8
TORSDOF 1
ENDMDL
