MODEL 1
REMARK minimizedAffinity -5.64507008
REMARK minimizedRMSD -1
REMARK  1 active torsions:
REMARK  status: ('A' for Active; 'I' for Inactive)
REMARK    1  A    between atoms: C1_2  and  C2_3 
ROOT
ATOM      1  C2  UNL d   1       0.633  -0.436   0.245  0.00  0.00    -0.081 A 
ATOM      2  C3  UNL d   1      -0.610   0.202   0.330  0.00  0.00     0.006 A 
ATOM      3  C4  UNL d   1      -0.696   1.596   0.285  0.00  0.00     0.002 A 
ATOM      4  C5  UNL d   1       0.458   2.374   0.147  0.00  0.00    -0.080 A 
ATOM      5  C6  UNL d   1       0.378   3.869   0.067  0.00  0.00     0.076 C 
ATOM      6  C7  UNL d   1       1.703   1.737   0.079  0.00  0.00     0.002 A 
ATOM      7  C8  UNL d   1       1.789   0.344   0.125  0.00  0.00     0.006 A 
ENDROOT
BRANCH   1   8
ATOM      8  C1  UNL d   1       0.723  -1.940   0.228  0.00  0.00     0.054 C 
ATOM      9  C   UNL d   1      -0.192  -2.537  -0.831  0.00  0.00     0.018 C 
ENDBRANCH   1   8
TORSDOF 1
ENDMDL
