MODEL 1
REMARK minimizedAffinity 22.2005577
REMARK minimizedRMSD -1
REMARK  0 active torsions:
REMARK  status: ('A' for Active; 'I' for Inactive)
ROOT
ATOM      1  C   UNL d   1      -0.325   0.253   0.880  0.00  0.00     0.124 A 
ATOM      2  C1  UNL d   1      -1.043   1.383   1.247  0.00  0.00     0.062 A 
ATOM      3  C2  UNL d   1      -0.460   2.346   2.065  0.00  0.00     0.162 A 
ATOM      4  C3  UNL d   1       0.848   2.185   2.522  0.00  0.00    -0.034 A 
ATOM      5  C4  UNL d   1       1.563   1.045   2.149  0.00  0.00     0.162 A 
ATOM      6  C5  UNL d   1       0.976   0.085   1.331  0.00  0.00     0.062 A 
ATOM      7  F   UNL d   1       1.670  -1.007   0.978  0.00  0.00    -0.097 F 
ATOM      8  F1  UNL d   1       2.822   0.858   2.570  0.00  0.00    -0.096 F 
ATOM      9  I   UNL d   1       1.723   3.623   3.746  0.00  0.00    -0.060 I 
ATOM     10  F2  UNL d   1      -1.177   3.429   2.404  0.00  0.00    -0.096 F 
ATOM     11  F3  UNL d   1      -2.301   1.547   0.813  0.00  0.00    -0.097 F 
ATOM     12  F4  UNL d   1      -0.889  -0.673   0.094  0.00  0.00    -0.092 F 
ENDROOT
TORSDOF 0
ENDMDL
