MODEL 1
REMARK minimizedAffinity 5.79192305
REMARK minimizedRMSD -1
REMARK  0 active torsions:
REMARK  status: ('A' for Active; 'I' for Inactive)
ROOT
ATOM      1  C   UNL d   1      -4.822   4.351  -2.475  0.00  0.00     0.124 A 
ATOM      2  C1  UNL d   1      -5.160   4.708  -3.773  0.00  0.00     0.062 A 
ATOM      3  C2  UNL d   1      -5.494   3.728  -4.703  0.00  0.00     0.162 A 
ATOM      4  C3  UNL d   1      -5.494   2.381  -4.339  0.00  0.00    -0.034 A 
ATOM      5  C4  UNL d   1      -5.152   2.031  -3.032  0.00  0.00     0.162 A 
ATOM      6  C5  UNL d   1      -4.818   3.013  -2.105  0.00  0.00     0.062 A 
ATOM      7  F   UNL d   1      -4.492   2.667  -0.852  0.00  0.00    -0.097 F 
ATOM      8  F1  UNL d   1      -5.141   0.745  -2.647  0.00  0.00    -0.096 F 
ATOM      9  I   UNL d   1      -5.993   0.913  -5.727  0.00  0.00    -0.060 I 
ATOM     10  F2  UNL d   1      -5.817   4.101  -5.951  0.00  0.00    -0.096 F 
ATOM     11  F3  UNL d   1      -5.164   5.999  -4.133  0.00  0.00    -0.097 F 
ATOM     12  F4  UNL d   1      -4.500   5.296  -1.582  0.00  0.00    -0.092 F 
ENDROOT
TORSDOF 0
ENDMDL
