MODEL 1
REMARK minimizedAffinity 9.40758514
REMARK minimizedRMSD -1
REMARK  0 active torsions:
REMARK  status: ('A' for Active; 'I' for Inactive)
ROOT
ATOM      1  C   UNL d   1      -0.340  -1.193  -0.081  0.00  0.00     0.124 A 
ATOM      2  C1  UNL d   1       0.939  -1.131   0.454  0.00  0.00     0.062 A 
ATOM      3  C2  UNL d   1       1.375   0.026   1.094  0.00  0.00     0.162 A 
ATOM      4  C3  UNL d   1       0.531   1.131   1.204  0.00  0.00    -0.034 A 
ATOM      5  C4  UNL d   1      -0.754   1.061   0.663  0.00  0.00     0.162 A 
ATOM      6  C5  UNL d   1      -1.185  -0.097   0.024  0.00  0.00     0.062 A 
ATOM      7  F   UNL d   1      -2.422  -0.155  -0.492  0.00  0.00    -0.097 F 
ATOM      8  F1  UNL d   1      -1.592   2.105   0.750  0.00  0.00    -0.096 F 
ATOM      9  I   UNL d   1       1.179   2.862   2.160  0.00  0.00    -0.060 I 
ATOM     10  F2  UNL d   1       2.617   0.058   1.602  0.00  0.00    -0.096 F 
ATOM     11  F3  UNL d   1       1.758  -2.188   0.354  0.00  0.00    -0.097 F 
ATOM     12  F4  UNL d   1      -0.757  -2.306  -0.697  0.00  0.00    -0.092 F 
ENDROOT
TORSDOF 0
ENDMDL
