MODEL 1
REMARK minimizedAffinity 9.92366695
REMARK minimizedRMSD -1
REMARK  0 active torsions:
REMARK  status: ('A' for Active; 'I' for Inactive)
ROOT
ATOM      1  C   UNL d   1      -1.319  -2.234  -2.374  0.00  0.00     0.124 A 
ATOM      2  C1  UNL d   1      -0.980  -3.035  -1.292  0.00  0.00     0.062 A 
ATOM      3  C2  UNL d   1      -0.440  -2.467  -0.142  0.00  0.00     0.162 A 
ATOM      4  C3  UNL d   1      -0.237  -1.089  -0.067  0.00  0.00    -0.034 A 
ATOM      5  C4  UNL d   1      -0.580  -0.289  -1.158  0.00  0.00     0.162 A 
ATOM      6  C5  UNL d   1      -1.119  -0.862  -2.306  0.00  0.00     0.062 A 
ATOM      7  F   UNL d   1      -1.447  -0.086  -3.349  0.00  0.00    -0.097 F 
ATOM      8  F1  UNL d   1      -0.398   1.039  -1.119  0.00  0.00    -0.096 F 
ATOM      9  I   UNL d   1       0.570  -0.235   1.652  0.00  0.00    -0.060 I 
ATOM     10  F2  UNL d   1      -0.121  -3.265   0.887  0.00  0.00    -0.096 F 
ATOM     11  F3  UNL d   1      -1.171  -4.361  -1.356  0.00  0.00    -0.097 F 
ATOM     12  F4  UNL d   1      -1.838  -2.783  -3.479  0.00  0.00    -0.092 F 
ENDROOT
TORSDOF 0
ENDMDL
