MODEL 1
REMARK minimizedAffinity 10.7044649
REMARK minimizedRMSD -1
REMARK  0 active torsions:
REMARK  status: ('A' for Active; 'I' for Inactive)
ROOT
ATOM      1  C   UNL d   1       0.227  -1.223   1.173  0.00  0.00     0.124 A 
ATOM      2  C1  UNL d   1       0.545  -0.213   0.277  0.00  0.00     0.062 A 
ATOM      3  C2  UNL d   1      -0.287   0.049  -0.807  0.00  0.00     0.162 A 
ATOM      4  C3  UNL d   1      -1.447  -0.701  -1.001  0.00  0.00    -0.034 A 
ATOM      5  C4  UNL d   1      -1.760  -1.717  -0.096  0.00  0.00     0.162 A 
ATOM      6  C5  UNL d   1      -0.925  -1.974   0.986  0.00  0.00     0.062 A 
ATOM      7  F   UNL d   1      -1.234  -2.951   1.851  0.00  0.00    -0.097 F 
ATOM      8  F1  UNL d   1      -2.868  -2.457  -0.252  0.00  0.00    -0.096 F 
ATOM      9  I   UNL d   1      -2.695  -0.313  -2.621  0.00  0.00    -0.060 I 
ATOM     10  F2  UNL d   1       0.045   1.032  -1.658  0.00  0.00    -0.096 F 
ATOM     11  F3  UNL d   1       1.658   0.514   0.455  0.00  0.00    -0.097 F 
ATOM     12  F4  UNL d   1       1.030  -1.474   2.215  0.00  0.00    -0.092 F 
ENDROOT
TORSDOF 0
ENDMDL
