MODEL 1
REMARK minimizedAffinity 15.4089088
REMARK minimizedRMSD -1
REMARK  0 active torsions:
REMARK  status: ('A' for Active; 'I' for Inactive)
ROOT
ATOM      1  C   UNL d   1      -1.646  -3.691  -1.772  0.00  0.00     0.124 A 
ATOM      2  C1  UNL d   1      -2.371  -2.586  -2.193  0.00  0.00     0.062 A 
ATOM      3  C2  UNL d   1      -2.108  -1.329  -1.655  0.00  0.00     0.162 A 
ATOM      4  C3  UNL d   1      -1.115  -1.172  -0.689  0.00  0.00    -0.034 A 
ATOM      5  C4  UNL d   1      -0.390  -2.289  -0.269  0.00  0.00     0.162 A 
ATOM      6  C5  UNL d   1      -0.656  -3.542  -0.810  0.00  0.00     0.062 A 
ATOM      7  F   UNL d   1       0.045  -4.609  -0.402  0.00  0.00    -0.097 F 
ATOM      8  F1  UNL d   1       0.572  -2.173   0.658  0.00  0.00    -0.096 F 
ATOM      9  I   UNL d   1      -0.719   0.705   0.119  0.00  0.00    -0.060 I 
ATOM     10  F2  UNL d   1      -2.825  -0.278  -2.081  0.00  0.00    -0.096 F 
ATOM     11  F3  UNL d   1      -3.328  -2.727  -3.122  0.00  0.00    -0.097 F 
ATOM     12  F4  UNL d   1      -1.901  -4.899  -2.291  0.00  0.00    -0.092 F 
ENDROOT
TORSDOF 0
ENDMDL
