MODEL 1
REMARK minimizedAffinity 9.82484436
REMARK minimizedRMSD -1
REMARK  0 active torsions:
REMARK  status: ('A' for Active; 'I' for Inactive)
ROOT
ATOM      1  C   UNL d   1       1.249   0.165   0.781  0.00  0.00     0.124 A 
ATOM      2  C1  UNL d   1       0.848  -0.143  -0.512  0.00  0.00     0.062 A 
ATOM      3  C2  UNL d   1      -0.437   0.175  -0.941  0.00  0.00     0.162 A 
ATOM      4  C3  UNL d   1      -1.331   0.806  -0.077  0.00  0.00    -0.034 A 
ATOM      5  C4  UNL d   1      -0.921   1.112   1.222  0.00  0.00     0.162 A 
ATOM      6  C5  UNL d   1       0.364   0.792   1.646  0.00  0.00     0.062 A 
ATOM      7  F   UNL d   1       0.750   1.091   2.895  0.00  0.00    -0.097 F 
ATOM      8  F1  UNL d   1      -1.756   1.719   2.079  0.00  0.00    -0.096 F 
ATOM      9  I   UNL d   1      -3.254   1.284  -0.715  0.00  0.00    -0.060 I 
ATOM     10  F2  UNL d   1      -0.797  -0.135  -2.196  0.00  0.00    -0.096 F 
ATOM     11  F3  UNL d   1       1.701  -0.750  -1.350  0.00  0.00    -0.097 F 
ATOM     12  F4  UNL d   1       2.486  -0.144   1.191  0.00  0.00    -0.092 F 
ENDROOT
TORSDOF 0
ENDMDL
