MODEL 1
REMARK minimizedAffinity 15.611784
REMARK minimizedRMSD -1
REMARK  0 active torsions:
REMARK  status: ('A' for Active; 'I' for Inactive)
ROOT
ATOM      1  C   UNL d   1      -4.599   2.384  -2.533  0.00  0.00     0.124 A 
ATOM      2  C1  UNL d   1      -4.430   3.719  -2.195  0.00  0.00     0.062 A 
ATOM      3  C2  UNL d   1      -4.659   4.715  -3.140  0.00  0.00     0.162 A 
ATOM      4  C3  UNL d   1      -5.060   4.380  -4.433  0.00  0.00    -0.034 A 
ATOM      5  C4  UNL d   1      -5.227   3.034  -4.766  0.00  0.00     0.162 A 
ATOM      6  C5  UNL d   1      -4.997   2.043  -3.818  0.00  0.00     0.062 A 
ATOM      7  F   UNL d   1      -5.161   0.753  -4.147  0.00  0.00    -0.097 F 
ATOM      8  F1  UNL d   1      -5.612   2.676  -6.000  0.00  0.00    -0.096 F 
ATOM      9  I   UNL d   1      -5.403   5.866  -5.849  0.00  0.00    -0.060 I 
ATOM     10  F2  UNL d   1      -4.488   5.998  -2.785  0.00  0.00    -0.096 F 
ATOM     11  F3  UNL d   1      -4.044   4.052  -0.954  0.00  0.00    -0.097 F 
ATOM     12  F4  UNL d   1      -4.377   1.428  -1.622  0.00  0.00    -0.092 F 
ENDROOT
TORSDOF 0
ENDMDL
