MODEL 1
REMARK minimizedAffinity 6.20065117
REMARK minimizedRMSD -1
REMARK  0 active torsions:
REMARK  status: ('A' for Active; 'I' for Inactive)
ROOT
ATOM      1  C   UNL d   1      -0.715  -0.588  -0.469  0.00  0.00     0.124 A 
ATOM      2  C1  UNL d   1       0.333   0.257  -0.133  0.00  0.00     0.062 A 
ATOM      3  C2  UNL d   1       0.989   0.109   1.086  0.00  0.00     0.162 A 
ATOM      4  C3  UNL d   1       0.598  -0.889   1.979  0.00  0.00    -0.034 A 
ATOM      5  C4  UNL d   1      -0.458  -1.734   1.635  0.00  0.00     0.162 A 
ATOM      6  C5  UNL d   1      -1.110  -1.583   0.415  0.00  0.00     0.062 A 
ATOM      7  F   UNL d   1      -2.123  -2.400   0.092  0.00  0.00    -0.097 F 
ATOM      8  F1  UNL d   1      -0.860  -2.705   2.469  0.00  0.00    -0.096 F 
ATOM      9  I   UNL d   1       1.575  -1.113   3.803  0.00  0.00    -0.060 I 
ATOM     10  F2  UNL d   1       1.998   0.940   1.385  0.00  0.00    -0.096 F 
ATOM     11  F3  UNL d   1       0.716   1.219  -0.984  0.00  0.00    -0.097 F 
ATOM     12  F4  UNL d   1      -1.344  -0.443  -1.642  0.00  0.00    -0.092 F 
ENDROOT
TORSDOF 0
ENDMDL
