MODEL 1
REMARK minimizedAffinity -5.35135508
REMARK minimizedRMSD -1
REMARK  0 active torsions:
REMARK  status: ('A' for Active; 'I' for Inactive)
ROOT
ATOM      1  O1  BZF d   1       0.427  -0.669   0.253  0.00  0.00    -0.204 OA
ATOM      2  C2  BZF d   1       0.476   0.369  -0.657  0.00  0.00     0.174 A 
ATOM      3  C3  BZF d   1      -0.737   0.584  -1.204  0.00  0.00    -0.012 A 
ATOM      4  C3A BZF d   1      -1.619  -0.320  -0.531  0.00  0.00    -0.107 A 
ATOM      5  C4  BZF d   1      -2.958  -0.569  -0.623  0.00  0.00     0.055 A 
ATOM      6  C5  BZF d   1      -3.498  -1.567   0.124  0.00  0.00    -0.016 A 
ATOM      7  C6  BZF d   1      -2.727  -2.339   0.969  0.00  0.00     0.022 A 
ATOM      8  C7  BZF d   1      -1.395  -2.127   1.098  0.00  0.00     0.029 A 
ATOM      9  C7A BZF d   1      -0.853  -1.097   0.369  0.00  0.00     0.058 A 
ENDROOT
TORSDOF 0
ENDMDL
