MODEL 1
REMARK minimizedAffinity -4.55654573
REMARK minimizedRMSD -1
REMARK  0 active torsions:
REMARK  status: ('A' for Active; 'I' for Inactive)
ROOT
ATOM      1  O1  BZF d   1       0.283  -1.042   1.289  0.00  0.00    -0.204 OA
ATOM      2  C2  BZF d   1       1.347  -0.337   0.762  0.00  0.00     0.174 A 
ATOM      3  C3  BZF d   1       0.998   0.266  -0.393  0.00  0.00    -0.012 A 
ATOM      4  C3A BZF d   1      -0.397  -0.010  -0.553  0.00  0.00    -0.107 A 
ATOM      5  C4  BZF d   1      -1.319   0.333  -1.501  0.00  0.00     0.055 A 
ATOM      6  C5  BZF d   1      -2.582  -0.158  -1.402  0.00  0.00    -0.016 A 
ATOM      7  C6  BZF d   1      -2.956  -0.998  -0.374  0.00  0.00     0.022 A 
ATOM      8  C7  BZF d   1      -2.078  -1.362   0.593  0.00  0.00     0.029 A 
ATOM      9  C7A BZF d   1      -0.810  -0.840   0.514  0.00  0.00     0.058 A 
ENDROOT
TORSDOF 0
ENDMDL
