MODEL 1
REMARK minimizedAffinity -6.24655104
REMARK minimizedRMSD -1
REMARK  0 active torsions:
REMARK  status: ('A' for Active; 'I' for Inactive)
ROOT
ATOM      1  O1  BZF d   1       0.573  -0.641   0.403  0.00  0.00    -0.204 OA
ATOM      2  C2  BZF d   1       0.665   0.273  -0.629  0.00  0.00     0.174 A 
ATOM      3  C3  BZF d   1      -0.505   0.363  -1.295  0.00  0.00    -0.012 A 
ATOM      4  C3A BZF d   1      -1.410  -0.484  -0.580  0.00  0.00    -0.107 A 
ATOM      5  C4  BZF d   1      -2.728  -0.800  -0.745  0.00  0.00     0.055 A 
ATOM      6  C5  BZF d   1      -3.296  -1.717   0.082  0.00  0.00    -0.016 A 
ATOM      7  C6  BZF d   1      -2.575  -2.340   1.080  0.00  0.00     0.022 A 
ATOM      8  C7  BZF d   1      -1.266  -2.055   1.285  0.00  0.00     0.029 A 
ATOM      9  C7A BZF d   1      -0.698  -1.105   0.472  0.00  0.00     0.058 A 
ENDROOT
TORSDOF 0
ENDMDL
