MODEL 1
REMARK minimizedAffinity -2.73546338
REMARK minimizedRMSD -1
REMARK  0 active torsions:
REMARK  status: ('A' for Active; 'I' for Inactive)
ROOT
ATOM      1  O1  BZF d   1      -2.707  -0.385  -1.210  0.00  0.00    -0.204 OA
ATOM      2  C2  BZF d   1      -3.594  -0.873  -0.270  0.00  0.00     0.174 A 
ATOM      3  C3  BZF d   1      -2.969  -1.103   0.902  0.00  0.00    -0.012 A 
ATOM      4  C3A BZF d   1      -1.627  -0.649   0.709  0.00  0.00    -0.107 A 
ATOM      5  C4  BZF d   1      -0.527  -0.598   1.518  0.00  0.00     0.055 A 
ATOM      6  C5  BZF d   1       0.653  -0.165   1.001  0.00  0.00    -0.016 A 
ATOM      7  C6  BZF d   1       0.770   0.220  -0.318  0.00  0.00     0.022 A 
ATOM      8  C7  BZF d   1      -0.294   0.192  -1.157  0.00  0.00     0.029 A 
ATOM      9  C7A BZF d   1      -1.495  -0.214  -0.630  0.00  0.00     0.058 A 
ENDROOT
TORSDOF 0
ENDMDL
