MODEL 1
REMARK minimizedAffinity -5.30134392
REMARK minimizedRMSD -1
REMARK  0 active torsions:
REMARK  status: ('A' for Active; 'I' for Inactive)
ROOT
ATOM      1  O1  BZF d   1       0.719  -0.776   0.788  0.00  0.00    -0.204 OA
ATOM      2  C2  BZF d   1       1.204   0.171  -0.093  0.00  0.00     0.174 A 
ATOM      3  C3  BZF d   1       0.244   0.553  -0.960  0.00  0.00    -0.012 A 
ATOM      4  C3A BZF d   1      -0.938  -0.134  -0.541  0.00  0.00    -0.107 A 
ATOM      5  C4  BZF d   1      -2.225  -0.153  -0.997  0.00  0.00     0.055 A 
ATOM      6  C5  BZF d   1      -3.122  -0.988  -0.409  0.00  0.00    -0.016 A 
ATOM      7  C6  BZF d   1      -2.766  -1.820   0.632  0.00  0.00     0.022 A 
ATOM      8  C7  BZF d   1      -1.502  -1.833   1.122  0.00  0.00     0.029 A 
ATOM      9  C7A BZF d   1      -0.602  -0.967   0.552  0.00  0.00     0.058 A 
ENDROOT
TORSDOF 0
ENDMDL
