MODEL 1
REMARK minimizedAffinity -4.003335
REMARK minimizedRMSD -1
REMARK  0 active torsions:
REMARK  status: ('A' for Active; 'I' for Inactive)
ROOT
ATOM      1  O1  BZF d   1       1.232   3.726   0.830  0.00  0.00    -0.204 OA
ATOM      2  C2  BZF d   1       2.488   3.559   1.380  0.00  0.00     0.174 A 
ATOM      3  C3  BZF d   1       2.884   2.273   1.289  0.00  0.00    -0.012 A 
ATOM      4  C3A BZF d   1       1.847   1.611   0.559  0.00  0.00    -0.107 A 
ATOM      5  C4  BZF d   1       1.671   0.325   0.136  0.00  0.00     0.055 A 
ATOM      6  C5  BZF d   1       0.512  -0.012  -0.490  0.00  0.00    -0.016 A 
ATOM      7  C6  BZF d   1      -0.491   0.910  -0.705  0.00  0.00     0.022 A 
ATOM      8  C7  BZF d   1      -0.361   2.199  -0.307  0.00  0.00     0.029 A 
ATOM      9  C7A BZF d   1       0.822   2.550   0.296  0.00  0.00     0.058 A 
ENDROOT
TORSDOF 0
ENDMDL
