MODEL 1
REMARK minimizedAffinity -5.43307829
REMARK minimizedRMSD -1
REMARK  0 active torsions:
REMARK  status: ('A' for Active; 'I' for Inactive)
ROOT
ATOM      1  O1  BZF d   1       0.764  -0.836   0.553  0.00  0.00    -0.204 OA
ATOM      2  C2  BZF d   1       0.865   0.122  -0.437  0.00  0.00     0.174 A 
ATOM      3  C3  BZF d   1      -0.288   0.217  -1.131  0.00  0.00    -0.012 A 
ATOM      4  C3A BZF d   1      -1.194  -0.678  -0.478  0.00  0.00    -0.107 A 
ATOM      5  C4  BZF d   1      -2.501  -1.013  -0.693  0.00  0.00     0.055 A 
ATOM      6  C5  BZF d   1      -3.071  -1.975   0.079  0.00  0.00    -0.016 A 
ATOM      7  C6  BZF d   1      -2.365  -2.625   1.069  0.00  0.00     0.022 A 
ATOM      8  C7  BZF d   1      -1.068  -2.323   1.323  0.00  0.00     0.029 A 
ATOM      9  C7A BZF d   1      -0.498  -1.328   0.567  0.00  0.00     0.058 A 
ENDROOT
TORSDOF 0
ENDMDL
