MODEL 1
REMARK minimizedAffinity -6.09136677
REMARK minimizedRMSD -1
REMARK  0 active torsions:
REMARK  status: ('A' for Active; 'I' for Inactive)
ROOT
ATOM      1  O1  BZF d   1       0.624  -1.066   0.601  0.00  0.00    -0.204 OA
ATOM      2  C2  BZF d   1       0.939  -0.099  -0.334  0.00  0.00     0.174 A 
ATOM      3  C3  BZF d   1      -0.162   0.290  -1.010  0.00  0.00    -0.012 A 
ATOM      4  C3A BZF d   1      -1.246  -0.416  -0.400  0.00  0.00    -0.107 A 
ATOM      5  C4  BZF d   1      -2.594  -0.438  -0.620  0.00  0.00     0.055 A 
ATOM      6  C5  BZF d   1      -3.367  -1.291   0.102  0.00  0.00    -0.016 A 
ATOM      7  C6  BZF d   1      -2.826  -2.139   1.046  0.00  0.00     0.022 A 
ATOM      8  C7  BZF d   1      -1.496  -2.149   1.304  0.00  0.00     0.029 A 
ATOM      9  C7A BZF d   1      -0.716  -1.264   0.599  0.00  0.00     0.058 A 
ENDROOT
TORSDOF 0
ENDMDL
