MODEL 1
REMARK minimizedAffinity -4.97378922
REMARK minimizedRMSD -1
REMARK  0 active torsions:
REMARK  status: ('A' for Active; 'I' for Inactive)
ROOT
ATOM      1  O1  BZF d   1       0.623  -0.436   0.663  0.00  0.00    -0.204 OA
ATOM      2  C2  BZF d   1       0.797   0.415  -0.411  0.00  0.00     0.174 A 
ATOM      3  C3  BZF d   1      -0.275   0.378  -1.229  0.00  0.00    -0.012 A 
ATOM      4  C3A BZF d   1      -1.214  -0.484  -0.579  0.00  0.00    -0.107 A 
ATOM      5  C4  BZF d   1      -2.476  -0.903  -0.892  0.00  0.00     0.055 A 
ATOM      6  C5  BZF d   1      -3.092  -1.804  -0.082  0.00  0.00    -0.016 A 
ATOM      7  C6  BZF d   1      -2.476  -2.309   1.044  0.00  0.00     0.022 A 
ATOM      8  C7  BZF d   1      -1.227  -1.919   1.397  0.00  0.00     0.029 A 
ATOM      9  C7A BZF d   1      -0.614  -0.984   0.599  0.00  0.00     0.058 A 
ENDROOT
TORSDOF 0
ENDMDL
