MODEL 1
REMARK minimizedAffinity -4.98581886
REMARK minimizedRMSD -1
REMARK  0 active torsions:
REMARK  status: ('A' for Active; 'I' for Inactive)
ROOT
ATOM      1  O1  BZF d   1       0.365  -0.718   0.721  0.00  0.00    -0.204 OA
ATOM      2  C2  BZF d   1       0.510   0.294  -0.208  0.00  0.00     0.174 A 
ATOM      3  C3  BZF d   1      -0.623   0.454  -0.922  0.00  0.00    -0.012 A 
ATOM      4  C3A BZF d   1      -1.563  -0.457  -0.345  0.00  0.00    -0.107 A 
ATOM      5  C4  BZF d   1      -2.870  -0.751  -0.610  0.00  0.00     0.055 A 
ATOM      6  C5  BZF d   1      -3.479  -1.743   0.090  0.00  0.00    -0.016 A 
ATOM      7  C6  BZF d   1      -2.811  -2.465   1.057  0.00  0.00     0.022 A 
ATOM      8  C7  BZF d   1      -1.515  -2.207   1.359  0.00  0.00     0.029 A 
ATOM      9  C7A BZF d   1      -0.906  -1.182   0.676  0.00  0.00     0.058 A 
ENDROOT
TORSDOF 0
ENDMDL
