MODEL 1
REMARK minimizedAffinity -2.8403089
REMARK minimizedRMSD -1
REMARK  0 active torsions:
REMARK  status: ('A' for Active; 'I' for Inactive)
ROOT
ATOM      1  O1  BZF d   1       1.027  -1.035   0.992  0.00  0.00    -0.204 OA
ATOM      2  C2  BZF d   1       1.201   0.181   0.359  0.00  0.00     0.174 A 
ATOM      3  C3  BZF d   1       0.040   0.613  -0.174  0.00  0.00    -0.012 A 
ATOM      4  C3A BZF d   1      -0.939  -0.351   0.225  0.00  0.00    -0.107 A 
ATOM      5  C4  BZF d   1      -2.284  -0.464   0.017  0.00  0.00     0.055 A 
ATOM      6  C5  BZF d   1      -2.934  -1.564   0.480  0.00  0.00    -0.016 A 
ATOM      7  C6  BZF d   1      -2.270  -2.571   1.150  0.00  0.00     0.022 A 
ATOM      8  C7  BZF d   1      -0.937  -2.501   1.384  0.00  0.00     0.029 A 
ATOM      9  C7A BZF d   1      -0.283  -1.375   0.946  0.00  0.00     0.058 A 
ENDROOT
TORSDOF 0
ENDMDL
