MODEL 1
REMARK minimizedAffinity -4.66145277
REMARK minimizedRMSD -1
REMARK  0 active torsions:
REMARK  status: ('A' for Active; 'I' for Inactive)
ROOT
ATOM      1  O1  BZF d   1       0.529  -0.653   0.815  0.00  0.00    -0.204 OA
ATOM      2  C2  BZF d   1       0.856   0.100  -0.297  0.00  0.00     0.174 A 
ATOM      3  C3  BZF d   1      -0.194   0.194  -1.137  0.00  0.00    -0.012 A 
ATOM      4  C3A BZF d   1      -1.272  -0.468  -0.468  0.00  0.00    -0.107 A 
ATOM      5  C4  BZF d   1      -2.580  -0.693  -0.789  0.00  0.00     0.055 A 
ATOM      6  C5  BZF d   1      -3.348  -1.437   0.050  0.00  0.00    -0.016 A 
ATOM      7  C6  BZF d   1      -2.839  -1.975   1.214  0.00  0.00     0.022 A 
ATOM      8  C7  BZF d   1      -1.549  -1.774   1.578  0.00  0.00     0.029 A 
ATOM      9  C7A BZF d   1      -0.780  -0.996   0.748  0.00  0.00     0.058 A 
ENDROOT
TORSDOF 0
ENDMDL
