MODEL 1
REMARK minimizedAffinity -3.92807961
REMARK minimizedRMSD -1
REMARK  0 active torsions:
REMARK  status: ('A' for Active; 'I' for Inactive)
ROOT
ATOM      1  O1  BZF d   1      -0.332   0.211  -0.530  0.00  0.00    -0.204 OA
ATOM      2  C2  BZF d   1      -1.066   0.550  -1.650  0.00  0.00     0.174 A 
ATOM      3  C3  BZF d   1      -2.190  -0.191  -1.727  0.00  0.00    -0.012 A 
ATOM      4  C3A BZF d   1      -2.203  -0.981  -0.534  0.00  0.00    -0.107 A 
ATOM      5  C4  BZF d   1      -3.074  -1.903  -0.028  0.00  0.00     0.055 A 
ATOM      6  C5  BZF d   1      -2.757  -2.547   1.126  0.00  0.00    -0.016 A 
ATOM      7  C6  BZF d   1      -1.578  -2.297   1.797  0.00  0.00     0.022 A 
ATOM      8  C7  BZF d   1      -0.686  -1.387   1.337  0.00  0.00     0.029 A 
ATOM      9  C7A BZF d   1      -1.018  -0.711   0.188  0.00  0.00     0.058 A 
ENDROOT
TORSDOF 0
ENDMDL
