MODEL 1
REMARK minimizedAffinity -5.51485109
REMARK minimizedRMSD -1
REMARK  0 active torsions:
REMARK  status: ('A' for Active; 'I' for Inactive)
ROOT
ATOM      1  O1  BZF d   1       0.729  -1.052   0.376  0.00  0.00    -0.204 OA
ATOM      2  C2  BZF d   1       1.031  -0.103  -0.582  0.00  0.00     0.174 A 
ATOM      3  C3  BZF d   1      -0.079   0.273  -1.249  0.00  0.00    -0.012 A 
ATOM      4  C3A BZF d   1      -1.155  -0.420  -0.609  0.00  0.00    -0.107 A 
ATOM      5  C4  BZF d   1      -2.506  -0.447  -0.810  0.00  0.00     0.055 A 
ATOM      6  C5  BZF d   1      -3.269  -1.285  -0.060  0.00  0.00    -0.016 A 
ATOM      7  C6  BZF d   1      -2.714  -2.114   0.893  0.00  0.00     0.022 A 
ATOM      8  C7  BZF d   1      -1.380  -2.120   1.131  0.00  0.00     0.029 A 
ATOM      9  C7A BZF d   1      -0.611  -1.249   0.398  0.00  0.00     0.058 A 
ENDROOT
TORSDOF 0
ENDMDL
