MODEL 1
REMARK minimizedAffinity -2.99031639
REMARK minimizedRMSD -1
REMARK  0 active torsions:
REMARK  status: ('A' for Active; 'I' for Inactive)
ROOT
ATOM      1  O1  BZF d   1       0.694  -0.853   0.893  0.00  0.00    -0.204 OA
ATOM      2  C2  BZF d   1       1.190   0.208   0.161  0.00  0.00     0.174 A 
ATOM      3  C3  BZF d   1       0.309   0.589  -0.787  0.00  0.00    -0.012 A 
ATOM      4  C3A BZF d   1      -0.846  -0.229  -0.577  0.00  0.00    -0.107 A 
ATOM      5  C4  BZF d   1      -2.062  -0.311  -1.192  0.00  0.00     0.055 A 
ATOM      6  C5  BZF d   1      -2.942  -1.267  -0.793  0.00  0.00    -0.016 A 
ATOM      7  C6  BZF d   1      -2.636  -2.160   0.213  0.00  0.00     0.022 A 
ATOM      8  C7  BZF d   1      -1.443  -2.115   0.856  0.00  0.00     0.029 A 
ATOM      9  C7A BZF d   1      -0.566  -1.128   0.477  0.00  0.00     0.058 A 
ENDROOT
TORSDOF 0
ENDMDL
