MODEL 1
REMARK minimizedAffinity -2.41749072
REMARK minimizedRMSD -1
REMARK  0 active torsions:
REMARK  status: ('A' for Active; 'I' for Inactive)
ROOT
ATOM      1  O1  BZF d   1       0.278  -0.760   1.375  0.00  0.00    -0.204 OA
ATOM      2  C2  BZF d   1       1.570  -0.354   1.106  0.00  0.00     0.174 A 
ATOM      3  C3  BZF d   1       1.671   0.117  -0.154  0.00  0.00    -0.012 A 
ATOM      4  C3A BZF d   1       0.340   0.083  -0.676  0.00  0.00    -0.107 A 
ATOM      5  C4  BZF d   1      -0.208   0.440  -1.875  0.00  0.00     0.055 A 
ATOM      6  C5  BZF d   1      -1.530   0.212  -2.091  0.00  0.00    -0.016 A 
ATOM      7  C6  BZF d   1      -2.332  -0.374  -1.134  0.00  0.00     0.022 A 
ATOM      8  C7  BZF d   1      -1.835  -0.741   0.072  0.00  0.00     0.029 A 
ATOM      9  C7A BZF d   1      -0.507  -0.482   0.306  0.00  0.00     0.058 A 
ENDROOT
TORSDOF 0
ENDMDL
