MODEL 1
REMARK minimizedAffinity -3.75726295
REMARK minimizedRMSD -1
REMARK  0 active torsions:
REMARK  status: ('A' for Active; 'I' for Inactive)
ROOT
ATOM      1  O1  BZF d   1       1.037  -0.864   0.992  0.00  0.00    -0.204 OA
ATOM      2  C2  BZF d   1       1.224   0.026  -0.047  0.00  0.00     0.174 A 
ATOM      3  C3  BZF d   1       0.107   0.132  -0.794  0.00  0.00    -0.012 A 
ATOM      4  C3A BZF d   1      -0.868  -0.677  -0.130  0.00  0.00    -0.107 A 
ATOM      5  C4  BZF d   1      -2.180  -0.963  -0.380  0.00  0.00     0.055 A 
ATOM      6  C5  BZF d   1      -2.828  -1.849   0.422  0.00  0.00    -0.016 A 
ATOM      7  C6  BZF d   1      -2.195  -2.469   1.478  0.00  0.00     0.022 A 
ATOM      8  C7  BZF d   1      -0.896  -2.214   1.769  0.00  0.00     0.029 A 
ATOM      9  C7A BZF d   1      -0.248  -1.295   0.981  0.00  0.00     0.058 A 
ENDROOT
TORSDOF 0
ENDMDL
