MODEL 1
REMARK minimizedAffinity 17.61763
REMARK minimizedRMSD -1
REMARK  0 active torsions:
REMARK  status: ('A' for Active; 'I' for Inactive)
ROOT
ATOM      1  C   UNL d   1       4.650   2.018  -5.675  0.00  0.00    -0.002 A 
ATOM      2  C1  UNL d   1       5.772   1.256  -5.970  0.00  0.00     0.010 A 
ATOM      3  C2  UNL d   1       5.966   0.014  -5.363  0.00  0.00     0.041 A 
ATOM      4  C3  UNL d   1       5.003  -0.456  -4.448  0.00  0.00    -0.075 A 
ATOM      5  S   UNL d   1       5.030  -1.948  -3.585  0.00  0.00     0.015 SA
ATOM      6  C4  UNL d   1       3.553  -1.610  -2.806  0.00  0.00     0.022 A 
ATOM      7  C5  UNL d   1       3.037  -0.392  -3.183  0.00  0.00     0.026 A 
ATOM      8  C6  UNL d   1       3.865   0.293  -4.137  0.00  0.00    -0.082 A 
ATOM      9  C7  UNL d   1       3.697   1.549  -4.767  0.00  0.00     0.045 A 
ENDROOT
TORSDOF 0
ENDMDL
