MODEL 1
REMARK minimizedAffinity 14.0815649
REMARK minimizedRMSD -1
REMARK  0 active torsions:
REMARK  status: ('A' for Active; 'I' for Inactive)
ROOT
ATOM      1  C   UNL d   1      -5.341  -1.649  -3.295  0.00  0.00    -0.002 A 
ATOM      2  C1  UNL d   1      -4.216  -1.404  -4.068  0.00  0.00     0.010 A 
ATOM      3  C2  UNL d   1      -3.715  -2.386  -4.925  0.00  0.00     0.041 A 
ATOM      4  C3  UNL d   1      -4.373  -3.630  -4.994  0.00  0.00    -0.075 A 
ATOM      5  S   UNL d   1      -3.941  -4.982  -5.973  0.00  0.00     0.015 SA
ATOM      6  C4  UNL d   1      -5.240  -5.916  -5.388  0.00  0.00     0.022 A 
ATOM      7  C5  UNL d   1      -5.996  -5.229  -4.468  0.00  0.00     0.026 A 
ATOM      8  C6  UNL d   1      -5.509  -3.900  -4.226  0.00  0.00    -0.082 A 
ATOM      9  C7  UNL d   1      -5.991  -2.885  -3.365  0.00  0.00     0.045 A 
ENDROOT
TORSDOF 0
ENDMDL
