MODEL 1
REMARK minimizedAffinity 11.3955345
REMARK minimizedRMSD -1
REMARK  0 active torsions:
REMARK  status: ('A' for Active; 'I' for Inactive)
ROOT
ATOM      1  C   UNL d   1      -4.103   1.768  -3.899  0.00  0.00    -0.002 A 
ATOM      2  C1  UNL d   1      -5.315   2.440  -3.977  0.00  0.00     0.010 A 
ATOM      3  C2  UNL d   1      -5.855   3.062  -2.850  0.00  0.00     0.041 A 
ATOM      4  C3  UNL d   1      -5.149   3.000  -1.633  0.00  0.00    -0.075 A 
ATOM      5  S   UNL d   1      -5.617   3.689  -0.123  0.00  0.00     0.015 SA
ATOM      6  C4  UNL d   1      -4.219   3.110   0.660  0.00  0.00     0.022 A 
ATOM      7  C5  UNL d   1      -3.404   2.405  -0.194  0.00  0.00     0.026 A 
ATOM      8  C6  UNL d   1      -3.927   2.331  -1.530  0.00  0.00    -0.082 A 
ATOM      9  C7  UNL d   1      -3.406   1.709  -2.690  0.00  0.00     0.045 A 
ENDROOT
TORSDOF 0
ENDMDL
