MODEL 1
REMARK minimizedAffinity -2.11717057
REMARK minimizedRMSD -1
REMARK  0 active torsions:
REMARK  status: ('A' for Active; 'I' for Inactive)
ROOT
ATOM      1  C1  BNZ d   1       0.738   0.340   0.065  0.00  0.00     0.000 A 
ATOM      2  C2  BNZ d   1       0.095  -0.865   0.167  0.00  0.00     0.000 A 
ATOM      3  C3  BNZ d   1      -1.231  -0.925   0.496  0.00  0.00     0.000 A 
ATOM      4  C4  BNZ d   1      -1.900   0.215   0.762  0.00  0.00     0.000 A 
ATOM      5  C5  BNZ d   1      -1.264   1.437   0.672  0.00  0.00     0.000 A 
ATOM      6  C6  BNZ d   1       0.061   1.496   0.302  0.00  0.00     0.000 A 
ENDROOT
TORSDOF 0
ENDMDL
