MODEL 1
REMARK minimizedAffinity -4.37119722
REMARK minimizedRMSD -1
REMARK  0 active torsions:
REMARK  status: ('A' for Active; 'I' for Inactive)
ROOT
ATOM      1  C1  BNZ d   1       1.214  -1.093   0.747  0.00  0.00     0.000 A 
ATOM      2  C2  BNZ d   1       0.421  -2.208   0.808  0.00  0.00     0.000 A 
ATOM      3  C3  BNZ d   1      -0.923  -2.125   0.570  0.00  0.00     0.000 A 
ATOM      4  C4  BNZ d   1      -1.478  -0.923   0.313  0.00  0.00     0.000 A 
ATOM      5  C5  BNZ d   1      -0.693   0.212   0.258  0.00  0.00     0.000 A 
ATOM      6  C6  BNZ d   1       0.665   0.118   0.459  0.00  0.00     0.000 A 
ENDROOT
TORSDOF 0
ENDMDL
