MODEL 1
REMARK minimizedAffinity -3.93099976
REMARK minimizedRMSD -1
REMARK  0 active torsions:
REMARK  status: ('A' for Active; 'I' for Inactive)
ROOT
ATOM      1  C1  BNZ d   1       1.030   1.305  -1.237  0.00  0.00     0.000 A 
ATOM      2  C2  BNZ d   1       2.250   1.482  -1.833  0.00  0.00     0.000 A 
ATOM      3  C3  BNZ d   1       2.348   2.053  -3.071  0.00  0.00     0.000 A 
ATOM      4  C4  BNZ d   1       1.225   2.409  -3.728  0.00  0.00     0.000 A 
ATOM      5  C5  BNZ d   1      -0.013   2.229  -3.144  0.00  0.00     0.000 A 
ATOM      6  C6  BNZ d   1      -0.105   1.690  -1.882  0.00  0.00     0.000 A 
ENDROOT
TORSDOF 0
ENDMDL
