MODEL 1
REMARK minimizedAffinity -3.70558739
REMARK minimizedRMSD -1
REMARK  0 active torsions:
REMARK  status: ('A' for Active; 'I' for Inactive)
ROOT
ATOM      1  C1  BNZ d   1       0.775  -1.294   0.102  0.00  0.00     0.000 A 
ATOM      2  C2  BNZ d   1       0.006  -2.282   0.657  0.00  0.00     0.000 A 
ATOM      3  C3  BNZ d   1      -1.332  -2.095   0.862  0.00  0.00     0.000 A 
ATOM      4  C4  BNZ d   1      -1.891  -0.909   0.550  0.00  0.00     0.000 A 
ATOM      5  C5  BNZ d   1      -1.127   0.101  -0.002  0.00  0.00     0.000 A 
ATOM      6  C6  BNZ d   1       0.212  -0.105  -0.243  0.00  0.00     0.000 A 
ENDROOT
TORSDOF 0
ENDMDL
