MODEL 1
REMARK minimizedAffinity -5.18451595
REMARK minimizedRMSD -1
REMARK  0 active torsions:
REMARK  status: ('A' for Active; 'I' for Inactive)
ROOT
ATOM      1  C1  BNZ d   1      -1.365  -0.444   0.457  0.00  0.00     0.000 A 
ATOM      2  C2  BNZ d   1      -0.890  -1.728   0.422  0.00  0.00     0.000 A 
ATOM      3  C3  BNZ d   1      -1.460  -2.707   1.188  0.00  0.00     0.000 A 
ATOM      4  C4  BNZ d   1      -2.476  -2.392   2.017  0.00  0.00     0.000 A 
ATOM      5  C5  BNZ d   1      -2.960  -1.100   2.070  0.00  0.00     0.000 A 
ATOM      6  C6  BNZ d   1      -2.410  -0.126   1.269  0.00  0.00     0.000 A 
ENDROOT
TORSDOF 0
ENDMDL
