MODEL 1
REMARK minimizedAffinity -4.11081791
REMARK minimizedRMSD -1
REMARK  0 active torsions:
REMARK  status: ('A' for Active; 'I' for Inactive)
ROOT
ATOM      1  C1  BNZ d   1       1.268  -1.333   0.838  0.00  0.00     0.000 A 
ATOM      2  C2  BNZ d   1       0.456  -2.261   1.433  0.00  0.00     0.000 A 
ATOM      3  C3  BNZ d   1      -0.902  -2.113   1.423  0.00  0.00     0.000 A 
ATOM      4  C4  BNZ d   1      -1.445  -1.018   0.854  0.00  0.00     0.000 A 
ATOM      5  C5  BNZ d   1      -0.640  -0.068   0.258  0.00  0.00     0.000 A 
ATOM      6  C6  BNZ d   1       0.725  -0.240   0.236  0.00  0.00     0.000 A 
ENDROOT
TORSDOF 0
ENDMDL
