MODEL 1
REMARK minimizedAffinity -4.23436689
REMARK minimizedRMSD -1
REMARK  0 active torsions:
REMARK  status: ('A' for Active; 'I' for Inactive)
ROOT
ATOM      1  C1  BNZ d   1      -1.420  -0.892   0.430  0.00  0.00     0.000 A 
ATOM      2  C2  BNZ d   1      -0.541  -0.123  -0.284  0.00  0.00     0.000 A 
ATOM      3  C3  BNZ d   1       0.808  -0.240  -0.092  0.00  0.00     0.000 A 
ATOM      4  C4  BNZ d   1       1.272  -1.096   0.842  0.00  0.00     0.000 A 
ATOM      5  C5  BNZ d   1       0.397  -1.871   1.576  0.00  0.00     0.000 A 
ATOM      6  C6  BNZ d   1      -0.957  -1.779   1.352  0.00  0.00     0.000 A 
ENDROOT
TORSDOF 0
ENDMDL
