MODEL 1
REMARK minimizedAffinity -4.16400957
REMARK minimizedRMSD -1
REMARK  0 active torsions:
REMARK  status: ('A' for Active; 'I' for Inactive)
ROOT
ATOM      1  C1  BNZ d   1      -1.331  -0.624   0.384  0.00  0.00     0.000 A 
ATOM      2  C2  BNZ d   1      -2.005  -1.661   0.972  0.00  0.00     0.000 A 
ATOM      3  C3  BNZ d   1      -1.327  -2.715   1.520  0.00  0.00     0.000 A 
ATOM      4  C4  BNZ d   1       0.019  -2.749   1.443  0.00  0.00     0.000 A 
ATOM      5  C5  BNZ d   1       0.712  -1.715   0.845  0.00  0.00     0.000 A 
ATOM      6  C6  BNZ d   1       0.028  -0.638   0.330  0.00  0.00     0.000 A 
ENDROOT
TORSDOF 0
ENDMDL
