MODEL 1
REMARK minimizedAffinity -4.60661983
REMARK minimizedRMSD -1
REMARK  0 active torsions:
REMARK  status: ('A' for Active; 'I' for Inactive)
ROOT
ATOM      1  C1  BNZ d   1      -0.729  -0.540  -0.609  0.00  0.00     0.000 A 
ATOM      2  C2  BNZ d   1      -1.548  -1.536  -0.147  0.00  0.00     0.000 A 
ATOM      3  C3  BNZ d   1      -1.122  -2.397   0.827  0.00  0.00     0.000 A 
ATOM      4  C4  BNZ d   1       0.133  -2.285   1.307  0.00  0.00     0.000 A 
ATOM      5  C5  BNZ d   1       0.973  -1.292   0.845  0.00  0.00     0.000 A 
ATOM      6  C6  BNZ d   1       0.528  -0.404  -0.107  0.00  0.00     0.000 A 
ENDROOT
TORSDOF 0
ENDMDL
