MODEL 1
REMARK minimizedAffinity -2.12189531
REMARK minimizedRMSD -1
REMARK  0 active torsions:
REMARK  status: ('A' for Active; 'I' for Inactive)
ROOT
ATOM      1  C1  BNZ d   1       0.901  -0.435  -0.198  0.00  0.00     0.000 A 
ATOM      2  C2  BNZ d   1      -0.154  -1.202   0.217  0.00  0.00     0.000 A 
ATOM      3  C3  BNZ d   1      -1.376  -0.639   0.460  0.00  0.00     0.000 A 
ATOM      4  C4  BNZ d   1      -1.531   0.694   0.325  0.00  0.00     0.000 A 
ATOM      5  C5  BNZ d   1      -0.474   1.482  -0.084  0.00  0.00     0.000 A 
ATOM      6  C6  BNZ d   1       0.744   0.907  -0.364  0.00  0.00     0.000 A 
ENDROOT
TORSDOF 0
ENDMDL
