MODEL 1
REMARK minimizedAffinity -4.03489685
REMARK minimizedRMSD -1
REMARK  0 active torsions:
REMARK  status: ('A' for Active; 'I' for Inactive)
ROOT
ATOM      1  C1  BNZ d   1      -0.370  -2.215   1.366  0.00  0.00     0.000 A 
ATOM      2  C2  BNZ d   1       0.559  -1.284   0.984  0.00  0.00     0.000 A 
ATOM      3  C3  BNZ d   1       0.384  -0.546  -0.153  0.00  0.00     0.000 A 
ATOM      4  C4  BNZ d   1      -0.699  -0.766  -0.926  0.00  0.00     0.000 A 
ATOM      5  C5  BNZ d   1      -1.640  -1.707  -0.560  0.00  0.00     0.000 A 
ATOM      6  C6  BNZ d   1      -1.480  -2.422   0.605  0.00  0.00     0.000 A 
ENDROOT
TORSDOF 0
ENDMDL
