MODEL 1
REMARK minimizedAffinity -5.59207296
REMARK minimizedRMSD -1
REMARK  0 active torsions:
REMARK  status: ('A' for Active; 'I' for Inactive)
ROOT
ATOM      1  C1  BNZ d   1      -0.774  -2.410   1.162  0.00  0.00     0.000 A 
ATOM      2  C2  BNZ d   1      -1.886  -2.160   1.921  0.00  0.00     0.000 A 
ATOM      3  C3  BNZ d   1      -2.416  -0.902   1.993  0.00  0.00     0.000 A 
ATOM      4  C4  BNZ d   1      -1.811   0.111   1.339  0.00  0.00     0.000 A 
ATOM      5  C5  BNZ d   1      -0.684  -0.123   0.577  0.00  0.00     0.000 A 
ATOM      6  C6  BNZ d   1      -0.176  -1.398   0.475  0.00  0.00     0.000 A 
ENDROOT
TORSDOF 0
ENDMDL
