MODEL 1
REMARK minimizedAffinity -4.10658026
REMARK minimizedRMSD -1
REMARK  0 active torsions:
REMARK  status: ('A' for Active; 'I' for Inactive)
ROOT
ATOM      1  C1  BNZ d   1       1.073  -1.093   0.810  0.00  0.00     0.000 A 
ATOM      2  C2  BNZ d   1       0.277  -2.154   1.149  0.00  0.00     0.000 A 
ATOM      3  C3  BNZ d   1      -1.085  -2.032   1.161  0.00  0.00     0.000 A 
ATOM      4  C4  BNZ d   1      -1.646  -0.840   0.873  0.00  0.00     0.000 A 
ATOM      5  C5  BNZ d   1      -0.856   0.242   0.538  0.00  0.00     0.000 A 
ATOM      6  C6  BNZ d   1       0.512   0.104   0.489  0.00  0.00     0.000 A 
ENDROOT
TORSDOF 0
ENDMDL
