MODEL 1
REMARK minimizedAffinity 2.22614717
REMARK minimizedRMSD -1
REMARK  3 active torsions:
REMARK  status: ('A' for Active; 'I' for Inactive)
REMARK    1  A    between atoms: C3'_2  and  C2'_3 
REMARK    2  A    between atoms: C2'_3  and  C1'_4 
REMARK    3  A    between atoms: C1'_4  and  C1_5 
ROOT
ATOM      1  C1  N4B d   1      -4.543  -3.284   4.582  0.00  0.00    -0.075 A 
ATOM      2  C2  N4B d   1      -4.394  -4.431   3.771  0.00  0.00     0.002 A 
ATOM      3  C3  N4B d   1      -5.049  -5.593   4.097  0.00  0.00     0.002 A 
ATOM      4  C4  N4B d   1      -5.840  -5.638   5.235  0.00  0.00    -0.004 A 
ATOM      5  C5  N4B d   1      -6.000  -4.519   5.999  0.00  0.00     0.002 A 
ATOM      6  C6  N4B d   1      -5.350  -3.343   5.681  0.00  0.00     0.002 A 
ENDROOT
BRANCH   1   7
ATOM      7  C1' N4B d   1      -3.779  -2.017   4.314  0.00  0.00     0.057 C 
BRANCH   7   8
ATOM      8  C2' N4B d   1      -3.086  -2.126   2.960  0.00  0.00     0.009 C 
BRANCH   8   9
ATOM      9  C3' N4B d   1      -2.325  -0.860   2.607  0.00  0.00     0.004 C 
ATOM     10  C4' N4B d   1      -2.322   0.145   3.719  0.00  0.00     0.003 C 
ENDBRANCH   8   9
ENDBRANCH   7   8
ENDBRANCH   1   7
TORSDOF 3
ENDMDL
