MODEL 1
REMARK minimizedAffinity 15.6559277
REMARK minimizedRMSD -1
REMARK  3 active torsions:
REMARK  status: ('A' for Active; 'I' for Inactive)
REMARK    1  A    between atoms: C3'_2  and  C2'_3 
REMARK    2  A    between atoms: C2'_3  and  C1'_4 
REMARK    3  A    between atoms: C1'_4  and  C1_5 
ROOT
ATOM      1  C1  N4B d   1       0.656  -1.118   3.509  0.00  0.00    -0.075 A 
ATOM      2  C2  N4B d   1       0.237  -0.270   4.558  0.00  0.00     0.002 A 
ATOM      3  C3  N4B d   1      -0.887   0.505   4.407  0.00  0.00     0.002 A 
ATOM      4  C4  N4B d   1      -1.593   0.464   3.214  0.00  0.00    -0.004 A 
ATOM      5  C5  N4B d   1      -1.196  -0.376   2.215  0.00  0.00     0.002 A 
ATOM      6  C6  N4B d   1      -0.071  -1.164   2.355  0.00  0.00     0.002 A 
ENDROOT
BRANCH   1   7
ATOM      7  C1' N4B d   1       1.925  -1.920   3.595  0.00  0.00     0.057 C 
BRANCH   7   8
ATOM      8  C2' N4B d   1       2.831  -1.551   2.424  0.00  0.00     0.009 C 
BRANCH   8   9
ATOM      9  C3' N4B d   1       3.180  -0.073   2.418  0.00  0.00     0.004 C 
ATOM     10  C4' N4B d   1       2.981   0.566   1.076  0.00  0.00     0.003 C 
ENDBRANCH   8   9
ENDBRANCH   7   8
ENDBRANCH   1   7
TORSDOF 3
ENDMDL
