MODEL 1
REMARK minimizedAffinity 11.3841305
REMARK minimizedRMSD -1
REMARK  3 active torsions:
REMARK  status: ('A' for Active; 'I' for Inactive)
REMARK    1  A    between atoms: C3'_2  and  C2'_3 
REMARK    2  A    between atoms: C2'_3  and  C1'_4 
REMARK    3  A    between atoms: C1'_4  and  C1_5 
ROOT
ATOM      1  C1  N4B d   1       2.210   3.864  -3.311  0.00  0.00    -0.075 A 
ATOM      2  C2  N4B d   1       2.717   3.173  -4.433  0.00  0.00     0.002 A 
ATOM      3  C3  N4B d   1       4.053   3.251  -4.742  0.00  0.00     0.002 A 
ATOM      4  C4  N4B d   1       4.894   4.026  -3.957  0.00  0.00    -0.004 A 
ATOM      5  C5  N4B d   1       4.401   4.670  -2.860  0.00  0.00     0.002 A 
ATOM      6  C6  N4B d   1       3.062   4.597  -2.536  0.00  0.00     0.002 A 
ENDROOT
BRANCH   1   7
ATOM      7  C1' N4B d   1       0.742   3.878  -2.984  0.00  0.00     0.057 C 
BRANCH   7   8
ATOM      8  C2' N4B d   1       0.050   4.939  -3.833  0.00  0.00     0.009 C 
BRANCH   8   9
ATOM      9  C3' N4B d   1      -0.852   4.323  -4.889  0.00  0.00     0.004 C 
ATOM     10  C4' N4B d   1      -1.187   5.277  -5.996  0.00  0.00     0.003 C 
ENDBRANCH   8   9
ENDBRANCH   7   8
ENDBRANCH   1   7
TORSDOF 3
ENDMDL
