MODEL 1
REMARK minimizedAffinity 9.16105843
REMARK minimizedRMSD -1
REMARK  3 active torsions:
REMARK  status: ('A' for Active; 'I' for Inactive)
REMARK    1  A    between atoms: C3'_2  and  C2'_3 
REMARK    2  A    between atoms: C2'_3  and  C1'_4 
REMARK    3  A    between atoms: C1'_4  and  C1_5 
ROOT
ATOM      1  C1  N4B d   1      -4.213   1.258   4.926  0.00  0.00    -0.075 A 
ATOM      2  C2  N4B d   1      -4.312   0.824   3.586  0.00  0.00     0.002 A 
ATOM      3  C3  N4B d   1      -3.195   0.376   2.924  0.00  0.00     0.002 A 
ATOM      4  C4  N4B d   1      -1.970   0.371   3.573  0.00  0.00    -0.004 A 
ATOM      5  C5  N4B d   1      -1.887   0.768   4.876  0.00  0.00     0.002 A 
ATOM      6  C6  N4B d   1      -3.002   1.216   5.554  0.00  0.00     0.002 A 
ENDROOT
BRANCH   1   7
ATOM      7  C1' N4B d   1      -5.390   1.836   5.663  0.00  0.00     0.057 C 
BRANCH   7   8
ATOM      8  C2' N4B d   1      -5.613   3.273   5.200  0.00  0.00     0.009 C 
BRANCH   8   9
ATOM      9  C3' N4B d   1      -4.713   4.252   5.933  0.00  0.00     0.004 C 
ATOM     10  C4' N4B d   1      -5.286   5.637   5.990  0.00  0.00     0.003 C 
ENDBRANCH   8   9
ENDBRANCH   7   8
ENDBRANCH   1   7
TORSDOF 3
ENDMDL
