MODEL 1
REMARK minimizedAffinity 15.8511763
REMARK minimizedRMSD -1
REMARK  3 active torsions:
REMARK  status: ('A' for Active; 'I' for Inactive)
REMARK    1  A    between atoms: C3'_2  and  C2'_3 
REMARK    2  A    between atoms: C2'_3  and  C1'_4 
REMARK    3  A    between atoms: C1'_4  and  C1_5 
ROOT
ATOM      1  C1  N4B d   1      -3.237   0.854   3.336  0.00  0.00    -0.075 A 
ATOM      2  C2  N4B d   1      -4.182   0.177   2.534  0.00  0.00     0.002 A 
ATOM      3  C3  N4B d   1      -3.787  -0.880   1.752  0.00  0.00     0.002 A 
ATOM      4  C4  N4B d   1      -2.454  -1.265   1.741  0.00  0.00    -0.004 A 
ATOM      5  C5  N4B d   1      -1.553  -0.622   2.538  0.00  0.00     0.002 A 
ATOM      6  C6  N4B d   1      -1.937   0.440   3.333  0.00  0.00     0.002 A 
ENDROOT
BRANCH   1   7
ATOM      7  C1' N4B d   1      -3.605   2.070   4.142  0.00  0.00     0.057 C 
BRANCH   7   8
ATOM      8  C2' N4B d   1      -5.061   1.955   4.586  0.00  0.00     0.009 C 
BRANCH   8   9
ATOM      9  C3' N4B d   1      -5.283   2.548   5.966  0.00  0.00     0.004 C 
ATOM     10  C4' N4B d   1      -5.113   4.038   5.992  0.00  0.00     0.003 C 
ENDBRANCH   8   9
ENDBRANCH   7   8
ENDBRANCH   1   7
TORSDOF 3
ENDMDL
