MODEL 1
REMARK minimizedAffinity 11.084898
REMARK minimizedRMSD -1
REMARK  3 active torsions:
REMARK  status: ('A' for Active; 'I' for Inactive)
REMARK    1  A    between atoms: C3'_2  and  C2'_3 
REMARK    2  A    between atoms: C2'_3  and  C1'_4 
REMARK    3  A    between atoms: C1'_4  and  C1_5 
ROOT
ATOM      1  C1  N4B d   1       1.262   3.605  -2.776  0.00  0.00    -0.075 A 
ATOM      2  C2  N4B d   1       0.020   3.497  -3.440  0.00  0.00     0.002 A 
ATOM      3  C3  N4B d   1      -0.844   4.564  -3.457  0.00  0.00     0.002 A 
ATOM      4  C4  N4B d   1      -0.498   5.738  -2.805  0.00  0.00    -0.004 A 
ATOM      5  C5  N4B d   1       0.715   5.843  -2.188  0.00  0.00     0.002 A 
ATOM      6  C6  N4B d   1       1.595   4.779  -2.166  0.00  0.00     0.002 A 
ENDROOT
BRANCH   1   7
ATOM      7  C1' N4B d   1       2.203   2.437  -2.657  0.00  0.00     0.057 C 
BRANCH   7   8
ATOM      8  C2' N4B d   1       1.585   1.388  -1.737  0.00  0.00     0.009 C 
BRANCH   8   9
ATOM      9  C3' N4B d   1       1.695   1.780  -0.274  0.00  0.00     0.004 C 
ATOM     10  C4' N4B d   1       2.930   1.238   0.382  0.00  0.00     0.003 C 
ENDBRANCH   8   9
ENDBRANCH   7   8
ENDBRANCH   1   7
TORSDOF 3
ENDMDL
