MODEL 1
REMARK minimizedAffinity 11.9556427
REMARK minimizedRMSD -1
REMARK  3 active torsions:
REMARK  status: ('A' for Active; 'I' for Inactive)
REMARK    1  A    between atoms: C3'_2  and  C2'_3 
REMARK    2  A    between atoms: C2'_3  and  C1'_4 
REMARK    3  A    between atoms: C1'_4  and  C1_5 
ROOT
ATOM      1  C1  N4B d   1       0.994   2.374  -2.523  0.00  0.00    -0.075 A 
ATOM      2  C2  N4B d   1       2.393   2.416  -2.712  0.00  0.00     0.002 A 
ATOM      3  C3  N4B d   1       3.227   1.835  -1.789  0.00  0.00     0.002 A 
ATOM      4  C4  N4B d   1       2.689   1.227  -0.665  0.00  0.00    -0.004 A 
ATOM      5  C5  N4B d   1       1.336   1.168  -0.503  0.00  0.00     0.002 A 
ATOM      6  C6  N4B d   1       0.485   1.744  -1.425  0.00  0.00     0.002 A 
ENDROOT
BRANCH   1   7
ATOM      7  C1' N4B d   1       0.045   3.069  -3.462  0.00  0.00     0.057 C 
BRANCH   7   8
ATOM      8  C2' N4B d   1      -0.443   4.361  -2.814  0.00  0.00     0.009 C 
BRANCH   8   9
ATOM      9  C3' N4B d   1      -1.706   4.886  -3.474  0.00  0.00     0.004 C 
ATOM     10  C4' N4B d   1      -1.577   5.002  -4.964  0.00  0.00     0.003 C 
ENDBRANCH   8   9
ENDBRANCH   7   8
ENDBRANCH   1   7
TORSDOF 3
ENDMDL
