MODEL 1
REMARK minimizedAffinity 14.6051168
REMARK minimizedRMSD -1
REMARK  3 active torsions:
REMARK  status: ('A' for Active; 'I' for Inactive)
REMARK    1  A    between atoms: C3'_2  and  C2'_3 
REMARK    2  A    between atoms: C2'_3  and  C1'_4 
REMARK    3  A    between atoms: C1'_4  and  C1_5 
ROOT
ATOM      1  C1  N4B d   1      -1.115  -3.250   0.712  0.00  0.00    -0.075 A 
ATOM      2  C2  N4B d   1       0.211  -3.347   1.189  0.00  0.00     0.002 A 
ATOM      3  C3  N4B d   1       0.740  -2.338   1.955  0.00  0.00     0.002 A 
ATOM      4  C4  N4B d   1      -0.026  -1.218   2.239  0.00  0.00    -0.004 A 
ATOM      5  C5  N4B d   1      -1.314  -1.143   1.796  0.00  0.00     0.002 A 
ATOM      6  C6  N4B d   1      -1.861  -2.152   1.029  0.00  0.00     0.002 A 
ENDROOT
BRANCH   1   7
ATOM      7  C1' N4B d   1      -1.709  -4.289  -0.199  0.00  0.00     0.057 C 
BRANCH   7   8
ATOM      8  C2' N4B d   1      -1.514  -3.854  -1.648  0.00  0.00     0.009 C 
BRANCH   8   9
ATOM      9  C3' N4B d   1      -2.442  -4.596  -2.594  0.00  0.00     0.004 C 
ATOM     10  C4' N4B d   1      -1.736  -5.122  -3.808  0.00  0.00     0.003 C 
ENDBRANCH   8   9
ENDBRANCH   7   8
ENDBRANCH   1   7
TORSDOF 3
ENDMDL
