MODEL 1
REMARK minimizedAffinity 11.131464
REMARK minimizedRMSD -1
REMARK  3 active torsions:
REMARK  status: ('A' for Active; 'I' for Inactive)
REMARK    1  A    between atoms: C3'_2  and  C2'_3 
REMARK    2  A    between atoms: C2'_3  and  C1'_4 
REMARK    3  A    between atoms: C1'_4  and  C1_5 
ROOT
ATOM      1  C1  N4B d   1       0.812   3.701  -2.279  0.00  0.00    -0.075 A 
ATOM      2  C2  N4B d   1       1.973   4.155  -2.943  0.00  0.00     0.002 A 
ATOM      3  C3  N4B d   1       3.107   3.381  -2.951  0.00  0.00     0.002 A 
ATOM      4  C4  N4B d   1       3.109   2.163  -2.287  0.00  0.00    -0.004 A 
ATOM      5  C5  N4B d   1       1.976   1.720  -1.670  0.00  0.00     0.002 A 
ATOM      6  C6  N4B d   1       0.828   2.486  -1.658  0.00  0.00     0.002 A 
ENDROOT
BRANCH   1   7
ATOM      7  C1' N4B d   1      -0.425   4.551  -2.171  0.00  0.00     0.057 C 
BRANCH   7   8
ATOM      8  C2' N4B d   1      -1.337   4.261  -3.359  0.00  0.00     0.009 C 
BRANCH   8   9
ATOM      9  C3' N4B d   1      -1.166   5.282  -4.470  0.00  0.00     0.004 C 
ATOM     10  C4' N4B d   1      -2.237   5.189  -5.516  0.00  0.00     0.003 C 
ENDBRANCH   8   9
ENDBRANCH   7   8
ENDBRANCH   1   7
TORSDOF 3
ENDMDL
