MODEL 1
REMARK minimizedAffinity 7.58971786
REMARK minimizedRMSD -1
REMARK  3 active torsions:
REMARK  status: ('A' for Active; 'I' for Inactive)
REMARK    1  A    between atoms: C3'_2  and  C2'_3 
REMARK    2  A    between atoms: C2'_3  and  C1'_4 
REMARK    3  A    between atoms: C1'_4  and  C1_5 
ROOT
ATOM      1  C1  N4B d   1       5.340   4.542  -2.679  0.00  0.00    -0.075 A 
ATOM      2  C2  N4B d   1       4.066   3.943  -2.565  0.00  0.00     0.002 A 
ATOM      3  C3  N4B d   1       3.499   3.325  -3.652  0.00  0.00     0.002 A 
ATOM      4  C4  N4B d   1       4.174   3.309  -4.863  0.00  0.00    -0.004 A 
ATOM      5  C5  N4B d   1       5.415   3.868  -4.958  0.00  0.00     0.002 A 
ATOM      6  C6  N4B d   1       6.000   4.490  -3.873  0.00  0.00     0.002 A 
ENDROOT
BRANCH   1   7
ATOM      7  C1' N4B d   1       5.964   5.305  -1.542  0.00  0.00     0.057 C 
BRANCH   7   8
ATOM      8  C2' N4B d   1       5.375   4.809  -0.225  0.00  0.00     0.009 C 
BRANCH   8   9
ATOM      9  C3' N4B d   1       6.000   3.498   0.219  0.00  0.00     0.004 C 
ATOM     10  C4' N4B d   1       5.176   2.781   1.248  0.00  0.00     0.003 C 
ENDBRANCH   8   9
ENDBRANCH   7   8
ENDBRANCH   1   7
TORSDOF 3
ENDMDL
