MODEL 1
REMARK minimizedAffinity 4.22116327
REMARK minimizedRMSD -1
REMARK  3 active torsions:
REMARK  status: ('A' for Active; 'I' for Inactive)
REMARK    1  A    between atoms: C3'_2  and  C2'_3 
REMARK    2  A    between atoms: C2'_3  and  C1'_4 
REMARK    3  A    between atoms: C1'_4  and  C1_5 
ROOT
ATOM      1  C1  N4B d   1      -1.640  -0.194   3.725  0.00  0.00    -0.075 A 
ATOM      2  C2  N4B d   1      -2.608   0.760   3.341  0.00  0.00     0.002 A 
ATOM      3  C3  N4B d   1      -3.260   1.500   4.297  0.00  0.00     0.002 A 
ATOM      4  C4  N4B d   1      -2.974   1.291   5.638  0.00  0.00    -0.004 A 
ATOM      5  C5  N4B d   1      -2.019   0.386   5.999  0.00  0.00     0.002 A 
ATOM      6  C6  N4B d   1      -1.354  -0.361   5.049  0.00  0.00     0.002 A 
ENDROOT
BRANCH   1   7
ATOM      7  C1' N4B d   1      -0.964  -1.087   2.721  0.00  0.00     0.057 C 
BRANCH   7   8
ATOM      8  C2' N4B d   1      -2.018  -1.928   2.008  0.00  0.00     0.009 C 
BRANCH   8   9
ATOM      9  C3' N4B d   1      -1.454  -3.249   1.515  0.00  0.00     0.004 C 
ATOM     10  C4' N4B d   1       0.010  -3.400   1.806  0.00  0.00     0.003 C 
ENDBRANCH   8   9
ENDBRANCH   7   8
ENDBRANCH   1   7
TORSDOF 3
ENDMDL
