MODEL 1
REMARK minimizedAffinity 11.6161909
REMARK minimizedRMSD -1
REMARK  3 active torsions:
REMARK  status: ('A' for Active; 'I' for Inactive)
REMARK    1  A    between atoms: C3'_2  and  C2'_3 
REMARK    2  A    between atoms: C2'_3  and  C1'_4 
REMARK    3  A    between atoms: C1'_4  and  C1_5 
ROOT
ATOM      1  C1  N4B d   1      -5.802   0.130  -1.834  0.00  0.00    -0.075 A 
ATOM      2  C2  N4B d   1      -5.590  -0.789  -0.783  0.00  0.00     0.002 A 
ATOM      3  C3  N4B d   1      -5.344  -0.334   0.489  0.00  0.00     0.002 A 
ATOM      4  C4  N4B d   1      -5.286   1.031   0.729  0.00  0.00    -0.004 A 
ATOM      5  C5  N4B d   1      -5.517   1.912  -0.286  0.00  0.00     0.002 A 
ATOM      6  C6  N4B d   1      -5.770   1.469  -1.568  0.00  0.00     0.002 A 
ENDROOT
BRANCH   1   7
ATOM      7  C1' N4B d   1      -5.990  -0.320  -3.257  0.00  0.00     0.057 C 
BRANCH   7   8
ATOM      8  C2' N4B d   1      -5.996  -1.845  -3.303  0.00  0.00     0.009 C 
BRANCH   8   9
ATOM      9  C3' N4B d   1      -5.767  -2.371  -4.710  0.00  0.00     0.004 C 
ATOM     10  C4' N4B d   1      -6.000  -1.331  -5.764  0.00  0.00     0.003 C 
ENDBRANCH   8   9
ENDBRANCH   7   8
ENDBRANCH   1   7
TORSDOF 3
ENDMDL
