MODEL 1
REMARK minimizedAffinity -2.23708558
REMARK minimizedRMSD -1
REMARK  0 active torsions:
REMARK  status: ('A' for Active; 'I' for Inactive)
ROOT
ATOM      1  C   UNL d   1      -1.503  -1.650  -1.410  0.00  0.00     0.023 A 
ATOM      2  C1  UNL d   1      -1.077  -0.383  -1.810  0.00  0.00     0.003 A 
ATOM      3  C2  UNL d   1      -0.538   0.502  -0.874  0.00  0.00     0.048 A 
ATOM      4  C3  UNL d   1      -0.426   0.113   0.460  0.00  0.00     0.023 A 
ATOM      5  C4  UNL d   1      -0.850  -1.154   0.865  0.00  0.00     0.048 A 
ATOM      6  C5  UNL d   1      -1.389  -2.035  -0.074  0.00  0.00     0.003 A 
ATOM      7  I   UNL d   1       0.377   1.428   1.855  0.00  0.00    -0.146 I 
ENDROOT
TORSDOF 0
ENDMDL
