MODEL 1
REMARK minimizedAffinity 3.37637472
REMARK minimizedRMSD -1
REMARK  0 active torsions:
REMARK  status: ('A' for Active; 'I' for Inactive)
ROOT
ATOM      1  C   UNL d   1       1.442   1.751   1.953  0.00  0.00     0.023 A 
ATOM      2  C1  UNL d   1       2.181   0.988   1.049  0.00  0.00     0.003 A 
ATOM      3  C2  UNL d   1       1.530   0.119   0.172  0.00  0.00     0.048 A 
ATOM      4  C3  UNL d   1       0.139   0.019   0.202  0.00  0.00     0.023 A 
ATOM      5  C4  UNL d   1      -0.604   0.781   1.104  0.00  0.00     0.048 A 
ATOM      6  C5  UNL d   1       0.051   1.648   1.981  0.00  0.00     0.003 A 
ATOM      7  I   UNL d   1      -0.832  -1.274  -1.103  0.00  0.00    -0.146 I 
ENDROOT
TORSDOF 0
ENDMDL
