MODEL 1
REMARK minimizedAffinity -2.37005949
REMARK minimizedRMSD -1
REMARK  0 active torsions:
REMARK  status: ('A' for Active; 'I' for Inactive)
ROOT
ATOM      1  C   UNL d   1      -0.659  -1.855  -0.861  0.00  0.00     0.023 A 
ATOM      2  C1  UNL d   1      -1.381  -1.087   0.053  0.00  0.00     0.003 A 
ATOM      3  C2  UNL d   1      -0.900   0.161   0.453  0.00  0.00     0.048 A 
ATOM      4  C3  UNL d   1       0.304   0.636  -0.066  0.00  0.00     0.023 A 
ATOM      5  C4  UNL d   1       1.030  -0.128  -0.981  0.00  0.00     0.048 A 
ATOM      6  C5  UNL d   1       0.545  -1.376  -1.377  0.00  0.00     0.003 A 
ATOM      7  I   UNL d   1       1.023   2.494   0.527  0.00  0.00    -0.146 I 
ENDROOT
TORSDOF 0
ENDMDL
