MODEL 1
REMARK minimizedAffinity -3.8062098
REMARK minimizedRMSD -1
REMARK  0 active torsions:
REMARK  status: ('A' for Active; 'I' for Inactive)
ROOT
ATOM      1  C   UNL d   1       0.719   1.866   1.991  0.00  0.00     0.023 A 
ATOM      2  C1  UNL d   1       1.272   1.728   0.717  0.00  0.00     0.003 A 
ATOM      3  C2  UNL d   1       0.791   0.747  -0.152  0.00  0.00     0.048 A 
ATOM      4  C3  UNL d   1      -0.244  -0.093   0.259  0.00  0.00     0.023 A 
ATOM      5  C4  UNL d   1      -0.801   0.042   1.532  0.00  0.00     0.048 A 
ATOM      6  C5  UNL d   1      -0.316   1.024   2.397  0.00  0.00     0.003 A 
ATOM      7  I   UNL d   1      -0.962  -1.554  -1.033  0.00  0.00    -0.146 I 
ENDROOT
TORSDOF 0
ENDMDL
