MODEL 1
REMARK minimizedAffinity -4.5416894
REMARK minimizedRMSD -1
REMARK  0 active torsions:
REMARK  status: ('A' for Active; 'I' for Inactive)
ROOT
ATOM      1  C   UNL d   1       0.957   1.848   1.991  0.00  0.00     0.023 A 
ATOM      2  C1  UNL d   1      -0.097   1.001   2.335  0.00  0.00     0.003 A 
ATOM      3  C2  UNL d   1      -0.715   0.219   1.357  0.00  0.00     0.048 A 
ATOM      4  C3  UNL d   1      -0.273   0.290   0.036  0.00  0.00     0.023 A 
ATOM      5  C4  UNL d   1       0.781   1.135  -0.313  0.00  0.00     0.048 A 
ATOM      6  C5  UNL d   1       1.395   1.915   0.668  0.00  0.00     0.003 A 
ATOM      7  I   UNL d   1      -1.191  -0.872  -1.423  0.00  0.00    -0.146 I 
ENDROOT
TORSDOF 0
ENDMDL
