MODEL 1
REMARK minimizedAffinity -3.61452436
REMARK minimizedRMSD -1
REMARK  0 active torsions:
REMARK  status: ('A' for Active; 'I' for Inactive)
ROOT
ATOM      1  C   UNL d   1      -1.507  -1.046  -3.052  0.00  0.00     0.023 A 
ATOM      2  C1  UNL d   1      -1.332  -1.606  -1.787  0.00  0.00     0.003 A 
ATOM      3  C2  UNL d   1      -2.405  -2.222  -1.139  0.00  0.00     0.048 A 
ATOM      4  C3  UNL d   1      -3.651  -2.274  -1.764  0.00  0.00     0.023 A 
ATOM      5  C4  UNL d   1      -3.831  -1.716  -3.030  0.00  0.00     0.048 A 
ATOM      6  C5  UNL d   1      -2.755  -1.100  -3.673  0.00  0.00     0.003 A 
ATOM      7  I   UNL d   1      -5.250  -3.190  -0.802  0.00  0.00    -0.146 I 
ENDROOT
TORSDOF 0
ENDMDL
