MODEL 1
REMARK minimizedAffinity -4.99157858
REMARK minimizedRMSD -1
REMARK  0 active torsions:
REMARK  status: ('A' for Active; 'I' for Inactive)
ROOT
ATOM      1  C   UNL d   1       1.678   1.988   0.570  0.00  0.00     0.023 A 
ATOM      2  C1  UNL d   1       1.197   2.723   1.653  0.00  0.00     0.003 A 
ATOM      3  C2  UNL d   1       0.051   2.302   2.331  0.00  0.00     0.048 A 
ATOM      4  C3  UNL d   1      -0.608   1.143   1.921  0.00  0.00     0.023 A 
ATOM      5  C4  UNL d   1      -0.130   0.404   0.838  0.00  0.00     0.048 A 
ATOM      6  C5  UNL d   1       1.016   0.830   0.163  0.00  0.00     0.003 A 
ATOM      7  I   UNL d   1      -2.314   0.514   2.928  0.00  0.00    -0.146 I 
ENDROOT
TORSDOF 0
ENDMDL
