MODEL 1
REMARK minimizedAffinity -3.02082682
REMARK minimizedRMSD -1
REMARK  0 active torsions:
REMARK  status: ('A' for Active; 'I' for Inactive)
ROOT
ATOM      1  C   UNL d   1      -1.859  -2.233  -3.086  0.00  0.00     0.023 A 
ATOM      2  C1  UNL d   1      -0.620  -1.612  -2.925  0.00  0.00     0.003 A 
ATOM      3  C2  UNL d   1      -0.313  -0.964  -1.727  0.00  0.00     0.048 A 
ATOM      4  C3  UNL d   1      -1.250  -0.940  -0.694  0.00  0.00     0.023 A 
ATOM      5  C4  UNL d   1      -2.490  -1.560  -0.851  0.00  0.00     0.048 A 
ATOM      6  C5  UNL d   1      -2.793  -2.207  -2.050  0.00  0.00     0.003 A 
ATOM      7  I   UNL d   1      -0.795   0.024   1.090  0.00  0.00    -0.146 I 
ENDROOT
TORSDOF 0
ENDMDL
