MODEL 1
REMARK minimizedAffinity -3.37022948
REMARK minimizedRMSD -1
REMARK  0 active torsions:
REMARK  status: ('A' for Active; 'I' for Inactive)
ROOT
ATOM      1  C   UNL d   1       0.711   1.946   1.538  0.00  0.00     0.023 A 
ATOM      2  C1  UNL d   1       1.317   1.645   0.318  0.00  0.00     0.003 A 
ATOM      3  C2  UNL d   1       0.722   0.730  -0.552  0.00  0.00     0.048 A 
ATOM      4  C3  UNL d   1      -0.481   0.121  -0.198  0.00  0.00     0.023 A 
ATOM      5  C4  UNL d   1      -1.092   0.419   1.021  0.00  0.00     0.048 A 
ATOM      6  C5  UNL d   1      -0.493   1.333   1.889  0.00  0.00     0.003 A 
ATOM      7  I   UNL d   1      -1.370  -1.241  -1.492  0.00  0.00    -0.146 I 
ENDROOT
TORSDOF 0
ENDMDL
