MODEL 1
REMARK minimizedAffinity -3.42033315
REMARK minimizedRMSD -1
REMARK  0 active torsions:
REMARK  status: ('A' for Active; 'I' for Inactive)
ROOT
ATOM      1  C   UNL d   1      -0.951  -1.572  -0.007  0.00  0.00     0.023 A 
ATOM      2  C1  UNL d   1       0.089  -1.207  -0.862  0.00  0.00     0.003 A 
ATOM      3  C2  UNL d   1       0.803  -0.029  -0.632  0.00  0.00     0.048 A 
ATOM      4  C3  UNL d   1       0.472   0.779   0.455  0.00  0.00     0.023 A 
ATOM      5  C4  UNL d   1      -0.568   0.418   1.313  0.00  0.00     0.048 A 
ATOM      6  C5  UNL d   1      -1.279  -0.760   1.079  0.00  0.00     0.003 A 
ATOM      7  I   UNL d   1       1.532   2.534   0.798  0.00  0.00    -0.146 I 
ENDROOT
TORSDOF 0
ENDMDL
