MODEL 1
REMARK minimizedAffinity -3.54373312
REMARK minimizedRMSD -1
REMARK  0 active torsions:
REMARK  status: ('A' for Active; 'I' for Inactive)
ROOT
ATOM      1  C   UNL d   1       2.578   2.205   1.078  0.00  0.00     0.023 A 
ATOM      2  C1  UNL d   1       1.204   2.350   1.276  0.00  0.00     0.003 A 
ATOM      3  C2  UNL d   1       0.313   1.457   0.677  0.00  0.00     0.048 A 
ATOM      4  C3  UNL d   1       0.803   0.420  -0.117  0.00  0.00     0.023 A 
ATOM      5  C4  UNL d   1       2.176   0.271  -0.317  0.00  0.00     0.048 A 
ATOM      6  C5  UNL d   1       3.063   1.167   0.283  0.00  0.00     0.003 A 
ATOM      7  I   UNL d   1      -0.521  -0.911  -1.009  0.00  0.00    -0.146 I 
ENDROOT
TORSDOF 0
ENDMDL
