MODEL 1
REMARK minimizedAffinity -5.36590672
REMARK minimizedRMSD -1
REMARK  0 active torsions:
REMARK  status: ('A' for Active; 'I' for Inactive)
ROOT
ATOM      1  C   UNL d   1       2.710   2.327   0.511  0.00  0.00     0.023 A 
ATOM      2  C1  UNL d   1       3.108   1.125  -0.074  0.00  0.00     0.003 A 
ATOM      3  C2  UNL d   1       2.168   0.122  -0.321  0.00  0.00     0.048 A 
ATOM      4  C3  UNL d   1       0.831   0.329   0.019  0.00  0.00     0.023 A 
ATOM      5  C4  UNL d   1       0.428   1.531   0.603  0.00  0.00     0.048 A 
ATOM      6  C5  UNL d   1       1.371   2.530   0.849  0.00  0.00     0.003 A 
ATOM      7  I   UNL d   1      -0.570  -1.162  -0.348  0.00  0.00    -0.146 I 
ENDROOT
TORSDOF 0
ENDMDL
