MODEL 1
REMARK minimizedAffinity 2.06834698
REMARK minimizedRMSD -1
REMARK  0 active torsions:
REMARK  status: ('A' for Active; 'I' for Inactive)
ROOT
ATOM      1  C   UNL d   1       0.320  -0.142   0.829  0.00  0.00     0.023 A 
ATOM      2  C1  UNL d   1       0.773  -0.664  -0.383  0.00  0.00     0.003 A 
ATOM      3  C2  UNL d   1      -0.141  -1.023  -1.375  0.00  0.00     0.048 A 
ATOM      4  C3  UNL d   1      -1.507  -0.856  -1.150  0.00  0.00     0.023 A 
ATOM      5  C4  UNL d   1      -1.965  -0.334   0.061  0.00  0.00     0.048 A 
ATOM      6  C5  UNL d   1      -1.047   0.023   1.051  0.00  0.00     0.003 A 
ATOM      7  I   UNL d   1      -2.871  -1.390  -2.625  0.00  0.00    -0.146 I 
ENDROOT
TORSDOF 0
ENDMDL
