MODEL 1
REMARK minimizedAffinity -3.44970369
REMARK minimizedRMSD -1
REMARK  0 active torsions:
REMARK  status: ('A' for Active; 'I' for Inactive)
ROOT
ATOM      1  C   UNL d   1       1.123   2.831   1.436  0.00  0.00     0.023 A 
ATOM      2  C1  UNL d   1       1.689   2.584   0.185  0.00  0.00     0.003 A 
ATOM      3  C2  UNL d   1       1.430   1.382  -0.476  0.00  0.00     0.048 A 
ATOM      4  C3  UNL d   1       0.602   0.431   0.119  0.00  0.00     0.023 A 
ATOM      5  C4  UNL d   1       0.032   0.673   1.370  0.00  0.00     0.048 A 
ATOM      6  C5  UNL d   1       0.295   1.877   2.028  0.00  0.00     0.003 A 
ATOM      7  I   UNL d   1       0.213  -1.360  -0.862  0.00  0.00    -0.146 I 
ENDROOT
TORSDOF 0
ENDMDL
