MODEL 1
REMARK minimizedAffinity -2.84893203
REMARK minimizedRMSD -1
REMARK  0 active torsions:
REMARK  status: ('A' for Active; 'I' for Inactive)
ROOT
ATOM      1  C   UNL d   1       0.368   1.882   2.251  0.00  0.00     0.023 A 
ATOM      2  C1  UNL d   1       1.107   1.930   1.069  0.00  0.00     0.003 A 
ATOM      3  C2  UNL d   1       0.785   1.082   0.007  0.00  0.00     0.048 A 
ATOM      4  C3  UNL d   1      -0.278   0.189   0.134  0.00  0.00     0.023 A 
ATOM      5  C4  UNL d   1      -1.021   0.137   1.314  0.00  0.00     0.048 A 
ATOM      6  C5  UNL d   1      -0.695   0.986   2.373  0.00  0.00     0.003 A 
ATOM      7  I   UNL d   1      -0.759  -1.074  -1.446  0.00  0.00    -0.146 I 
ENDROOT
TORSDOF 0
ENDMDL
