MODEL 1
REMARK minimizedAffinity 6.24430275
REMARK minimizedRMSD -1
REMARK  0 active torsions:
REMARK  status: ('A' for Active; 'I' for Inactive)
ROOT
ATOM      1  N1  IND d   1      -2.659   0.179  -1.344  0.00  0.00    -0.196 N 
ATOM      2  C2  IND d   1      -3.092   0.507  -0.090  0.00  0.00     0.054 A 
ATOM      3  C3  IND d   1      -2.622  -0.379   0.817  0.00  0.00    -0.031 A 
ATOM      4  C4  IND d   1      -1.043  -2.384   0.478  0.00  0.00     0.051 A 
ATOM      5  C5  IND d   1      -0.410  -3.104  -0.496  0.00  0.00    -0.031 A 
ATOM      6  C6  IND d   1      -0.493  -2.757  -1.830  0.00  0.00     0.015 A 
ATOM      7  C7  IND d   1      -1.207  -1.667  -2.239  0.00  0.00    -0.016 A 
ATOM      8  C8  IND d   1      -1.857  -0.938  -1.253  0.00  0.00    -0.047 A 
ATOM      9  C9  IND d   1      -1.811  -1.309   0.097  0.00  0.00    -0.096 A 
ATOM     10  HN1 IND d   1      -2.855   0.599  -2.068  0.00  0.00     0.298 HD
ENDROOT
TORSDOF 0
ENDMDL
