MODEL 1
REMARK minimizedAffinity 1.09572935
REMARK minimizedRMSD -1
REMARK  0 active torsions:
REMARK  status: ('A' for Active; 'I' for Inactive)
ROOT
ATOM      1  N1  IND d   1      -3.333   0.840   1.038  0.00  0.00    -0.196 N 
ATOM      2  C2  IND d   1      -4.025   0.670   2.205  0.00  0.00     0.054 A 
ATOM      3  C3  IND d   1      -3.177   0.373   3.215  0.00  0.00    -0.031 A 
ATOM      4  C4  IND d   1      -0.607   0.214   3.200  0.00  0.00     0.051 A 
ATOM      5  C5  IND d   1       0.469   0.253   2.360  0.00  0.00    -0.031 A 
ATOM      6  C6  IND d   1       0.331   0.498   1.009  0.00  0.00     0.015 A 
ATOM      7  C7  IND d   1      -0.894   0.725   0.448  0.00  0.00    -0.016 A 
ATOM      8  C8  IND d   1      -1.990   0.679   1.297  0.00  0.00    -0.047 A 
ATOM      9  C9  IND d   1      -1.860   0.388   2.661  0.00  0.00    -0.096 A 
ATOM     10  HN1 IND d   1      -3.679   1.018   0.272  0.00  0.00     0.298 HD
ENDROOT
TORSDOF 0
ENDMDL
