MODEL 1
REMARK minimizedAffinity 0.197141841
REMARK minimizedRMSD -1
REMARK  0 active torsions:
REMARK  status: ('A' for Active; 'I' for Inactive)
ROOT
ATOM      1  N1  IND d   1      -1.742   0.390   2.139  0.00  0.00    -0.196 N 
ATOM      2  C2  IND d   1      -2.104  -0.701   2.879  0.00  0.00     0.054 A 
ATOM      3  C3  IND d   1      -1.006  -1.378   3.286  0.00  0.00    -0.031 A 
ATOM      4  C4  IND d   1       1.482  -0.819   2.939  0.00  0.00     0.051 A 
ATOM      5  C5  IND d   1       2.310   0.059   2.295  0.00  0.00    -0.031 A 
ATOM      6  C6  IND d   1       1.818   1.114   1.554  0.00  0.00     0.015 A 
ATOM      7  C7  IND d   1       0.476   1.339   1.438  0.00  0.00    -0.016 A 
ATOM      8  C8  IND d   1      -0.367   0.446   2.084  0.00  0.00    -0.047 A 
ATOM      9  C9  IND d   1       0.124  -0.652   2.802  0.00  0.00    -0.096 A 
ATOM     10  HN1 IND d   1      -2.283   0.947   1.769  0.00  0.00     0.298 HD
ENDROOT
TORSDOF 0
ENDMDL
