MODEL 1
REMARK minimizedAffinity 4.73305321
REMARK minimizedRMSD -1
REMARK  0 active torsions:
REMARK  status: ('A' for Active; 'I' for Inactive)
ROOT
ATOM      1  N1  IND d   1       0.615   3.152  -5.157  0.00  0.00    -0.196 N 
ATOM      2  C2  IND d   1       1.659   2.687  -5.907  0.00  0.00     0.054 A 
ATOM      3  C3  IND d   1       2.322   1.716  -5.240  0.00  0.00    -0.031 A 
ATOM      4  C4  IND d   1       1.807   0.661  -2.949  0.00  0.00     0.051 A 
ATOM      5  C5  IND d   1       0.976   0.779  -1.871  0.00  0.00    -0.031 A 
ATOM      6  C6  IND d   1      -0.041   1.711  -1.834  0.00  0.00     0.015 A 
ATOM      7  C7  IND d   1      -0.272   2.556  -2.882  0.00  0.00    -0.016 A 
ATOM      8  C8  IND d   1       0.575   2.443  -3.976  0.00  0.00    -0.047 A 
ATOM      9  C9  IND d   1       1.635   1.528  -4.002  0.00  0.00    -0.096 A 
ATOM     10  HN1 IND d   1       0.074   3.780  -5.384  0.00  0.00     0.298 HD
ENDROOT
TORSDOF 0
ENDMDL
