MODEL 1
REMARK minimizedAffinity 8.40176105
REMARK minimizedRMSD -1
REMARK  0 active torsions:
REMARK  status: ('A' for Active; 'I' for Inactive)
ROOT
ATOM      1  N1  IND d   1      -2.326   1.166   1.182  0.00  0.00    -0.196 N 
ATOM      2  C2  IND d   1      -3.294   0.229   1.415  0.00  0.00     0.054 A 
ATOM      3  C3  IND d   1      -2.800  -0.781   2.166  0.00  0.00    -0.031 A 
ATOM      4  C4  IND d   1      -0.462  -1.052   3.208  0.00  0.00     0.051 A 
ATOM      5  C5  IND d   1       0.775  -0.472   3.245  0.00  0.00    -0.031 A 
ATOM      6  C6  IND d   1       1.046   0.710   2.585  0.00  0.00     0.015 A 
ATOM      7  C7  IND d   1       0.083   1.363   1.869  0.00  0.00    -0.016 A 
ATOM      8  C8  IND d   1      -1.172   0.773   1.824  0.00  0.00    -0.047 A 
ATOM      9  C9  IND d   1      -1.442  -0.447   2.457  0.00  0.00    -0.096 A 
ATOM     10  HN1 IND d   1      -2.422   1.880   0.714  0.00  0.00     0.298 HD
ENDROOT
TORSDOF 0
ENDMDL
