MODEL 1
REMARK minimizedAffinity -2.39219952
REMARK minimizedRMSD -1
REMARK  0 active torsions:
REMARK  status: ('A' for Active; 'I' for Inactive)
ROOT
ATOM      1  N1  IND d   1      -1.766   0.480   0.544  0.00  0.00    -0.196 N 
ATOM      2  C2  IND d   1      -3.065   0.761   0.223  0.00  0.00     0.054 A 
ATOM      3  C3  IND d   1      -3.896   0.314   1.191  0.00  0.00    -0.031 A 
ATOM      4  C4  IND d   1      -3.334  -0.816   3.435  0.00  0.00     0.051 A 
ATOM      5  C5  IND d   1      -2.287  -1.316   4.158  0.00  0.00    -0.031 A 
ATOM      6  C6  IND d   1      -0.986  -1.238   3.704  0.00  0.00     0.015 A 
ATOM      7  C7  IND d   1      -0.681  -0.646   2.512  0.00  0.00    -0.016 A 
ATOM      8  C8  IND d   1      -1.743  -0.143   1.772  0.00  0.00    -0.047 A 
ATOM      9  C9  IND d   1      -3.070  -0.257   2.208  0.00  0.00    -0.096 A 
ATOM     10  HN1 IND d   1      -1.079   0.662   0.060  0.00  0.00     0.298 HD
ENDROOT
TORSDOF 0
ENDMDL
