MODEL 1
REMARK minimizedAffinity 3.34012079
REMARK minimizedRMSD -1
REMARK  0 active torsions:
REMARK  status: ('A' for Active; 'I' for Inactive)
ROOT
ATOM      1  N1  IND d   1      -2.884   0.521  -0.247  0.00  0.00    -0.196 N 
ATOM      2  C2  IND d   1      -1.836   0.425  -1.120  0.00  0.00     0.054 A 
ATOM      3  C3  IND d   1      -0.683   0.207  -0.449  0.00  0.00    -0.031 A 
ATOM      4  C4  IND d   1      -0.298  -0.130   2.074  0.00  0.00     0.051 A 
ATOM      5  C5  IND d   1      -0.945  -0.095   3.277  0.00  0.00    -0.031 A 
ATOM      6  C6  IND d   1      -2.300   0.149   3.368  0.00  0.00     0.015 A 
ATOM      7  C7  IND d   1      -3.063   0.358   2.254  0.00  0.00    -0.016 A 
ATOM      8  C8  IND d   1      -2.408   0.330   1.032  0.00  0.00    -0.047 A 
ATOM      9  C9  IND d   1      -1.025   0.124   0.936  0.00  0.00    -0.096 A 
ATOM     10  HN1 IND d   1      -3.703   0.674  -0.460  0.00  0.00     0.298 HD
ENDROOT
TORSDOF 0
ENDMDL
