MODEL 1
REMARK minimizedAffinity 4.4994173
REMARK minimizedRMSD -1
REMARK  0 active torsions:
REMARK  status: ('A' for Active; 'I' for Inactive)
ROOT
ATOM      1  N1  IND d   1       5.989  -1.864   5.100  0.00  0.00    -0.196 N 
ATOM      2  C2  IND d   1       5.959  -3.017   4.366  0.00  0.00     0.054 A 
ATOM      3  C3  IND d   1       5.919  -2.732   3.045  0.00  0.00    -0.031 A 
ATOM      4  C4  IND d   1       5.997  -0.448   1.861  0.00  0.00     0.051 A 
ATOM      5  C5  IND d   1       5.990   0.896   2.111  0.00  0.00    -0.031 A 
ATOM      6  C6  IND d   1       5.985   1.399   3.396  0.00  0.00     0.015 A 
ATOM      7  C7  IND d   1       5.998   0.572   4.484  0.00  0.00    -0.016 A 
ATOM      8  C8  IND d   1       5.998  -0.793   4.234  0.00  0.00    -0.047 A 
ATOM      9  C9  IND d   1       5.960  -1.309   2.932  0.00  0.00    -0.096 A 
ATOM     10  HN1 IND d   1       6.000  -1.816   5.958  0.00  0.00     0.298 HD
ENDROOT
TORSDOF 0
ENDMDL
