MODEL 1
REMARK minimizedAffinity 6.48199177
REMARK minimizedRMSD -1
REMARK  0 active torsions:
REMARK  status: ('A' for Active; 'I' for Inactive)
ROOT
ATOM      1  N1  IND d   1      -2.723   0.304  -0.800  0.00  0.00    -0.196 N 
ATOM      2  C2  IND d   1      -1.573  -0.042  -1.454  0.00  0.00     0.054 A 
ATOM      3  C3  IND d   1      -0.549  -0.152  -0.579  0.00  0.00    -0.031 A 
ATOM      4  C4  IND d   1      -0.554   0.092   1.984  0.00  0.00     0.051 A 
ATOM      5  C5  IND d   1      -1.361   0.437   3.032  0.00  0.00    -0.031 A 
ATOM      6  C6  IND d   1      -2.691   0.760   2.852  0.00  0.00     0.015 A 
ATOM      7  C7  IND d   1      -3.269   0.738   1.615  0.00  0.00    -0.016 A 
ATOM      8  C8  IND d   1      -2.450   0.394   0.548  0.00  0.00    -0.047 A 
ATOM      9  C9  IND d   1      -1.090   0.107   0.718  0.00  0.00    -0.096 A 
ATOM     10  HN1 IND d   1      -3.488   0.442  -1.168  0.00  0.00     0.298 HD
ENDROOT
TORSDOF 0
ENDMDL
