MODEL 1
REMARK minimizedAffinity 7.6417985
REMARK minimizedRMSD -1
REMARK  0 active torsions:
REMARK  status: ('A' for Active; 'I' for Inactive)
ROOT
ATOM      1  N1  IND d   1      -0.021   1.296   2.413  0.00  0.00    -0.196 N 
ATOM      2  C2  IND d   1      -0.325   0.285   3.281  0.00  0.00     0.054 A 
ATOM      3  C3  IND d   1       0.750  -0.512   3.471  0.00  0.00    -0.031 A 
ATOM      4  C4  IND d   1       3.138  -0.286   2.536  0.00  0.00     0.051 A 
ATOM      5  C5  IND d   1       3.890   0.457   1.670  0.00  0.00    -0.031 A 
ATOM      6  C6  IND d   1       3.367   1.541   0.995  0.00  0.00     0.015 A 
ATOM      7  C7  IND d   1       2.069   1.931   1.171  0.00  0.00    -0.016 A 
ATOM      8  C8  IND d   1       1.301   1.175   2.045  0.00  0.00    -0.047 A 
ATOM      9  C9  IND d   1       1.815   0.048   2.700  0.00  0.00    -0.096 A 
ATOM     10  HN1 IND d   1      -0.564   1.905   2.141  0.00  0.00     0.298 HD
ENDROOT
TORSDOF 0
ENDMDL
