MODEL 1
REMARK minimizedAffinity 8.27344036
REMARK minimizedRMSD -1
REMARK  0 active torsions:
REMARK  status: ('A' for Active; 'I' for Inactive)
ROOT
ATOM      1  N1  IND d   1      -2.846   0.416  -0.677  0.00  0.00    -0.196 N 
ATOM      2  C2  IND d   1      -3.716   0.126   0.337  0.00  0.00     0.054 A 
ATOM      3  C3  IND d   1      -3.506  -1.129   0.793  0.00  0.00    -0.031 A 
ATOM      4  C4  IND d   1      -1.721  -2.846   0.091  0.00  0.00     0.051 A 
ATOM      5  C5  IND d   1      -0.723  -3.051  -0.821  0.00  0.00    -0.031 A 
ATOM      6  C6  IND d   1      -0.373  -2.091  -1.747  0.00  0.00     0.015 A 
ATOM      7  C7  IND d   1      -1.003  -0.879  -1.790  0.00  0.00    -0.016 A 
ATOM      8  C8  IND d   1      -2.022  -0.670  -0.871  0.00  0.00    -0.047 A 
ATOM      9  C9  IND d   1      -2.410  -1.657   0.044  0.00  0.00    -0.096 A 
ATOM     10  HN1 IND d   1      -2.819   1.153  -1.119  0.00  0.00     0.298 HD
ENDROOT
TORSDOF 0
ENDMDL
