MODEL 1
REMARK minimizedAffinity 5.85548019
REMARK minimizedRMSD -1
REMARK  0 active torsions:
REMARK  status: ('A' for Active; 'I' for Inactive)
ROOT
ATOM      1  N1  IND d   1      -3.344  -0.032  -0.449  0.00  0.00    -0.196 N 
ATOM      2  C2  IND d   1      -2.400  -0.553  -1.291  0.00  0.00     0.054 A 
ATOM      3  C3  IND d   1      -1.233  -0.733  -0.634  0.00  0.00    -0.031 A 
ATOM      4  C4  IND d   1      -0.674  -0.337   1.848  0.00  0.00     0.051 A 
ATOM      5  C5  IND d   1      -1.202   0.166   3.004  0.00  0.00    -0.031 A 
ATOM      6  C6  IND d   1      -2.498   0.635   3.070  0.00  0.00     0.015 A 
ATOM      7  C7  IND d   1      -3.322   0.608   1.980  0.00  0.00    -0.016 A 
ATOM      8  C8  IND d   1      -2.787   0.105   0.803  0.00  0.00    -0.047 A 
ATOM      9  C9  IND d   1      -1.459  -0.333   0.719  0.00  0.00    -0.096 A 
ATOM     10  HN1 IND d   1      -4.150   0.174  -0.666  0.00  0.00     0.298 HD
ENDROOT
TORSDOF 0
ENDMDL
