MODEL 1
REMARK minimizedAffinity 3.50141072
REMARK minimizedRMSD -1
REMARK  0 active torsions:
REMARK  status: ('A' for Active; 'I' for Inactive)
ROOT
ATOM      1  N1  IND d   1      -3.422   1.218   1.090  0.00  0.00    -0.196 N 
ATOM      2  C2  IND d   1      -2.393   1.181   1.989  0.00  0.00     0.054 A 
ATOM      3  C3  IND d   1      -1.417   0.352   1.553  0.00  0.00    -0.031 A 
ATOM      4  C4  IND d   1      -1.255  -0.966  -0.652  0.00  0.00     0.051 A 
ATOM      5  C5  IND d   1      -1.968  -1.278  -1.775  0.00  0.00    -0.031 A 
ATOM      6  C6  IND d   1      -3.226  -0.762  -2.007  0.00  0.00     0.015 A 
ATOM      7  C7  IND d   1      -3.816   0.099  -1.126  0.00  0.00    -0.016 A 
ATOM      8  C8  IND d   1      -3.098   0.413   0.020  0.00  0.00    -0.047 A 
ATOM      9  C9  IND d   1      -1.839  -0.142   0.281  0.00  0.00    -0.096 A 
ATOM     10  HN1 IND d   1      -4.149   1.668   1.178  0.00  0.00     0.298 HD
ENDROOT
TORSDOF 0
ENDMDL
