MODEL 1
REMARK minimizedAffinity 9.10966778
REMARK minimizedRMSD -1
REMARK  0 active torsions:
REMARK  status: ('A' for Active; 'I' for Inactive)
ROOT
ATOM      1  N1  IND d   1       2.710   5.406  -4.329  0.00  0.00    -0.196 N 
ATOM      2  C2  IND d   1       1.427   5.228  -3.894  0.00  0.00     0.054 A 
ATOM      3  C3  IND d   1       1.269   3.983  -3.391  0.00  0.00    -0.031 A 
ATOM      4  C4  IND d   1       3.007   2.108  -3.090  0.00  0.00     0.051 A 
ATOM      5  C5  IND d   1       4.305   1.788  -3.371  0.00  0.00    -0.031 A 
ATOM      6  C6  IND d   1       5.157   2.676  -3.995  0.00  0.00     0.015 A 
ATOM      7  C7  IND d   1       4.742   3.928  -4.354  0.00  0.00    -0.016 A 
ATOM      8  C8  IND d   1       3.422   4.254  -4.077  0.00  0.00    -0.047 A 
ATOM      9  C9  IND d   1       2.542   3.341  -3.482  0.00  0.00    -0.096 A 
ATOM     10  HN1 IND d   1       3.021   6.118  -4.698  0.00  0.00     0.298 HD
ENDROOT
TORSDOF 0
ENDMDL
