MODEL 1
REMARK minimizedAffinity 19.714035
REMARK minimizedRMSD -1
REMARK  0 active torsions:
REMARK  status: ('A' for Active; 'I' for Inactive)
ROOT
ATOM      1  N1  IND d   1       0.841   3.013   1.110  0.00  0.00    -0.196 N 
ATOM      2  C2  IND d   1       1.046   2.275  -0.023  0.00  0.00     0.054 A 
ATOM      3  C3  IND d   1       0.554   1.026   0.134  0.00  0.00    -0.031 A 
ATOM      4  C4  IND d   1      -0.717   0.007   2.128  0.00  0.00     0.051 A 
ATOM      5  C5  IND d   1      -1.114   0.282   3.407  0.00  0.00    -0.031 A 
ATOM      6  C6  IND d   1      -0.877   1.507   3.996  0.00  0.00     0.015 A 
ATOM      7  C7  IND d   1      -0.242   2.511   3.321  0.00  0.00    -0.016 A 
ATOM      8  C8  IND d   1       0.169   2.233   2.025  0.00  0.00    -0.047 A 
ATOM      9  C9  IND d   1      -0.031   0.978   1.437  0.00  0.00    -0.096 A 
ATOM     10  HN1 IND d   1       1.090   3.827   1.230  0.00  0.00     0.298 HD
ENDROOT
TORSDOF 0
ENDMDL
