MODEL 1
REMARK minimizedAffinity 8.40731907
REMARK minimizedRMSD -1
REMARK  0 active torsions:
REMARK  status: ('A' for Active; 'I' for Inactive)
ROOT
ATOM      1  N1  IND d   1      -4.004  -0.198  -1.597  0.00  0.00    -0.196 N 
ATOM      2  C2  IND d   1      -3.923   0.106  -0.266  0.00  0.00     0.054 A 
ATOM      3  C3  IND d   1      -2.878  -0.538   0.301  0.00  0.00    -0.031 A 
ATOM      4  C4  IND d   1      -1.109  -2.059  -0.787  0.00  0.00     0.051 A 
ATOM      5  C5  IND d   1      -0.786  -2.659  -1.972  0.00  0.00    -0.031 A 
ATOM      6  C6  IND d   1      -1.533  -2.464  -3.116  0.00  0.00     0.015 A 
ATOM      7  C7  IND d   1      -2.629  -1.648  -3.120  0.00  0.00    -0.016 A 
ATOM      8  C8  IND d   1      -2.964  -1.042  -1.918  0.00  0.00    -0.047 A 
ATOM      9  C9  IND d   1      -2.234  -1.270  -0.743  0.00  0.00    -0.096 A 
ATOM     10  HN1 IND d   1      -4.604   0.090  -2.142  0.00  0.00     0.298 HD
ENDROOT
TORSDOF 0
ENDMDL
