MODEL 1
REMARK minimizedAffinity 9.88234138
REMARK minimizedRMSD -1
REMARK  0 active torsions:
REMARK  status: ('A' for Active; 'I' for Inactive)
ROOT
ATOM      1  N1  IND d   1      -2.659   0.137  -1.209  0.00  0.00    -0.196 N 
ATOM      2  C2  IND d   1      -3.442  -0.004  -0.097  0.00  0.00     0.054 A 
ATOM      3  C3  IND d   1      -3.276  -1.233   0.442  0.00  0.00    -0.031 A 
ATOM      4  C4  IND d   1      -1.697  -3.135  -0.276  0.00  0.00     0.051 A 
ATOM      5  C5  IND d   1      -0.812  -3.488  -1.256  0.00  0.00    -0.031 A 
ATOM      6  C6  IND d   1      -0.489  -2.633  -2.289  0.00  0.00     0.015 A 
ATOM      7  C7  IND d   1      -1.033  -1.383  -2.376  0.00  0.00    -0.016 A 
ATOM      8  C8  IND d   1      -1.937  -1.023  -1.386  0.00  0.00    -0.047 A 
ATOM      9  C9  IND d   1      -2.301  -1.902  -0.358  0.00  0.00    -0.096 A 
ATOM     10  HN1 IND d   1      -2.623   0.833  -1.712  0.00  0.00     0.298 HD
ENDROOT
TORSDOF 0
ENDMDL
