MODEL 1
REMARK minimizedAffinity 3.12701654
REMARK minimizedRMSD -1
REMARK  0 active torsions:
REMARK  status: ('A' for Active; 'I' for Inactive)
ROOT
ATOM      1  N1  IND d   1       2.519   5.584  -4.756  0.00  0.00    -0.196 N 
ATOM      2  C2  IND d   1       1.431   5.617  -3.930  0.00  0.00     0.054 A 
ATOM      3  C3  IND d   1       1.010   4.362  -3.657  0.00  0.00    -0.031 A 
ATOM      4  C4  IND d   1       2.018   2.105  -4.376  0.00  0.00     0.051 A 
ATOM      5  C5  IND d   1       2.995   1.564  -5.164  0.00  0.00    -0.031 A 
ATOM      6  C6  IND d   1       3.883   2.351  -5.869  0.00  0.00     0.015 A 
ATOM      7  C7  IND d   1       3.834   3.715  -5.802  0.00  0.00    -0.016 A 
ATOM      8  C8  IND d   1       2.839   4.268  -5.008  0.00  0.00    -0.047 A 
ATOM      9  C9  IND d   1       1.908   3.475  -4.325  0.00  0.00    -0.096 A 
ATOM     10  HN1 IND d   1       2.935   6.270  -5.067  0.00  0.00     0.298 HD
ENDROOT
TORSDOF 0
ENDMDL
