MODEL 1
REMARK minimizedAffinity 4.99241972
REMARK minimizedRMSD -1
REMARK  1 active torsions:
REMARK  status: ('A' for Active; 'I' for Inactive)
REMARK    1  A    between atoms: C3_4  and  O_7 
ROOT
ATOM      1  C   UNL d   1       0.692  -0.111   4.514  0.00  0.00    -0.033 A 
ATOM      2  C1  UNL d   1       0.918  -1.473   4.301  0.00  0.00     0.039 A 
ATOM      3  C2  UNL d   1       0.928  -1.985   3.002  0.00  0.00    -0.080 A 
ATOM      4  C3  UNL d   1       0.713  -1.127   1.927  0.00  0.00     0.150 A 
ATOM      5  C4  UNL d   1       0.491   0.231   2.132  0.00  0.00    -0.007 A 
ATOM      6  C5  UNL d   1       0.480   0.740   3.430  0.00  0.00     0.039 A 
ENDROOT
BRANCH   4   7
ATOM      7  O   UNL d   1       0.709  -1.582   0.642  0.00  0.00    -0.526 OA
ATOM      8  H5  UNL d   1       0.847  -2.544   0.655  0.00  0.00     0.418 HD
ENDBRANCH   4   7
TORSDOF 1
ENDMDL
