MODEL 1
REMARK minimizedAffinity 3.36820006
REMARK minimizedRMSD -1
REMARK  1 active torsions:
REMARK  status: ('A' for Active; 'I' for Inactive)
REMARK    1  A    between atoms: C3_4  and  O_7 
ROOT
ATOM      1  C   UNL d   1       0.652  -1.381   3.370  0.00  0.00    -0.033 A 
ATOM      2  C1  UNL d   1       1.122  -0.602   4.429  0.00  0.00     0.039 A 
ATOM      3  C2  UNL d   1       0.705   0.723   4.563  0.00  0.00    -0.080 A 
ATOM      4  C3  UNL d   1      -0.184   1.257   3.633  0.00  0.00     0.150 A 
ATOM      5  C4  UNL d   1      -0.660   0.486   2.578  0.00  0.00    -0.007 A 
ATOM      6  C5  UNL d   1      -0.240  -0.837   2.445  0.00  0.00     0.039 A 
ENDROOT
BRANCH   4   7
ATOM      7  O   UNL d   1      -0.616   2.547   3.720  0.00  0.00    -0.526 OA
ATOM      8  H5  UNL d   1      -0.182   2.966   4.482  0.00  0.00     0.418 HD
ENDBRANCH   4   7
TORSDOF 1
ENDMDL
