MODEL 1
REMARK minimizedAffinity 5.01243639
REMARK minimizedRMSD -1
REMARK  1 active torsions:
REMARK  status: ('A' for Active; 'I' for Inactive)
REMARK    1  A    between atoms: C3_4  and  O_7 
ROOT
ATOM      1  C   UNL d   1       0.769  -0.949   1.970  0.00  0.00    -0.033 A 
ATOM      2  C1  UNL d   1       1.753  -1.160   2.938  0.00  0.00     0.039 A 
ATOM      3  C2  UNL d   1       1.791  -0.362   4.083  0.00  0.00    -0.080 A 
ATOM      4  C3  UNL d   1       0.839   0.641   4.249  0.00  0.00     0.150 A 
ATOM      5  C4  UNL d   1      -0.146   0.853   3.291  0.00  0.00    -0.007 A 
ATOM      6  C5  UNL d   1      -0.182   0.057   2.148  0.00  0.00     0.039 A 
ENDROOT
BRANCH   4   7
ATOM      7  O   UNL d   1       0.839   1.448   5.348  0.00  0.00    -0.526 OA
ATOM      8  H5  UNL d   1       1.594   1.204   5.909  0.00  0.00     0.418 HD
ENDBRANCH   4   7
TORSDOF 1
ENDMDL
