MODEL 1
REMARK minimizedAffinity 6.34207058
REMARK minimizedRMSD -1
REMARK  1 active torsions:
REMARK  status: ('A' for Active; 'I' for Inactive)
REMARK    1  A    between atoms: C3_4  and  O_7 
ROOT
ATOM      1  C   UNL d   1       1.057   0.794   2.374  0.00  0.00    -0.033 A 
ATOM      2  C1  UNL d   1      -0.014  -0.068   2.129  0.00  0.00     0.039 A 
ATOM      3  C2  UNL d   1      -0.025  -1.348   2.687  0.00  0.00    -0.080 A 
ATOM      4  C3  UNL d   1       1.039  -1.753   3.489  0.00  0.00     0.150 A 
ATOM      5  C4  UNL d   1       2.107  -0.898   3.740  0.00  0.00    -0.007 A 
ATOM      6  C5  UNL d   1       2.117   0.379   3.181  0.00  0.00     0.039 A 
ENDROOT
BRANCH   4   7
ATOM      7  O   UNL d   1       1.075  -2.994   4.051  0.00  0.00    -0.526 OA
ATOM      8  H5  UNL d   1       0.285  -3.484   3.767  0.00  0.00     0.418 HD
ENDBRANCH   4   7
TORSDOF 1
ENDMDL
