MODEL 1
REMARK minimizedAffinity 8.25571156
REMARK minimizedRMSD -1
REMARK  1 active torsions:
REMARK  status: ('A' for Active; 'I' for Inactive)
REMARK    1  A    between atoms: C3_4  and  O_7 
ROOT
ATOM      1  C   UNL d   1       0.041   0.652   2.324  0.00  0.00    -0.033 A 
ATOM      2  C1  UNL d   1      -1.181   0.200   2.826  0.00  0.00     0.039 A 
ATOM      3  C2  UNL d   1      -1.263  -1.045   3.453  0.00  0.00    -0.080 A 
ATOM      4  C3  UNL d   1      -0.117  -1.826   3.574  0.00  0.00     0.150 A 
ATOM      5  C4  UNL d   1       1.105  -1.380   3.080  0.00  0.00    -0.007 A 
ATOM      6  C5  UNL d   1       1.184  -0.137   2.453  0.00  0.00     0.039 A 
ENDROOT
BRANCH   4   7
ATOM      7  O   UNL d   1      -0.148  -3.050   4.174  0.00  0.00    -0.526 OA
ATOM      8  H5  UNL d   1      -1.064  -3.238   4.440  0.00  0.00     0.418 HD
ENDBRANCH   4   7
TORSDOF 1
ENDMDL
