MODEL 1
REMARK minimizedAffinity 5.41693401
REMARK minimizedRMSD -1
REMARK  1 active torsions:
REMARK  status: ('A' for Active; 'I' for Inactive)
REMARK    1  A    between atoms: C3_4  and  O_7 
ROOT
ATOM      1  C   UNL d   1      -2.972  -1.645   0.103  0.00  0.00    -0.033 A 
ATOM      2  C1  UNL d   1      -3.112  -0.840   1.235  0.00  0.00     0.039 A 
ATOM      3  C2  UNL d   1      -3.716   0.414   1.133  0.00  0.00    -0.080 A 
ATOM      4  C3  UNL d   1      -4.176   0.852  -0.106  0.00  0.00     0.150 A 
ATOM      5  C4  UNL d   1      -4.043   0.054  -1.238  0.00  0.00    -0.007 A 
ATOM      6  C5  UNL d   1      -3.439  -1.198  -1.134  0.00  0.00     0.039 A 
ENDROOT
BRANCH   4   7
ATOM      7  O   UNL d   1      -4.768   2.071  -0.257  0.00  0.00    -0.526 OA
ATOM      8  H5  UNL d   1      -4.765   2.522   0.604  0.00  0.00     0.418 HD
ENDBRANCH   4   7
TORSDOF 1
ENDMDL
