MODEL 1
REMARK minimizedAffinity 9.2214098
REMARK minimizedRMSD -1
REMARK  1 active torsions:
REMARK  status: ('A' for Active; 'I' for Inactive)
REMARK    1  A    between atoms: C3_4  and  O_7 
ROOT
ATOM      1  C   UNL d   1      -0.629  -1.358  -3.806  0.00  0.00    -0.033 A 
ATOM      2  C1  UNL d   1      -0.261  -1.248  -5.149  0.00  0.00     0.039 A 
ATOM      3  C2  UNL d   1       0.943  -0.632  -5.496  0.00  0.00    -0.080 A 
ATOM      4  C3  UNL d   1       1.770  -0.134  -4.494  0.00  0.00     0.150 A 
ATOM      5  C4  UNL d   1       1.412  -0.244  -3.154  0.00  0.00    -0.007 A 
ATOM      6  C5  UNL d   1       0.209  -0.858  -2.809  0.00  0.00     0.039 A 
ENDROOT
BRANCH   4   7
ATOM      7  O   UNL d   1       2.952   0.479  -4.785  0.00  0.00    -0.526 OA
ATOM      8  H5  UNL d   1       3.054   0.509  -5.751  0.00  0.00     0.418 HD
ENDBRANCH   4   7
TORSDOF 1
ENDMDL
