MODEL 1
REMARK minimizedAffinity 6.08868599
REMARK minimizedRMSD -1
REMARK  1 active torsions:
REMARK  status: ('A' for Active; 'I' for Inactive)
REMARK    1  A    between atoms: C3_4  and  O_7 
ROOT
ATOM      1  C   UNL d   1       1.245  -0.877   2.970  0.00  0.00    -0.033 A 
ATOM      2  C1  UNL d   1       0.337  -1.853   2.555  0.00  0.00     0.039 A 
ATOM      3  C2  UNL d   1      -0.937  -1.483   2.117  0.00  0.00    -0.080 A 
ATOM      4  C3  UNL d   1      -1.289  -0.136   2.099  0.00  0.00     0.150 A 
ATOM      5  C4  UNL d   1      -0.388   0.842   2.507  0.00  0.00    -0.007 A 
ATOM      6  C5  UNL d   1       0.883   0.471   2.945  0.00  0.00     0.039 A 
ENDROOT
BRANCH   4   7
ATOM      7  O   UNL d   1      -2.522   0.272   1.685  0.00  0.00    -0.526 OA
ATOM      8  H5  UNL d   1      -3.047  -0.514   1.460  0.00  0.00     0.418 HD
ENDBRANCH   4   7
TORSDOF 1
ENDMDL
