MODEL 1
REMARK minimizedAffinity 12.1985044
REMARK minimizedRMSD -1
REMARK  1 active torsions:
REMARK  status: ('A' for Active; 'I' for Inactive)
REMARK    1  A    between atoms: C3_4  and  O_7 
ROOT
ATOM      1  C   UNL d   1      -0.415   0.268   2.350  0.00  0.00    -0.033 A 
ATOM      2  C1  UNL d   1      -1.222  -0.845   2.592  0.00  0.00     0.039 A 
ATOM      3  C2  UNL d   1      -0.679  -1.988   3.184  0.00  0.00    -0.080 A 
ATOM      4  C3  UNL d   1       0.670  -2.003   3.529  0.00  0.00     0.150 A 
ATOM      5  C4  UNL d   1       1.478  -0.896   3.294  0.00  0.00    -0.007 A 
ATOM      6  C5  UNL d   1       0.935   0.244   2.702  0.00  0.00     0.039 A 
ENDROOT
BRANCH   4   7
ATOM      7  O   UNL d   1       1.245  -3.096   4.104  0.00  0.00    -0.526 OA
ATOM      8  H5  UNL d   1       0.573  -3.794   4.179  0.00  0.00     0.418 HD
ENDBRANCH   4   7
TORSDOF 1
ENDMDL
