MODEL 1
REMARK minimizedAffinity -4.44873857
REMARK minimizedRMSD -1
REMARK  2 active torsions:
REMARK  status: ('A' for Active; 'I' for Inactive)
REMARK    1  A    between atoms: C1_2  and  C2_3 
REMARK    2  A    between atoms: C2_3  and  C3_4 
ROOT
ATOM      1  C3  UNL d   1      -2.742   0.875   0.797  0.00  0.00    -0.075 A 
ATOM      2  C4  UNL d   1      -1.866  -0.206   0.618  0.00  0.00     0.002 A 
ATOM      3  C5  UNL d   1      -0.527   0.013   0.294  0.00  0.00     0.002 A 
ATOM      4  C6  UNL d   1      -0.049   1.313   0.136  0.00  0.00    -0.004 A 
ATOM      5  C7  UNL d   1      -0.914   2.393   0.296  0.00  0.00     0.002 A 
ATOM      6  C8  UNL d   1      -2.253   2.177   0.624  0.00  0.00     0.002 A 
ENDROOT
BRANCH   1   7
ATOM      7  C2  UNL d   1      -4.185   0.645   1.176  0.00  0.00     0.056 C 
BRANCH   7   8
ATOM      8  C1  UNL d   1      -5.157   1.671   0.584  0.00  0.00     0.007 C 
ATOM      9  C   UNL d   1      -5.998   2.379   1.638  0.00  0.00     0.009 C 
ENDBRANCH   7   8
ENDBRANCH   1   7
TORSDOF 2
ENDMDL
