MODEL 1
REMARK minimizedAffinity -0.566450357
REMARK minimizedRMSD -1
REMARK  2 active torsions:
REMARK  status: ('A' for Active; 'I' for Inactive)
REMARK    1  A    between atoms: C1_2  and  C2_3 
REMARK    2  A    between atoms: C2_3  and  C3_4 
ROOT
ATOM      1  C3  UNL d   1      -3.323   1.820   0.561  0.00  0.00    -0.075 A 
ATOM      2  C4  UNL d   1      -4.283   2.825   0.370  0.00  0.00     0.002 A 
ATOM      3  C5  UNL d   1      -5.612   2.614   0.739  0.00  0.00     0.002 A 
ATOM      4  C6  UNL d   1      -6.000   1.396   1.292  0.00  0.00    -0.004 A 
ATOM      5  C7  UNL d   1      -5.058   0.384   1.470  0.00  0.00     0.002 A 
ATOM      6  C8  UNL d   1      -3.727   0.594   1.106  0.00  0.00     0.002 A 
ENDROOT
BRANCH   1   7
ATOM      7  C2  UNL d   1      -1.878   2.052   0.191  0.00  0.00     0.056 C 
BRANCH   7   8
ATOM      8  C1  UNL d   1      -1.058   0.766   0.040  0.00  0.00     0.007 C 
ATOM      9  C   UNL d   1      -0.012   0.589   1.133  0.00  0.00     0.009 C 
ENDBRANCH   7   8
ENDBRANCH   1   7
TORSDOF 2
ENDMDL
