MODEL 1
REMARK minimizedAffinity -2.97529817
REMARK minimizedRMSD -1
REMARK  2 active torsions:
REMARK  status: ('A' for Active; 'I' for Inactive)
REMARK    1  A    between atoms: C1_2  and  C2_3 
REMARK    2  A    between atoms: C2_3  and  C3_4 
ROOT
ATOM      1  C3  UNL d   1       0.565   1.229   0.685  0.00  0.00    -0.075 A 
ATOM      2  C4  UNL d   1       1.243   1.656  -0.465  0.00  0.00     0.002 A 
ATOM      3  C5  UNL d   1       2.638   1.650  -0.509  0.00  0.00     0.002 A 
ATOM      4  C6  UNL d   1       3.371   1.227   0.597  0.00  0.00    -0.004 A 
ATOM      5  C7  UNL d   1       2.708   0.816   1.752  0.00  0.00     0.002 A 
ATOM      6  C8  UNL d   1       1.312   0.817   1.797  0.00  0.00     0.002 A 
ENDROOT
BRANCH   1   7
ATOM      7  C2  UNL d   1      -0.944   1.206   0.729  0.00  0.00     0.056 C 
BRANCH   7   8
ATOM      8  C1  UNL d   1      -1.606   2.412   0.055  0.00  0.00     0.007 C 
ATOM      9  C   UNL d   1      -2.980   2.739   0.625  0.00  0.00     0.009 C 
ENDBRANCH   7   8
ENDBRANCH   1   7
TORSDOF 2
ENDMDL
