MODEL 1
REMARK minimizedAffinity -3.46436238
REMARK minimizedRMSD -1
REMARK  2 active torsions:
REMARK  status: ('A' for Active; 'I' for Inactive)
REMARK    1  A    between atoms: C1_2  and  C2_3 
REMARK    2  A    between atoms: C2_3  and  C3_4 
ROOT
ATOM      1  C3  UNL d   1       0.385   1.473   1.033  0.00  0.00    -0.075 A 
ATOM      2  C4  UNL d   1      -0.557   0.811   1.834  0.00  0.00     0.002 A 
ATOM      3  C5  UNL d   1      -1.889   0.718   1.431  0.00  0.00     0.002 A 
ATOM      4  C6  UNL d   1      -2.299   1.294   0.230  0.00  0.00    -0.004 A 
ATOM      5  C7  UNL d   1      -1.375   1.969  -0.565  0.00  0.00     0.002 A 
ATOM      6  C8  UNL d   1      -0.040   2.059  -0.167  0.00  0.00     0.002 A 
ENDROOT
BRANCH   1   7
ATOM      7  C2  UNL d   1       1.835   1.551   1.449  0.00  0.00     0.056 C 
BRANCH   7   8
ATOM      8  C1  UNL d   1       2.670   0.336   1.032  0.00  0.00     0.007 C 
ATOM      9  C   UNL d   1       3.265   0.467  -0.363  0.00  0.00     0.009 C 
ENDBRANCH   7   8
ENDBRANCH   1   7
TORSDOF 2
ENDMDL
