MODEL 1
REMARK minimizedAffinity -0.142564923
REMARK minimizedRMSD -1
REMARK  2 active torsions:
REMARK  status: ('A' for Active; 'I' for Inactive)
REMARK    1  A    between atoms: C1_2  and  C2_3 
REMARK    2  A    between atoms: C2_3  and  C3_4 
ROOT
ATOM      1  C3  UNL d   1      -2.775   1.122   0.653  0.00  0.00    -0.075 A 
ATOM      2  C4  UNL d   1      -2.287   2.415   0.895  0.00  0.00     0.002 A 
ATOM      3  C5  UNL d   1      -0.927   2.628   1.122  0.00  0.00     0.002 A 
ATOM      4  C6  UNL d   1      -0.041   1.553   1.120  0.00  0.00    -0.004 A 
ATOM      5  C7  UNL d   1      -0.517   0.262   0.897  0.00  0.00     0.002 A 
ATOM      6  C8  UNL d   1      -1.877   0.047   0.666  0.00  0.00     0.002 A 
ENDROOT
BRANCH   1   7
ATOM      7  C2  UNL d   1      -4.241   0.889   0.378  0.00  0.00     0.056 C 
BRANCH   7   8
ATOM      8  C1  UNL d   1      -5.147   1.109   1.595  0.00  0.00     0.007 C 
ATOM      9  C   UNL d   1      -6.000   2.366   1.489  0.00  0.00     0.009 C 
ENDBRANCH   7   8
ENDBRANCH   1   7
TORSDOF 2
ENDMDL
