MODEL 1
REMARK minimizedAffinity -3.29127049
REMARK minimizedRMSD -1
REMARK  2 active torsions:
REMARK  status: ('A' for Active; 'I' for Inactive)
REMARK    1  A    between atoms: C1_2  and  C2_3 
REMARK    2  A    between atoms: C2_3  and  C3_4 
ROOT
ATOM      1  C3  UNL d   1      -2.425   2.249   0.367  0.00  0.00    -0.075 A 
ATOM      2  C4  UNL d   1      -2.318   1.079   1.134  0.00  0.00     0.002 A 
ATOM      3  C5  UNL d   1      -1.078   0.468   1.323  0.00  0.00     0.002 A 
ATOM      4  C6  UNL d   1       0.066   1.011   0.742  0.00  0.00    -0.004 A 
ATOM      5  C7  UNL d   1      -0.032   2.163  -0.035  0.00  0.00     0.002 A 
ATOM      6  C8  UNL d   1      -1.270   2.779  -0.223  0.00  0.00     0.002 A 
ENDROOT
BRANCH   1   7
ATOM      7  C2  UNL d   1      -3.759   2.932   0.183  0.00  0.00     0.056 C 
BRANCH   7   8
ATOM      8  C1  UNL d   1      -4.943   2.158   0.773  0.00  0.00     0.007 C 
ATOM      9  C   UNL d   1      -5.992   3.060   1.411  0.00  0.00     0.009 C 
ENDBRANCH   7   8
ENDBRANCH   1   7
TORSDOF 2
ENDMDL
