MODEL 1
REMARK minimizedAffinity 2.05360675
REMARK minimizedRMSD -1
REMARK  2 active torsions:
REMARK  status: ('A' for Active; 'I' for Inactive)
REMARK    1  A    between atoms: C1_2  and  C2_3 
REMARK    2  A    between atoms: C2_3  and  C3_4 
ROOT
ATOM      1  C3  UNL d   1      -2.215   2.331   0.943  0.00  0.00    -0.075 A 
ATOM      2  C4  UNL d   1      -2.040   1.163   1.699  0.00  0.00     0.002 A 
ATOM      3  C5  UNL d   1      -0.884   0.395   1.558  0.00  0.00     0.002 A 
ATOM      4  C6  UNL d   1       0.105   0.779   0.656  0.00  0.00    -0.004 A 
ATOM      5  C7  UNL d   1      -0.065   1.929  -0.112  0.00  0.00     0.002 A 
ATOM      6  C8  UNL d   1      -1.219   2.701   0.030  0.00  0.00     0.002 A 
ENDROOT
BRANCH   1   7
ATOM      7  C2  UNL d   1      -3.451   3.183   1.112  0.00  0.00     0.056 C 
BRANCH   7   8
ATOM      8  C1  UNL d   1      -4.765   2.398   1.029  0.00  0.00     0.007 C 
ATOM      9  C   UNL d   1      -6.000   3.284   1.124  0.00  0.00     0.009 C 
ENDBRANCH   7   8
ENDBRANCH   1   7
TORSDOF 2
ENDMDL
