MODEL 1
REMARK minimizedAffinity -4.77610588
REMARK minimizedRMSD -1
REMARK  2 active torsions:
REMARK  status: ('A' for Active; 'I' for Inactive)
REMARK    1  A    between atoms: C1_2  and  C2_3 
REMARK    2  A    between atoms: C2_3  and  C3_4 
ROOT
ATOM      1  C3  UNL d   1      -2.729   1.687   0.222  0.00  0.00    -0.075 A 
ATOM      2  C4  UNL d   1      -1.452   2.223  -0.001  0.00  0.00     0.002 A 
ATOM      3  C5  UNL d   1      -0.315   1.558   0.458  0.00  0.00     0.002 A 
ATOM      4  C6  UNL d   1      -0.439   0.357   1.153  0.00  0.00    -0.004 A 
ATOM      5  C7  UNL d   1      -1.703  -0.176   1.394  0.00  0.00     0.002 A 
ATOM      6  C8  UNL d   1      -2.843   0.485   0.932  0.00  0.00     0.002 A 
ENDROOT
BRANCH   1   7
ATOM      7  C2  UNL d   1      -3.962   2.387  -0.298  0.00  0.00     0.056 C 
BRANCH   7   8
ATOM      8  C1  UNL d   1      -5.265   1.927   0.363  0.00  0.00     0.007 C 
ATOM      9  C   UNL d   1      -5.999   3.047   1.088  0.00  0.00     0.009 C 
ENDBRANCH   7   8
ENDBRANCH   1   7
TORSDOF 2
ENDMDL
