MODEL 1
REMARK minimizedAffinity -3.68617415
REMARK minimizedRMSD -1
REMARK  2 active torsions:
REMARK  status: ('A' for Active; 'I' for Inactive)
REMARK    1  A    between atoms: C1_2  and  C2_3 
REMARK    2  A    between atoms: C2_3  and  C3_4 
ROOT
ATOM      1  C3  UNL d   1      -2.475   1.354   0.484  0.00  0.00    -0.075 A 
ATOM      2  C4  UNL d   1      -1.356   2.147   0.189  0.00  0.00     0.002 A 
ATOM      3  C5  UNL d   1      -0.070   1.694   0.482  0.00  0.00     0.002 A 
ATOM      4  C6  UNL d   1       0.115   0.450   1.081  0.00  0.00    -0.004 A 
ATOM      5  C7  UNL d   1      -0.990  -0.339   1.394  0.00  0.00     0.002 A 
ATOM      6  C8  UNL d   1      -2.278   0.110   1.098  0.00  0.00     0.002 A 
ENDROOT
BRANCH   1   7
ATOM      7  C2  UNL d   1      -3.868   1.825   0.143  0.00  0.00     0.056 C 
BRANCH   7   8
ATOM      8  C1  UNL d   1      -4.975   1.125   0.937  0.00  0.00     0.007 C 
ATOM      9  C   UNL d   1      -5.997   2.091   1.522  0.00  0.00     0.009 C 
ENDBRANCH   7   8
ENDBRANCH   1   7
TORSDOF 2
ENDMDL
