MODEL 1
REMARK minimizedAffinity 3.35530639
REMARK minimizedRMSD -1
REMARK  2 active torsions:
REMARK  status: ('A' for Active; 'I' for Inactive)
REMARK    1  A    between atoms: C1_2  and  C2_3 
REMARK    2  A    between atoms: C2_3  and  C3_4 
ROOT
ATOM      1  C3  UNL d   1      -0.463   1.094   1.246  0.00  0.00    -0.075 A 
ATOM      2  C4  UNL d   1      -1.282  -0.008   1.532  0.00  0.00     0.002 A 
ATOM      3  C5  UNL d   1      -1.380  -0.497   2.835  0.00  0.00     0.002 A 
ATOM      4  C6  UNL d   1      -0.656   0.101   3.864  0.00  0.00    -0.004 A 
ATOM      5  C7  UNL d   1       0.173   1.186   3.588  0.00  0.00     0.002 A 
ATOM      6  C8  UNL d   1       0.270   1.680   2.286  0.00  0.00     0.002 A 
ENDROOT
BRANCH   1   7
ATOM      7  C2  UNL d   1      -0.375   1.646  -0.157  0.00  0.00     0.056 C 
BRANCH   7   8
ATOM      8  C1  UNL d   1      -1.231   2.895  -0.390  0.00  0.00     0.007 C 
ATOM      9  C   UNL d   1      -2.529   2.891   0.405  0.00  0.00     0.009 C 
ENDBRANCH   7   8
ENDBRANCH   1   7
TORSDOF 2
ENDMDL
