MODEL 1
REMARK minimizedAffinity -1.9203279
REMARK minimizedRMSD -1
REMARK  2 active torsions:
REMARK  status: ('A' for Active; 'I' for Inactive)
REMARK    1  A    between atoms: C1_2  and  C2_3 
REMARK    2  A    between atoms: C2_3  and  C3_4 
ROOT
ATOM      1  C3  UNL d   1       0.741   0.875   0.707  0.00  0.00    -0.075 A 
ATOM      2  C4  UNL d   1       0.758   2.070  -0.026  0.00  0.00     0.002 A 
ATOM      3  C5  UNL d   1      -0.327   2.945   0.020  0.00  0.00     0.002 A 
ATOM      4  C6  UNL d   1      -1.445   2.634   0.791  0.00  0.00    -0.004 A 
ATOM      5  C7  UNL d   1      -1.479   1.442   1.511  0.00  0.00     0.002 A 
ATOM      6  C8  UNL d   1      -0.393   0.566   1.470  0.00  0.00     0.002 A 
ENDROOT
BRANCH   1   7
ATOM      7  C2  UNL d   1       1.925  -0.063   0.684  0.00  0.00     0.056 C 
BRANCH   7   8
ATOM      8  C1  UNL d   1       2.997   0.261   1.730  0.00  0.00     0.007 C 
ATOM      9  C   UNL d   1       2.674   1.497   2.559  0.00  0.00     0.009 C 
ENDBRANCH   7   8
ENDBRANCH   1   7
TORSDOF 2
ENDMDL
