MODEL 1
REMARK minimizedAffinity -1.38839531
REMARK minimizedRMSD -1
REMARK  2 active torsions:
REMARK  status: ('A' for Active; 'I' for Inactive)
REMARK    1  A    between atoms: C1_2  and  C2_3 
REMARK    2  A    between atoms: C2_3  and  C3_4 
ROOT
ATOM      1  C3  UNL d   1      -2.375   2.047   0.859  0.00  0.00    -0.075 A 
ATOM      2  C4  UNL d   1      -2.515   0.775   1.432  0.00  0.00     0.002 A 
ATOM      3  C5  UNL d   1      -1.412  -0.071   1.558  0.00  0.00     0.002 A 
ATOM      4  C6  UNL d   1      -0.161   0.339   1.104  0.00  0.00    -0.004 A 
ATOM      5  C7  UNL d   1      -0.013   1.595   0.518  0.00  0.00     0.002 A 
ATOM      6  C8  UNL d   1      -1.114   2.444   0.395  0.00  0.00     0.002 A 
ENDROOT
BRANCH   1   7
ATOM      7  C2  UNL d   1      -3.558   2.978   0.747  0.00  0.00     0.056 C 
BRANCH   7   8
ATOM      8  C1  UNL d   1      -4.914   2.266   0.739  0.00  0.00     0.007 C 
ATOM      9  C   UNL d   1      -6.000   3.032   1.483  0.00  0.00     0.009 C 
ENDBRANCH   7   8
ENDBRANCH   1   7
TORSDOF 2
ENDMDL
