MODEL 1
REMARK minimizedAffinity -1.53135109
REMARK minimizedRMSD -1
REMARK  0 active torsions:
REMARK  status: ('A' for Active; 'I' for Inactive)
ROOT
ATOM      1  C   UNL d   1      -2.426   0.038   2.363  0.00  0.00     0.172 C 
ATOM      2  N   UNL d   1      -1.457   0.687   1.511  0.00  0.00    -0.070 N 
ATOM      3  C1  UNL d   1      -0.827   0.115   0.438  0.00  0.00    -0.004 A 
ATOM      4  C2  UNL d   1       0.017   1.058  -0.107  0.00  0.00    -0.047 A 
ATOM      5  C3  UNL d   1      -0.109   2.237   0.665  0.00  0.00    -0.047 A 
ATOM      6  C4  UNL d   1      -1.028   1.980   1.660  0.00  0.00    -0.004 A 
ENDROOT
TORSDOF 0
ENDMDL
