MODEL 1
REMARK minimizedAffinity -2.57645798
REMARK minimizedRMSD -1
REMARK  0 active torsions:
REMARK  status: ('A' for Active; 'I' for Inactive)
ROOT
ATOM      1  C   UNL d   1      -1.081   1.436  -0.164  0.00  0.00     0.172 C 
ATOM      2  N   UNL d   1      -1.555   1.216   1.182  0.00  0.00    -0.070 N 
ATOM      3  C1  UNL d   1      -2.087   0.048   1.660  0.00  0.00    -0.004 A 
ATOM      4  C2  UNL d   1      -2.415   0.245   2.984  0.00  0.00    -0.047 A 
ATOM      5  C3  UNL d   1      -2.068   1.577   3.313  0.00  0.00    -0.047 A 
ATOM      6  C4  UNL d   1      -1.538   2.155   2.179  0.00  0.00    -0.004 A 
ENDROOT
TORSDOF 0
ENDMDL
