MODEL 1
REMARK minimizedAffinity -1.28383601
REMARK minimizedRMSD -1
REMARK  0 active torsions:
REMARK  status: ('A' for Active; 'I' for Inactive)
ROOT
ATOM      1  C   UNL d   1      -0.750  -0.000   0.227  0.00  0.00     0.172 C 
ATOM      2  N   UNL d   1       0.282  -0.814  -0.371  0.00  0.00    -0.070 N 
ATOM      3  C1  UNL d   1       0.713  -2.027   0.096  0.00  0.00    -0.004 A 
ATOM      4  C2  UNL d   1       1.703  -2.477  -0.750  0.00  0.00    -0.047 A 
ATOM      5  C3  UNL d   1       1.875  -1.500  -1.759  0.00  0.00    -0.047 A 
ATOM      6  C4  UNL d   1       0.983  -0.481  -1.500  0.00  0.00    -0.004 A 
ENDROOT
TORSDOF 0
ENDMDL
