MODEL 1
REMARK minimizedAffinity -3.35922098
REMARK minimizedRMSD -1
REMARK  0 active torsions:
REMARK  status: ('A' for Active; 'I' for Inactive)
ROOT
ATOM      1  C   UNL d   1       1.939  -1.009  -1.570  0.00  0.00     0.172 C 
ATOM      2  N   UNL d   1       1.058  -0.120  -0.851  0.00  0.00    -0.070 N 
ATOM      3  C1  UNL d   1       0.363  -0.432   0.287  0.00  0.00    -0.004 A 
ATOM      4  C2  UNL d   1      -0.358   0.681   0.660  0.00  0.00    -0.047 A 
ATOM      5  C3  UNL d   1      -0.088   1.698  -0.286  0.00  0.00    -0.047 A 
ATOM      6  C4  UNL d   1       0.791   1.175  -1.211  0.00  0.00    -0.004 A 
ENDROOT
TORSDOF 0
ENDMDL
