MODEL 1
REMARK minimizedAffinity -2.46044803
REMARK minimizedRMSD -1
REMARK  0 active torsions:
REMARK  status: ('A' for Active; 'I' for Inactive)
ROOT
ATOM      1  C   UNL d   1       0.946  -1.771  -0.059  0.00  0.00     0.172 C 
ATOM      2  N   UNL d   1       0.147  -0.573   0.049  0.00  0.00    -0.070 N 
ATOM      3  C1  UNL d   1      -0.451  -0.113   1.192  0.00  0.00    -0.004 A 
ATOM      4  C2  UNL d   1      -1.117   1.052   0.880  0.00  0.00    -0.047 A 
ATOM      5  C3  UNL d   1      -0.914   1.300  -0.498  0.00  0.00    -0.047 A 
ATOM      6  C4  UNL d   1      -0.128   0.278  -0.988  0.00  0.00    -0.004 A 
ENDROOT
TORSDOF 0
ENDMDL
