MODEL 1
REMARK minimizedAffinity -3.63759518
REMARK minimizedRMSD -1
REMARK  0 active torsions:
REMARK  status: ('A' for Active; 'I' for Inactive)
ROOT
ATOM      1  C   UNL d   1       0.001   1.796  -1.141  0.00  0.00     0.172 C 
ATOM      2  N   UNL d   1       0.360   0.419  -0.892  0.00  0.00    -0.070 N 
ATOM      3  C1  UNL d   1       1.434  -0.235  -1.433  0.00  0.00    -0.004 A 
ATOM      4  C2  UNL d   1       1.429  -1.526  -0.950  0.00  0.00    -0.047 A 
ATOM      5  C3  UNL d   1       0.312  -1.652  -0.091  0.00  0.00    -0.047 A 
ATOM      6  C4  UNL d   1      -0.332  -0.433  -0.073  0.00  0.00    -0.004 A 
ENDROOT
TORSDOF 0
ENDMDL
