MODEL 1
REMARK minimizedAffinity -3.39733005
REMARK minimizedRMSD -1
REMARK  0 active torsions:
REMARK  status: ('A' for Active; 'I' for Inactive)
ROOT
ATOM      1  C   UNL d   1      -1.502   0.748   2.996  0.00  0.00     0.172 C 
ATOM      2  N   UNL d   1      -1.158   0.910   1.603  0.00  0.00    -0.070 N 
ATOM      3  C1  UNL d   1      -0.022   0.436   1.001  0.00  0.00    -0.004 A 
ATOM      4  C2  UNL d   1      -0.068   0.797  -0.328  0.00  0.00    -0.047 A 
ATOM      5  C3  UNL d   1      -1.271   1.512  -0.532  0.00  0.00    -0.047 A 
ATOM      6  C4  UNL d   1      -1.927   1.567   0.680  0.00  0.00    -0.004 A 
ENDROOT
TORSDOF 0
ENDMDL
