MODEL 1
REMARK minimizedAffinity -2.82963681
REMARK minimizedRMSD -1
REMARK  0 active torsions:
REMARK  status: ('A' for Active; 'I' for Inactive)
ROOT
ATOM      1  C   UNL d   1       4.799   3.006   3.356  0.00  0.00     0.172 C 
ATOM      2  N   UNL d   1       5.105   1.957   4.300  0.00  0.00    -0.070 N 
ATOM      3  C1  UNL d   1       5.997   2.050   5.335  0.00  0.00    -0.004 A 
ATOM      4  C2  UNL d   1       6.000   0.842   5.999  0.00  0.00    -0.047 A 
ATOM      5  C3  UNL d   1       5.079  -0.006   5.340  0.00  0.00    -0.047 A 
ATOM      6  C4  UNL d   1       4.539   0.710   4.292  0.00  0.00    -0.004 A 
ENDROOT
TORSDOF 0
ENDMDL
