MODEL 1
REMARK minimizedAffinity -3.24550462
REMARK minimizedRMSD -1
REMARK  0 active torsions:
REMARK  status: ('A' for Active; 'I' for Inactive)
ROOT
ATOM      1  C   UNL d   1      -2.325   0.953   3.481  0.00  0.00     0.172 C 
ATOM      2  N   UNL d   1      -1.680   1.129   2.201  0.00  0.00    -0.070 N 
ATOM      3  C1  UNL d   1      -1.038   2.263   1.781  0.00  0.00    -0.004 A 
ATOM      4  C2  UNL d   1      -0.559   2.030   0.510  0.00  0.00    -0.047 A 
ATOM      5  C3  UNL d   1      -0.927   0.711   0.154  0.00  0.00    -0.047 A 
ATOM      6  C4  UNL d   1      -1.619   0.176   1.219  0.00  0.00    -0.004 A 
ENDROOT
TORSDOF 0
ENDMDL
