MODEL 1
REMARK minimizedAffinity -3.63636971
REMARK minimizedRMSD -1
REMARK  0 active torsions:
REMARK  status: ('A' for Active; 'I' for Inactive)
ROOT
ATOM      1  C   UNL d   1      -0.426  -0.577  -0.072  0.00  0.00     0.172 C 
ATOM      2  N   UNL d   1      -0.883   0.543   0.717  0.00  0.00    -0.070 N 
ATOM      3  C1  UNL d   1      -1.706   0.467   1.809  0.00  0.00    -0.004 A 
ATOM      4  C2  UNL d   1      -1.904   1.748   2.277  0.00  0.00    -0.047 A 
ATOM      5  C3  UNL d   1      -1.176   2.624   1.437  0.00  0.00    -0.047 A 
ATOM      6  C4  UNL d   1      -0.553   1.851   0.480  0.00  0.00    -0.004 A 
ENDROOT
TORSDOF 0
ENDMDL
