MODEL 1
REMARK minimizedAffinity -1.72886169
REMARK minimizedRMSD -1
REMARK  0 active torsions:
REMARK  status: ('A' for Active; 'I' for Inactive)
ROOT
ATOM      1  C   UNL d   1       0.108   2.092  -0.418  0.00  0.00     0.172 C 
ATOM      2  N   UNL d   1       0.217   0.652  -0.421  0.00  0.00    -0.070 N 
ATOM      3  C1  UNL d   1      -0.794  -0.225  -0.134  0.00  0.00    -0.004 A 
ATOM      4  C2  UNL d   1      -0.289  -1.502  -0.247  0.00  0.00    -0.047 A 
ATOM      5  C3  UNL d   1       1.073  -1.388  -0.613  0.00  0.00    -0.047 A 
ATOM      6  C4  UNL d   1       1.360  -0.044  -0.714  0.00  0.00    -0.004 A 
ENDROOT
TORSDOF 0
ENDMDL
