MODEL 1
REMARK minimizedAffinity -3.52720451
REMARK minimizedRMSD -1
REMARK  0 active torsions:
REMARK  status: ('A' for Active; 'I' for Inactive)
ROOT
ATOM      1  C   UNL d   1       0.151   2.058  -0.004  0.00  0.00     0.172 C 
ATOM      2  N   UNL d   1       0.303   0.653  -0.298  0.00  0.00    -0.070 N 
ATOM      3  C1  UNL d   1       1.481   0.023  -0.597  0.00  0.00    -0.004 A 
ATOM      4  C2  UNL d   1       1.204  -1.310  -0.813  0.00  0.00    -0.047 A 
ATOM      5  C3  UNL d   1      -0.189  -1.487  -0.638  0.00  0.00    -0.047 A 
ATOM      6  C4  UNL d   1      -0.722  -0.256  -0.320  0.00  0.00    -0.004 A 
ENDROOT
TORSDOF 0
ENDMDL
