MODEL 1
REMARK minimizedAffinity -2.87424541
REMARK minimizedRMSD -1
REMARK  0 active torsions:
REMARK  status: ('A' for Active; 'I' for Inactive)
ROOT
ATOM      1  C   UNL d   1      -2.144   1.011   2.605  0.00  0.00     0.172 C 
ATOM      2  N   UNL d   1      -1.448   1.092   1.342  0.00  0.00    -0.070 N 
ATOM      3  C1  UNL d   1      -1.946   1.639   0.189  0.00  0.00    -0.004 A 
ATOM      4  C2  UNL d   1      -0.979   1.522  -0.785  0.00  0.00    -0.047 A 
ATOM      5  C3  UNL d   1       0.138   0.881  -0.199  0.00  0.00    -0.047 A 
ATOM      6  C4  UNL d   1      -0.179   0.626   1.118  0.00  0.00    -0.004 A 
ENDROOT
TORSDOF 0
ENDMDL
