MODEL 1
REMARK minimizedAffinity -4.1280179
REMARK minimizedRMSD -1
REMARK  0 active torsions:
REMARK  status: ('A' for Active; 'I' for Inactive)
ROOT
ATOM      1  C   UNL d   1       0.050   1.223   0.614  0.00  0.00     0.172 C 
ATOM      2  N   UNL d   1       0.897   0.259  -0.047  0.00  0.00    -0.070 N 
ATOM      3  C1  UNL d   1       0.476  -0.910  -0.624  0.00  0.00    -0.004 A 
ATOM      4  C2  UNL d   1       1.583  -1.545  -1.145  0.00  0.00    -0.047 A 
ATOM      5  C3  UNL d   1       2.707  -0.731  -0.871  0.00  0.00    -0.047 A 
ATOM      6  C4  UNL d   1       2.254   0.379  -0.191  0.00  0.00    -0.004 A 
ENDROOT
TORSDOF 0
ENDMDL
