MODEL 1
REMARK minimizedAffinity -1.49835956
REMARK minimizedRMSD -1
REMARK  0 active torsions:
REMARK  status: ('A' for Active; 'I' for Inactive)
ROOT
ATOM      1  C   UNL d   1       0.005   2.605  -1.082  0.00  0.00     0.172 C 
ATOM      2  N   UNL d   1      -0.286   1.622  -0.066  0.00  0.00    -0.070 N 
ATOM      3  C1  UNL d   1      -0.244   1.834   1.286  0.00  0.00    -0.004 A 
ATOM      4  C2  UNL d   1      -0.586   0.654   1.910  0.00  0.00    -0.047 A 
ATOM      5  C3  UNL d   1      -0.842  -0.301   0.898  0.00  0.00    -0.047 A 
ATOM      6  C4  UNL d   1      -0.649   0.325  -0.316  0.00  0.00    -0.004 A 
ENDROOT
TORSDOF 0
ENDMDL
