MODEL 1
REMARK minimizedAffinity -2.9482615
REMARK minimizedRMSD -1
REMARK  0 active torsions:
REMARK  status: ('A' for Active; 'I' for Inactive)
ROOT
ATOM      1  C   UNL d   1      -0.068   2.555  -1.147  0.00  0.00     0.172 C 
ATOM      2  N   UNL d   1      -0.704   1.993   0.021  0.00  0.00    -0.070 N 
ATOM      3  C1  UNL d   1      -1.344   0.783   0.078  0.00  0.00    -0.004 A 
ATOM      4  C2  UNL d   1      -1.811   0.613   1.363  0.00  0.00    -0.047 A 
ATOM      5  C3  UNL d   1      -1.440   1.760   2.104  0.00  0.00    -0.047 A 
ATOM      6  C4  UNL d   1      -0.756   2.598   1.249  0.00  0.00    -0.004 A 
ENDROOT
TORSDOF 0
ENDMDL
