MODEL 1
REMARK minimizedAffinity -3.45438337
REMARK minimizedRMSD -1
REMARK  0 active torsions:
REMARK  status: ('A' for Active; 'I' for Inactive)
ROOT
ATOM      1  C   UNL d   1      -1.314   0.733   0.650  0.00  0.00     0.172 C 
ATOM      2  N   UNL d   1      -0.079   0.111   0.235  0.00  0.00    -0.070 N 
ATOM      3  C1  UNL d   1       0.093  -1.221  -0.034  0.00  0.00    -0.004 A 
ATOM      4  C2  UNL d   1       1.409  -1.411  -0.397  0.00  0.00    -0.047 A 
ATOM      5  C3  UNL d   1       2.050  -0.151  -0.344  0.00  0.00    -0.047 A 
ATOM      6  C4  UNL d   1       1.105   0.774   0.050  0.00  0.00    -0.004 A 
ENDROOT
TORSDOF 0
ENDMDL
