MODEL 1
REMARK minimizedAffinity -1.91134334
REMARK minimizedRMSD -1
REMARK  0 active torsions:
REMARK  status: ('A' for Active; 'I' for Inactive)
ROOT
ATOM      1  C1  DEN d   1       0.322  -0.554  -0.964  0.00  0.00     0.130 A 
ATOM      2  C2  DEN d   1       1.100   0.185   0.027  0.00  0.00    -0.031 A 
ATOM      3  C3  DEN d   1       0.690   1.602  -0.036  0.00  0.00     0.027 A 
ATOM      4  C4  DEN d   1      -1.067   2.718  -1.559  0.00  0.00     0.027 A 
ATOM      5  C5  DEN d   1      -1.977   2.500  -2.570  0.00  0.00    -0.003 A 
ATOM      6  C6  DEN d   1      -2.158   1.265  -3.135  0.00  0.00     0.001 A 
ATOM      7  C7  DEN d   1      -1.452   0.192  -2.662  0.00  0.00     0.017 A 
ATOM      8  C8  DEN d   1      -0.527   0.405  -1.648  0.00  0.00    -0.094 A 
ATOM      9  C9  DEN d   1      -0.367   1.658  -1.082  0.00  0.00    -0.072 A 
ENDROOT
TORSDOF 0
ENDMDL
