MODEL 1
REMARK minimizedAffinity 1.49564493
REMARK minimizedRMSD -1
REMARK  0 active torsions:
REMARK  status: ('A' for Active; 'I' for Inactive)
ROOT
ATOM      1  C1  DEN d   1       0.143   1.444  -0.254  0.00  0.00     0.130 A 
ATOM      2  C2  DEN d   1      -0.284   0.542   0.812  0.00  0.00    -0.031 A 
ATOM      3  C3  DEN d   1      -1.569  -0.064   0.409  0.00  0.00     0.027 A 
ATOM      4  C4  DEN d   1      -2.929   0.301  -1.752  0.00  0.00     0.027 A 
ATOM      5  C5  DEN d   1      -2.975   0.983  -2.948  0.00  0.00    -0.003 A 
ATOM      6  C6  DEN d   1      -2.010   1.885  -3.311  0.00  0.00     0.001 A 
ATOM      7  C7  DEN d   1      -0.934   2.096  -2.490  0.00  0.00     0.017 A 
ATOM      8  C8  DEN d   1      -0.884   1.417  -1.280  0.00  0.00    -0.094 A 
ATOM      9  C9  DEN d   1      -1.863   0.500  -0.936  0.00  0.00    -0.072 A 
ENDROOT
TORSDOF 0
ENDMDL
