MODEL 1
REMARK minimizedAffinity -5.45439339
REMARK minimizedRMSD -1
REMARK  0 active torsions:
REMARK  status: ('A' for Active; 'I' for Inactive)
ROOT
ATOM      1  C1  DEN d   1       1.332   1.049  -0.276  0.00  0.00     0.130 A 
ATOM      2  C2  DEN d   1       0.085   1.800  -0.382  0.00  0.00    -0.031 A 
ATOM      3  C3  DEN d   1      -0.979   1.013   0.275  0.00  0.00     0.027 A 
ATOM      4  C4  DEN d   1      -0.814  -1.280   1.443  0.00  0.00     0.027 A 
ATOM      5  C5  DEN d   1       0.035  -2.313   1.776  0.00  0.00    -0.003 A 
ATOM      6  C6  DEN d   1       1.358  -2.312   1.421  0.00  0.00     0.001 A 
ATOM      7  C7  DEN d   1       1.881  -1.238   0.751  0.00  0.00     0.017 A 
ATOM      8  C8  DEN d   1       1.029  -0.197   0.406  0.00  0.00    -0.094 A 
ATOM      9  C9  DEN d   1      -0.302  -0.210   0.784  0.00  0.00    -0.072 A 
ENDROOT
TORSDOF 0
ENDMDL
