MODEL 1
REMARK minimizedAffinity 5.86568117
REMARK minimizedRMSD -1
REMARK  0 active torsions:
REMARK  status: ('A' for Active; 'I' for Inactive)
ROOT
ATOM      1  C1  DEN d   1       3.663  -0.754  -1.984  0.00  0.00     0.130 A 
ATOM      2  C2  DEN d   1       3.515   0.698  -1.983  0.00  0.00    -0.031 A 
ATOM      3  C3  DEN d   1       2.686   1.072  -0.819  0.00  0.00     0.027 A 
ATOM      4  C4  DEN d   1       1.627  -0.450   0.974  0.00  0.00     0.027 A 
ATOM      5  C5  DEN d   1       1.466  -1.754   1.387  0.00  0.00    -0.003 A 
ATOM      6  C6  DEN d   1       1.993  -2.810   0.692  0.00  0.00     0.001 A 
ATOM      7  C7  DEN d   1       2.745  -2.578  -0.429  0.00  0.00     0.017 A 
ATOM      8  C8  DEN d   1       2.906  -1.266  -0.856  0.00  0.00    -0.094 A 
ATOM      9  C9  DEN d   1       2.376  -0.211  -0.132  0.00  0.00    -0.072 A 
ENDROOT
TORSDOF 0
ENDMDL
