MODEL 1
REMARK minimizedAffinity 0.801891446
REMARK minimizedRMSD -1
REMARK  0 active torsions:
REMARK  status: ('A' for Active; 'I' for Inactive)
ROOT
ATOM      1  C1  DEN d   1       1.886  -3.683  -0.430  0.00  0.00     0.130 A 
ATOM      2  C2  DEN d   1       1.226  -4.019   0.829  0.00  0.00    -0.031 A 
ATOM      3  C3  DEN d   1       0.940  -2.760   1.545  0.00  0.00     0.027 A 
ATOM      4  C4  DEN d   1       1.448  -0.335   0.828  0.00  0.00     0.027 A 
ATOM      5  C5  DEN d   1       2.007   0.452  -0.154  0.00  0.00    -0.003 A 
ATOM      6  C6  DEN d   1       2.591  -0.082  -1.272  0.00  0.00     0.001 A 
ATOM      7  C7  DEN d   1       2.589  -1.439  -1.457  0.00  0.00     0.017 A 
ATOM      8  C8  DEN d   1       2.033  -2.239  -0.467  0.00  0.00    -0.094 A 
ATOM      9  C9  DEN d   1       1.437  -1.680   0.650  0.00  0.00    -0.072 A 
ENDROOT
TORSDOF 0
ENDMDL
