MODEL 1
REMARK minimizedAffinity 7.74269915
REMARK minimizedRMSD -1
REMARK  0 active torsions:
REMARK  status: ('A' for Active; 'I' for Inactive)
ROOT
ATOM      1  C1  DEN d   1      -1.333   3.119  -1.725  0.00  0.00     0.130 A 
ATOM      2  C2  DEN d   1      -1.977   2.610  -2.933  0.00  0.00    -0.031 A 
ATOM      3  C3  DEN d   1      -2.857   1.490  -2.544  0.00  0.00     0.027 A 
ATOM      4  C4  DEN d   1      -3.285   0.502  -0.200  0.00  0.00     0.027 A 
ATOM      5  C5  DEN d   1      -2.956   0.594   1.134  0.00  0.00    -0.003 A 
ATOM      6  C6  DEN d   1      -2.045   1.505   1.601  0.00  0.00     0.001 A 
ATOM      7  C7  DEN d   1      -1.465   2.390   0.731  0.00  0.00     0.017 A 
ATOM      8  C8  DEN d   1      -1.786   2.298  -0.617  0.00  0.00    -0.094 A 
ATOM      9  C9  DEN d   1      -2.718   1.379  -1.067  0.00  0.00    -0.072 A 
ENDROOT
TORSDOF 0
ENDMDL
