MODEL 1
REMARK minimizedAffinity 11.7544632
REMARK minimizedRMSD -1
REMARK  0 active torsions:
REMARK  status: ('A' for Active; 'I' for Inactive)
ROOT
ATOM      1  C1  DEN d   1      -2.500   1.167  -0.112  0.00  0.00     0.130 A 
ATOM      2  C2  DEN d   1      -3.717   0.390   0.108  0.00  0.00    -0.031 A 
ATOM      3  C3  DEN d   1      -4.504   0.411  -1.141  0.00  0.00     0.027 A 
ATOM      4  C4  DEN d   1      -3.959   1.562  -3.384  0.00  0.00     0.027 A 
ATOM      5  C5  DEN d   1      -3.044   2.347  -4.049  0.00  0.00    -0.003 A 
ATOM      6  C6  DEN d   1      -1.909   2.819  -3.443  0.00  0.00     0.001 A 
ATOM      7  C7  DEN d   1      -1.638   2.472  -2.146  0.00  0.00     0.017 A 
ATOM      8  C8  DEN d   1      -2.559   1.686  -1.467  0.00  0.00    -0.094 A 
ATOM      9  C9  DEN d   1      -3.694   1.209  -2.101  0.00  0.00    -0.072 A 
ENDROOT
TORSDOF 0
ENDMDL
