MODEL 1
REMARK minimizedAffinity 2.9179318
REMARK minimizedRMSD -1
REMARK  0 active torsions:
REMARK  status: ('A' for Active; 'I' for Inactive)
ROOT
ATOM      1  C1  DEN d   1      -1.045  -1.462   1.928  0.00  0.00     0.130 A 
ATOM      2  C2  DEN d   1      -1.774  -0.200   2.018  0.00  0.00    -0.031 A 
ATOM      3  C3  DEN d   1      -0.965   0.843   1.355  0.00  0.00     0.027 A 
ATOM      4  C4  DEN d   1       1.332   0.627   0.203  0.00  0.00     0.027 A 
ATOM      5  C5  DEN d   1       2.351  -0.244  -0.115  0.00  0.00    -0.003 A 
ATOM      6  C6  DEN d   1       2.325  -1.563   0.253  0.00  0.00     0.001 A 
ATOM      7  C7  DEN d   1       1.238  -2.061   0.921  0.00  0.00     0.017 A 
ATOM      8  C8  DEN d   1       0.210  -1.187   1.251  0.00  0.00    -0.094 A 
ATOM      9  C9  DEN d   1       0.249   0.140   0.860  0.00  0.00    -0.072 A 
ENDROOT
TORSDOF 0
ENDMDL
