MODEL 1
REMARK minimizedAffinity 2.42463899
REMARK minimizedRMSD -1
REMARK  0 active torsions:
REMARK  status: ('A' for Active; 'I' for Inactive)
ROOT
ATOM      1  C1  DEN d   1      -0.334   1.560   0.564  0.00  0.00     0.130 A 
ATOM      2  C2  DEN d   1      -1.437   1.048   1.372  0.00  0.00    -0.031 A 
ATOM      3  C3  DEN d   1      -1.140  -0.357   1.713  0.00  0.00     0.027 A 
ATOM      4  C4  DEN d   1       0.914  -1.782   1.075  0.00  0.00     0.027 A 
ATOM      5  C5  DEN d   1       2.108  -1.786   0.389  0.00  0.00    -0.003 A 
ATOM      6  C6  DEN d   1       2.552  -0.695  -0.310  0.00  0.00     0.001 A 
ATOM      7  C7  DEN d   1       1.818   0.462  -0.300  0.00  0.00     0.017 A 
ATOM      8  C8  DEN d   1       0.609   0.471   0.383  0.00  0.00    -0.094 A 
ATOM      9  C9  DEN d   1       0.183  -0.638   1.094  0.00  0.00    -0.072 A 
ENDROOT
TORSDOF 0
ENDMDL
