MODEL 1
REMARK minimizedAffinity 5.39804935
REMARK minimizedRMSD -1
REMARK  0 active torsions:
REMARK  status: ('A' for Active; 'I' for Inactive)
ROOT
ATOM      1  C1  DEN d   1      -0.747  -0.526   2.254  0.00  0.00     0.130 A 
ATOM      2  C2  DEN d   1      -0.441  -1.837   2.821  0.00  0.00    -0.031 A 
ATOM      3  C3  DEN d   1      -0.893  -2.866   1.863  0.00  0.00     0.027 A 
ATOM      4  C4  DEN d   1      -2.026  -2.558  -0.434  0.00  0.00     0.027 A 
ATOM      5  C5  DEN d   1      -2.502  -1.632  -1.336  0.00  0.00    -0.003 A 
ATOM      6  C6  DEN d   1      -2.457  -0.285  -1.092  0.00  0.00     0.001 A 
ATOM      7  C7  DEN d   1      -1.884   0.176   0.064  0.00  0.00     0.017 A 
ATOM      8  C8  DEN d   1      -1.409  -0.751   0.981  0.00  0.00    -0.094 A 
ATOM      9  C9  DEN d   1      -1.452  -2.108   0.711  0.00  0.00    -0.072 A 
ENDROOT
TORSDOF 0
ENDMDL
