MODEL 1
REMARK minimizedAffinity 6.69446087
REMARK minimizedRMSD -1
REMARK  0 active torsions:
REMARK  status: ('A' for Active; 'I' for Inactive)
ROOT
ATOM      1  C1  DEN d   1      -1.907   1.608   0.862  0.00  0.00     0.130 A 
ATOM      2  C2  DEN d   1      -3.045   0.913   1.457  0.00  0.00    -0.031 A 
ATOM      3  C3  DEN d   1      -4.014   0.621   0.382  0.00  0.00     0.027 A 
ATOM      4  C4  DEN d   1      -3.861   1.170  -2.134  0.00  0.00     0.027 A 
ATOM      5  C5  DEN d   1      -3.089   1.761  -3.109  0.00  0.00    -0.003 A 
ATOM      6  C6  DEN d   1      -1.895   2.369  -2.826  0.00  0.00     0.001 A 
ATOM      7  C7  DEN d   1      -1.415   2.358  -1.542  0.00  0.00     0.017 A 
ATOM      8  C8  DEN d   1      -2.192   1.770  -0.553  0.00  0.00    -0.094 A 
ATOM      9  C9  DEN d   1      -3.391   1.150  -0.861  0.00  0.00    -0.072 A 
ENDROOT
TORSDOF 0
ENDMDL
