MODEL 1
REMARK minimizedAffinity 5.97708654
REMARK minimizedRMSD -1
REMARK  0 active torsions:
REMARK  status: ('A' for Active; 'I' for Inactive)
ROOT
ATOM      1  C1  DEN d   1      -2.162  -0.815   2.209  0.00  0.00     0.130 A 
ATOM      2  C2  DEN d   1      -2.408   0.618   2.350  0.00  0.00    -0.031 A 
ATOM      3  C3  DEN d   1      -2.755   1.155   1.019  0.00  0.00     0.027 A 
ATOM      4  C4  DEN d   1      -2.940  -0.087  -1.234  0.00  0.00     0.027 A 
ATOM      5  C5  DEN d   1      -2.810  -1.310  -1.856  0.00  0.00    -0.003 A 
ATOM      6  C6  DEN d   1      -2.426  -2.436  -1.179  0.00  0.00     0.001 A 
ATOM      7  C7  DEN d   1      -2.201  -2.373   0.171  0.00  0.00     0.017 A 
ATOM      8  C8  DEN d   1      -2.322  -1.143   0.804  0.00  0.00    -0.094 A 
ATOM      9  C9  DEN d   1      -2.723  -0.018   0.104  0.00  0.00    -0.072 A 
ENDROOT
TORSDOF 0
ENDMDL
