MODEL 1
REMARK minimizedAffinity 9.90042686
REMARK minimizedRMSD -1
REMARK  0 active torsions:
REMARK  status: ('A' for Active; 'I' for Inactive)
ROOT
ATOM      1  C1  DEN d   1      -1.653  -0.181   2.679  0.00  0.00     0.130 A 
ATOM      2  C2  DEN d   1      -1.036  -1.458   3.024  0.00  0.00    -0.031 A 
ATOM      3  C3  DEN d   1      -1.268  -2.395   1.906  0.00  0.00     0.027 A 
ATOM      4  C4  DEN d   1      -2.514  -1.991  -0.316  0.00  0.00     0.027 A 
ATOM      5  C5  DEN d   1      -3.218  -1.068  -1.056  0.00  0.00    -0.003 A 
ATOM      6  C6  DEN d   1      -3.478   0.195  -0.593  0.00  0.00     0.001 A 
ATOM      7  C7  DEN d   1      -2.990   0.584   0.627  0.00  0.00     0.017 A 
ATOM      8  C8  DEN d   1      -2.285  -0.344   1.382  0.00  0.00    -0.094 A 
ATOM      9  C9  DEN d   1      -2.023  -1.612   0.891  0.00  0.00    -0.072 A 
ENDROOT
TORSDOF 0
ENDMDL
