MODEL 1
REMARK minimizedAffinity 11.0420427
REMARK minimizedRMSD -1
REMARK  0 active torsions:
REMARK  status: ('A' for Active; 'I' for Inactive)
ROOT
ATOM      1  C   UNL d   1      -2.447  -1.191  -0.655  0.00  0.00     0.124 A 
ATOM      2  C1  UNL d   1      -2.790  -1.109   0.687  0.00  0.00     0.062 A 
ATOM      3  C2  UNL d   1      -1.807  -1.201   1.668  0.00  0.00     0.162 A 
ATOM      4  C3  UNL d   1      -0.471  -1.376   1.311  0.00  0.00    -0.034 A 
ATOM      5  C4  UNL d   1      -0.133  -1.460  -0.041  0.00  0.00     0.162 A 
ATOM      6  C5  UNL d   1      -1.119  -1.366  -1.018  0.00  0.00     0.062 A 
ATOM      7  F   UNL d   1      -0.785  -1.446  -2.314  0.00  0.00    -0.097 F 
ATOM      8  F1  UNL d   1       1.143  -1.628  -0.420  0.00  0.00    -0.096 F 
ATOM      9  I   UNL d   1       1.002  -1.515   2.775  0.00  0.00    -0.060 I 
ATOM     10  F2  UNL d   1      -2.168  -1.118   2.958  0.00  0.00    -0.096 F 
ATOM     11  F3  UNL d   1      -4.073  -0.940   1.040  0.00  0.00    -0.097 F 
ATOM     12  F4  UNL d   1      -3.395  -1.103  -1.597  0.00  0.00    -0.092 F 
ENDROOT
TORSDOF 0
ENDMDL
