MODEL 1
REMARK minimizedAffinity 10.7784386
REMARK minimizedRMSD -1
REMARK  0 active torsions:
REMARK  status: ('A' for Active; 'I' for Inactive)
ROOT
ATOM      1  C   UNL d   1      -0.856  -1.007   2.474  0.00  0.00     0.124 A 
ATOM      2  C1  UNL d   1      -0.723   0.354   2.715  0.00  0.00     0.062 A 
ATOM      3  C2  UNL d   1       0.387   1.044   2.238  0.00  0.00     0.162 A 
ATOM      4  C3  UNL d   1       1.374   0.375   1.514  0.00  0.00    -0.034 A 
ATOM      5  C4  UNL d   1       1.235  -0.994   1.277  0.00  0.00     0.162 A 
ATOM      6  C5  UNL d   1       0.123  -1.679   1.756  0.00  0.00     0.062 A 
ATOM      7  F   UNL d   1      -0.003  -2.994   1.523  0.00  0.00    -0.097 F 
ATOM      8  F1  UNL d   1       2.165  -1.668   0.585  0.00  0.00    -0.096 F 
ATOM      9  I   UNL d   1       3.036   1.403   0.799  0.00  0.00    -0.060 I 
ATOM     10  F2  UNL d   1       0.489   2.358   2.484  0.00  0.00    -0.096 F 
ATOM     11  F3  UNL d   1      -1.667   1.005   3.409  0.00  0.00    -0.097 F 
ATOM     12  F4  UNL d   1      -1.925  -1.669   2.936  0.00  0.00    -0.092 F 
ENDROOT
TORSDOF 0
ENDMDL
