MODEL 1
REMARK minimizedAffinity 12.3238983
REMARK minimizedRMSD -1
REMARK  0 active torsions:
REMARK  status: ('A' for Active; 'I' for Inactive)
ROOT
ATOM      1  C   UNL d   1      -0.939  -3.472   0.577  0.00  0.00     0.124 A 
ATOM      2  C1  UNL d   1      -0.703  -3.888   1.880  0.00  0.00     0.062 A 
ATOM      3  C2  UNL d   1      -1.113  -3.099   2.952  0.00  0.00     0.162 A 
ATOM      4  C3  UNL d   1      -1.765  -1.887   2.724  0.00  0.00    -0.034 A 
ATOM      5  C4  UNL d   1      -1.998  -1.476   1.411  0.00  0.00     0.162 A 
ATOM      6  C5  UNL d   1      -1.586  -2.267   0.344  0.00  0.00     0.062 A 
ATOM      7  F   UNL d   1      -1.815  -1.864  -0.915  0.00  0.00    -0.097 F 
ATOM      8  F1  UNL d   1      -2.622  -0.316   1.157  0.00  0.00    -0.096 F 
ATOM      9  I   UNL d   1      -2.380  -0.705   4.323  0.00  0.00    -0.060 I 
ATOM     10  F2  UNL d   1      -0.872  -3.526   4.200  0.00  0.00    -0.096 F 
ATOM     11  F3  UNL d   1      -0.078  -5.052   2.109  0.00  0.00    -0.097 F 
ATOM     12  F4  UNL d   1      -0.543  -4.232  -0.452  0.00  0.00    -0.092 F 
ENDROOT
TORSDOF 0
ENDMDL
