MODEL 1
REMARK minimizedAffinity 17.9209042
REMARK minimizedRMSD -1
REMARK  0 active torsions:
REMARK  status: ('A' for Active; 'I' for Inactive)
ROOT
ATOM      1  C   UNL d   1      -3.297  -0.770  -0.687  0.00  0.00     0.124 A 
ATOM      2  C1  UNL d   1      -2.382  -1.450   0.106  0.00  0.00     0.062 A 
ATOM      3  C2  UNL d   1      -1.033  -1.462  -0.236  0.00  0.00     0.162 A 
ATOM      4  C3  UNL d   1      -0.589  -0.791  -1.375  0.00  0.00    -0.034 A 
ATOM      5  C4  UNL d   1      -1.515  -0.110  -2.168  0.00  0.00     0.162 A 
ATOM      6  C5  UNL d   1      -2.863  -0.101  -1.823  0.00  0.00     0.062 A 
ATOM      7  F   UNL d   1      -3.745   0.556  -2.590  0.00  0.00    -0.097 F 
ATOM      8  F1  UNL d   1      -1.123   0.545  -3.271  0.00  0.00    -0.096 F 
ATOM      9  I   UNL d   1       1.427  -0.806  -1.889  0.00  0.00    -0.060 I 
ATOM     10  F2  UNL d   1      -0.172  -2.126   0.549  0.00  0.00    -0.096 F 
ATOM     11  F3  UNL d   1      -2.799  -2.098   1.203  0.00  0.00    -0.097 F 
ATOM     12  F4  UNL d   1      -4.595  -0.761  -0.357  0.00  0.00    -0.092 F 
ENDROOT
TORSDOF 0
ENDMDL
