MODEL 1
REMARK minimizedAffinity 29.7450581
REMARK minimizedRMSD -1
REMARK  0 active torsions:
REMARK  status: ('A' for Active; 'I' for Inactive)
ROOT
ATOM      1  C   UNL d   1      -2.611   2.473  -4.296  0.00  0.00     0.124 A 
ATOM      2  C1  UNL d   1      -3.767   2.246  -5.030  0.00  0.00     0.062 A 
ATOM      3  C2  UNL d   1      -4.721   3.251  -5.162  0.00  0.00     0.162 A 
ATOM      4  C3  UNL d   1      -4.522   4.494  -4.561  0.00  0.00    -0.034 A 
ATOM      5  C4  UNL d   1      -3.357   4.715  -3.824  0.00  0.00     0.162 A 
ATOM      6  C5  UNL d   1      -2.407   3.707  -3.695  0.00  0.00     0.062 A 
ATOM      7  F   UNL d   1      -1.290   3.929  -2.986  0.00  0.00    -0.097 F 
ATOM      8  F1  UNL d   1      -3.134   5.898  -3.233  0.00  0.00    -0.096 F 
ATOM      9  I   UNL d   1      -5.946   5.999  -4.757  0.00  0.00    -0.060 I 
ATOM     10  F2  UNL d   1      -5.829   3.003  -5.877  0.00  0.00    -0.096 F 
ATOM     11  F3  UNL d   1      -3.967   1.054  -5.611  0.00  0.00    -0.097 F 
ATOM     12  F4  UNL d   1      -1.695   1.504  -4.169  0.00  0.00    -0.092 F 
ENDROOT
TORSDOF 0
ENDMDL
