MODEL 1
REMARK minimizedAffinity 26.1655445
REMARK minimizedRMSD -1
REMARK  0 active torsions:
REMARK  status: ('A' for Active; 'I' for Inactive)
ROOT
ATOM      1  C   UNL d   1      -1.300  -2.954  -1.521  0.00  0.00     0.124 A 
ATOM      2  C1  UNL d   1      -1.878  -2.071  -2.423  0.00  0.00     0.062 A 
ATOM      3  C2  UNL d   1      -2.679  -1.028  -1.966  0.00  0.00     0.162 A 
ATOM      4  C3  UNL d   1      -2.906  -0.862  -0.600  0.00  0.00    -0.034 A 
ATOM      5  C4  UNL d   1      -2.322  -1.754   0.301  0.00  0.00     0.162 A 
ATOM      6  C5  UNL d   1      -1.522  -2.794  -0.161  0.00  0.00     0.062 A 
ATOM      7  F   UNL d   1      -0.965  -3.646   0.712  0.00  0.00    -0.097 F 
ATOM      8  F1  UNL d   1      -2.520  -1.623   1.621  0.00  0.00    -0.096 F 
ATOM      9  I   UNL d   1      -4.104   0.696   0.086  0.00  0.00    -0.060 I 
ATOM     10  F2  UNL d   1      -3.224  -0.190  -2.861  0.00  0.00    -0.096 F 
ATOM     11  F3  UNL d   1      -1.665  -2.223  -3.738  0.00  0.00    -0.097 F 
ATOM     12  F4  UNL d   1      -0.530  -3.956  -1.963  0.00  0.00    -0.092 F 
ENDROOT
TORSDOF 0
ENDMDL
