MODEL 1
REMARK minimizedAffinity 24.2228909
REMARK minimizedRMSD -1
REMARK  0 active torsions:
REMARK  status: ('A' for Active; 'I' for Inactive)
ROOT
ATOM      1  C   UNL d   1       2.731   1.266  -1.036  0.00  0.00     0.124 A 
ATOM      2  C1  UNL d   1       3.922   1.971  -1.134  0.00  0.00     0.062 A 
ATOM      3  C2  UNL d   1       4.857   1.634  -2.108  0.00  0.00     0.162 A 
ATOM      4  C3  UNL d   1       4.604   0.586  -2.993  0.00  0.00    -0.034 A 
ATOM      5  C4  UNL d   1       3.404  -0.120  -2.888  0.00  0.00     0.162 A 
ATOM      6  C5  UNL d   1       2.473   0.222  -1.912  0.00  0.00     0.062 A 
ATOM      7  F   UNL d   1       1.322  -0.461  -1.819  0.00  0.00    -0.097 F 
ATOM      8  F1  UNL d   1       3.129  -1.133  -3.722  0.00  0.00    -0.096 F 
ATOM      9  I   UNL d   1       6.000   0.078  -4.451  0.00  0.00    -0.060 I 
ATOM     10  F2  UNL d   1       6.000   2.332  -2.180  0.00  0.00    -0.096 F 
ATOM     11  F3  UNL d   1       4.174   2.980  -0.288  0.00  0.00    -0.097 F 
ATOM     12  F4  UNL d   1       1.833   1.593  -0.097  0.00  0.00    -0.092 F 
ENDROOT
TORSDOF 0
ENDMDL
