MODEL 1
REMARK minimizedAffinity 28.7367649
REMARK minimizedRMSD -1
REMARK  0 active torsions:
REMARK  status: ('A' for Active; 'I' for Inactive)
ROOT
ATOM      1  C   UNL d   1       3.134  -0.220  -2.383  0.00  0.00     0.124 A 
ATOM      2  C1  UNL d   1       4.359   0.345  -2.712  0.00  0.00     0.062 A 
ATOM      3  C2  UNL d   1       4.807   1.482  -2.045  0.00  0.00     0.162 A 
ATOM      4  C3  UNL d   1       4.031   2.061  -1.041  0.00  0.00    -0.034 A 
ATOM      5  C4  UNL d   1       2.800   1.487  -0.717  0.00  0.00     0.162 A 
ATOM      6  C5  UNL d   1       2.356   0.352  -1.386  0.00  0.00     0.062 A 
ATOM      7  F   UNL d   1       1.173  -0.192  -1.067  0.00  0.00    -0.097 F 
ATOM      8  F1  UNL d   1       2.028   2.018   0.243  0.00  0.00    -0.096 F 
ATOM      9  I   UNL d   1       4.698   3.760  -0.041  0.00  0.00    -0.060 I 
ATOM     10  F2  UNL d   1       5.994   2.006  -2.383  0.00  0.00    -0.096 F 
ATOM     11  F3  UNL d   1       5.112  -0.204  -3.675  0.00  0.00    -0.097 F 
ATOM     12  F4  UNL d   1       2.705  -1.312  -3.027  0.00  0.00    -0.092 F 
ENDROOT
TORSDOF 0
ENDMDL
