MODEL 1
REMARK minimizedAffinity 20.3368015
REMARK minimizedRMSD -1
REMARK  0 active torsions:
REMARK  status: ('A' for Active; 'I' for Inactive)
ROOT
ATOM      1  C   UNL d   1      -1.153  -2.361  -0.499  0.00  0.00     0.124 A 
ATOM      2  C1  UNL d   1      -1.018  -3.669  -0.946  0.00  0.00     0.062 A 
ATOM      3  C2  UNL d   1      -0.768  -4.695  -0.040  0.00  0.00     0.162 A 
ATOM      4  C3  UNL d   1      -0.653  -4.419   1.322  0.00  0.00    -0.034 A 
ATOM      5  C4  UNL d   1      -0.789  -3.102   1.764  0.00  0.00     0.162 A 
ATOM      6  C5  UNL d   1      -1.039  -2.079   0.854  0.00  0.00     0.062 A 
ATOM      7  F   UNL d   1      -1.169  -0.817   1.288  0.00  0.00    -0.097 F 
ATOM      8  F1  UNL d   1      -0.685  -2.802   3.067  0.00  0.00    -0.096 F 
ATOM      9  I   UNL d   1      -0.279  -5.952   2.680  0.00  0.00    -0.060 I 
ATOM     10  F2  UNL d   1      -0.641  -5.949  -0.500  0.00  0.00    -0.096 F 
ATOM     11  F3  UNL d   1      -1.127  -3.943  -2.254  0.00  0.00    -0.097 F 
ATOM     12  F4  UNL d   1      -1.392  -1.375  -1.373  0.00  0.00    -0.092 F 
ENDROOT
TORSDOF 0
ENDMDL
