MODEL 1
REMARK minimizedAffinity 23.3016701
REMARK minimizedRMSD -1
REMARK  0 active torsions:
REMARK  status: ('A' for Active; 'I' for Inactive)
ROOT
ATOM      1  C   UNL d   1      -1.299  -3.109  -1.340  0.00  0.00     0.124 A 
ATOM      2  C1  UNL d   1      -1.815  -1.888  -0.926  0.00  0.00     0.062 A 
ATOM      3  C2  UNL d   1      -1.840  -1.561   0.426  0.00  0.00     0.162 A 
ATOM      4  C3  UNL d   1      -1.347  -2.456   1.376  0.00  0.00    -0.034 A 
ATOM      5  C4  UNL d   1      -0.831  -3.682   0.953  0.00  0.00     0.162 A 
ATOM      6  C5  UNL d   1      -0.807  -4.004  -0.400  0.00  0.00     0.062 A 
ATOM      7  F   UNL d   1      -0.309  -5.183  -0.798  0.00  0.00    -0.097 F 
ATOM      8  F1  UNL d   1      -0.349  -4.565   1.839  0.00  0.00    -0.096 F 
ATOM      9  I   UNL d   1      -1.384  -1.971   3.400  0.00  0.00    -0.060 I 
ATOM     10  F2  UNL d   1      -2.345  -0.375   0.797  0.00  0.00    -0.096 F 
ATOM     11  F3  UNL d   1      -2.291  -1.022  -1.832  0.00  0.00    -0.097 F 
ATOM     12  F4  UNL d   1      -1.276  -3.421  -2.642  0.00  0.00    -0.092 F 
ENDROOT
TORSDOF 0
ENDMDL
