MODEL 1
REMARK minimizedAffinity 26.3243999
REMARK minimizedRMSD -1
REMARK  0 active torsions:
REMARK  status: ('A' for Active; 'I' for Inactive)
ROOT
ATOM      1  C   UNL d   1      -0.920  -3.152  -1.865  0.00  0.00     0.124 A 
ATOM      2  C1  UNL d   1      -0.815  -4.179  -0.937  0.00  0.00     0.062 A 
ATOM      3  C2  UNL d   1      -0.952  -3.911   0.422  0.00  0.00     0.162 A 
ATOM      4  C3  UNL d   1      -1.196  -2.609   0.862  0.00  0.00    -0.034 A 
ATOM      5  C4  UNL d   1      -1.299  -1.582  -0.077  0.00  0.00     0.162 A 
ATOM      6  C5  UNL d   1      -1.161  -1.855  -1.434  0.00  0.00     0.062 A 
ATOM      7  F   UNL d   1      -1.262  -0.861  -2.330  0.00  0.00    -0.097 F 
ATOM      8  F1  UNL d   1      -1.533  -0.319   0.311  0.00  0.00    -0.096 F 
ATOM      9  I   UNL d   1      -1.402  -2.205   2.893  0.00  0.00    -0.060 I 
ATOM     10  F2  UNL d   1      -0.847  -4.922   1.297  0.00  0.00    -0.096 F 
ATOM     11  F3  UNL d   1      -0.581  -5.433  -1.350  0.00  0.00    -0.097 F 
ATOM     12  F4  UNL d   1      -0.786  -3.412  -3.172  0.00  0.00    -0.092 F 
ENDROOT
TORSDOF 0
ENDMDL
