MODEL 1
REMARK minimizedAffinity 27.7066727
REMARK minimizedRMSD -1
REMARK  0 active torsions:
REMARK  status: ('A' for Active; 'I' for Inactive)
ROOT
ATOM      1  C   UNL d   1      -1.078  -3.085  -1.280  0.00  0.00     0.124 A 
ATOM      2  C1  UNL d   1      -0.819  -4.028  -0.294  0.00  0.00     0.062 A 
ATOM      3  C2  UNL d   1      -0.841  -3.661   1.048  0.00  0.00     0.162 A 
ATOM      4  C3  UNL d   1      -1.124  -2.345   1.414  0.00  0.00    -0.034 A 
ATOM      5  C4  UNL d   1      -1.382  -1.403   0.417  0.00  0.00     0.162 A 
ATOM      6  C5  UNL d   1      -1.359  -1.774  -0.923  0.00  0.00     0.062 A 
ATOM      7  F   UNL d   1      -1.609  -0.862  -1.874  0.00  0.00    -0.097 F 
ATOM      8  F1  UNL d   1      -1.658  -0.129   0.734  0.00  0.00    -0.096 F 
ATOM      9  I   UNL d   1      -1.158  -1.793   3.420  0.00  0.00    -0.060 I 
ATOM     10  F2  UNL d   1      -0.587  -4.593   1.979  0.00  0.00    -0.096 F 
ATOM     11  F3  UNL d   1      -0.546  -5.295  -0.636  0.00  0.00    -0.097 F 
ATOM     12  F4  UNL d   1      -1.055  -3.440  -2.571  0.00  0.00    -0.092 F 
ENDROOT
TORSDOF 0
ENDMDL
