MODEL 1
REMARK minimizedAffinity 30.733572
REMARK minimizedRMSD -1
REMARK  0 active torsions:
REMARK  status: ('A' for Active; 'I' for Inactive)
ROOT
ATOM      1  C   UNL d   1      -1.175  -2.827  -1.840  0.00  0.00     0.124 A 
ATOM      2  C1  UNL d   1      -1.171  -1.561  -1.271  0.00  0.00     0.062 A 
ATOM      3  C2  UNL d   1      -1.134  -1.415   0.113  0.00  0.00     0.162 A 
ATOM      4  C3  UNL d   1      -1.101  -2.540   0.938  0.00  0.00    -0.034 A 
ATOM      5  C4  UNL d   1      -1.107  -3.810   0.358  0.00  0.00     0.162 A 
ATOM      6  C5  UNL d   1      -1.143  -3.950  -1.025  0.00  0.00     0.062 A 
ATOM      7  F   UNL d   1      -1.147  -5.174  -1.573  0.00  0.00    -0.097 F 
ATOM      8  F1  UNL d   1      -1.075  -4.912   1.122  0.00  0.00    -0.096 F 
ATOM      9  I   UNL d   1      -1.047  -2.326   3.007  0.00  0.00    -0.060 I 
ATOM     10  F2  UNL d   1      -1.131  -0.180   0.635  0.00  0.00    -0.096 F 
ATOM     11  F3  UNL d   1      -1.202  -0.475  -2.056  0.00  0.00    -0.097 F 
ATOM     12  F4  UNL d   1      -1.211  -2.964  -3.172  0.00  0.00    -0.092 F 
ENDROOT
TORSDOF 0
ENDMDL
