MODEL 1
REMARK minimizedAffinity 24.2267342
REMARK minimizedRMSD -1
REMARK  0 active torsions:
REMARK  status: ('A' for Active; 'I' for Inactive)
ROOT
ATOM      1  C   UNL d   1      -2.086  -2.871   5.942  0.00  0.00     0.124 A 
ATOM      2  C1  UNL d   1      -3.440  -2.572   5.889  0.00  0.00     0.062 A 
ATOM      3  C2  UNL d   1      -3.862  -1.247   5.830  0.00  0.00     0.162 A 
ATOM      4  C3  UNL d   1      -2.929  -0.210   5.824  0.00  0.00    -0.034 A 
ATOM      5  C4  UNL d   1      -1.568  -0.519   5.879  0.00  0.00     0.162 A 
ATOM      6  C5  UNL d   1      -1.151  -1.845   5.938  0.00  0.00     0.062 A 
ATOM      7  F   UNL d   1       0.158  -2.132   5.989  0.00  0.00    -0.097 F 
ATOM      8  F1  UNL d   1      -0.644   0.453   5.875  0.00  0.00    -0.096 F 
ATOM      9  I   UNL d   1      -3.556   1.772   5.736  0.00  0.00    -0.060 I 
ATOM     10  F2  UNL d   1      -5.177  -0.987   5.779  0.00  0.00    -0.096 F 
ATOM     11  F3  UNL d   1      -4.344  -3.561   5.894  0.00  0.00    -0.097 F 
ATOM     12  F4  UNL d   1      -1.682  -4.147   6.000  0.00  0.00    -0.092 F 
ENDROOT
TORSDOF 0
ENDMDL
