MODEL 1
REMARK minimizedAffinity 24.5696964
REMARK minimizedRMSD -1
REMARK  0 active torsions:
REMARK  status: ('A' for Active; 'I' for Inactive)
ROOT
ATOM      1  C   UNL d   1      -1.213  -2.779  -2.105  0.00  0.00     0.124 A 
ATOM      2  C1  UNL d   1      -1.316  -2.611  -0.731  0.00  0.00     0.062 A 
ATOM      3  C2  UNL d   1      -2.025  -1.533  -0.209  0.00  0.00     0.162 A 
ATOM      4  C3  UNL d   1      -2.639  -0.615  -1.061  0.00  0.00    -0.034 A 
ATOM      5  C4  UNL d   1      -2.530  -0.790  -2.442  0.00  0.00     0.162 A 
ATOM      6  C5  UNL d   1      -1.820  -1.868  -2.959  0.00  0.00     0.062 A 
ATOM      7  F   UNL d   1      -1.722  -2.029  -4.287  0.00  0.00    -0.097 F 
ATOM      8  F1  UNL d   1      -3.107   0.074  -3.290  0.00  0.00    -0.096 F 
ATOM      9  I   UNL d   1      -3.700   0.998  -0.284  0.00  0.00    -0.060 I 
ATOM     10  F2  UNL d   1      -2.109  -1.395   1.123  0.00  0.00    -0.096 F 
ATOM     11  F3  UNL d   1      -0.730  -3.488   0.096  0.00  0.00    -0.097 F 
ATOM     12  F4  UNL d   1      -0.529  -3.816  -2.605  0.00  0.00    -0.092 F 
ENDROOT
TORSDOF 0
ENDMDL
