MODEL 1
REMARK minimizedAffinity 32.0447617
REMARK minimizedRMSD -1
REMARK  0 active torsions:
REMARK  status: ('A' for Active; 'I' for Inactive)
ROOT
ATOM      1  C   UNL d   1      -0.525  -0.848   5.992  0.00  0.00     0.124 A 
ATOM      2  C1  UNL d   1      -0.669  -2.229   5.992  0.00  0.00     0.062 A 
ATOM      3  C2  UNL d   1      -1.938  -2.800   5.989  0.00  0.00     0.162 A 
ATOM      4  C3  UNL d   1      -3.074  -1.991   5.985  0.00  0.00    -0.034 A 
ATOM      5  C4  UNL d   1      -2.922  -0.604   5.986  0.00  0.00     0.162 A 
ATOM      6  C5  UNL d   1      -1.651  -0.037   5.989  0.00  0.00     0.062 A 
ATOM      7  F   UNL d   1      -1.514   1.297   5.989  0.00  0.00    -0.097 F 
ATOM      8  F1  UNL d   1      -3.993   0.204   5.983  0.00  0.00    -0.096 F 
ATOM      9  I   UNL d   1      -4.974  -2.842   5.981  0.00  0.00    -0.060 I 
ATOM     10  F2  UNL d   1      -2.047  -4.137   5.989  0.00  0.00    -0.096 F 
ATOM     11  F3  UNL d   1       0.418  -3.015   5.995  0.00  0.00    -0.097 F 
ATOM     12  F4  UNL d   1       0.697  -0.301   5.996  0.00  0.00    -0.092 F 
ENDROOT
TORSDOF 0
ENDMDL
