MODEL 1
REMARK minimizedAffinity 24.2973366
REMARK minimizedRMSD -1
REMARK  0 active torsions:
REMARK  status: ('A' for Active; 'I' for Inactive)
ROOT
ATOM      1  C   UNL d   1      -2.136  -0.349   5.968  0.00  0.00     0.124 A 
ATOM      2  C1  UNL d   1      -3.213  -1.224   5.965  0.00  0.00     0.062 A 
ATOM      3  C2  UNL d   1      -2.997  -2.599   5.974  0.00  0.00     0.162 A 
ATOM      4  C3  UNL d   1      -1.699  -3.108   5.986  0.00  0.00    -0.034 A 
ATOM      5  C4  UNL d   1      -0.620  -2.221   5.988  0.00  0.00     0.162 A 
ATOM      6  C5  UNL d   1      -0.841  -0.847   5.979  0.00  0.00     0.062 A 
ATOM      7  F   UNL d   1       0.200  -0.003   5.981  0.00  0.00    -0.097 F 
ATOM      8  F1  UNL d   1       0.641  -2.676   5.999  0.00  0.00    -0.096 F 
ATOM      9  I   UNL d   1      -1.372  -5.163   5.999  0.00  0.00    -0.060 I 
ATOM     10  F2  UNL d   1      -4.057  -3.422   5.971  0.00  0.00    -0.096 F 
ATOM     11  F3  UNL d   1      -4.465  -0.745   5.954  0.00  0.00    -0.097 F 
ATOM     12  F4  UNL d   1      -2.347   0.974   5.959  0.00  0.00    -0.092 F 
ENDROOT
TORSDOF 0
ENDMDL
