MODEL 1
REMARK minimizedAffinity 2.39436793
REMARK minimizedRMSD -1
REMARK  0 active torsions:
REMARK  status: ('A' for Active; 'I' for Inactive)
ROOT
ATOM      1  C2' OXE d   1      -3.002   0.258   4.148  0.00  0.00     0.078 C 
ATOM      2  C1' OXE d   1      -3.256  -1.836   6.000  0.00  0.00     0.078 C 
ATOM      3  C1  OXE d   1      -1.873  -1.503   5.500  0.00  0.00    -0.078 A 
ATOM      4  C2  OXE d   1      -1.763  -0.508   4.559  0.00  0.00    -0.078 A 
ATOM      5  C3  OXE d   1      -0.504  -0.124   4.106  0.00  0.00     0.003 A 
ATOM      6  C4  OXE d   1       0.636  -0.844   4.484  0.00  0.00    -0.002 A 
ATOM      7  C5  OXE d   1       0.541  -1.887   5.411  0.00  0.00    -0.002 A 
ATOM      8  C6  OXE d   1      -0.697  -2.201   5.960  0.00  0.00     0.003 A 
ENDROOT
TORSDOF 0
ENDMDL
