MODEL 1
REMARK minimizedAffinity 1.1462158
REMARK minimizedRMSD -1
REMARK  0 active torsions:
REMARK  status: ('A' for Active; 'I' for Inactive)
ROOT
ATOM      1  C2' OXE d   1      -3.646  -2.262   5.997  0.00  0.00     0.078 C 
ATOM      2  C1' OXE d   1      -3.174  -0.040   4.349  0.00  0.00     0.078 C 
ATOM      3  C1  OXE d   1      -1.986  -0.865   4.774  0.00  0.00    -0.078 A 
ATOM      4  C2  OXE d   1      -2.220  -1.923   5.619  0.00  0.00    -0.078 A 
ATOM      5  C3  OXE d   1      -1.166  -2.750   5.998  0.00  0.00     0.003 A 
ATOM      6  C4  OXE d   1       0.150  -2.423   5.652  0.00  0.00    -0.002 A 
ATOM      7  C5  OXE d   1       0.416  -1.326   4.825  0.00  0.00    -0.002 A 
ATOM      8  C6  OXE d   1      -0.643  -0.563   4.344  0.00  0.00     0.003 A 
ENDROOT
TORSDOF 0
ENDMDL
