MODEL 1
REMARK minimizedAffinity -0.566701055
REMARK minimizedRMSD -1
REMARK  0 active torsions:
REMARK  status: ('A' for Active; 'I' for Inactive)
ROOT
ATOM      1  C2' OXE d   1       0.651  -0.733  -1.611  0.00  0.00     0.078 C 
ATOM      2  C1' OXE d   1      -0.159  -0.972   1.066  0.00  0.00     0.078 C 
ATOM      3  C1  OXE d   1       0.127   0.412   0.539  0.00  0.00    -0.078 A 
ATOM      4  C2  OXE d   1       0.568   0.515  -0.758  0.00  0.00    -0.078 A 
ATOM      5  C3  OXE d   1       0.794   1.773  -1.311  0.00  0.00     0.003 A 
ATOM      6  C4  OXE d   1       0.724   2.921  -0.513  0.00  0.00    -0.002 A 
ATOM      7  C5  OXE d   1       0.315   2.834   0.822  0.00  0.00    -0.002 A 
ATOM      8  C6  OXE d   1      -0.027   1.594   1.350  0.00  0.00     0.003 A 
ENDROOT
TORSDOF 0
ENDMDL
