MODEL 1
REMARK minimizedAffinity -4.02419853
REMARK minimizedRMSD -1
REMARK  0 active torsions:
REMARK  status: ('A' for Active; 'I' for Inactive)
ROOT
ATOM      1  C2' OXE d   1      -0.788  -1.791   1.452  0.00  0.00     0.078 C 
ATOM      2  C1' OXE d   1       0.070   0.390  -0.092  0.00  0.00     0.078 C 
ATOM      3  C1  OXE d   1       0.020  -0.965  -0.754  0.00  0.00    -0.078 A 
ATOM      4  C2  OXE d   1      -0.356  -2.034   0.022  0.00  0.00    -0.078 A 
ATOM      5  C3  OXE d   1      -0.472  -3.296  -0.553  0.00  0.00     0.003 A 
ATOM      6  C4  OXE d   1      -0.061  -3.514  -1.873  0.00  0.00    -0.002 A 
ATOM      7  C5  OXE d   1       0.363  -2.445  -2.670  0.00  0.00    -0.002 A 
ATOM      8  C6  OXE d   1       0.369  -1.160  -2.140  0.00  0.00     0.003 A 
ENDROOT
TORSDOF 0
ENDMDL
