MODEL 1
REMARK minimizedAffinity -4.04037189
REMARK minimizedRMSD -1
REMARK  0 active torsions:
REMARK  status: ('A' for Active; 'I' for Inactive)
ROOT
ATOM      1  C2' OXE d   1       0.829   0.483   2.663  0.00  0.00     0.078 C 
ATOM      2  C1' OXE d   1       1.245   2.066   0.383  0.00  0.00     0.078 C 
ATOM      3  C1  OXE d   1       0.768   0.650   0.178  0.00  0.00    -0.078 A 
ATOM      4  C2  OXE d   1       0.612  -0.132   1.298  0.00  0.00    -0.078 A 
ATOM      5  C3  OXE d   1       0.121  -1.428   1.170  0.00  0.00     0.003 A 
ATOM      6  C4  OXE d   1      -0.068  -1.993  -0.098  0.00  0.00    -0.002 A 
ATOM      7  C5  OXE d   1       0.124  -1.226  -1.252  0.00  0.00    -0.002 A 
ATOM      8  C6  OXE d   1       0.500   0.107  -1.130  0.00  0.00     0.003 A 
ENDROOT
TORSDOF 0
ENDMDL
