MODEL 1
REMARK minimizedAffinity -4.86887693
REMARK minimizedRMSD -1
REMARK  0 active torsions:
REMARK  status: ('A' for Active; 'I' for Inactive)
ROOT
ATOM      1  C2' OXE d   1       0.231   0.753   0.383  0.00  0.00     0.078 C 
ATOM      2  C1' OXE d   1      -0.342  -0.666   2.736  0.00  0.00     0.078 C 
ATOM      3  C1  OXE d   1      -0.245  -1.448   1.449  0.00  0.00    -0.078 A 
ATOM      4  C2  OXE d   1      -0.011  -0.739   0.296  0.00  0.00    -0.078 A 
ATOM      5  C3  OXE d   1       0.142  -1.417  -0.911  0.00  0.00     0.003 A 
ATOM      6  C4  OXE d   1      -0.094  -2.795  -0.984  0.00  0.00    -0.002 A 
ATOM      7  C5  OXE d   1      -0.373  -3.530   0.173  0.00  0.00    -0.002 A 
ATOM      8  C6  OXE d   1      -0.410  -2.879   1.401  0.00  0.00     0.003 A 
ENDROOT
TORSDOF 0
ENDMDL
