MODEL 1
REMARK minimizedAffinity -2.16064763
REMARK minimizedRMSD -1
REMARK  0 active torsions:
REMARK  status: ('A' for Active; 'I' for Inactive)
ROOT
ATOM      1  C2' OXE d   1       1.035  -0.498   0.472  0.00  0.00     0.078 C 
ATOM      2  C1' OXE d   1      -0.214   1.568  -0.960  0.00  0.00     0.078 C 
ATOM      3  C1  OXE d   1       1.047   1.900  -0.203  0.00  0.00    -0.078 A 
ATOM      4  C2  OXE d   1       1.626   0.894   0.533  0.00  0.00    -0.078 A 
ATOM      5  C3  OXE d   1       2.821   1.132   1.206  0.00  0.00     0.003 A 
ATOM      6  C4  OXE d   1       3.356   2.424   1.265  0.00  0.00    -0.002 A 
ATOM      7  C5  OXE d   1       2.760   3.472   0.556  0.00  0.00    -0.002 A 
ATOM      8  C6  OXE d   1       1.632   3.218  -0.216  0.00  0.00     0.003 A 
ENDROOT
TORSDOF 0
ENDMDL
