MODEL 1
REMARK minimizedAffinity -4.27221489
REMARK minimizedRMSD -1
REMARK  0 active torsions:
REMARK  status: ('A' for Active; 'I' for Inactive)
ROOT
ATOM      1  C2' OXE d   1       0.503   0.976   1.632  0.00  0.00     0.078 C 
ATOM      2  C1' OXE d   1      -1.806  -0.148   2.766  0.00  0.00     0.078 C 
ATOM      3  C1  OXE d   1      -1.149  -0.889   1.628  0.00  0.00    -0.078 A 
ATOM      4  C2  OXE d   1      -0.046  -0.308   1.048  0.00  0.00    -0.078 A 
ATOM      5  C3  OXE d   1       0.630  -0.975   0.031  0.00  0.00     0.003 A 
ATOM      6  C4  OXE d   1       0.109  -2.157  -0.510  0.00  0.00    -0.002 A 
ATOM      7  C5  OXE d   1      -1.035  -2.746   0.040  0.00  0.00    -0.002 A 
ATOM      8  C6  OXE d   1      -1.650  -2.148   1.134  0.00  0.00     0.003 A 
ENDROOT
TORSDOF 0
ENDMDL
