MODEL 1
REMARK minimizedAffinity -3.95074081
REMARK minimizedRMSD -1
REMARK  0 active torsions:
REMARK  status: ('A' for Active; 'I' for Inactive)
ROOT
ATOM      1  C2' OXE d   1       1.164  -1.605  -0.884  0.00  0.00     0.078 C 
ATOM      2  C1' OXE d   1       0.864   0.957   0.222  0.00  0.00     0.078 C 
ATOM      3  C1  OXE d   1      -0.158  -0.090   0.587  0.00  0.00    -0.078 A 
ATOM      4  C2  OXE d   1      -0.030  -1.328   0.004  0.00  0.00    -0.078 A 
ATOM      5  C3  OXE d   1      -0.914  -2.347   0.349  0.00  0.00     0.003 A 
ATOM      6  C4  OXE d   1      -2.021  -2.079   1.163  0.00  0.00    -0.002 A 
ATOM      7  C5  OXE d   1      -2.193  -0.814   1.735  0.00  0.00    -0.002 A 
ATOM      8  C6  OXE d   1      -1.249   0.177   1.491  0.00  0.00     0.003 A 
ENDROOT
TORSDOF 0
ENDMDL
