MODEL 1
REMARK minimizedAffinity -5.64456272
REMARK minimizedRMSD -1
REMARK  0 active torsions:
REMARK  status: ('A' for Active; 'I' for Inactive)
ROOT
ATOM      1  C2' OXE d   1      -1.546  -0.711   1.669  0.00  0.00     0.078 C 
ATOM      2  C1' OXE d   1      -0.565   0.955  -0.367  0.00  0.00     0.078 C 
ATOM      3  C1  OXE d   1      -0.207  -0.509  -0.422  0.00  0.00    -0.078 A 
ATOM      4  C2  OXE d   1      -0.652  -1.308   0.603  0.00  0.00    -0.078 A 
ATOM      5  C3  OXE d   1      -0.396  -2.676   0.572  0.00  0.00     0.003 A 
ATOM      6  C4  OXE d   1       0.440  -3.218  -0.411  0.00  0.00    -0.002 A 
ATOM      7  C5  OXE d   1       0.937  -2.414  -1.443  0.00  0.00    -0.002 A 
ATOM      8  C6  OXE d   1       0.588  -1.069  -1.487  0.00  0.00     0.003 A 
ENDROOT
TORSDOF 0
ENDMDL
