MODEL 1
REMARK minimizedAffinity 0.637448847
REMARK minimizedRMSD -1
REMARK  0 active torsions:
REMARK  status: ('A' for Active; 'I' for Inactive)
ROOT
ATOM      1  C2' OXE d   1      -0.714  -3.939   0.465  0.00  0.00     0.078 C 
ATOM      2  C1' OXE d   1      -3.461  -3.492   0.836  0.00  0.00     0.078 C 
ATOM      3  C1  OXE d   1      -2.535  -2.306   0.938  0.00  0.00    -0.078 A 
ATOM      4  C2  OXE d   1      -1.188  -2.542   0.801  0.00  0.00    -0.078 A 
ATOM      5  C3  OXE d   1      -0.295  -1.475   0.832  0.00  0.00     0.003 A 
ATOM      6  C4  OXE d   1      -0.740  -0.187   1.154  0.00  0.00    -0.002 A 
ATOM      7  C5  OXE d   1      -2.103   0.068   1.336  0.00  0.00    -0.002 A 
ATOM      8  C6  OXE d   1      -3.016  -0.970   1.190  0.00  0.00     0.003 A 
ENDROOT
TORSDOF 0
ENDMDL
