MODEL 1
REMARK minimizedAffinity -4.56478405
REMARK minimizedRMSD -1
REMARK  0 active torsions:
REMARK  status: ('A' for Active; 'I' for Inactive)
ROOT
ATOM      1  C2' OXE d   1      -1.571  -1.482   1.548  0.00  0.00     0.078 C 
ATOM      2  C1' OXE d   1       0.294  -3.399   0.694  0.00  0.00     0.078 C 
ATOM      3  C1  OXE d   1       0.244  -2.087  -0.048  0.00  0.00    -0.078 A 
ATOM      4  C2  OXE d   1      -0.703  -1.173   0.347  0.00  0.00    -0.078 A 
ATOM      5  C3  OXE d   1      -0.755   0.075  -0.268  0.00  0.00     0.003 A 
ATOM      6  C4  OXE d   1       0.044   0.349  -1.385  0.00  0.00    -0.002 A 
ATOM      7  C5  OXE d   1       0.988  -0.584  -1.828  0.00  0.00    -0.002 A 
ATOM      8  C6  OXE d   1       1.130  -1.787  -1.146  0.00  0.00     0.003 A 
ENDROOT
TORSDOF 0
ENDMDL
