MODEL 1
REMARK minimizedAffinity -6.14024258
REMARK minimizedRMSD -1
REMARK  0 active torsions:
REMARK  status: ('A' for Active; 'I' for Inactive)
ROOT
ATOM      1  C2' OXE d   1      -0.519  -1.770   0.952  0.00  0.00     0.078 C 
ATOM      2  C1' OXE d   1      -0.063  -0.026  -1.200  0.00  0.00     0.078 C 
ATOM      3  C1  OXE d   1       0.262   0.468   0.188  0.00  0.00    -0.078 A 
ATOM      4  C2  OXE d   1      -0.008  -0.375   1.238  0.00  0.00    -0.078 A 
ATOM      5  C3  OXE d   1       0.324   0.010   2.534  0.00  0.00     0.003 A 
ATOM      6  C4  OXE d   1       0.787   1.306   2.792  0.00  0.00    -0.002 A 
ATOM      7  C5  OXE d   1       1.031   2.195   1.739  0.00  0.00    -0.002 A 
ATOM      8  C6  OXE d   1       0.815   1.778   0.431  0.00  0.00     0.003 A 
ENDROOT
TORSDOF 0
ENDMDL
