MODEL 1
REMARK minimizedAffinity -1.19969201
REMARK minimizedRMSD -1
REMARK  0 active torsions:
REMARK  status: ('A' for Active; 'I' for Inactive)
ROOT
ATOM      1  C2' OXE d   1      -1.028   0.110   0.981  0.00  0.00     0.078 C 
ATOM      2  C1' OXE d   1       0.432   0.113  -1.416  0.00  0.00     0.078 C 
ATOM      3  C1  OXE d   1       0.649   1.258  -0.459  0.00  0.00    -0.078 A 
ATOM      4  C2  OXE d   1      -0.104   1.273   0.690  0.00  0.00    -0.078 A 
ATOM      5  C3  OXE d   1       0.096   2.278   1.633  0.00  0.00     0.003 A 
ATOM      6  C4  OXE d   1       0.945   3.355   1.351  0.00  0.00    -0.002 A 
ATOM      7  C5  OXE d   1       1.692   3.380   0.169  0.00  0.00    -0.002 A 
ATOM      8  C6  OXE d   1       1.587   2.320  -0.726  0.00  0.00     0.003 A 
ENDROOT
TORSDOF 0
ENDMDL
