MODEL 1
REMARK minimizedAffinity -1.58693326
REMARK minimizedRMSD -1
REMARK  0 active torsions:
REMARK  status: ('A' for Active; 'I' for Inactive)
ROOT
ATOM      1  C2' OXE d   1      -0.763  -0.720   2.353  0.00  0.00     0.078 C 
ATOM      2  C1' OXE d   1       0.232   0.801   0.213  0.00  0.00     0.078 C 
ATOM      3  C1  OXE d   1      -0.261  -0.593  -0.084  0.00  0.00    -0.078 A 
ATOM      4  C2  OXE d   1      -0.703  -1.347   0.976  0.00  0.00    -0.078 A 
ATOM      5  C3  OXE d   1      -1.220  -2.620   0.750  0.00  0.00     0.003 A 
ATOM      6  C4  OXE d   1      -1.151  -3.196  -0.525  0.00  0.00    -0.002 A 
ATOM      7  C5  OXE d   1      -0.668  -2.460  -1.612  0.00  0.00    -0.002 A 
ATOM      8  C6  OXE d   1      -0.260  -1.145  -1.416  0.00  0.00     0.003 A 
ENDROOT
TORSDOF 0
ENDMDL
