MODEL 1
REMARK minimizedAffinity -4.05993128
REMARK minimizedRMSD -1
REMARK  0 active torsions:
REMARK  status: ('A' for Active; 'I' for Inactive)
ROOT
ATOM      1  C2' OXE d   1      -0.947  -3.609  -1.562  0.00  0.00     0.078 C 
ATOM      2  C1' OXE d   1       0.282  -1.200  -2.313  0.00  0.00     0.078 C 
ATOM      3  C1  OXE d   1      -0.222  -1.320  -0.897  0.00  0.00    -0.078 A 
ATOM      4  C2  OXE d   1      -0.864  -2.485  -0.552  0.00  0.00    -0.078 A 
ATOM      5  C3  OXE d   1      -1.300  -2.670   0.757  0.00  0.00     0.003 A 
ATOM      6  C4  OXE d   1      -1.228  -1.622   1.683  0.00  0.00    -0.002 A 
ATOM      7  C5  OXE d   1      -0.614  -0.413   1.340  0.00  0.00    -0.002 A 
ATOM      8  C6  OXE d   1      -0.069  -0.262   0.070  0.00  0.00     0.003 A 
ENDROOT
TORSDOF 0
ENDMDL
