MODEL 1
REMARK minimizedAffinity -1.86436546
REMARK minimizedRMSD -1
REMARK  0 active torsions:
REMARK  status: ('A' for Active; 'I' for Inactive)
ROOT
ATOM      1  C2' OXE d   1       0.361  -0.623  -2.153  0.00  0.00     0.078 C 
ATOM      2  C1' OXE d   1       0.767   1.227  -0.081  0.00  0.00     0.078 C 
ATOM      3  C1  OXE d   1       0.001  -0.032   0.240  0.00  0.00    -0.078 A 
ATOM      4  C2  OXE d   1      -0.234  -0.910  -0.791  0.00  0.00    -0.078 A 
ATOM      5  C3  OXE d   1      -0.888  -2.112  -0.537  0.00  0.00     0.003 A 
ATOM      6  C4  OXE d   1      -1.443  -2.365   0.723  0.00  0.00    -0.002 A 
ATOM      7  C5  OXE d   1      -1.250  -1.465   1.777  0.00  0.00    -0.002 A 
ATOM      8  C6  OXE d   1      -0.496  -0.317   1.564  0.00  0.00     0.003 A 
ENDROOT
TORSDOF 0
ENDMDL
