MODEL 1
REMARK minimizedAffinity -2.7750988
REMARK minimizedRMSD -1
REMARK  0 active torsions:
REMARK  status: ('A' for Active; 'I' for Inactive)
ROOT
ATOM      1  C2' OXE d   1      -0.358   1.258  -0.641  0.00  0.00     0.078 C 
ATOM      2  C1' OXE d   1      -0.095  -1.208  -1.958  0.00  0.00     0.078 C 
ATOM      3  C1  OXE d   1      -0.564  -1.222  -0.524  0.00  0.00    -0.078 A 
ATOM      4  C2  OXE d   1      -0.645  -0.015   0.126  0.00  0.00    -0.078 A 
ATOM      5  C3  OXE d   1      -1.125   0.034   1.432  0.00  0.00     0.003 A 
ATOM      6  C4  OXE d   1      -1.379  -1.148   2.138  0.00  0.00    -0.002 A 
ATOM      7  C5  OXE d   1      -1.264  -2.391   1.507  0.00  0.00    -0.002 A 
ATOM      8  C6  OXE d   1      -0.900  -2.443   0.166  0.00  0.00     0.003 A 
ENDROOT
TORSDOF 0
ENDMDL
