MODEL 1
REMARK minimizedAffinity -3.05692005
REMARK minimizedRMSD -1
REMARK  0 active torsions:
REMARK  status: ('A' for Active; 'I' for Inactive)
ROOT
ATOM      1  O1  BZF d   1      -1.827  -1.636  -2.939  0.00  0.00    -0.204 OA
ATOM      2  C2  BZF d   1      -2.172  -2.430  -4.015  0.00  0.00     0.174 A 
ATOM      3  C3  BZF d   1      -2.998  -3.425  -3.631  0.00  0.00    -0.012 A 
ATOM      4  C3A BZF d   1      -3.254  -3.186  -2.244  0.00  0.00    -0.107 A 
ATOM      5  C4  BZF d   1      -4.015  -3.824  -1.306  0.00  0.00     0.055 A 
ATOM      6  C5  BZF d   1      -3.992  -3.378  -0.022  0.00  0.00    -0.016 A 
ATOM      7  C6  BZF d   1      -3.217  -2.303   0.359  0.00  0.00     0.022 A 
ATOM      8  C7  BZF d   1      -2.450  -1.635  -0.536  0.00  0.00     0.029 A 
ATOM      9  C7A BZF d   1      -2.496  -2.062  -1.841  0.00  0.00     0.058 A 
ENDROOT
TORSDOF 0
ENDMDL
