MODEL 1
REMARK minimizedAffinity -3.85466719
REMARK minimizedRMSD -1
REMARK  0 active torsions:
REMARK  status: ('A' for Active; 'I' for Inactive)
ROOT
ATOM      1  O1  BZF d   1      -0.391  -0.650  -1.723  0.00  0.00    -0.204 OA
ATOM      2  C2  BZF d   1      -0.047  -0.150  -0.482  0.00  0.00     0.174 A 
ATOM      3  C3  BZF d   1      -0.799  -0.713   0.486  0.00  0.00    -0.012 A 
ATOM      4  C3A BZF d   1      -1.604  -1.689  -0.183  0.00  0.00    -0.107 A 
ATOM      5  C4  BZF d   1      -2.543  -2.584   0.244  0.00  0.00     0.055 A 
ATOM      6  C5  BZF d   1      -3.196  -3.343  -0.674  0.00  0.00    -0.016 A 
ATOM      7  C6  BZF d   1      -2.941  -3.230  -2.025  0.00  0.00     0.022 A 
ATOM      8  C7  BZF d   1      -2.015  -2.360  -2.496  0.00  0.00     0.029 A 
ATOM      9  C7A BZF d   1      -1.329  -1.615  -1.568  0.00  0.00     0.058 A 
ENDROOT
TORSDOF 0
ENDMDL
