MODEL 1
REMARK minimizedAffinity -3.09777522
REMARK minimizedRMSD -1
REMARK  0 active torsions:
REMARK  status: ('A' for Active; 'I' for Inactive)
ROOT
ATOM      1  O1  BZF d   1      -1.229  -2.458  -0.014  0.00  0.00    -0.204 OA
ATOM      2  C2  BZF d   1      -0.965  -1.103   0.044  0.00  0.00     0.174 A 
ATOM      3  C3  BZF d   1      -1.330  -0.495  -1.103  0.00  0.00    -0.012 A 
ATOM      4  C3A BZF d   1      -1.941  -1.519  -1.894  0.00  0.00    -0.107 A 
ATOM      5  C4  BZF d   1      -2.518  -1.531  -3.131  0.00  0.00     0.055 A 
ATOM      6  C5  BZF d   1      -2.953  -2.711  -3.646  0.00  0.00    -0.016 A 
ATOM      7  C6  BZF d   1      -2.823  -3.897  -2.954  0.00  0.00     0.022 A 
ATOM      8  C7  BZF d   1      -2.261  -3.935  -1.721  0.00  0.00     0.029 A 
ATOM      9  C7A BZF d   1      -1.851  -2.739  -1.184  0.00  0.00     0.058 A 
ENDROOT
TORSDOF 0
ENDMDL
