MODEL 1
REMARK minimizedAffinity -1.1481359
REMARK minimizedRMSD -1
REMARK  0 active torsions:
REMARK  status: ('A' for Active; 'I' for Inactive)
ROOT
ATOM      1  O1  BZF d   1      -1.881  -2.409  -3.251  0.00  0.00    -0.204 OA
ATOM      2  C2  BZF d   1      -2.081  -3.677  -2.739  0.00  0.00     0.174 A 
ATOM      3  C3  BZF d   1      -1.871  -3.694  -1.407  0.00  0.00    -0.012 A 
ATOM      4  C3A BZF d   1      -1.607  -2.333  -1.051  0.00  0.00    -0.107 A 
ATOM      5  C4  BZF d   1      -1.338  -1.709   0.134  0.00  0.00     0.055 A 
ATOM      6  C5  BZF d   1      -1.056  -0.379   0.130  0.00  0.00    -0.016 A 
ATOM      7  C6  BZF d   1      -1.028   0.354  -1.039  0.00  0.00     0.022 A 
ATOM      8  C7  BZF d   1      -1.293  -0.221  -2.237  0.00  0.00     0.029 A 
ATOM      9  C7A BZF d   1      -1.611  -1.557  -2.233  0.00  0.00     0.058 A 
ENDROOT
TORSDOF 0
ENDMDL
