MODEL 1
REMARK minimizedAffinity -0.573203921
REMARK minimizedRMSD -1
REMARK  0 active torsions:
REMARK  status: ('A' for Active; 'I' for Inactive)
ROOT
ATOM      1  O1  BZF d   1      -0.147  -1.145  -1.218  0.00  0.00    -0.204 OA
ATOM      2  C2  BZF d   1       0.093  -0.345  -0.118  0.00  0.00     0.174 A 
ATOM      3  C3  BZF d   1      -1.019  -0.220   0.635  0.00  0.00    -0.012 A 
ATOM      4  C3A BZF d   1      -1.991  -1.066   0.013  0.00  0.00    -0.107 A 
ATOM      5  C4  BZF d   1      -3.288  -1.378   0.305  0.00  0.00     0.055 A 
ATOM      6  C5  BZF d   1      -3.982  -2.180  -0.545  0.00  0.00    -0.016 A 
ATOM      7  C6  BZF d   1      -3.412  -2.683  -1.696  0.00  0.00     0.022 A 
ATOM      8  C7  BZF d   1      -2.127  -2.406  -2.025  0.00  0.00     0.029 A 
ATOM      9  C7A BZF d   1      -1.413  -1.622  -1.152  0.00  0.00     0.058 A 
ENDROOT
TORSDOF 0
ENDMDL
