MODEL 1
REMARK minimizedAffinity 1.19194007
REMARK minimizedRMSD -1
REMARK  0 active torsions:
REMARK  status: ('A' for Active; 'I' for Inactive)
ROOT
ATOM      1  O1  BZF d   1      -0.292   0.411  -1.779  0.00  0.00    -0.204 OA
ATOM      2  C2  BZF d   1       0.330   0.409  -0.546  0.00  0.00     0.174 A 
ATOM      3  C3  BZF d   1      -0.084  -0.637   0.198  0.00  0.00    -0.012 A 
ATOM      4  C3A BZF d   1      -0.953  -1.386  -0.658  0.00  0.00    -0.107 A 
ATOM      5  C4  BZF d   1      -1.663  -2.541  -0.495  0.00  0.00     0.055 A 
ATOM      6  C5  BZF d   1      -2.473  -2.965  -1.501  0.00  0.00    -0.016 A 
ATOM      7  C6  BZF d   1      -2.601  -2.257  -2.678  0.00  0.00     0.022 A 
ATOM      8  C7  BZF d   1      -1.913  -1.108  -2.886  0.00  0.00     0.029 A 
ATOM      9  C7A BZF d   1      -1.069  -0.694  -1.886  0.00  0.00     0.058 A 
ENDROOT
TORSDOF 0
ENDMDL
