MODEL 1
REMARK minimizedAffinity 6.16052341
REMARK minimizedRMSD -1
REMARK  0 active torsions:
REMARK  status: ('A' for Active; 'I' for Inactive)
ROOT
ATOM      1  O1  BZF d   1      -2.788   1.003   2.334  0.00  0.00    -0.204 OA
ATOM      2  C2  BZF d   1      -2.581   0.149   3.400  0.00  0.00     0.174 A 
ATOM      3  C3  BZF d   1      -1.707  -0.824   3.071  0.00  0.00    -0.012 A 
ATOM      4  C3A BZF d   1      -1.274  -0.508   1.744  0.00  0.00    -0.107 A 
ATOM      5  C4  BZF d   1      -0.395  -1.094   0.879  0.00  0.00     0.055 A 
ATOM      6  C5  BZF d   1      -0.254  -0.577  -0.370  0.00  0.00    -0.016 A 
ATOM      7  C6  BZF d   1      -0.979   0.520  -0.788  0.00  0.00     0.022 A 
ATOM      8  C7  BZF d   1      -1.859   1.138   0.036  0.00  0.00     0.029 A 
ATOM      9  C7A BZF d   1      -1.980   0.638   1.310  0.00  0.00     0.058 A 
ENDROOT
TORSDOF 0
ENDMDL
