MODEL 1
REMARK minimizedAffinity 4.18839025
REMARK minimizedRMSD -1
REMARK  0 active torsions:
REMARK  status: ('A' for Active; 'I' for Inactive)
ROOT
ATOM      1  O1  BZF d   1      -4.740   4.981   4.360  0.00  0.00    -0.204 OA
ATOM      2  C2  BZF d   1      -3.707   4.069   4.456  0.00  0.00     0.174 A 
ATOM      3  C3  BZF d   1      -3.333   3.641   3.233  0.00  0.00    -0.012 A 
ATOM      4  C3A BZF d   1      -4.123   4.397   2.311  0.00  0.00    -0.107 A 
ATOM      5  C4  BZF d   1      -4.197   4.434   0.948  0.00  0.00     0.055 A 
ATOM      6  C5  BZF d   1      -5.126   5.232   0.358  0.00  0.00    -0.016 A 
ATOM      7  C6  BZF d   1      -6.000   6.000   1.100  0.00  0.00     0.022 A 
ATOM      8  C7  BZF d   1      -5.961   6.000   2.455  0.00  0.00     0.029 A 
ATOM      9  C7A BZF d   1      -5.002   5.220   3.053  0.00  0.00     0.058 A 
ENDROOT
TORSDOF 0
ENDMDL
