MODEL 1
REMARK minimizedAffinity 2.34163499
REMARK minimizedRMSD -1
REMARK  0 active torsions:
REMARK  status: ('A' for Active; 'I' for Inactive)
ROOT
ATOM      1  O1  BZF d   1      -4.977  -5.898  -1.619  0.00  0.00    -0.204 OA
ATOM      2  C2  BZF d   1      -6.000  -5.570  -0.750  0.00  0.00     0.174 A 
ATOM      3  C3  BZF d   1      -6.000  -4.247  -0.489  0.00  0.00    -0.012 A 
ATOM      4  C3A BZF d   1      -4.966  -3.700  -1.313  0.00  0.00    -0.107 A 
ATOM      5  C4  BZF d   1      -4.492  -2.435  -1.509  0.00  0.00     0.055 A 
ATOM      6  C5  BZF d   1      -3.423  -2.249  -2.328  0.00  0.00    -0.016 A 
ATOM      7  C6  BZF d   1      -2.801  -3.305  -2.960  0.00  0.00     0.022 A 
ATOM      8  C7  BZF d   1      -3.238  -4.578  -2.800  0.00  0.00     0.029 A 
ATOM      9  C7A BZF d   1      -4.338  -4.765  -2.000  0.00  0.00     0.058 A 
ENDROOT
TORSDOF 0
ENDMDL
