MODEL 1
REMARK minimizedAffinity 3.93540406
REMARK minimizedRMSD -1
REMARK  0 active torsions:
REMARK  status: ('A' for Active; 'I' for Inactive)
ROOT
ATOM      1  O1  BZF d   1      -2.162  -3.213  -1.803  0.00  0.00    -0.204 OA
ATOM      2  C2  BZF d   1      -2.690  -2.978  -3.057  0.00  0.00     0.174 A 
ATOM      3  C3  BZF d   1      -2.654  -1.663  -3.353  0.00  0.00    -0.012 A 
ATOM      4  C3A BZF d   1      -1.982  -1.047  -2.250  0.00  0.00    -0.107 A 
ATOM      5  C4  BZF d   1      -1.627   0.241  -1.967  0.00  0.00     0.055 A 
ATOM      6  C5  BZF d   1      -1.046   0.518  -0.771  0.00  0.00    -0.016 A 
ATOM      7  C6  BZF d   1      -0.810  -0.465   0.167  0.00  0.00     0.022 A 
ATOM      8  C7  BZF d   1      -1.139  -1.758  -0.071  0.00  0.00     0.029 A 
ATOM      9  C7A BZF d   1      -1.697  -2.047  -1.292  0.00  0.00     0.058 A 
ENDROOT
TORSDOF 0
ENDMDL
