MODEL 1
REMARK minimizedAffinity 13.3649178
REMARK minimizedRMSD -1
REMARK  0 active torsions:
REMARK  status: ('A' for Active; 'I' for Inactive)
ROOT
ATOM      1  O1  BZF d   1      -2.958   0.328   1.802  0.00  0.00    -0.204 OA
ATOM      2  C2  BZF d   1      -2.809   0.063   3.149  0.00  0.00     0.174 A 
ATOM      3  C3  BZF d   1      -1.627  -0.538   3.391  0.00  0.00    -0.012 A 
ATOM      4  C3A BZF d   1      -0.957  -0.573   2.127  0.00  0.00    -0.107 A 
ATOM      5  C4  BZF d   1       0.263  -1.034   1.723  0.00  0.00     0.055 A 
ATOM      6  C5  BZF d   1       0.584  -0.985   0.404  0.00  0.00    -0.016 A 
ATOM      7  C6  BZF d   1      -0.291  -0.486  -0.539  0.00  0.00     0.022 A 
ATOM      8  C7  BZF d   1      -1.511  -0.012  -0.185  0.00  0.00     0.029 A 
ATOM      9  C7A BZF d   1      -1.825  -0.030   1.151  0.00  0.00     0.058 A 
ENDROOT
TORSDOF 0
ENDMDL
