MODEL 1
REMARK minimizedAffinity 4.179564
REMARK minimizedRMSD -1
REMARK  0 active torsions:
REMARK  status: ('A' for Active; 'I' for Inactive)
ROOT
ATOM      1  O1  BZF d   1      -3.752   4.850   0.574  0.00  0.00    -0.204 OA
ATOM      2  C2  BZF d   1      -4.906   4.940  -0.180  0.00  0.00     0.174 A 
ATOM      3  C3  BZF d   1      -5.954   5.301   0.589  0.00  0.00    -0.012 A 
ATOM      4  C3A BZF d   1      -5.403   5.536   1.888  0.00  0.00    -0.107 A 
ATOM      5  C4  BZF d   1      -5.941   5.935   3.078  0.00  0.00     0.055 A 
ATOM      6  C5  BZF d   1      -5.143   5.998   4.176  0.00  0.00    -0.016 A 
ATOM      7  C6  BZF d   1      -3.806   5.663   4.122  0.00  0.00     0.022 A 
ATOM      8  C7  BZF d   1      -3.226   5.267   2.963  0.00  0.00     0.029 A 
ATOM      9  C7A BZF d   1      -4.022   5.234   1.844  0.00  0.00     0.058 A 
ENDROOT
TORSDOF 0
ENDMDL
