MODEL 1
REMARK minimizedAffinity -4.10619545
REMARK minimizedRMSD -1
REMARK  0 active torsions:
REMARK  status: ('A' for Active; 'I' for Inactive)
ROOT
ATOM      1  O1  BZF d   1      -4.561   1.492   4.783  0.00  0.00    -0.204 OA
ATOM      2  C2  BZF d   1      -3.934   1.199   3.587  0.00  0.00     0.174 A 
ATOM      3  C3  BZF d   1      -3.726   2.321   2.868  0.00  0.00    -0.012 A 
ATOM      4  C3A BZF d   1      -4.172   3.392   3.706  0.00  0.00    -0.107 A 
ATOM      5  C4  BZF d   1      -4.207   4.749   3.555  0.00  0.00     0.055 A 
ATOM      6  C5  BZF d   1      -4.772   5.507   4.532  0.00  0.00    -0.016 A 
ATOM      7  C6  BZF d   1      -5.314   4.942   5.667  0.00  0.00     0.022 A 
ATOM      8  C7  BZF d   1      -5.298   3.601   5.864  0.00  0.00     0.029 A 
ATOM      9  C7A BZF d   1      -4.698   2.835   4.894  0.00  0.00     0.058 A 
ENDROOT
TORSDOF 0
ENDMDL
