MODEL 1
REMARK minimizedAffinity 0.213793665
REMARK minimizedRMSD -1
REMARK  0 active torsions:
REMARK  status: ('A' for Active; 'I' for Inactive)
ROOT
ATOM      1  O1  BZF d   1      -5.519   3.728   1.312  0.00  0.00    -0.204 OA
ATOM      2  C2  BZF d   1      -5.986   4.905   0.758  0.00  0.00     0.174 A 
ATOM      3  C3  BZF d   1      -5.858   5.927   1.628  0.00  0.00    -0.012 A 
ATOM      4  C3A BZF d   1      -5.191   5.372   2.765  0.00  0.00    -0.107 A 
ATOM      5  C4  BZF d   1      -4.769   5.896   3.954  0.00  0.00     0.055 A 
ATOM      6  C5  BZF d   1      -4.215   5.069   4.880  0.00  0.00    -0.016 A 
ATOM      7  C6  BZF d   1      -4.074   3.716   4.653  0.00  0.00     0.022 A 
ATOM      8  C7  BZF d   1      -4.473   3.152   3.488  0.00  0.00     0.029 A 
ATOM      9  C7A BZF d   1      -5.002   3.990   2.537  0.00  0.00     0.058 A 
ENDROOT
TORSDOF 0
ENDMDL
