MODEL 1
REMARK minimizedAffinity -3.48837566
REMARK minimizedRMSD -1
REMARK  0 active torsions:
REMARK  status: ('A' for Active; 'I' for Inactive)
ROOT
ATOM      1  O1  BZF d   1      -5.076   1.554   3.784  0.00  0.00    -0.204 OA
ATOM      2  C2  BZF d   1      -4.890   0.853   4.959  0.00  0.00     0.174 A 
ATOM      3  C3  BZF d   1      -4.717   1.696   5.997  0.00  0.00    -0.012 A 
ATOM      4  C3A BZF d   1      -4.892   3.007   5.450  0.00  0.00    -0.107 A 
ATOM      5  C4  BZF d   1      -4.857   4.261   5.989  0.00  0.00     0.055 A 
ATOM      6  C5  BZF d   1      -4.996   5.336   5.169  0.00  0.00    -0.016 A 
ATOM      7  C6  BZF d   1      -5.167   5.193   3.807  0.00  0.00     0.022 A 
ATOM      8  C7  BZF d   1      -5.213   3.969   3.228  0.00  0.00     0.029 A 
ATOM      9  C7A BZF d   1      -5.106   2.880   4.058  0.00  0.00     0.058 A 
ENDROOT
TORSDOF 0
ENDMDL
