MODEL 1
REMARK minimizedAffinity 8.85744953
REMARK minimizedRMSD -1
REMARK  0 active torsions:
REMARK  status: ('A' for Active; 'I' for Inactive)
ROOT
ATOM      1  O1  BZF d   1      -5.597   5.953   3.374  0.00  0.00    -0.204 OA
ATOM      2  C2  BZF d   1      -4.590   5.440   4.168  0.00  0.00     0.174 A 
ATOM      3  C3  BZF d   1      -3.664   4.809   3.417  0.00  0.00    -0.012 A 
ATOM      4  C3A BZF d   1      -4.073   5.016   2.062  0.00  0.00    -0.107 A 
ATOM      5  C4  BZF d   1      -3.551   4.645   0.856  0.00  0.00     0.055 A 
ATOM      6  C5  BZF d   1      -4.234   4.944  -0.280  0.00  0.00    -0.016 A 
ATOM      7  C6  BZF d   1      -5.444   5.607  -0.247  0.00  0.00     0.022 A 
ATOM      8  C7  BZF d   1      -5.999   6.000   0.925  0.00  0.00     0.029 A 
ATOM      9  C7A BZF d   1      -5.295   5.729   2.073  0.00  0.00     0.058 A 
ENDROOT
TORSDOF 0
ENDMDL
