MODEL 1
REMARK minimizedAffinity -4.4902997
REMARK minimizedRMSD -1
REMARK  0 active torsions:
REMARK  status: ('A' for Active; 'I' for Inactive)
ROOT
ATOM      1  O1  BZF d   1      -5.306   5.518   3.739  0.00  0.00    -0.204 OA
ATOM      2  C2  BZF d   1      -5.189   5.664   2.370  0.00  0.00     0.174 A 
ATOM      3  C3  BZF d   1      -4.929   4.479   1.783  0.00  0.00    -0.012 A 
ATOM      4  C3A BZF d   1      -4.972   3.517   2.841  0.00  0.00    -0.107 A 
ATOM      5  C4  BZF d   1      -4.808   2.162   2.885  0.00  0.00     0.055 A 
ATOM      6  C5  BZF d   1      -4.839   1.532   4.089  0.00  0.00    -0.016 A 
ATOM      7  C6  BZF d   1      -5.027   2.225   5.267  0.00  0.00     0.022 A 
ATOM      8  C7  BZF d   1      -5.199   3.569   5.273  0.00  0.00     0.029 A 
ATOM      9  C7A BZF d   1      -5.201   4.205   4.055  0.00  0.00     0.058 A 
ENDROOT
TORSDOF 0
ENDMDL
