MODEL 1
REMARK minimizedAffinity -1.83517504
REMARK minimizedRMSD -1
REMARK  0 active torsions:
REMARK  status: ('A' for Active; 'I' for Inactive)
ROOT
ATOM      1  O1  BZF d   1      -4.904   4.019   2.145  0.00  0.00    -0.204 OA
ATOM      2  C2  BZF d   1      -5.513   5.076   1.498  0.00  0.00     0.174 A 
ATOM      3  C3  BZF d   1      -5.954   5.991   2.385  0.00  0.00    -0.012 A 
ATOM      4  C3A BZF d   1      -5.517   5.517   3.663  0.00  0.00    -0.107 A 
ATOM      5  C4  BZF d   1      -5.635   6.000   4.934  0.00  0.00     0.055 A 
ATOM      6  C5  BZF d   1      -5.160   5.258   5.969  0.00  0.00    -0.016 A 
ATOM      7  C6  BZF d   1      -4.566   4.030   5.770  0.00  0.00     0.022 A 
ATOM      8  C7  BZF d   1      -4.421   3.511   4.526  0.00  0.00     0.029 A 
ATOM      9  C7A BZF d   1      -4.871   4.273   3.475  0.00  0.00     0.058 A 
ENDROOT
TORSDOF 0
ENDMDL
