MODEL 1
REMARK minimizedAffinity -1.68574572
REMARK minimizedRMSD -1
REMARK  0 active torsions:
REMARK  status: ('A' for Active; 'I' for Inactive)
ROOT
ATOM      1  O1  BZF d   1      -3.826   5.366   1.828  0.00  0.00    -0.204 OA
ATOM      2  C2  BZF d   1      -4.941   5.743   1.105  0.00  0.00     0.174 A 
ATOM      3  C3  BZF d   1      -5.980   5.999   1.927  0.00  0.00    -0.012 A 
ATOM      4  C3A BZF d   1      -5.457   5.857   3.251  0.00  0.00    -0.107 A 
ATOM      5  C4  BZF d   1      -6.000   5.999   4.495  0.00  0.00     0.055 A 
ATOM      6  C5  BZF d   1      -5.239   5.717   5.585  0.00  0.00    -0.016 A 
ATOM      7  C6  BZF d   1      -3.934   5.284   5.466  0.00  0.00     0.022 A 
ATOM      8  C7  BZF d   1      -3.350   5.132   4.253  0.00  0.00     0.029 A 
ATOM      9  C7A BZF d   1      -4.106   5.449   3.151  0.00  0.00     0.058 A 
ENDROOT
TORSDOF 0
ENDMDL
