MODEL 1
REMARK minimizedAffinity 3.85951376
REMARK minimizedRMSD -1
REMARK  0 active torsions:
REMARK  status: ('A' for Active; 'I' for Inactive)
ROOT
ATOM      1  C1  DEN d   1       5.983   3.968  -2.265  0.00  0.00     0.130 A 
ATOM      2  C2  DEN d   1       5.445   5.026  -1.413  0.00  0.00    -0.031 A 
ATOM      3  C3  DEN d   1       4.745   5.997  -2.278  0.00  0.00     0.027 A 
ATOM      4  C4  DEN d   1       4.441   5.964  -4.839  0.00  0.00     0.027 A 
ATOM      5  C5  DEN d   1       4.732   5.274  -5.995  0.00  0.00    -0.003 A 
ATOM      6  C6  DEN d   1       5.482   4.128  -5.993  0.00  0.00     0.001 A 
ATOM      7  C7  DEN d   1       5.930   3.613  -4.805  0.00  0.00     0.017 A 
ATOM      8  C8  DEN d   1       5.648   4.307  -3.636  0.00  0.00    -0.094 A 
ATOM      9  C9  DEN d   1       4.877   5.457  -3.658  0.00  0.00    -0.072 A 
ENDROOT
TORSDOF 0
ENDMDL
