MODEL 1
REMARK minimizedAffinity 8.70967293
REMARK minimizedRMSD -1
REMARK  0 active torsions:
REMARK  status: ('A' for Active; 'I' for Inactive)
ROOT
ATOM      1  C1  DEN d   1       4.476  -5.217   5.372  0.00  0.00     0.130 A 
ATOM      2  C2  DEN d   1       5.752  -4.886   5.999  0.00  0.00    -0.031 A 
ATOM      3  C3  DEN d   1       5.892  -3.416   6.000  0.00  0.00     0.027 A 
ATOM      4  C4  DEN d   1       4.263  -1.630   5.099  0.00  0.00     0.027 A 
ATOM      5  C5  DEN d   1       3.055  -1.429   4.468  0.00  0.00    -0.003 A 
ATOM      6  C6  DEN d   1       2.259  -2.468   4.067  0.00  0.00     0.001 A 
ATOM      7  C7  DEN d   1       2.639  -3.757   4.333  0.00  0.00     0.017 A 
ATOM      8  C8  DEN d   1       3.859  -3.968   4.962  0.00  0.00    -0.094 A 
ATOM      9  C9  DEN d   1       4.645  -2.904   5.371  0.00  0.00    -0.072 A 
ENDROOT
TORSDOF 0
ENDMDL
