MODEL 1
REMARK minimizedAffinity 5.60953188
REMARK minimizedRMSD -1
REMARK  0 active torsions:
REMARK  status: ('A' for Active; 'I' for Inactive)
ROOT
ATOM      1  C1  DEN d   1       2.722  -2.436  -3.984  0.00  0.00     0.130 A 
ATOM      2  C2  DEN d   1       3.241  -1.477  -3.013  0.00  0.00    -0.031 A 
ATOM      3  C3  DEN d   1       2.179  -1.211  -2.021  0.00  0.00     0.027 A 
ATOM      4  C4  DEN d   1      -0.203  -2.190  -1.893  0.00  0.00     0.027 A 
ATOM      5  C5  DEN d   1      -1.104  -3.035  -2.503  0.00  0.00    -0.003 A 
ATOM      6  C6  DEN d   1      -0.807  -3.708  -3.658  0.00  0.00     0.001 A 
ATOM      7  C7  DEN d   1       0.438  -3.582  -4.216  0.00  0.00     0.017 A 
ATOM      8  C8  DEN d   1       1.349  -2.726  -3.611  0.00  0.00    -0.094 A 
ATOM      9  C9  DEN d   1       1.034  -2.064  -2.437  0.00  0.00    -0.072 A 
ENDROOT
TORSDOF 0
ENDMDL
