MODEL 1
REMARK minimizedAffinity -0.171211511
REMARK minimizedRMSD -1
REMARK  0 active torsions:
REMARK  status: ('A' for Active; 'I' for Inactive)
ROOT
ATOM      1  C1  DEN d   1       5.711  -1.560   6.000  0.00  0.00     0.130 A 
ATOM      2  C2  DEN d   1       4.628  -0.695   5.540  0.00  0.00    -0.031 A 
ATOM      3  C3  DEN d   1       3.551  -1.554   5.009  0.00  0.00     0.027 A 
ATOM      4  C4  DEN d   1       3.453  -4.127   4.860  0.00  0.00     0.027 A 
ATOM      5  C5  DEN d   1       4.141  -5.293   5.114  0.00  0.00    -0.003 A 
ATOM      6  C6  DEN d   1       5.403  -5.295   5.645  0.00  0.00     0.001 A 
ATOM      7  C7  DEN d   1       6.000  -4.109   5.982  0.00  0.00     0.017 A 
ATOM      8  C8  DEN d   1       5.316  -2.929   5.722  0.00  0.00    -0.094 A 
ATOM      9  C9  DEN d   1       4.035  -2.948   5.196  0.00  0.00    -0.072 A 
ENDROOT
TORSDOF 0
ENDMDL
