MODEL 1
REMARK minimizedAffinity 2.2251966
REMARK minimizedRMSD -1
REMARK  0 active torsions:
REMARK  status: ('A' for Active; 'I' for Inactive)
ROOT
ATOM      1  C1  DEN d   1       5.932  -3.025   2.219  0.00  0.00     0.130 A 
ATOM      2  C2  DEN d   1       5.238  -2.045   1.387  0.00  0.00    -0.031 A 
ATOM      3  C3  DEN d   1       4.492  -1.136   2.280  0.00  0.00     0.027 A 
ATOM      4  C4  DEN d   1       4.347  -1.148   4.855  0.00  0.00     0.027 A 
ATOM      5  C5  DEN d   1       4.755  -1.797   5.999  0.00  0.00    -0.003 A 
ATOM      6  C6  DEN d   1       5.550  -2.912   5.963  0.00  0.00     0.001 A 
ATOM      7  C7  DEN d   1       5.999  -3.386   4.758  0.00  0.00     0.017 A 
ATOM      8  C8  DEN d   1       5.586  -2.741   3.600  0.00  0.00    -0.094 A 
ATOM      9  C9  DEN d   1       4.792  -1.608   3.659  0.00  0.00    -0.072 A 
ENDROOT
TORSDOF 0
ENDMDL
