MODEL 1
REMARK minimizedAffinity 1.60155118
REMARK minimizedRMSD -1
REMARK  0 active torsions:
REMARK  status: ('A' for Active; 'I' for Inactive)
ROOT
ATOM      1  C1  DEN d   1      -0.012  -2.540  -4.859  0.00  0.00     0.130 A 
ATOM      2  C2  DEN d   1       0.854  -1.758  -3.979  0.00  0.00    -0.031 A 
ATOM      3  C3  DEN d   1       1.128  -2.566  -2.774  0.00  0.00     0.027 A 
ATOM      4  C4  DEN d   1       0.304  -4.939  -2.188  0.00  0.00     0.027 A 
ATOM      5  C5  DEN d   1      -0.462  -5.999  -2.619  0.00  0.00    -0.003 A 
ATOM      6  C6  DEN d   1      -1.154  -5.968  -3.800  0.00  0.00     0.001 A 
ATOM      7  C7  DEN d   1      -1.057  -4.870  -4.614  0.00  0.00     0.017 A 
ATOM      8  C8  DEN d   1      -0.292  -3.794  -4.184  0.00  0.00    -0.094 A 
ATOM      9  C9  DEN d   1       0.410  -3.850  -2.992  0.00  0.00    -0.072 A 
ENDROOT
TORSDOF 0
ENDMDL
