MODEL 1
REMARK minimizedAffinity -0.290538073
REMARK minimizedRMSD -1
REMARK  0 active torsions:
REMARK  status: ('A' for Active; 'I' for Inactive)
ROOT
ATOM      1  C1  DEN d   1       5.203   5.997  -2.393  0.00  0.00     0.130 A 
ATOM      2  C2  DEN d   1       5.805   4.966  -1.553  0.00  0.00    -0.031 A 
ATOM      3  C3  DEN d   1       5.999   3.758  -2.381  0.00  0.00     0.027 A 
ATOM      4  C4  DEN d   1       5.433   3.390  -4.870  0.00  0.00     0.027 A 
ATOM      5  C5  DEN d   1       4.897   3.972  -5.998  0.00  0.00    -0.003 A 
ATOM      6  C6  DEN d   1       4.398   5.247  -5.994  0.00  0.00     0.001 A 
ATOM      7  C7  DEN d   1       4.466   5.999  -4.851  0.00  0.00     0.017 A 
ATOM      8  C8  DEN d   1       4.999   5.417  -3.708  0.00  0.00    -0.094 A 
ATOM      9  C9  DEN d   1       5.509   4.130  -3.736  0.00  0.00    -0.072 A 
ENDROOT
TORSDOF 0
ENDMDL
