MODEL 1
REMARK minimizedAffinity 11.5686932
REMARK minimizedRMSD -1
REMARK  0 active torsions:
REMARK  status: ('A' for Active; 'I' for Inactive)
ROOT
ATOM      1  C1  DEN d   1       2.511   5.128  -3.022  0.00  0.00     0.130 A 
ATOM      2  C2  DEN d   1       3.064   4.936  -1.684  0.00  0.00    -0.031 A 
ATOM      3  C3  DEN d   1       4.528   5.106  -1.766  0.00  0.00     0.027 A 
ATOM      4  C4  DEN d   1       5.986   5.647  -3.824  0.00  0.00     0.027 A 
ATOM      5  C5  DEN d   1       5.969   5.887  -5.180  0.00  0.00    -0.003 A 
ATOM      6  C6  DEN d   1       4.812   5.857  -5.912  0.00  0.00     0.001 A 
ATOM      7  C7  DEN d   1       3.617   5.626  -5.283  0.00  0.00     0.017 A 
ATOM      8  C8  DEN d   1       3.627   5.376  -3.917  0.00  0.00    -0.094 A 
ATOM      9  C9  DEN d   1       4.806   5.423  -3.193  0.00  0.00    -0.072 A 
ENDROOT
TORSDOF 0
ENDMDL
