MODEL 1
REMARK minimizedAffinity -0.388907552
REMARK minimizedRMSD -1
REMARK  0 active torsions:
REMARK  status: ('A' for Active; 'I' for Inactive)
ROOT
ATOM      1  C1  DEN d   1       4.525  -1.129   2.246  0.00  0.00     0.130 A 
ATOM      2  C2  DEN d   1       5.284  -2.039   1.393  0.00  0.00    -0.031 A 
ATOM      3  C3  DEN d   1       5.997  -2.994   2.264  0.00  0.00     0.027 A 
ATOM      4  C4  DEN d   1       5.997  -3.155   4.838  0.00  0.00     0.027 A 
ATOM      5  C5  DEN d   1       5.511  -2.592   5.998  0.00  0.00    -0.003 A 
ATOM      6  C6  DEN d   1       4.697  -1.491   5.990  0.00  0.00     0.001 A 
ATOM      7  C7  DEN d   1       4.307  -0.944   4.796  0.00  0.00     0.017 A 
ATOM      8  C8  DEN d   1       4.798  -1.501   3.623  0.00  0.00    -0.094 A 
ATOM      9  C9  DEN d   1       5.610  -2.622   3.651  0.00  0.00    -0.072 A 
ENDROOT
TORSDOF 0
ENDMDL
