MODEL 1
REMARK minimizedAffinity 7.91078234
REMARK minimizedRMSD -1
REMARK  0 active torsions:
REMARK  status: ('A' for Active; 'I' for Inactive)
ROOT
ATOM      1  C1  DEN d   1       6.000   4.510  -2.497  0.00  0.00     0.130 A 
ATOM      2  C2  DEN d   1       5.753   4.821  -1.092  0.00  0.00    -0.031 A 
ATOM      3  C3  DEN d   1       4.427   5.463  -0.993  0.00  0.00     0.027 A 
ATOM      4  C4  DEN d   1       2.739   5.998  -2.869  0.00  0.00     0.027 A 
ATOM      5  C5  DEN d   1       2.510   5.931  -4.225  0.00  0.00    -0.003 A 
ATOM      6  C6  DEN d   1       3.434   5.421  -5.098  0.00  0.00     0.001 A 
ATOM      7  C7  DEN d   1       4.614   4.916  -4.618  0.00  0.00     0.017 A 
ATOM      8  C8  DEN d   1       4.855   4.986  -3.252  0.00  0.00    -0.094 A 
ATOM      9  C9  DEN d   1       3.903   5.495  -2.385  0.00  0.00    -0.072 A 
ENDROOT
TORSDOF 0
ENDMDL
