MODEL 1
REMARK minimizedAffinity 7.27382708
REMARK minimizedRMSD -1
REMARK  0 active torsions:
REMARK  status: ('A' for Active; 'I' for Inactive)
ROOT
ATOM      1  C1  DEN d   1      -2.021  -2.263  -0.784  0.00  0.00     0.130 A 
ATOM      2  C2  DEN d   1      -1.420  -2.737   0.459  0.00  0.00    -0.031 A 
ATOM      3  C3  DEN d   1      -0.061  -3.226   0.152  0.00  0.00     0.027 A 
ATOM      4  C4  DEN d   1       1.167  -3.290  -2.115  0.00  0.00     0.027 A 
ATOM      5  C5  DEN d   1       1.058  -3.007  -3.459  0.00  0.00    -0.003 A 
ATOM      6  C6  DEN d   1      -0.087  -2.492  -4.006  0.00  0.00     0.001 A 
ATOM      7  C7  DEN d   1      -1.154  -2.201  -3.199  0.00  0.00     0.017 A 
ATOM      8  C8  DEN d   1      -1.055  -2.491  -1.844  0.00  0.00    -0.094 A 
ATOM      9  C9  DEN d   1       0.116  -3.000  -1.308  0.00  0.00    -0.072 A 
ENDROOT
TORSDOF 0
ENDMDL
