MODEL 1
REMARK minimizedAffinity 5.86191225
REMARK minimizedRMSD -1
REMARK  0 active torsions:
REMARK  status: ('A' for Active; 'I' for Inactive)
ROOT
ATOM      1  C1  DEN d   1       5.999   3.693  -1.425  0.00  0.00     0.130 A 
ATOM      2  C2  DEN d   1       5.872   4.883  -0.588  0.00  0.00    -0.031 A 
ATOM      3  C3  DEN d   1       5.428   6.000  -1.447  0.00  0.00     0.027 A 
ATOM      4  C4  DEN d   1       4.923   6.000  -3.977  0.00  0.00     0.027 A 
ATOM      5  C5  DEN d   1       4.900   5.227  -5.117  0.00  0.00    -0.003 A 
ATOM      6  C6  DEN d   1       5.271   3.908  -5.113  0.00  0.00     0.001 A 
ATOM      7  C7  DEN d   1       5.638   3.310  -3.936  0.00  0.00     0.017 A 
ATOM      8  C8  DEN d   1       5.671   4.085  -2.784  0.00  0.00    -0.094 A 
ATOM      9  C9  DEN d   1       5.281   5.413  -2.806  0.00  0.00    -0.072 A 
ENDROOT
TORSDOF 0
ENDMDL
