MODEL 1
REMARK minimizedAffinity 3.01573014
REMARK minimizedRMSD -1
REMARK  0 active torsions:
REMARK  status: ('A' for Active; 'I' for Inactive)
ROOT
ATOM      1  C1  DEN d   1      -1.865  -3.160  -1.043  0.00  0.00     0.130 A 
ATOM      2  C2  DEN d   1      -1.238  -2.214  -0.124  0.00  0.00    -0.031 A 
ATOM      3  C3  DEN d   1      -0.064  -1.629  -0.803  0.00  0.00     0.027 A 
ATOM      4  C4  DEN d   1       0.837  -2.092  -3.175  0.00  0.00     0.027 A 
ATOM      5  C5  DEN d   1       0.646  -2.826  -4.325  0.00  0.00    -0.003 A 
ATOM      6  C6  DEN d   1      -0.367  -3.741  -4.448  0.00  0.00     0.001 A 
ATOM      7  C7  DEN d   1      -1.255  -3.912  -3.419  0.00  0.00     0.017 A 
ATOM      8  C8  DEN d   1      -1.065  -3.181  -2.254  0.00  0.00    -0.094 A 
ATOM      9  C9  DEN d   1      -0.042  -2.252  -2.154  0.00  0.00    -0.072 A 
ENDROOT
TORSDOF 0
ENDMDL
