MODEL 1
REMARK minimizedAffinity 7.81640911
REMARK minimizedRMSD -1
REMARK  0 active torsions:
REMARK  status: ('A' for Active; 'I' for Inactive)
ROOT
ATOM      1  C1  DEN d   1      -0.639  -1.790   0.553  0.00  0.00     0.130 A 
ATOM      2  C2  DEN d   1      -1.882  -2.501   0.843  0.00  0.00    -0.031 A 
ATOM      3  C3  DEN d   1      -2.302  -3.206  -0.385  0.00  0.00     0.027 A 
ATOM      4  C4  DEN d   1      -1.152  -3.270  -2.692  0.00  0.00     0.027 A 
ATOM      5  C5  DEN d   1      -0.079  -2.813  -3.425  0.00  0.00    -0.003 A 
ATOM      6  C6  DEN d   1       0.856  -1.962  -2.898  0.00  0.00     0.001 A 
ATOM      7  C7  DEN d   1       0.761  -1.578  -1.586  0.00  0.00     0.017 A 
ATOM      8  C8  DEN d   1      -0.322  -2.029  -0.843  0.00  0.00    -0.094 A 
ATOM      9  C9  DEN d   1      -1.250  -2.899  -1.391  0.00  0.00    -0.072 A 
ENDROOT
TORSDOF 0
ENDMDL
