MODEL 1
REMARK minimizedAffinity 5.13146067
REMARK minimizedRMSD -1
REMARK  0 active torsions:
REMARK  status: ('A' for Active; 'I' for Inactive)
ROOT
ATOM      1  C1  DEN d   1       2.660  -1.419  -1.756  0.00  0.00     0.130 A 
ATOM      2  C2  DEN d   1       3.086  -1.559  -3.145  0.00  0.00    -0.031 A 
ATOM      3  C3  DEN d   1       2.036  -2.300  -3.873  0.00  0.00     0.027 A 
ATOM      4  C4  DEN d   1      -0.198  -3.236  -2.988  0.00  0.00     0.027 A 
ATOM      5  C5  DEN d   1      -0.994  -3.375  -1.872  0.00  0.00    -0.003 A 
ATOM      6  C6  DEN d   1      -0.615  -2.906  -0.642  0.00  0.00     0.001 A 
ATOM      7  C7  DEN d   1       0.571  -2.234  -0.508  0.00  0.00     0.017 A 
ATOM      8  C8  DEN d   1       1.382  -2.097  -1.627  0.00  0.00    -0.094 A 
ATOM      9  C9  DEN d   1       0.976  -2.568  -2.864  0.00  0.00    -0.072 A 
ENDROOT
TORSDOF 0
ENDMDL
