MODEL 1
REMARK minimizedAffinity 1.40761256
REMARK minimizedRMSD -1
REMARK  0 active torsions:
REMARK  status: ('A' for Active; 'I' for Inactive)
ROOT
ATOM      1  C1  DEN d   1       1.322  -1.731  -2.375  0.00  0.00     0.130 A 
ATOM      2  C2  DEN d   1       1.145  -2.584  -3.547  0.00  0.00    -0.031 A 
ATOM      3  C3  DEN d   1      -0.123  -3.323  -3.386  0.00  0.00     0.027 A 
ATOM      4  C4  DEN d   1      -1.823  -3.225  -1.449  0.00  0.00     0.027 A 
ATOM      5  C5  DEN d   1      -2.100  -2.655  -0.226  0.00  0.00    -0.003 A 
ATOM      6  C6  DEN d   1      -1.246  -1.769   0.377  0.00  0.00     0.001 A 
ATOM      7  C7  DEN d   1      -0.095  -1.394  -0.263  0.00  0.00     0.017 A 
ATOM      8  C8  DEN d   1       0.195  -1.970  -1.493  0.00  0.00    -0.094 A 
ATOM      9  C9  DEN d   1      -0.687  -2.854  -2.091  0.00  0.00    -0.072 A 
ENDROOT
TORSDOF 0
ENDMDL
