MODEL 1
REMARK minimizedAffinity 0.00218913076
REMARK minimizedRMSD -1
REMARK  0 active torsions:
REMARK  status: ('A' for Active; 'I' for Inactive)
ROOT
ATOM      1  C1  DEN d   1       5.845   5.999  -2.280  0.00  0.00     0.130 A 
ATOM      2  C2  DEN d   1       4.738   5.986  -1.327  0.00  0.00    -0.031 A 
ATOM      3  C3  DEN d   1       3.542   5.470  -2.023  0.00  0.00     0.027 A 
ATOM      4  C4  DEN d   1       3.298   4.690  -4.469  0.00  0.00     0.027 A 
ATOM      5  C5  DEN d   1       3.959   4.527  -5.667  0.00  0.00    -0.003 A 
ATOM      6  C6  DEN d   1       5.275   4.873  -5.828  0.00  0.00     0.001 A 
ATOM      7  C7  DEN d   1       5.985   5.357  -4.761  0.00  0.00     0.017 A 
ATOM      8  C8  DEN d   1       5.323   5.531  -3.552  0.00  0.00    -0.094 A 
ATOM      9  C9  DEN d   1       3.996   5.164  -3.406  0.00  0.00    -0.072 A 
ENDROOT
TORSDOF 0
ENDMDL
