MODEL 1
REMARK minimizedAffinity 3.24449801
REMARK minimizedRMSD -1
REMARK  0 active torsions:
REMARK  status: ('A' for Active; 'I' for Inactive)
ROOT
ATOM      1  C1  DEN d   1       5.984  -1.836   4.966  0.00  0.00     0.130 A 
ATOM      2  C2  DEN d   1       4.902  -1.997   5.933  0.00  0.00    -0.031 A 
ATOM      3  C3  DEN d   1       3.633  -2.105   5.184  0.00  0.00     0.027 A 
ATOM      4  C4  DEN d   1       3.244  -2.043   2.635  0.00  0.00     0.027 A 
ATOM      5  C5  DEN d   1       3.857  -1.911   1.409  0.00  0.00    -0.003 A 
ATOM      6  C6  DEN d   1       5.207  -1.713   1.284  0.00  0.00     0.001 A 
ATOM      7  C7  DEN d   1       5.995  -1.686   2.405  0.00  0.00     0.017 A 
ATOM      8  C8  DEN d   1       5.383  -1.810   3.645  0.00  0.00    -0.094 A 
ATOM      9  C9  DEN d   1       4.018  -2.022   3.749  0.00  0.00    -0.072 A 
ENDROOT
TORSDOF 0
ENDMDL
