MODEL 1
REMARK minimizedAffinity -0.53631115
REMARK minimizedRMSD -1
REMARK  0 active torsions:
REMARK  status: ('A' for Active; 'I' for Inactive)
ROOT
ATOM      1  C2' OXE d   1      -5.977   5.383   2.412  0.00  0.00     0.078 C 
ATOM      2  C1' OXE d   1      -4.961   2.804   1.973  0.00  0.00     0.078 C 
ATOM      3  C1  OXE d   1      -5.093   3.274   3.400  0.00  0.00    -0.078 A 
ATOM      4  C2  OXE d   1      -5.547   4.555   3.603  0.00  0.00    -0.078 A 
ATOM      5  C3  OXE d   1      -5.739   5.020   4.901  0.00  0.00     0.003 A 
ATOM      6  C4  OXE d   1      -5.330   4.252   5.998  0.00  0.00    -0.002 A 
ATOM      7  C5  OXE d   1      -4.827   2.959   5.811  0.00  0.00    -0.002 A 
ATOM      8  C6  OXE d   1      -4.743   2.441   4.523  0.00  0.00     0.003 A 
ENDROOT
TORSDOF 0
ENDMDL
