MODEL 1
REMARK minimizedAffinity 5.73101807
REMARK minimizedRMSD -1
REMARK  0 active torsions:
REMARK  status: ('A' for Active; 'I' for Inactive)
ROOT
ATOM      1  C2' OXE d   1      -5.977   4.882   0.763  0.00  0.00     0.078 C 
ATOM      2  C1' OXE d   1      -4.566   2.671   1.763  0.00  0.00     0.078 C 
ATOM      3  C1  OXE d   1      -4.937   3.765   2.732  0.00  0.00    -0.078 A 
ATOM      4  C2  OXE d   1      -5.586   4.865   2.225  0.00  0.00    -0.078 A 
ATOM      5  C3  OXE d   1      -6.000   5.879   3.085  0.00  0.00     0.003 A 
ATOM      6  C4  OXE d   1      -5.626   5.860   4.434  0.00  0.00    -0.002 A 
ATOM      7  C5  OXE d   1      -4.930   4.768   4.963  0.00  0.00    -0.002 A 
ATOM      8  C6  OXE d   1      -4.616   3.695   4.136  0.00  0.00     0.003 A 
ENDROOT
TORSDOF 0
ENDMDL
