MODEL 1
REMARK minimizedAffinity -0.554786026
REMARK minimizedRMSD -1
REMARK  0 active torsions:
REMARK  status: ('A' for Active; 'I' for Inactive)
ROOT
ATOM      1  C2' OXE d   1      -3.340   4.244   2.240  0.00  0.00     0.078 C 
ATOM      2  C1' OXE d   1      -6.000   4.150   3.133  0.00  0.00     0.078 C 
ATOM      3  C1  OXE d   1      -4.942   3.522   4.006  0.00  0.00    -0.078 A 
ATOM      4  C2  OXE d   1      -3.650   3.531   3.539  0.00  0.00    -0.078 A 
ATOM      5  C3  OXE d   1      -2.628   3.014   4.330  0.00  0.00     0.003 A 
ATOM      6  C4  OXE d   1      -2.924   2.348   5.525  0.00  0.00    -0.002 A 
ATOM      7  C5  OXE d   1      -4.238   2.293   6.000  0.00  0.00    -0.002 A 
ATOM      8  C6  OXE d   1      -5.251   2.910   5.275  0.00  0.00     0.003 A 
ENDROOT
TORSDOF 0
ENDMDL
