MODEL 1
REMARK minimizedAffinity -2.67921185
REMARK minimizedRMSD -1
REMARK  0 active torsions:
REMARK  status: ('A' for Active; 'I' for Inactive)
ROOT
ATOM      1  C2' OXE d   1      -5.820   2.630   5.416  0.00  0.00     0.078 C 
ATOM      2  C1' OXE d   1      -5.823   5.377   5.998  0.00  0.00     0.078 C 
ATOM      3  C1  OXE d   1      -5.898   4.965   4.549  0.00  0.00    -0.078 A 
ATOM      4  C2  OXE d   1      -5.849   3.620   4.271  0.00  0.00    -0.078 A 
ATOM      5  C3  OXE d   1      -5.970   3.183   2.955  0.00  0.00     0.003 A 
ATOM      6  C4  OXE d   1      -5.986   4.105   1.901  0.00  0.00    -0.002 A 
ATOM      7  C5  OXE d   1      -5.996   5.480   2.160  0.00  0.00    -0.002 A 
ATOM      8  C6  OXE d   1      -5.996   5.925   3.478  0.00  0.00     0.003 A 
ENDROOT
TORSDOF 0
ENDMDL
