MODEL 1
REMARK minimizedAffinity -4.05738497
REMARK minimizedRMSD -1
REMARK  0 active torsions:
REMARK  status: ('A' for Active; 'I' for Inactive)
ROOT
ATOM      1  C2' OXE d   1      -4.855   5.251   5.999  0.00  0.00     0.078 C 
ATOM      2  C1' OXE d   1      -5.496   2.541   5.647  0.00  0.00     0.078 C 
ATOM      3  C1  OXE d   1      -5.403   3.407   4.416  0.00  0.00    -0.078 A 
ATOM      4  C2  OXE d   1      -5.134   4.742   4.601  0.00  0.00    -0.078 A 
ATOM      5  C3  OXE d   1      -4.983   5.575   3.496  0.00  0.00     0.003 A 
ATOM      6  C4  OXE d   1      -5.254   5.098   2.207  0.00  0.00    -0.002 A 
ATOM      7  C5  OXE d   1      -5.567   3.751   2.000  0.00  0.00    -0.002 A 
ATOM      8  C6  OXE d   1      -5.604   2.885   3.087  0.00  0.00     0.003 A 
ENDROOT
TORSDOF 0
ENDMDL
