MODEL 1
REMARK minimizedAffinity -2.57984829
REMARK minimizedRMSD -1
REMARK  0 active torsions:
REMARK  status: ('A' for Active; 'I' for Inactive)
ROOT
ATOM      1  C2' OXE d   1      -5.260   5.802   5.912  0.00  0.00     0.078 C 
ATOM      2  C1' OXE d   1      -4.908   3.035   5.601  0.00  0.00     0.078 C 
ATOM      3  C1  OXE d   1      -5.212   3.848   4.368  0.00  0.00    -0.078 A 
ATOM      4  C2  OXE d   1      -5.429   5.195   4.536  0.00  0.00    -0.078 A 
ATOM      5  C3  OXE d   1      -5.660   6.000   3.424  0.00  0.00     0.003 A 
ATOM      6  C4  OXE d   1      -5.825   5.428   2.157  0.00  0.00    -0.002 A 
ATOM      7  C5  OXE d   1      -5.647   4.054   1.970  0.00  0.00    -0.002 A 
ATOM      8  C6  OXE d   1      -5.300   3.257   3.055  0.00  0.00     0.003 A 
ENDROOT
TORSDOF 0
ENDMDL
