MODEL 1
REMARK minimizedAffinity -3.12545109
REMARK minimizedRMSD -1
REMARK  0 active torsions:
REMARK  status: ('A' for Active; 'I' for Inactive)
ROOT
ATOM      1  C2' OXE d   1      -5.405   2.600   5.242  0.00  0.00     0.078 C 
ATOM      2  C1' OXE d   1      -5.999   5.237   6.000  0.00  0.00     0.078 C 
ATOM      3  C1  OXE d   1      -5.764   4.962   4.535  0.00  0.00    -0.078 A 
ATOM      4  C2  OXE d   1      -5.428   3.678   4.179  0.00  0.00    -0.078 A 
ATOM      5  C3  OXE d   1      -5.254   3.358   2.836  0.00  0.00     0.003 A 
ATOM      6  C4  OXE d   1      -5.267   4.363   1.861  0.00  0.00    -0.002 A 
ATOM      7  C5  OXE d   1      -5.568   5.684   2.207  0.00  0.00    -0.002 A 
ATOM      8  C6  OXE d   1      -5.860   5.992   3.531  0.00  0.00     0.003 A 
ENDROOT
TORSDOF 0
ENDMDL
