MODEL 1
REMARK minimizedAffinity -1.97142875
REMARK minimizedRMSD -1
REMARK  0 active torsions:
REMARK  status: ('A' for Active; 'I' for Inactive)
ROOT
ATOM      1  C2' OXE d   1      -4.797   3.326   2.249  0.00  0.00     0.078 C 
ATOM      2  C1' OXE d   1      -5.677   5.990   2.144  0.00  0.00     0.078 C 
ATOM      3  C1  OXE d   1      -5.633   5.316   3.493  0.00  0.00    -0.078 A 
ATOM      4  C2  OXE d   1      -5.246   3.998   3.529  0.00  0.00    -0.078 A 
ATOM      5  C3  OXE d   1      -5.136   3.346   4.753  0.00  0.00     0.003 A 
ATOM      6  C4  OXE d   1      -5.562   3.972   5.931  0.00  0.00    -0.002 A 
ATOM      7  C5  OXE d   1      -5.998   5.301   5.911  0.00  0.00    -0.002 A 
ATOM      8  C6  OXE d   1      -5.999   5.999   4.709  0.00  0.00     0.003 A 
ENDROOT
TORSDOF 0
ENDMDL
