MODEL 1
REMARK minimizedAffinity -2.8486464
REMARK minimizedRMSD -1
REMARK  0 active torsions:
REMARK  status: ('A' for Active; 'I' for Inactive)
ROOT
ATOM      1  C2' OXE d   1      -6.000   5.623   5.881  0.00  0.00     0.078 C 
ATOM      2  C1' OXE d   1      -5.160   2.975   5.480  0.00  0.00     0.078 C 
ATOM      3  C1  OXE d   1      -5.329   3.851   4.264  0.00  0.00    -0.078 A 
ATOM      4  C2  OXE d   1      -5.785   5.131   4.466  0.00  0.00    -0.078 A 
ATOM      5  C3  OXE d   1      -5.907   5.998   3.384  0.00  0.00     0.003 A 
ATOM      6  C4  OXE d   1      -5.716   5.532   2.077  0.00  0.00    -0.002 A 
ATOM      7  C5  OXE d   1      -5.290   4.220   1.847  0.00  0.00    -0.002 A 
ATOM      8  C6  OXE d   1      -5.051   3.381   2.929  0.00  0.00     0.003 A 
ENDROOT
TORSDOF 0
ENDMDL
