MODEL 1
REMARK minimizedAffinity 1.85527933
REMARK minimizedRMSD -1
REMARK  0 active torsions:
REMARK  status: ('A' for Active; 'I' for Inactive)
ROOT
ATOM      1  C2' OXE d   1      -4.528   2.731   1.504  0.00  0.00     0.078 C 
ATOM      2  C1' OXE d   1      -5.999   4.902   0.502  0.00  0.00     0.078 C 
ATOM      3  C1  OXE d   1      -5.638   4.913   1.967  0.00  0.00    -0.078 A 
ATOM      4  C2  OXE d   1      -4.959   3.824   2.458  0.00  0.00    -0.078 A 
ATOM      5  C3  OXE d   1      -4.554   3.808   3.790  0.00  0.00     0.003 A 
ATOM      6  C4  OXE d   1      -4.965   4.818   4.668  0.00  0.00    -0.002 A 
ATOM      7  C5  OXE d   1      -5.692   5.917   4.196  0.00  0.00    -0.002 A 
ATOM      8  C6  OXE d   1      -5.999   6.000   2.843  0.00  0.00     0.003 A 
ENDROOT
TORSDOF 0
ENDMDL
