MODEL 1
REMARK minimizedAffinity 0.388355762
REMARK minimizedRMSD -1
REMARK  0 active torsions:
REMARK  status: ('A' for Active; 'I' for Inactive)
ROOT
ATOM      1  C2' OXE d   1      -5.959   5.149   5.914  0.00  0.00     0.078 C 
ATOM      2  C1' OXE d   1      -5.250   2.434   5.997  0.00  0.00     0.078 C 
ATOM      3  C1  OXE d   1      -5.457   3.066   4.643  0.00  0.00    -0.078 A 
ATOM      4  C2  OXE d   1      -5.849   4.383   4.614  0.00  0.00    -0.078 A 
ATOM      5  C3  OXE d   1      -5.999   5.030   3.390  0.00  0.00     0.003 A 
ATOM      6  C4  OXE d   1      -5.905   4.311   2.192  0.00  0.00    -0.002 A 
ATOM      7  C5  OXE d   1      -5.546   2.959   2.202  0.00  0.00    -0.002 A 
ATOM      8  C6  OXE d   1      -5.277   2.334   3.414  0.00  0.00     0.003 A 
ENDROOT
TORSDOF 0
ENDMDL
