MODEL 1
REMARK minimizedAffinity 6.49826956
REMARK minimizedRMSD -1
REMARK  0 active torsions:
REMARK  status: ('A' for Active; 'I' for Inactive)
ROOT
ATOM      1  C2' OXE d   1      -2.632  -2.110   1.484  0.00  0.00     0.078 C 
ATOM      2  C1' OXE d   1      -1.400   0.133   2.637  0.00  0.00     0.078 C 
ATOM      3  C1  OXE d   1      -1.178  -0.112   1.166  0.00  0.00    -0.078 A 
ATOM      4  C2  OXE d   1      -1.747  -1.238   0.620  0.00  0.00    -0.078 A 
ATOM      5  C3  OXE d   1      -1.619  -1.483  -0.744  0.00  0.00     0.003 A 
ATOM      6  C4  OXE d   1      -0.790  -0.677  -1.534  0.00  0.00    -0.002 A 
ATOM      7  C5  OXE d   1      -0.170   0.452  -0.990  0.00  0.00    -0.002 A 
ATOM      8  C6  OXE d   1      -0.387   0.772   0.346  0.00  0.00     0.003 A 
ENDROOT
TORSDOF 0
ENDMDL
