MODEL 1
REMARK minimizedAffinity -2.12188506
REMARK minimizedRMSD -1
REMARK  0 active torsions:
REMARK  status: ('A' for Active; 'I' for Inactive)
ROOT
ATOM      1  C2' OXE d   1      -4.475   3.204   5.584  0.00  0.00     0.078 C 
ATOM      2  C1' OXE d   1      -4.729   5.999   5.605  0.00  0.00     0.078 C 
ATOM      3  C1  OXE d   1      -4.838   5.293   4.277  0.00  0.00    -0.078 A 
ATOM      4  C2  OXE d   1      -4.666   3.930   4.270  0.00  0.00    -0.078 A 
ATOM      5  C3  OXE d   1      -4.812   3.223   3.079  0.00  0.00     0.003 A 
ATOM      6  C4  OXE d   1      -4.978   3.903   1.867  0.00  0.00    -0.002 A 
ATOM      7  C5  OXE d   1      -5.116   5.295   1.847  0.00  0.00    -0.002 A 
ATOM      8  C6  OXE d   1      -5.091   6.000   3.045  0.00  0.00     0.003 A 
ENDROOT
TORSDOF 0
ENDMDL
