MODEL 1
REMARK minimizedAffinity -2.17379284
REMARK minimizedRMSD -1
REMARK  0 active torsions:
REMARK  status: ('A' for Active; 'I' for Inactive)
ROOT
ATOM      1  C2' OXE d   1      -5.998   5.705   5.999  0.00  0.00     0.078 C 
ATOM      2  C1' OXE d   1      -4.870   3.156   5.669  0.00  0.00     0.078 C 
ATOM      3  C1  OXE d   1      -5.160   3.963   4.428  0.00  0.00    -0.078 A 
ATOM      4  C2  OXE d   1      -5.755   5.190   4.597  0.00  0.00    -0.078 A 
ATOM      5  C3  OXE d   1      -5.993   5.998   3.489  0.00  0.00     0.003 A 
ATOM      6  C4  OXE d   1      -5.775   5.510   2.195  0.00  0.00    -0.002 A 
ATOM      7  C5  OXE d   1      -5.206   4.247   1.999  0.00  0.00    -0.002 A 
ATOM      8  C6  OXE d   1      -4.854   3.480   3.104  0.00  0.00     0.003 A 
ENDROOT
TORSDOF 0
ENDMDL
