MODEL 1
REMARK minimizedAffinity -2.69586945
REMARK minimizedRMSD -1
REMARK  0 active torsions:
REMARK  status: ('A' for Active; 'I' for Inactive)
ROOT
ATOM      1  C2' OXE d   1      -4.374   3.463   5.877  0.00  0.00     0.078 C 
ATOM      2  C1' OXE d   1      -5.995   5.752   5.990  0.00  0.00     0.078 C 
ATOM      3  C1  OXE d   1      -5.498   5.308   4.637  0.00  0.00    -0.078 A 
ATOM      4  C2  OXE d   1      -4.667   4.214   4.596  0.00  0.00    -0.078 A 
ATOM      5  C3  OXE d   1      -4.225   3.730   3.368  0.00  0.00     0.003 A 
ATOM      6  C4  OXE d   1      -4.493   4.437   2.189  0.00  0.00    -0.002 A 
ATOM      7  C5  OXE d   1      -5.304   5.576   2.214  0.00  0.00    -0.002 A 
ATOM      8  C6  OXE d   1      -5.848   6.000   3.421  0.00  0.00     0.003 A 
ENDROOT
TORSDOF 0
ENDMDL
