MODEL 1
REMARK minimizedAffinity -2.72721648
REMARK minimizedRMSD -1
REMARK  0 active torsions:
REMARK  status: ('A' for Active; 'I' for Inactive)
ROOT
ATOM      1  C2' OXE d   1      -4.935   4.872   2.386  0.00  0.00     0.078 C 
ATOM      2  C1' OXE d   1      -6.000   6.000   4.726  0.00  0.00     0.078 C 
ATOM      3  C1  OXE d   1      -5.544   4.563   4.782  0.00  0.00    -0.078 A 
ATOM      4  C2  OXE d   1      -5.067   4.006   3.620  0.00  0.00    -0.078 A 
ATOM      5  C3  OXE d   1      -4.582   2.701   3.630  0.00  0.00     0.003 A 
ATOM      6  C4  OXE d   1      -4.718   1.903   4.773  0.00  0.00    -0.002 A 
ATOM      7  C5  OXE d   1      -5.237   2.440   5.956  0.00  0.00    -0.002 A 
ATOM      8  C6  OXE d   1      -5.614   3.778   5.989  0.00  0.00     0.003 A 
ENDROOT
TORSDOF 0
ENDMDL
