MODEL 1
REMARK minimizedAffinity -3.11236715
REMARK minimizedRMSD -1
REMARK  1 active torsions:
REMARK  status: ('A' for Active; 'I' for Inactive)
REMARK    1  A    between atoms: C1_2  and  C2_3 
ROOT
ATOM      1  C2  UNL d   1       0.845  -0.122  -1.319  0.00  0.00    -0.073 A 
ATOM      2  C3  UNL d   1       2.090   0.430  -1.641  0.00  0.00    -0.002 A 
ATOM      3  C4  UNL d   1       2.493   0.534  -2.973  0.00  0.00     0.004 A 
ATOM      4  C5  UNL d   1       1.653   0.095  -3.996  0.00  0.00    -0.004 A 
ATOM      5  C6  UNL d   1       0.400  -0.449  -3.696  0.00  0.00    -0.075 A 
ATOM      6  C7  UNL d   1      -0.514  -0.928  -4.785  0.00  0.00     0.076 C 
ATOM      7  C8  UNL d   1       0.004  -0.552  -2.356  0.00  0.00     0.001 A 
ENDROOT
BRANCH   1   8
ATOM      8  C1  UNL d   1       0.403  -0.230   0.117  0.00  0.00     0.053 C 
ATOM      9  C   UNL d   1      -1.061   0.141   0.293  0.00  0.00     0.018 C 
ENDBRANCH   1   8
TORSDOF 1
ENDMDL
