MODEL 1
REMARK minimizedAffinity -3.64634061
REMARK minimizedRMSD -1
REMARK  1 active torsions:
REMARK  status: ('A' for Active; 'I' for Inactive)
REMARK    1  A    between atoms: C1_2  and  C2_3 
ROOT
ATOM      1  C2  UNL d   1      -0.984   0.181   0.387  0.00  0.00    -0.073 A 
ATOM      2  C3  UNL d   1      -0.177   0.953   1.231  0.00  0.00    -0.002 A 
ATOM      3  C4  UNL d   1      -0.414   0.976   2.606  0.00  0.00     0.004 A 
ATOM      4  C5  UNL d   1      -1.455   0.224   3.151  0.00  0.00    -0.004 A 
ATOM      5  C6  UNL d   1      -2.265  -0.563   2.326  0.00  0.00    -0.075 A 
ATOM      6  C7  UNL d   1      -3.389  -1.376   2.897  0.00  0.00     0.076 C 
ATOM      7  C8  UNL d   1      -2.022  -0.579   0.946  0.00  0.00     0.001 A 
ENDROOT
BRANCH   1   8
ATOM      8  C1  UNL d   1      -0.727   0.148  -1.097  0.00  0.00     0.053 C 
ATOM      9  C   UNL d   1       0.704  -0.251  -1.420  0.00  0.00     0.018 C 
ENDBRANCH   1   8
TORSDOF 1
ENDMDL
