MODEL 1
REMARK minimizedAffinity -4.81794357
REMARK minimizedRMSD -1
REMARK  1 active torsions:
REMARK  status: ('A' for Active; 'I' for Inactive)
REMARK    1  A    between atoms: C1_2  and  C2_3 
ROOT
ATOM      1  C2  UNL d   1       0.017  -0.205  -0.222  0.00  0.00    -0.073 A 
ATOM      2  C3  UNL d   1      -1.268  -0.598  -0.612  0.00  0.00    -0.002 A 
ATOM      3  C4  UNL d   1      -2.376  -0.251   0.162  0.00  0.00     0.004 A 
ATOM      4  C5  UNL d   1      -2.212   0.497   1.328  0.00  0.00    -0.004 A 
ATOM      5  C6  UNL d   1      -0.936   0.908   1.728  0.00  0.00    -0.075 A 
ATOM      6  C7  UNL d   1      -0.742   1.711   2.981  0.00  0.00     0.076 C 
ATOM      7  C8  UNL d   1       0.172   0.553   0.947  0.00  0.00     0.001 A 
ENDROOT
BRANCH   1   8
ATOM      8  C1  UNL d   1       1.216  -0.572  -1.058  0.00  0.00     0.053 C 
ATOM      9  C   UNL d   1       1.167   0.069  -2.436  0.00  0.00     0.018 C 
ENDBRANCH   1   8
TORSDOF 1
ENDMDL
