MODEL 1
REMARK minimizedAffinity -4.419559
REMARK minimizedRMSD -1
REMARK  1 active torsions:
REMARK  status: ('A' for Active; 'I' for Inactive)
REMARK    1  A    between atoms: C1_2  and  C2_3 
ROOT
ATOM      1  C2  UNL d   1       0.193   0.129   0.049  0.00  0.00    -0.073 A 
ATOM      2  C3  UNL d   1      -0.985  -0.455  -0.430  0.00  0.00    -0.002 A 
ATOM      3  C4  UNL d   1      -2.169  -0.357   0.303  0.00  0.00     0.004 A 
ATOM      4  C5  UNL d   1      -2.189   0.330   1.516  0.00  0.00    -0.004 A 
ATOM      5  C6  UNL d   1      -1.024   0.931   2.005  0.00  0.00    -0.075 A 
ATOM      6  C7  UNL d   1      -1.028   1.672   3.310  0.00  0.00     0.076 C 
ATOM      7  C8  UNL d   1       0.161   0.826   1.265  0.00  0.00     0.001 A 
ENDROOT
BRANCH   1   8
ATOM      8  C1  UNL d   1       1.472   0.032  -0.742  0.00  0.00     0.053 C 
ATOM      9  C   UNL d   1       1.331   0.636  -2.130  0.00  0.00     0.018 C 
ENDBRANCH   1   8
TORSDOF 1
ENDMDL
