MODEL 1
REMARK minimizedAffinity -4.62944651
REMARK minimizedRMSD -1
REMARK  1 active torsions:
REMARK  status: ('A' for Active; 'I' for Inactive)
REMARK    1  A    between atoms: C1_2  and  C2_3 
ROOT
ATOM      1  C2  UNL d   1      -0.041   0.014  -0.297  0.00  0.00    -0.073 A 
ATOM      2  C3  UNL d   1      -1.404  -0.123  -0.584  0.00  0.00    -0.002 A 
ATOM      3  C4  UNL d   1      -2.362   0.177   0.385  0.00  0.00     0.004 A 
ATOM      4  C5  UNL d   1      -1.969   0.624   1.646  0.00  0.00    -0.004 A 
ATOM      5  C6  UNL d   1      -0.613   0.780   1.948  0.00  0.00    -0.075 A 
ATOM      6  C7  UNL d   1      -0.173   1.258   3.301  0.00  0.00     0.076 C 
ATOM      7  C8  UNL d   1       0.344   0.473   0.971  0.00  0.00     0.001 A 
ENDROOT
BRANCH   1   8
ATOM      8  C1  UNL d   1       0.997  -0.303  -1.341  0.00  0.00     0.053 C 
ATOM      9  C   UNL d   1       0.401  -0.358  -2.739  0.00  0.00     0.018 C 
ENDBRANCH   1   8
TORSDOF 1
ENDMDL
