MODEL 1
REMARK minimizedAffinity -2.34560752
REMARK minimizedRMSD -1
REMARK  1 active torsions:
REMARK  status: ('A' for Active; 'I' for Inactive)
REMARK    1  A    between atoms: C1_2  and  C2_3 
ROOT
ATOM      1  C2  UNL d   1       0.415  -0.253  -0.828  0.00  0.00    -0.073 A 
ATOM      2  C3  UNL d   1       1.500  -1.051  -0.450  0.00  0.00    -0.002 A 
ATOM      3  C4  UNL d   1       1.993  -0.999   0.855  0.00  0.00     0.004 A 
ATOM      4  C5  UNL d   1       1.402  -0.155   1.795  0.00  0.00    -0.004 A 
ATOM      5  C6  UNL d   1       0.309   0.642   1.439  0.00  0.00    -0.075 A 
ATOM      6  C7  UNL d   1      -0.336   1.557   2.438  0.00  0.00     0.076 C 
ATOM      7  C8  UNL d   1      -0.178   0.586   0.127  0.00  0.00     0.001 A 
ENDROOT
BRANCH   1   8
ATOM      8  C1  UNL d   1      -0.125  -0.311  -2.234  0.00  0.00     0.053 C 
ATOM      9  C   UNL d   1       0.870   0.231  -3.249  0.00  0.00     0.018 C 
ENDBRANCH   1   8
TORSDOF 1
ENDMDL
