MODEL 1
REMARK minimizedAffinity -4.59552431
REMARK minimizedRMSD -1
REMARK  1 active torsions:
REMARK  status: ('A' for Active; 'I' for Inactive)
REMARK    1  A    between atoms: C1_2  and  C2_3 
ROOT
ATOM      1  C2  UNL d   1      -0.581   0.412   0.600  0.00  0.00    -0.073 A 
ATOM      2  C3  UNL d   1       0.095   1.485   1.191  0.00  0.00    -0.002 A 
ATOM      3  C4  UNL d   1      -0.215   1.883   2.492  0.00  0.00     0.004 A 
ATOM      4  C5  UNL d   1      -1.199   1.210   3.216  0.00  0.00    -0.004 A 
ATOM      5  C6  UNL d   1      -1.878   0.128   2.647  0.00  0.00    -0.075 A 
ATOM      6  C7  UNL d   1      -2.940  -0.605   3.412  0.00  0.00     0.076 C 
ATOM      7  C8  UNL d   1      -1.562  -0.264   1.339  0.00  0.00     0.001 A 
ENDROOT
BRANCH   1   8
ATOM      8  C1  UNL d   1      -0.245  -0.026  -0.802  0.00  0.00     0.053 C 
ATOM      9  C   UNL d   1       1.026  -0.859  -0.850  0.00  0.00     0.018 C 
ENDBRANCH   1   8
TORSDOF 1
ENDMDL
