MODEL 1
REMARK minimizedAffinity -4.18729353
REMARK minimizedRMSD -1
REMARK  1 active torsions:
REMARK  status: ('A' for Active; 'I' for Inactive)
REMARK    1  A    between atoms: C1_2  and  C2_3 
ROOT
ATOM      1  C2  UNL d   1       0.694  -0.546  -0.910  0.00  0.00    -0.073 A 
ATOM      2  C3  UNL d   1       1.829  -1.066  -0.276  0.00  0.00    -0.002 A 
ATOM      3  C4  UNL d   1       2.104  -0.743   1.053  0.00  0.00     0.004 A 
ATOM      4  C5  UNL d   1       1.246   0.097   1.764  0.00  0.00    -0.004 A 
ATOM      5  C6  UNL d   1       0.101   0.617   1.152  0.00  0.00    -0.075 A 
ATOM      6  C7  UNL d   1      -0.830   1.523   1.901  0.00  0.00     0.076 C 
ATOM      7  C8  UNL d   1      -0.167   0.289  -0.184  0.00  0.00     0.001 A 
ENDROOT
BRANCH   1   8
ATOM      8  C1  UNL d   1       0.389  -0.898  -2.343  0.00  0.00     0.053 C 
ATOM      9  C   UNL d   1       1.083   0.038  -3.319  0.00  0.00     0.018 C 
ENDBRANCH   1   8
TORSDOF 1
ENDMDL
