MODEL 1
REMARK minimizedAffinity -0.113496765
REMARK minimizedRMSD -1
REMARK  1 active torsions:
REMARK  status: ('A' for Active; 'I' for Inactive)
REMARK    1  A    between atoms: C1_2  and  C2_3 
ROOT
ATOM      1  C2  UNL d   1       0.134  -0.095  -1.773  0.00  0.00    -0.073 A 
ATOM      2  C3  UNL d   1      -1.163   0.103  -1.286  0.00  0.00    -0.002 A 
ATOM      3  C4  UNL d   1      -1.449  -0.110   0.064  0.00  0.00     0.004 A 
ATOM      4  C5  UNL d   1      -0.441  -0.515   0.939  0.00  0.00    -0.004 A 
ATOM      5  C6  UNL d   1       0.863  -0.707   0.473  0.00  0.00    -0.075 A 
ATOM      6  C7  UNL d   1       1.958  -1.145   1.402  0.00  0.00     0.076 C 
ATOM      7  C8  UNL d   1       1.142  -0.494  -0.884  0.00  0.00     0.001 A 
ENDROOT
BRANCH   1   8
ATOM      8  C1  UNL d   1       0.449   0.140  -3.228  0.00  0.00     0.053 C 
ATOM      9  C   UNL d   1       1.540   1.182  -3.414  0.00  0.00     0.018 C 
ENDBRANCH   1   8
TORSDOF 1
ENDMDL
