MODEL 1
REMARK minimizedAffinity 6.98443794
REMARK minimizedRMSD -1
REMARK  0 active torsions:
REMARK  status: ('A' for Active; 'I' for Inactive)
ROOT
ATOM      1  C   UNL d   1       2.226  -0.029   2.244  0.00  0.00    -0.002 A 
ATOM      2  C1  UNL d   1       1.327   0.175   3.281  0.00  0.00     0.010 A 
ATOM      3  C2  UNL d   1       0.968  -0.876   4.128  0.00  0.00     0.041 A 
ATOM      4  C3  UNL d   1       1.535  -2.148   3.913  0.00  0.00    -0.075 A 
ATOM      5  S   UNL d   1       1.244  -3.582   4.824  0.00  0.00     0.015 SA
ATOM      6  C4  UNL d   1       2.307  -4.500   3.858  0.00  0.00     0.022 A 
ATOM      7  C5  UNL d   1       2.878  -3.746   2.860  0.00  0.00     0.026 A 
ATOM      8  C6  UNL d   1       2.443  -2.378   2.876  0.00  0.00    -0.082 A 
ATOM      9  C7  UNL d   1       2.786  -1.292   2.034  0.00  0.00     0.045 A 
ENDROOT
TORSDOF 0
ENDMDL
