MODEL 1
REMARK minimizedAffinity 4.49833393
REMARK minimizedRMSD -1
REMARK  0 active torsions:
REMARK  status: ('A' for Active; 'I' for Inactive)
ROOT
ATOM      1  C   UNL d   1       2.099  -1.451   2.647  0.00  0.00    -0.002 A 
ATOM      2  C1  UNL d   1       2.939  -2.446   2.167  0.00  0.00     0.010 A 
ATOM      3  C2  UNL d   1       2.947  -3.713   2.754  0.00  0.00     0.041 A 
ATOM      4  C3  UNL d   1       2.086  -3.965   3.841  0.00  0.00    -0.075 A 
ATOM      5  S   UNL d   1       1.924  -5.442   4.717  0.00  0.00     0.015 SA
ATOM      6  C4  UNL d   1       0.735  -4.786   5.747  0.00  0.00     0.022 A 
ATOM      7  C5  UNL d   1       0.457  -3.474   5.445  0.00  0.00     0.026 A 
ATOM      8  C6  UNL d   1       1.231  -2.980   4.341  0.00  0.00    -0.082 A 
ATOM      9  C7  UNL d   1       1.247  -1.705   3.725  0.00  0.00     0.045 A 
ENDROOT
TORSDOF 0
ENDMDL
