MODEL 1
REMARK minimizedAffinity 12.5447445
REMARK minimizedRMSD -1
REMARK  0 active torsions:
REMARK  status: ('A' for Active; 'I' for Inactive)
ROOT
ATOM      1  C   UNL d   1       5.759  -5.766  -3.440  0.00  0.00    -0.002 A 
ATOM      2  C1  UNL d   1       4.790  -5.918  -4.422  0.00  0.00     0.010 A 
ATOM      3  C2  UNL d   1       3.439  -5.999  -4.080  0.00  0.00     0.041 A 
ATOM      4  C3  UNL d   1       3.073  -5.921  -2.722  0.00  0.00    -0.075 A 
ATOM      5  S   UNL d   1       1.480  -5.995  -2.068  0.00  0.00     0.015 SA
ATOM      6  C4  UNL d   1       2.048  -5.825  -0.470  0.00  0.00     0.022 A 
ATOM      7  C5  UNL d   1       3.417  -5.714  -0.418  0.00  0.00     0.026 A 
ATOM      8  C6  UNL d   1       4.031  -5.767  -1.715  0.00  0.00    -0.082 A 
ATOM      9  C7  UNL d   1       5.393  -5.689  -2.094  0.00  0.00     0.045 A 
ENDROOT
TORSDOF 0
ENDMDL
