MODEL 1
REMARK minimizedAffinity 9.52106476
REMARK minimizedRMSD -1
REMARK  0 active torsions:
REMARK  status: ('A' for Active; 'I' for Inactive)
ROOT
ATOM      1  C   UNL d   1      -3.372   2.271  -2.856  0.00  0.00    -0.002 A 
ATOM      2  C1  UNL d   1      -3.788   2.584  -4.143  0.00  0.00     0.010 A 
ATOM      3  C2  UNL d   1      -3.977   1.578  -5.093  0.00  0.00     0.041 A 
ATOM      4  C3  UNL d   1      -3.740   0.239  -4.724  0.00  0.00    -0.075 A 
ATOM      5  S   UNL d   1      -3.907  -1.159  -5.720  0.00  0.00     0.015 SA
ATOM      6  C4  UNL d   1      -3.431  -2.204  -4.461  0.00  0.00     0.022 A 
ATOM      7  C5  UNL d   1      -3.148  -1.521  -3.302  0.00  0.00     0.026 A 
ATOM      8  C6  UNL d   1      -3.322  -0.101  -3.434  0.00  0.00    -0.082 A 
ATOM      9  C7  UNL d   1      -3.138   0.941  -2.494  0.00  0.00     0.045 A 
ENDROOT
TORSDOF 0
ENDMDL
