MODEL 1
REMARK minimizedAffinity 12.2486887
REMARK minimizedRMSD -1
REMARK  0 active torsions:
REMARK  status: ('A' for Active; 'I' for Inactive)
ROOT
ATOM      1  C   UNL d   1       4.478  -5.971  -5.874  0.00  0.00    -0.002 A 
ATOM      2  C1  UNL d   1       5.642  -5.953  -5.119  0.00  0.00     0.010 A 
ATOM      3  C2  UNL d   1       5.584  -5.948  -3.724  0.00  0.00     0.041 A 
ATOM      4  C3  UNL d   1       4.324  -5.965  -3.095  0.00  0.00    -0.075 A 
ATOM      5  S   UNL d   1       4.008  -5.964  -1.400  0.00  0.00     0.015 SA
ATOM      6  C4  UNL d   1       2.321  -5.989  -1.638  0.00  0.00     0.022 A 
ATOM      7  C5  UNL d   1       1.989  -5.998  -2.972  0.00  0.00     0.026 A 
ATOM      8  C6  UNL d   1       3.137  -5.984  -3.834  0.00  0.00    -0.082 A 
ATOM      9  C7  UNL d   1       3.230  -5.988  -5.246  0.00  0.00     0.045 A 
ENDROOT
TORSDOF 0
ENDMDL
