MODEL 1
REMARK minimizedAffinity 17.4075851
REMARK minimizedRMSD -1
REMARK  0 active torsions:
REMARK  status: ('A' for Active; 'I' for Inactive)
ROOT
ATOM      1  C   UNL d   1       0.831  -4.388   3.596  0.00  0.00    -0.002 A 
ATOM      2  C1  UNL d   1       1.980  -4.737   2.901  0.00  0.00     0.010 A 
ATOM      3  C2  UNL d   1       2.754  -3.759   2.272  0.00  0.00     0.041 A 
ATOM      4  C3  UNL d   1       2.350  -2.412   2.355  0.00  0.00    -0.075 A 
ATOM      5  S   UNL d   1       3.141  -1.045   1.665  0.00  0.00     0.015 SA
ATOM      6  C4  UNL d   1       1.973   0.034   2.277  0.00  0.00     0.022 A 
ATOM      7  C5  UNL d   1       0.996  -0.616   2.993  0.00  0.00     0.026 A 
ATOM      8  C6  UNL d   1       1.197  -2.036   3.050  0.00  0.00    -0.082 A 
ATOM      9  C7  UNL d   1       0.433  -3.051   3.677  0.00  0.00     0.045 A 
ENDROOT
TORSDOF 0
ENDMDL
