MODEL 1
REMARK minimizedAffinity 2.93479824
REMARK minimizedRMSD -1
REMARK  0 active torsions:
REMARK  status: ('A' for Active; 'I' for Inactive)
ROOT
ATOM      1  C   UNL d   1       2.356  -0.558   1.890  0.00  0.00    -0.002 A 
ATOM      2  C1  UNL d   1       1.518  -0.186   2.931  0.00  0.00     0.010 A 
ATOM      3  C2  UNL d   1       1.201  -1.091   3.946  0.00  0.00     0.041 A 
ATOM      4  C3  UNL d   1       1.747  -2.388   3.897  0.00  0.00    -0.075 A 
ATOM      5  S   UNL d   1       1.499  -3.664   5.031  0.00  0.00     0.015 SA
ATOM      6  C4  UNL d   1       2.501  -4.733   4.159  0.00  0.00     0.022 A 
ATOM      7  C5  UNL d   1       3.019  -4.148   3.029  0.00  0.00     0.026 A 
ATOM      8  C6  UNL d   1       2.594  -2.786   2.859  0.00  0.00    -0.082 A 
ATOM      9  C7  UNL d   1       2.896  -1.846   1.845  0.00  0.00     0.045 A 
ENDROOT
TORSDOF 0
ENDMDL
