MODEL 1
REMARK minimizedAffinity 11.2957926
REMARK minimizedRMSD -1
REMARK  0 active torsions:
REMARK  status: ('A' for Active; 'I' for Inactive)
ROOT
ATOM      1  C   UNL d   1       1.879  -0.114   1.871  0.00  0.00    -0.002 A 
ATOM      2  C1  UNL d   1       1.049  -0.228   2.977  0.00  0.00     0.010 A 
ATOM      3  C2  UNL d   1       0.888  -1.457   3.620  0.00  0.00     0.041 A 
ATOM      4  C3  UNL d   1       1.584  -2.579   3.130  0.00  0.00    -0.075 A 
ATOM      5  S   UNL d   1       1.541  -4.185   3.757  0.00  0.00     0.015 SA
ATOM      6  C4  UNL d   1       2.626  -4.756   2.573  0.00  0.00     0.022 A 
ATOM      7  C5  UNL d   1       3.020  -3.760   1.712  0.00  0.00     0.026 A 
ATOM      8  C6  UNL d   1       2.427  -2.489   2.019  0.00  0.00    -0.082 A 
ATOM      9  C7  UNL d   1       2.568  -1.229   1.388  0.00  0.00     0.045 A 
ENDROOT
TORSDOF 0
ENDMDL
