MODEL 1
REMARK minimizedAffinity 10.8405743
REMARK minimizedRMSD -1
REMARK  0 active torsions:
REMARK  status: ('A' for Active; 'I' for Inactive)
ROOT
ATOM      1  C   UNL d   1      -1.567   1.391   0.405  0.00  0.00    -0.002 A 
ATOM      2  C1  UNL d   1      -2.325   2.513   0.100  0.00  0.00     0.010 A 
ATOM      3  C2  UNL d   1      -3.042   2.581  -1.097  0.00  0.00     0.041 A 
ATOM      4  C3  UNL d   1      -2.985   1.492  -1.988  0.00  0.00    -0.075 A 
ATOM      5  S   UNL d   1      -3.782   1.353  -3.511  0.00  0.00     0.015 SA
ATOM      6  C4  UNL d   1      -3.135  -0.199  -3.791  0.00  0.00     0.022 A 
ATOM      7  C5  UNL d   1      -2.329  -0.616  -2.759  0.00  0.00     0.026 A 
ATOM      8  C6  UNL d   1      -2.230   0.351  -1.702  0.00  0.00    -0.082 A 
ATOM      9  C7  UNL d   1      -1.513   0.313  -0.482  0.00  0.00     0.045 A 
ENDROOT
TORSDOF 0
ENDMDL
