MODEL 1
REMARK minimizedAffinity -5.97273636
REMARK minimizedRMSD -1
REMARK  1 active torsions:
REMARK  status: ('A' for Active; 'I' for Inactive)
REMARK    1  A    between atoms: C1_2  and  C2_3 
ROOT
ATOM      1  C2  UNL d   1      -0.014   0.149   0.474  0.00  0.00    -0.073 A 
ATOM      2  C3  UNL d   1       0.425  -1.180   0.456  0.00  0.00    -0.002 A 
ATOM      3  C4  UNL d   1      -0.401  -2.202   0.927  0.00  0.00     0.004 A 
ATOM      4  C5  UNL d   1      -1.675  -1.907   1.412  0.00  0.00    -0.004 A 
ATOM      5  C6  UNL d   1      -2.137  -0.587   1.427  0.00  0.00    -0.075 A 
ATOM      6  C7  UNL d   1      -3.504  -0.254   1.948  0.00  0.00     0.076 C 
ATOM      7  C8  UNL d   1      -1.300   0.434   0.955  0.00  0.00     0.001 A 
ENDROOT
BRANCH   1   8
ATOM      8  C1  UNL d   1       0.871   1.255  -0.039  0.00  0.00     0.053 C 
ATOM      9  C   UNL d   1       0.480   2.609   0.530  0.00  0.00     0.018 C 
ENDBRANCH   1   8
TORSDOF 1
ENDMDL
