MODEL 1
REMARK minimizedAffinity -4.59488153
REMARK minimizedRMSD -1
REMARK  1 active torsions:
REMARK  status: ('A' for Active; 'I' for Inactive)
REMARK    1  A    between atoms: C1_2  and  C2_3 
ROOT
ATOM      1  C2  UNL d   1       0.441   0.638  -0.205  0.00  0.00    -0.073 A 
ATOM      2  C3  UNL d   1       1.692   0.169   0.214  0.00  0.00    -0.002 A 
ATOM      3  C4  UNL d   1       1.841  -1.149   0.648  0.00  0.00     0.004 A 
ATOM      4  C5  UNL d   1       0.745  -2.011   0.663  0.00  0.00    -0.004 A 
ATOM      5  C6  UNL d   1      -0.511  -1.564   0.237  0.00  0.00    -0.075 A 
ATOM      6  C7  UNL d   1      -1.700  -2.479   0.249  0.00  0.00     0.076 C 
ATOM      7  C8  UNL d   1      -0.653  -0.239  -0.195  0.00  0.00     0.001 A 
ENDROOT
BRANCH   1   8
ATOM      8  C1  UNL d   1       0.277   2.058  -0.681  0.00  0.00     0.053 C 
ATOM      9  C   UNL d   1       0.906   2.278  -2.048  0.00  0.00     0.018 C 
ENDBRANCH   1   8
TORSDOF 1
ENDMDL
