MODEL 1
REMARK minimizedAffinity -5.44415331
REMARK minimizedRMSD -1
REMARK  1 active torsions:
REMARK  status: ('A' for Active; 'I' for Inactive)
REMARK    1  A    between atoms: C1_2  and  C2_3 
ROOT
ATOM      1  C2  UNL d   1       1.145   1.756  -1.646  0.00  0.00    -0.073 A 
ATOM      2  C3  UNL d   1       0.257   2.179  -2.641  0.00  0.00    -0.002 A 
ATOM      3  C4  UNL d   1       0.718   2.440  -3.932  0.00  0.00     0.004 A 
ATOM      4  C5  UNL d   1       2.068   2.275  -4.242  0.00  0.00    -0.004 A 
ATOM      5  C6  UNL d   1       2.969   1.842  -3.264  0.00  0.00    -0.075 A 
ATOM      6  C7  UNL d   1       4.424   1.662  -3.580  0.00  0.00     0.076 C 
ATOM      7  C8  UNL d   1       2.498   1.584  -1.969  0.00  0.00     0.001 A 
ENDROOT
BRANCH   1   8
ATOM      8  C1  UNL d   1       0.650   1.466  -0.252  0.00  0.00     0.053 C 
ATOM      9  C   UNL d   1       0.910   0.025   0.157  0.00  0.00     0.018 C 
ENDBRANCH   1   8
TORSDOF 1
ENDMDL
