MODEL 1
REMARK minimizedAffinity -3.14656997
REMARK minimizedRMSD -1
REMARK  1 active torsions:
REMARK  status: ('A' for Active; 'I' for Inactive)
REMARK    1  A    between atoms: C1_2  and  C2_3 
ROOT
ATOM      1  C2  UNL d   1       0.706   0.522  -0.514  0.00  0.00    -0.073 A 
ATOM      2  C3  UNL d   1       0.974  -0.840  -0.336  0.00  0.00    -0.002 A 
ATOM      3  C4  UNL d   1       0.057  -1.658   0.326  0.00  0.00     0.004 A 
ATOM      4  C5  UNL d   1      -1.138  -1.125   0.809  0.00  0.00    -0.004 A 
ATOM      5  C6  UNL d   1      -1.429   0.231   0.630  0.00  0.00    -0.075 A 
ATOM      6  C7  UNL d   1      -2.709   0.820   1.145  0.00  0.00     0.076 C 
ATOM      7  C8  UNL d   1      -0.502   1.046  -0.034  0.00  0.00     0.001 A 
ENDROOT
BRANCH   1   8
ATOM      8  C1  UNL d   1       1.690   1.408  -1.234  0.00  0.00     0.053 C 
ATOM      9  C   UNL d   1       1.178   1.838  -2.599  0.00  0.00     0.018 C 
ENDBRANCH   1   8
TORSDOF 1
ENDMDL
