MODEL 1
REMARK minimizedAffinity -3.81565952
REMARK minimizedRMSD -1
REMARK  1 active torsions:
REMARK  status: ('A' for Active; 'I' for Inactive)
REMARK    1  A    between atoms: C1_2  and  C2_3 
ROOT
ATOM      1  C2  UNL d   1       3.625   2.581  -3.258  0.00  0.00    -0.073 A 
ATOM      2  C3  UNL d   1       2.519   1.855  -2.800  0.00  0.00    -0.002 A 
ATOM      3  C4  UNL d   1       1.261   2.054  -3.369  0.00  0.00     0.004 A 
ATOM      4  C5  UNL d   1       1.096   2.972  -4.405  0.00  0.00    -0.004 A 
ATOM      5  C6  UNL d   1       2.191   3.698  -4.885  0.00  0.00    -0.075 A 
ATOM      6  C7  UNL d   1       2.030   4.692  -5.998  0.00  0.00     0.076 C 
ATOM      7  C8  UNL d   1       3.451   3.496  -4.306  0.00  0.00     0.001 A 
ENDROOT
BRANCH   1   8
ATOM      8  C1  UNL d   1       4.987   2.365  -2.651  0.00  0.00     0.053 C 
ATOM      9  C   UNL d   1       5.838   3.625  -2.698  0.00  0.00     0.018 C 
ENDBRANCH   1   8
TORSDOF 1
ENDMDL
