MODEL 1
REMARK minimizedAffinity -4.2451086
REMARK minimizedRMSD -1
REMARK  1 active torsions:
REMARK  status: ('A' for Active; 'I' for Inactive)
REMARK    1  A    between atoms: C1_2  and  C2_3 
ROOT
ATOM      1  C2  UNL d   1      -1.203  -1.145   0.874  0.00  0.00    -0.073 A 
ATOM      2  C3  UNL d   1      -0.325  -2.223   1.033  0.00  0.00    -0.002 A 
ATOM      3  C4  UNL d   1       0.968  -2.162   0.510  0.00  0.00     0.004 A 
ATOM      4  C5  UNL d   1       1.397  -1.023  -0.170  0.00  0.00    -0.004 A 
ATOM      5  C6  UNL d   1       0.537   0.069  -0.330  0.00  0.00    -0.075 A 
ATOM      6  C7  UNL d   1       0.983   1.301  -1.061  0.00  0.00     0.076 C 
ATOM      7  C8  UNL d   1      -0.760  -0.000   0.196  0.00  0.00     0.001 A 
ENDROOT
BRANCH   1   8
ATOM      8  C1  UNL d   1      -2.597  -1.203   1.443  0.00  0.00     0.053 C 
ATOM      9  C   UNL d   1      -3.156   0.182   1.726  0.00  0.00     0.018 C 
ENDBRANCH   1   8
TORSDOF 1
ENDMDL
