MODEL 1
REMARK minimizedAffinity -2.23580098
REMARK minimizedRMSD -1
REMARK  1 active torsions:
REMARK  status: ('A' for Active; 'I' for Inactive)
REMARK    1  A    between atoms: C1_2  and  C2_3 
ROOT
ATOM      1  C2  UNL d   1       1.138   1.473  -1.554  0.00  0.00    -0.073 A 
ATOM      2  C3  UNL d   1       0.258   1.815  -2.588  0.00  0.00    -0.002 A 
ATOM      3  C4  UNL d   1       0.750   2.289  -3.804  0.00  0.00     0.004 A 
ATOM      4  C5  UNL d   1       2.125   2.421  -4.003  0.00  0.00    -0.004 A 
ATOM      5  C6  UNL d   1       3.020   2.074  -2.986  0.00  0.00    -0.075 A 
ATOM      6  C7  UNL d   1       4.501   2.212  -3.183  0.00  0.00     0.076 C 
ATOM      7  C8  UNL d   1       2.519   1.601  -1.766  0.00  0.00     0.001 A 
ENDROOT
BRANCH   1   8
ATOM      8  C1  UNL d   1       0.612   0.954  -0.241  0.00  0.00     0.053 C 
ATOM      9  C   UNL d   1       0.550  -0.565  -0.213  0.00  0.00     0.018 C 
ENDBRANCH   1   8
TORSDOF 1
ENDMDL
