MODEL 1
REMARK minimizedAffinity -4.38026428
REMARK minimizedRMSD -1
REMARK  1 active torsions:
REMARK  status: ('A' for Active; 'I' for Inactive)
REMARK    1  A    between atoms: C1_2  and  C2_3 
ROOT
ATOM      1  C2  UNL d   1       0.603   0.570  -0.616  0.00  0.00    -0.073 A 
ATOM      2  C3  UNL d   1      -0.128   1.573   0.031  0.00  0.00    -0.002 A 
ATOM      3  C4  UNL d   1      -1.238   1.244   0.811  0.00  0.00     0.004 A 
ATOM      4  C5  UNL d   1      -1.623  -0.088   0.958  0.00  0.00    -0.004 A 
ATOM      5  C6  UNL d   1      -0.898  -1.105   0.328  0.00  0.00    -0.075 A 
ATOM      6  C7  UNL d   1      -1.301  -2.544   0.474  0.00  0.00     0.076 C 
ATOM      7  C8  UNL d   1       0.213  -0.767  -0.455  0.00  0.00     0.001 A 
ENDROOT
BRANCH   1   8
ATOM      8  C1  UNL d   1       1.806   0.920  -1.454  0.00  0.00     0.053 C 
ATOM      9  C   UNL d   1       1.477   1.955  -2.518  0.00  0.00     0.018 C 
ENDBRANCH   1   8
TORSDOF 1
ENDMDL
