MODEL 1
REMARK minimizedAffinity -4.13065672
REMARK minimizedRMSD -1
REMARK  1 active torsions:
REMARK  status: ('A' for Active; 'I' for Inactive)
REMARK    1  A    between atoms: C1_2  and  C2_3 
ROOT
ATOM      1  C2  UNL d   1       1.595   1.826  -1.497  0.00  0.00    -0.073 A 
ATOM      2  C3  UNL d   1       0.963   1.907  -2.744  0.00  0.00    -0.002 A 
ATOM      3  C4  UNL d   1       1.719   2.048  -3.908  0.00  0.00     0.004 A 
ATOM      4  C5  UNL d   1       3.111   2.102  -3.840  0.00  0.00    -0.004 A 
ATOM      5  C6  UNL d   1       3.761   2.010  -2.605  0.00  0.00    -0.075 A 
ATOM      6  C7  UNL d   1       5.257   2.069  -2.514  0.00  0.00     0.076 C 
ATOM      7  C8  UNL d   1       2.995   1.872  -1.439  0.00  0.00     0.001 A 
ENDROOT
BRANCH   1   8
ATOM      8  C1  UNL d   1       0.783   1.667  -0.237  0.00  0.00     0.053 C 
ATOM      9  C   UNL d   1       0.663   0.211   0.184  0.00  0.00     0.018 C 
ENDBRANCH   1   8
TORSDOF 1
ENDMDL
