MODEL 1
REMARK minimizedAffinity -3.75694299
REMARK minimizedRMSD -1
REMARK  1 active torsions:
REMARK  status: ('A' for Active; 'I' for Inactive)
REMARK    1  A    between atoms: C1_2  and  C2_3 
ROOT
ATOM      1  C2  UNL d   1       0.200   0.373  -0.299  0.00  0.00    -0.073 A 
ATOM      2  C3  UNL d   1       0.591  -0.970  -0.247  0.00  0.00    -0.002 A 
ATOM      3  C4  UNL d   1      -0.306  -1.950   0.179  0.00  0.00     0.004 A 
ATOM      4  C5  UNL d   1      -1.604  -1.599   0.552  0.00  0.00    -0.004 A 
ATOM      5  C6  UNL d   1      -2.017  -0.264   0.495  0.00  0.00    -0.075 A 
ATOM      6  C7  UNL d   1      -3.409   0.130   0.894  0.00  0.00     0.076 C 
ATOM      7  C8  UNL d   1      -1.109   0.714   0.068  0.00  0.00     0.001 A 
ENDROOT
BRANCH   1   8
ATOM      8  C1  UNL d   1       1.163   1.433  -0.765  0.00  0.00     0.053 C 
ATOM      9  C   UNL d   1       0.976   1.767  -2.237  0.00  0.00     0.018 C 
ENDBRANCH   1   8
TORSDOF 1
ENDMDL
