MODEL 1
REMARK minimizedAffinity -5.52327967
REMARK minimizedRMSD -1
REMARK  1 active torsions:
REMARK  status: ('A' for Active; 'I' for Inactive)
REMARK    1  A    between atoms: C1_2  and  C2_3 
ROOT
ATOM      1  C2  UNL d   1      -0.489   0.173   0.921  0.00  0.00    -0.077 A 
ATOM      2  C3  UNL d   1       0.759   0.280   1.552  0.00  0.00     0.002 A 
ATOM      3  C4  UNL d   1       0.840   0.632   2.900  0.00  0.00     0.002 A 
ATOM      4  C5  UNL d   1      -0.321   0.876   3.630  0.00  0.00    -0.004 A 
ATOM      5  C6  UNL d   1      -1.566   0.774   3.011  0.00  0.00     0.002 A 
ATOM      6  C7  UNL d   1      -1.650   0.423   1.663  0.00  0.00     0.002 A 
ENDROOT
BRANCH   1   7
ATOM      7  C1  UNL d   1      -0.581  -0.255  -0.521  0.00  0.00     0.055 C 
ATOM      8  C   UNL d   1       0.678  -0.986  -0.963  0.00  0.00     0.019 C 
ENDBRANCH   1   7
TORSDOF 1
ENDMDL
