MODEL 1
REMARK minimizedAffinity -4.3731823
REMARK minimizedRMSD -1
REMARK  1 active torsions:
REMARK  status: ('A' for Active; 'I' for Inactive)
REMARK    1  A    between atoms: C1_2  and  C2_3 
ROOT
ATOM      1  C2  UNL d   1       0.356   0.245  -2.154  0.00  0.00    -0.077 A 
ATOM      2  C3  UNL d   1      -0.360   1.327  -1.622  0.00  0.00     0.002 A 
ATOM      3  C4  UNL d   1      -0.935   1.236  -0.353  0.00  0.00     0.002 A 
ATOM      4  C5  UNL d   1      -0.796   0.069   0.396  0.00  0.00    -0.004 A 
ATOM      5  C6  UNL d   1      -0.088  -1.012  -0.126  0.00  0.00     0.002 A 
ATOM      6  C7  UNL d   1       0.487  -0.925  -1.395  0.00  0.00     0.002 A 
ENDROOT
BRANCH   1   7
ATOM      7  C1  UNL d   1       1.019   0.358  -3.502  0.00  0.00     0.055 C 
ATOM      8  C   UNL d   1       2.520   0.566  -3.365  0.00  0.00     0.019 C 
ENDBRANCH   1   7
TORSDOF 1
ENDMDL
