MODEL 1
REMARK minimizedAffinity -4.14532948
REMARK minimizedRMSD -1
REMARK  1 active torsions:
REMARK  status: ('A' for Active; 'I' for Inactive)
REMARK    1  A    between atoms: C1_2  and  C2_3 
ROOT
ATOM      1  C2  UNL d   1       0.128   0.411   2.245  0.00  0.00    -0.077 A 
ATOM      2  C3  UNL d   1      -1.267   0.495   2.125  0.00  0.00     0.002 A 
ATOM      3  C4  UNL d   1      -1.880   0.321   0.883  0.00  0.00     0.002 A 
ATOM      4  C5  UNL d   1      -1.109   0.057  -0.247  0.00  0.00    -0.004 A 
ATOM      5  C6  UNL d   1       0.279  -0.027  -0.138  0.00  0.00     0.002 A 
ATOM      6  C7  UNL d   1       0.894   0.148   1.102  0.00  0.00     0.002 A 
ENDROOT
BRANCH   1   7
ATOM      7  C1  UNL d   1       0.788   0.550   3.592  0.00  0.00     0.055 C 
ATOM      8  C   UNL d   1       2.143  -0.142   3.618  0.00  0.00     0.019 C 
ENDBRANCH   1   7
TORSDOF 1
ENDMDL
