MODEL 1
REMARK minimizedAffinity -0.267298043
REMARK minimizedRMSD -1
REMARK  1 active torsions:
REMARK  status: ('A' for Active; 'I' for Inactive)
REMARK    1  A    between atoms: C1_2  and  C2_3 
ROOT
ATOM      1  C2  UNL d   1       0.384  -0.210  -1.102  0.00  0.00    -0.077 A 
ATOM      2  C3  UNL d   1       0.015   0.893  -0.320  0.00  0.00     0.002 A 
ATOM      3  C4  UNL d   1       0.282   0.908   1.050  0.00  0.00     0.002 A 
ATOM      4  C5  UNL d   1       0.923  -0.174   1.649  0.00  0.00    -0.004 A 
ATOM      5  C6  UNL d   1       1.293  -1.277   0.880  0.00  0.00     0.002 A 
ATOM      6  C7  UNL d   1       1.025  -1.294  -0.489  0.00  0.00     0.002 A 
ENDROOT
BRANCH   1   7
ATOM      7  C1  UNL d   1       0.141  -0.208  -2.589  0.00  0.00     0.055 C 
ATOM      8  C   UNL d   1       1.320   0.393  -3.341  0.00  0.00     0.019 C 
ENDBRANCH   1   7
TORSDOF 1
ENDMDL
