MODEL 1
REMARK minimizedAffinity -4.7649436
REMARK minimizedRMSD -1
REMARK  1 active torsions:
REMARK  status: ('A' for Active; 'I' for Inactive)
REMARK    1  A    between atoms: C1_2  and  C2_3 
ROOT
ATOM      1  C2  UNL d   1       0.209   0.017   0.608  0.00  0.00    -0.077 A 
ATOM      2  C3  UNL d   1       1.068   0.689   1.488  0.00  0.00     0.002 A 
ATOM      3  C4  UNL d   1       0.568   1.280   2.650  0.00  0.00     0.002 A 
ATOM      4  C5  UNL d   1      -0.792   1.201   2.944  0.00  0.00    -0.004 A 
ATOM      5  C6  UNL d   1      -1.655   0.536   2.073  0.00  0.00     0.002 A 
ATOM      6  C7  UNL d   1      -1.156  -0.054   0.911  0.00  0.00     0.002 A 
ENDROOT
BRANCH   1   7
ATOM      7  C1  UNL d   1       0.755  -0.663  -0.621  0.00  0.00     0.055 C 
ATOM      8  C   UNL d   1      -0.142  -0.427  -1.828  0.00  0.00     0.019 C 
ENDBRANCH   1   7
TORSDOF 1
ENDMDL
