MODEL 1
REMARK minimizedAffinity 0.413125962
REMARK minimizedRMSD -1
REMARK  1 active torsions:
REMARK  status: ('A' for Active; 'I' for Inactive)
REMARK    1  A    between atoms: C3_4  and  O_7 
ROOT
ATOM      1  C   UNL d   1      -2.121  -0.124   0.767  0.00  0.00    -0.033 A 
ATOM      2  C1  UNL d   1      -2.417   1.056   0.082  0.00  0.00     0.039 A 
ATOM      3  C2  UNL d   1      -1.680   1.411  -1.050  0.00  0.00    -0.080 A 
ATOM      4  C3  UNL d   1      -0.653   0.579  -1.486  0.00  0.00     0.150 A 
ATOM      5  C4  UNL d   1      -0.355  -0.600  -0.811  0.00  0.00    -0.007 A 
ATOM      6  C5  UNL d   1      -1.091  -0.953   0.320  0.00  0.00     0.039 A 
ENDROOT
BRANCH   4   7
ATOM      7  O   UNL d   1       0.096   0.887  -2.583  0.00  0.00    -0.526 OA
ATOM      8  H5  UNL d   1      -0.204   1.744  -2.930  0.00  0.00     0.418 HD
ENDBRANCH   4   7
TORSDOF 1
ENDMDL
