MODEL 1
REMARK minimizedAffinity 3.59760976
REMARK minimizedRMSD -1
REMARK  1 active torsions:
REMARK  status: ('A' for Active; 'I' for Inactive)
REMARK    1  A    between atoms: C3_4  and  O_7 
ROOT
ATOM      1  C   UNL d   1      -2.293   0.111   0.314  0.00  0.00    -0.033 A 
ATOM      2  C1  UNL d   1      -1.410  -0.315  -0.680  0.00  0.00     0.039 A 
ATOM      3  C2  UNL d   1      -0.135  -0.770  -0.337  0.00  0.00    -0.080 A 
ATOM      4  C3  UNL d   1       0.243  -0.795   1.003  0.00  0.00     0.150 A 
ATOM      5  C4  UNL d   1      -0.632  -0.375   1.999  0.00  0.00    -0.007 A 
ATOM      6  C5  UNL d   1      -1.904   0.079   1.654  0.00  0.00     0.039 A 
ENDROOT
BRANCH   4   7
ATOM      7  O   UNL d   1       1.479  -1.225   1.387  0.00  0.00    -0.526 OA
ATOM      8  H5  UNL d   1       1.985  -1.456   0.590  0.00  0.00     0.418 HD
ENDBRANCH   4   7
TORSDOF 1
ENDMDL
