MODEL 1
REMARK minimizedAffinity -0.895926058
REMARK minimizedRMSD -1
REMARK  1 active torsions:
REMARK  status: ('A' for Active; 'I' for Inactive)
REMARK    1  A    between atoms: C3_4  and  O_7 
ROOT
ATOM      1  C   UNL d   1      -2.569   0.525   1.294  0.00  0.00    -0.033 A 
ATOM      2  C1  UNL d   1      -2.402   0.464  -0.091  0.00  0.00     0.039 A 
ATOM      3  C2  UNL d   1      -1.179   0.061  -0.631  0.00  0.00    -0.080 A 
ATOM      4  C3  UNL d   1      -0.134  -0.281   0.223  0.00  0.00     0.150 A 
ATOM      5  C4  UNL d   1      -0.295  -0.226   1.604  0.00  0.00    -0.007 A 
ATOM      6  C5  UNL d   1      -1.517   0.178   2.141  0.00  0.00     0.039 A 
ENDROOT
BRANCH   4   7
ATOM      7  O   UNL d   1       1.079  -0.676  -0.257  0.00  0.00    -0.526 OA
ATOM      8  H5  UNL d   1       1.052  -0.638  -1.228  0.00  0.00     0.418 HD
ENDBRANCH   4   7
TORSDOF 1
ENDMDL
