MODEL 1
REMARK minimizedAffinity 2.59528208
REMARK minimizedRMSD -1
REMARK  1 active torsions:
REMARK  status: ('A' for Active; 'I' for Inactive)
REMARK    1  A    between atoms: C3_4  and  O_7 
ROOT
ATOM      1  C   UNL d   1      -1.809  -0.017   0.062  0.00  0.00    -0.033 A 
ATOM      2  C1  UNL d   1      -1.564   0.154   1.426  0.00  0.00     0.039 A 
ATOM      3  C2  UNL d   1      -0.283  -0.058   1.939  0.00  0.00    -0.080 A 
ATOM      4  C3  UNL d   1       0.743  -0.440   1.079  0.00  0.00     0.150 A 
ATOM      5  C4  UNL d   1       0.507  -0.609  -0.281  0.00  0.00    -0.007 A 
ATOM      6  C5  UNL d   1      -0.773  -0.397  -0.792  0.00  0.00     0.039 A 
ENDROOT
BRANCH   4   7
ATOM      7  O   UNL d   1       2.009  -0.664   1.534  0.00  0.00    -0.526 OA
ATOM      8  H5  UNL d   1       2.016  -0.537   2.498  0.00  0.00     0.418 HD
ENDBRANCH   4   7
TORSDOF 1
ENDMDL
