MODEL 1
REMARK minimizedAffinity -4.36359024
REMARK minimizedRMSD -1
REMARK  1 active torsions:
REMARK  status: ('A' for Active; 'I' for Inactive)
REMARK    1  A    between atoms: C3_4  and  O_7 
ROOT
ATOM      1  C   UNL d   1      -1.994   1.020   0.839  0.00  0.00    -0.033 A 
ATOM      2  C1  UNL d   1      -1.464   1.492   2.041  0.00  0.00     0.039 A 
ATOM      3  C2  UNL d   1      -0.186   1.099   2.444  0.00  0.00    -0.080 A 
ATOM      4  C3  UNL d   1       0.550   0.236   1.637  0.00  0.00     0.150 A 
ATOM      5  C4  UNL d   1       0.029  -0.235   0.437  0.00  0.00    -0.007 A 
ATOM      6  C5  UNL d   1      -1.248   0.157   0.036  0.00  0.00     0.039 A 
ENDROOT
BRANCH   4   7
ATOM      7  O   UNL d   1       1.799  -0.179   1.991  0.00  0.00    -0.526 OA
ATOM      8  H5  UNL d   1       2.017   0.203   2.858  0.00  0.00     0.418 HD
ENDBRANCH   4   7
TORSDOF 1
ENDMDL
