MODEL 1
REMARK minimizedAffinity 1.05469394
REMARK minimizedRMSD -1
REMARK  1 active torsions:
REMARK  status: ('A' for Active; 'I' for Inactive)
REMARK    1  A    between atoms: C3_4  and  O_7 
ROOT
ATOM      1  C   UNL d   1      -0.961   0.518   0.807  0.00  0.00    -0.033 A 
ATOM      2  C1  UNL d   1      -0.517  -0.702   0.292  0.00  0.00     0.039 A 
ATOM      3  C2  UNL d   1      -1.434  -1.617  -0.230  0.00  0.00    -0.080 A 
ATOM      4  C3  UNL d   1      -2.789  -1.300  -0.232  0.00  0.00     0.150 A 
ATOM      5  C4  UNL d   1      -3.238  -0.086   0.276  0.00  0.00    -0.007 A 
ATOM      6  C5  UNL d   1      -2.322   0.826   0.798  0.00  0.00     0.039 A 
ENDROOT
BRANCH   4   7
ATOM      7  O   UNL d   1      -3.722  -2.163  -0.726  0.00  0.00    -0.526 OA
ATOM      8  H5  UNL d   1      -3.269  -2.973  -1.016  0.00  0.00     0.418 HD
ENDBRANCH   4   7
TORSDOF 1
ENDMDL
