MODEL 1
REMARK minimizedAffinity 3.16703653
REMARK minimizedRMSD -1
REMARK  1 active torsions:
REMARK  status: ('A' for Active; 'I' for Inactive)
REMARK    1  A    between atoms: C3_4  and  O_7 
ROOT
ATOM      1  C   UNL d   1       0.554   1.193  -3.850  0.00  0.00    -0.033 A 
ATOM      2  C1  UNL d   1       1.806   1.800  -3.975  0.00  0.00     0.039 A 
ATOM      3  C2  UNL d   1       2.518   2.175  -2.835  0.00  0.00    -0.080 A 
ATOM      4  C3  UNL d   1       1.970   1.938  -1.577  0.00  0.00     0.150 A 
ATOM      5  C4  UNL d   1       0.725   1.330  -1.446  0.00  0.00    -0.007 A 
ATOM      6  C5  UNL d   1       0.015   0.957  -2.586  0.00  0.00     0.039 A 
ENDROOT
BRANCH   4   7
ATOM      7  O   UNL d   1       2.626   2.290  -0.435  0.00  0.00    -0.526 OA
ATOM      8  H5  UNL d   1       3.459   2.725  -0.681  0.00  0.00     0.418 HD
ENDBRANCH   4   7
TORSDOF 1
ENDMDL
