MODEL 1
REMARK minimizedAffinity -5.04334927
REMARK minimizedRMSD -1
REMARK  1 active torsions:
REMARK  status: ('A' for Active; 'I' for Inactive)
REMARK    1  A    between atoms: C3_4  and  O_7 
ROOT
ATOM      1  C   UNL d   1       0.288   0.826   3.923  0.00  0.00    -0.033 A 
ATOM      2  C1  UNL d   1      -0.660   1.308   3.019  0.00  0.00     0.039 A 
ATOM      3  C2  UNL d   1      -0.598   0.935   1.675  0.00  0.00    -0.080 A 
ATOM      4  C3  UNL d   1       0.415   0.081   1.249  0.00  0.00     0.150 A 
ATOM      5  C4  UNL d   1       1.360  -0.406   2.145  0.00  0.00    -0.007 A 
ATOM      6  C5  UNL d   1       1.298  -0.032   3.486  0.00  0.00     0.039 A 
ENDROOT
BRANCH   4   7
ATOM      7  O   UNL d   1       0.518  -0.308  -0.054  0.00  0.00    -0.526 OA
ATOM      8  H5  UNL d   1      -0.185   0.129  -0.562  0.00  0.00     0.418 HD
ENDBRANCH   4   7
TORSDOF 1
ENDMDL
