MODEL 1
REMARK minimizedAffinity 14.630064
REMARK minimizedRMSD -1
REMARK  0 active torsions:
REMARK  status: ('A' for Active; 'I' for Inactive)
ROOT
ATOM      1  C   UNL d   1      -2.583   0.373  -3.368  0.00  0.00     0.023 A 
ATOM      2  C1  UNL d   1      -2.589   1.389  -4.323  0.00  0.00     0.003 A 
ATOM      3  C2  UNL d   1      -3.212   2.607  -4.044  0.00  0.00     0.048 A 
ATOM      4  C3  UNL d   1      -3.825   2.803  -2.807  0.00  0.00     0.023 A 
ATOM      5  C4  UNL d   1      -3.821   1.789  -1.848  0.00  0.00     0.048 A 
ATOM      6  C5  UNL d   1      -3.198   0.572  -2.132  0.00  0.00     0.003 A 
ATOM      7  I   UNL d   1      -4.753   4.615  -2.389  0.00  0.00    -0.146 I 
ENDROOT
TORSDOF 0
ENDMDL
