MODEL 1
REMARK minimizedAffinity 5.88901138
REMARK minimizedRMSD -1
REMARK  0 active torsions:
REMARK  status: ('A' for Active; 'I' for Inactive)
ROOT
ATOM      1  C   UNL d   1      -2.427   0.062  -3.418  0.00  0.00     0.023 A 
ATOM      2  C1  UNL d   1      -2.727   0.851  -4.528  0.00  0.00     0.003 A 
ATOM      3  C2  UNL d   1      -3.232   2.141  -4.353  0.00  0.00     0.048 A 
ATOM      4  C3  UNL d   1      -3.433   2.636  -3.065  0.00  0.00     0.023 A 
ATOM      5  C4  UNL d   1      -3.133   1.851  -1.951  0.00  0.00     0.048 A 
ATOM      6  C5  UNL d   1      -2.629   0.561  -2.131  0.00  0.00     0.003 A 
ATOM      7  I   UNL d   1      -4.184   4.556  -2.802  0.00  0.00    -0.146 I 
ENDROOT
TORSDOF 0
ENDMDL
