MODEL 1
REMARK minimizedAffinity 6.01375914
REMARK minimizedRMSD -1
REMARK  0 active torsions:
REMARK  status: ('A' for Active; 'I' for Inactive)
ROOT
ATOM      1  C   UNL d   1      -1.933  -0.930  -2.293  0.00  0.00     0.023 A 
ATOM      2  C1  UNL d   1      -2.334  -0.491  -3.555  0.00  0.00     0.003 A 
ATOM      3  C2  UNL d   1      -2.912   0.771  -3.706  0.00  0.00     0.048 A 
ATOM      4  C3  UNL d   1      -3.086   1.590  -2.591  0.00  0.00     0.023 A 
ATOM      5  C4  UNL d   1      -2.685   1.156  -1.326  0.00  0.00     0.048 A 
ATOM      6  C5  UNL d   1      -2.108  -0.107  -1.180  0.00  0.00     0.003 A 
ATOM      7  I   UNL d   1      -3.946   3.469  -2.813  0.00  0.00    -0.146 I 
ENDROOT
TORSDOF 0
ENDMDL
