MODEL 1
REMARK minimizedAffinity 8.39671516
REMARK minimizedRMSD -1
REMARK  0 active torsions:
REMARK  status: ('A' for Active; 'I' for Inactive)
ROOT
ATOM      1  C   UNL d   1      -0.265  -3.788   1.280  0.00  0.00     0.023 A 
ATOM      2  C1  UNL d   1       1.014  -4.142   1.710  0.00  0.00     0.003 A 
ATOM      3  C2  UNL d   1       1.669  -3.366   2.668  0.00  0.00     0.048 A 
ATOM      4  C3  UNL d   1       1.039  -2.237   3.193  0.00  0.00     0.023 A 
ATOM      5  C4  UNL d   1      -0.241  -1.880   2.765  0.00  0.00     0.048 A 
ATOM      6  C5  UNL d   1      -0.892  -2.659   1.807  0.00  0.00     0.003 A 
ATOM      7  I   UNL d   1       2.012  -1.080   4.619  0.00  0.00    -0.146 I 
ENDROOT
TORSDOF 0
ENDMDL
