MODEL 1
REMARK minimizedAffinity 5.07743359
REMARK minimizedRMSD -1
REMARK  0 active torsions:
REMARK  status: ('A' for Active; 'I' for Inactive)
ROOT
ATOM      1  C   UNL d   1      -3.062   0.573  -3.562  0.00  0.00     0.023 A 
ATOM      2  C1  UNL d   1      -2.660  -0.761  -3.627  0.00  0.00     0.003 A 
ATOM      3  C2  UNL d   1      -2.271  -1.431  -2.465  0.00  0.00     0.048 A 
ATOM      4  C3  UNL d   1      -2.287  -0.762  -1.242  0.00  0.00     0.023 A 
ATOM      5  C4  UNL d   1      -2.689   0.573  -1.172  0.00  0.00     0.048 A 
ATOM      6  C5  UNL d   1      -3.077   1.239  -2.336  0.00  0.00     0.003 A 
ATOM      7  I   UNL d   1      -1.708  -1.758   0.488  0.00  0.00    -0.146 I 
ENDROOT
TORSDOF 0
ENDMDL
