MODEL 1
REMARK minimizedAffinity 11.5856972
REMARK minimizedRMSD -1
REMARK  0 active torsions:
REMARK  status: ('A' for Active; 'I' for Inactive)
ROOT
ATOM      1  C   UNL d   1      -2.378   1.457  -3.029  0.00  0.00     0.023 A 
ATOM      2  C1  UNL d   1      -2.654   1.697  -1.682  0.00  0.00     0.003 A 
ATOM      3  C2  UNL d   1      -3.290   2.879  -1.299  0.00  0.00     0.048 A 
ATOM      4  C3  UNL d   1      -3.649   3.817  -2.266  0.00  0.00     0.023 A 
ATOM      5  C4  UNL d   1      -3.376   3.581  -3.614  0.00  0.00     0.048 A 
ATOM      6  C5  UNL d   1      -2.738   2.398  -3.993  0.00  0.00     0.003 A 
ATOM      7  I   UNL d   1      -4.597   5.577  -1.697  0.00  0.00    -0.146 I 
ENDROOT
TORSDOF 0
ENDMDL
