MODEL 1
REMARK minimizedAffinity 2.86830306
REMARK minimizedRMSD -1
REMARK  0 active torsions:
REMARK  status: ('A' for Active; 'I' for Inactive)
ROOT
ATOM      1  C   UNL d   1       1.853  -1.994   2.760  0.00  0.00     0.023 A 
ATOM      2  C1  UNL d   1       2.058  -2.129   4.133  0.00  0.00     0.003 A 
ATOM      3  C2  UNL d   1       2.289  -0.999   4.920  0.00  0.00     0.048 A 
ATOM      4  C3  UNL d   1       2.314   0.263   4.328  0.00  0.00     0.023 A 
ATOM      5  C4  UNL d   1       2.109   0.403   2.955  0.00  0.00     0.048 A 
ATOM      6  C5  UNL d   1       1.878  -0.729   2.172  0.00  0.00     0.003 A 
ATOM      7  I   UNL d   1       2.658   1.946   5.498  0.00  0.00    -0.146 I 
ENDROOT
TORSDOF 0
ENDMDL
