MODEL 1
REMARK minimizedAffinity -3.98552299
REMARK minimizedRMSD -1
REMARK  0 active torsions:
REMARK  status: ('A' for Active; 'I' for Inactive)
ROOT
ATOM      1  C   UNL d   1      -3.175   1.182   2.597  0.00  0.00    -0.002 A 
ATOM      2  C1  UNL d   1      -2.139   1.398   3.496  0.00  0.00     0.010 A 
ATOM      3  C2  UNL d   1      -0.854   0.923   3.227  0.00  0.00     0.041 A 
ATOM      4  C3  UNL d   1      -0.625   0.220   2.027  0.00  0.00    -0.075 A 
ATOM      5  S   UNL d   1       0.867  -0.454   1.486  0.00  0.00     0.015 SA
ATOM      6  C4  UNL d   1       0.166  -1.044   0.050  0.00  0.00     0.022 A 
ATOM      7  C5  UNL d   1      -1.174  -0.744  -0.031  0.00  0.00     0.026 A 
ATOM      8  C6  UNL d   1      -1.651  -0.010   1.107  0.00  0.00    -0.082 A 
ATOM      9  C7  UNL d   1      -2.943   0.484   1.409  0.00  0.00     0.045 A 
ENDROOT
TORSDOF 0
ENDMDL
