MODEL 1
REMARK minimizedAffinity -2.41700387
REMARK minimizedRMSD -1
REMARK  0 active torsions:
REMARK  status: ('A' for Active; 'I' for Inactive)
ROOT
ATOM      1  C   UNL d   1       2.081   0.402  -3.074  0.00  0.00    -0.002 A 
ATOM      2  C1  UNL d   1       1.282   1.523  -2.903  0.00  0.00     0.010 A 
ATOM      3  C2  UNL d   1       0.342   1.575  -1.871  0.00  0.00     0.041 A 
ATOM      4  C3  UNL d   1       0.219   0.471  -1.005  0.00  0.00    -0.075 A 
ATOM      5  S   UNL d   1      -0.863   0.311   0.328  0.00  0.00     0.015 SA
ATOM      6  C4  UNL d   1      -0.289  -1.250   0.702  0.00  0.00     0.022 A 
ATOM      7  C5  UNL d   1       0.703  -1.654  -0.159  0.00  0.00     0.026 A 
ATOM      8  C6  UNL d   1       1.013  -0.669  -1.157  0.00  0.00    -0.082 A 
ATOM      9  C7  UNL d   1       1.956  -0.692  -2.213  0.00  0.00     0.045 A 
ENDROOT
TORSDOF 0
ENDMDL
