MODEL 1
REMARK minimizedAffinity -0.259708315
REMARK minimizedRMSD -1
REMARK  0 active torsions:
REMARK  status: ('A' for Active; 'I' for Inactive)
ROOT
ATOM      1  C   UNL d   1      -0.841  -0.974   1.930  0.00  0.00    -0.002 A 
ATOM      2  C1  UNL d   1      -1.301   0.257   1.485  0.00  0.00     0.010 A 
ATOM      3  C2  UNL d   1      -0.800   0.820   0.310  0.00  0.00     0.041 A 
ATOM      4  C3  UNL d   1       0.179   0.117  -0.419  0.00  0.00    -0.075 A 
ATOM      5  S   UNL d   1       0.937   0.610  -1.887  0.00  0.00     0.015 SA
ATOM      6  C4  UNL d   1       1.888  -0.802  -1.958  0.00  0.00     0.022 A 
ATOM      7  C5  UNL d   1       1.647  -1.640  -0.896  0.00  0.00     0.026 A 
ATOM      8  C6  UNL d   1       0.658  -1.125   0.008  0.00  0.00    -0.082 A 
ATOM      9  C7  UNL d   1       0.131  -1.669   1.205  0.00  0.00     0.045 A 
ENDROOT
TORSDOF 0
ENDMDL
