MODEL 1
REMARK minimizedAffinity -0.646102428
REMARK minimizedRMSD -1
REMARK  0 active torsions:
REMARK  status: ('A' for Active; 'I' for Inactive)
ROOT
ATOM      1  C   UNL d   1      -2.275   0.233   2.235  0.00  0.00    -0.002 A 
ATOM      2  C1  UNL d   1      -2.242   1.369   1.438  0.00  0.00     0.010 A 
ATOM      3  C2  UNL d   1      -1.346   1.462   0.371  0.00  0.00     0.041 A 
ATOM      4  C3  UNL d   1      -0.478   0.383   0.114  0.00  0.00    -0.075 A 
ATOM      5  S   UNL d   1       0.701   0.273  -1.139  0.00  0.00     0.015 SA
ATOM      6  C4  UNL d   1       1.188  -1.284  -0.647  0.00  0.00     0.022 A 
ATOM      7  C5  UNL d   1       0.479  -1.725   0.445  0.00  0.00     0.026 A 
ATOM      8  C6  UNL d   1      -0.493  -0.772   0.901  0.00  0.00    -0.082 A 
ATOM      9  C7  UNL d   1      -1.412  -0.836   1.976  0.00  0.00     0.045 A 
ENDROOT
TORSDOF 0
ENDMDL
