MODEL 1
REMARK minimizedAffinity -0.649938881
REMARK minimizedRMSD -1
REMARK  0 active torsions:
REMARK  status: ('A' for Active; 'I' for Inactive)
ROOT
ATOM      1  C   UNL d   1       0.340   2.448   1.008  0.00  0.00    -0.002 A 
ATOM      2  C1  UNL d   1      -0.280   1.626   0.077  0.00  0.00     0.010 A 
ATOM      3  C2  UNL d   1      -1.245   0.701   0.479  0.00  0.00     0.041 A 
ATOM      4  C3  UNL d   1      -1.581   0.615   1.844  0.00  0.00    -0.075 A 
ATOM      5  S   UNL d   1      -2.735  -0.443   2.567  0.00  0.00     0.015 SA
ATOM      6  C4  UNL d   1      -2.432   0.172   4.127  0.00  0.00     0.022 A 
ATOM      7  C5  UNL d   1      -1.477   1.161   4.116  0.00  0.00     0.026 A 
ATOM      8  C6  UNL d   1      -0.971   1.433   2.800  0.00  0.00    -0.082 A 
ATOM      9  C7  UNL d   1       0.004   2.361   2.361  0.00  0.00     0.045 A 
ENDROOT
TORSDOF 0
ENDMDL
