MODEL 1
REMARK minimizedAffinity 1.80204546
REMARK minimizedRMSD -1
REMARK  0 active torsions:
REMARK  status: ('A' for Active; 'I' for Inactive)
ROOT
ATOM      1  C   UNL d   1      -0.684  -0.513  -0.551  0.00  0.00    -0.002 A 
ATOM      2  C1  UNL d   1       0.244  -1.136   0.271  0.00  0.00     0.010 A 
ATOM      3  C2  UNL d   1       0.339  -0.795   1.622  0.00  0.00     0.041 A 
ATOM      4  C3  UNL d   1      -0.524   0.192   2.137  0.00  0.00    -0.075 A 
ATOM      5  S   UNL d   1      -0.589   0.772   3.760  0.00  0.00     0.015 SA
ATOM      6  C4  UNL d   1      -1.850   1.860   3.400  0.00  0.00     0.022 A 
ATOM      7  C5  UNL d   1      -2.225   1.796   2.079  0.00  0.00     0.026 A 
ATOM      8  C6  UNL d   1      -1.467   0.834   1.329  0.00  0.00    -0.082 A 
ATOM      9  C7  UNL d   1      -1.538   0.466  -0.036  0.00  0.00     0.045 A 
ENDROOT
TORSDOF 0
ENDMDL
