MODEL 1
REMARK minimizedAffinity -3.2948997
REMARK minimizedRMSD -1
REMARK  0 active torsions:
REMARK  status: ('A' for Active; 'I' for Inactive)
ROOT
ATOM      1  C   UNL d   1       0.503  -0.865  -0.038  0.00  0.00    -0.002 A 
ATOM      2  C1  UNL d   1      -0.393  -0.169  -0.838  0.00  0.00     0.010 A 
ATOM      3  C2  UNL d   1      -1.384   0.630  -0.265  0.00  0.00     0.041 A 
ATOM      4  C3  UNL d   1      -1.460   0.721   1.139  0.00  0.00    -0.075 A 
ATOM      5  S   UNL d   1      -2.590   1.639   2.062  0.00  0.00     0.015 SA
ATOM      6  C4  UNL d   1      -1.909   1.131   3.540  0.00  0.00     0.022 A 
ATOM      7  C5  UNL d   1      -0.845   0.281   3.352  0.00  0.00     0.026 A 
ATOM      8  C6  UNL d   1      -0.568   0.031   1.966  0.00  0.00    -0.082 A 
ATOM      9  C7  UNL d   1       0.425  -0.772   1.354  0.00  0.00     0.045 A 
ENDROOT
TORSDOF 0
ENDMDL
