MODEL 1
REMARK minimizedAffinity 0.809072137
REMARK minimizedRMSD -1
REMARK  0 active torsions:
REMARK  status: ('A' for Active; 'I' for Inactive)
ROOT
ATOM      1  C   UNL d   1      -1.046   0.613   4.064  0.00  0.00    -0.002 A 
ATOM      2  C1  UNL d   1      -1.774   1.669   3.537  0.00  0.00     0.010 A 
ATOM      3  C2  UNL d   1      -1.902   1.824   2.155  0.00  0.00     0.041 A 
ATOM      4  C3  UNL d   1      -1.281   0.888   1.304  0.00  0.00    -0.075 A 
ATOM      5  S   UNL d   1      -1.302   0.876  -0.420  0.00  0.00     0.015 SA
ATOM      6  C4  UNL d   1      -0.346  -0.533  -0.496  0.00  0.00     0.022 A 
ATOM      7  C5  UNL d   1      -0.009  -0.996   0.754  0.00  0.00     0.026 A 
ATOM      8  C6  UNL d   1      -0.543  -0.185   1.812  0.00  0.00    -0.082 A 
ATOM      9  C7  UNL d   1      -0.431  -0.314   3.218  0.00  0.00     0.045 A 
ENDROOT
TORSDOF 0
ENDMDL
