MODEL 1
REMARK minimizedAffinity -4.54904461
REMARK minimizedRMSD -1
REMARK  0 active torsions:
REMARK  status: ('A' for Active; 'I' for Inactive)
ROOT
ATOM      1  C   UNL d   1       1.918   1.007  -2.934  0.00  0.00    -0.002 A 
ATOM      2  C1  UNL d   1       0.886   1.833  -2.511  0.00  0.00     0.010 A 
ATOM      3  C2  UNL d   1       0.059   1.453  -1.453  0.00  0.00     0.041 A 
ATOM      4  C3  UNL d   1       0.290   0.216  -0.818  0.00  0.00    -0.075 A 
ATOM      5  S   UNL d   1      -0.595  -0.457   0.499  0.00  0.00     0.015 SA
ATOM      6  C4  UNL d   1       0.376  -1.857   0.533  0.00  0.00     0.022 A 
ATOM      7  C5  UNL d   1       1.356  -1.829  -0.430  0.00  0.00     0.026 A 
ATOM      8  C6  UNL d   1       1.323  -0.633  -1.225  0.00  0.00    -0.082 A 
ATOM      9  C7  UNL d   1       2.143  -0.219  -2.302  0.00  0.00     0.045 A 
ENDROOT
TORSDOF 0
ENDMDL
