MODEL 1
REMARK minimizedAffinity 3.1618638
REMARK minimizedRMSD -1
REMARK  0 active torsions:
REMARK  status: ('A' for Active; 'I' for Inactive)
ROOT
ATOM      1  C   UNL d   1      -1.771   0.411   4.142  0.00  0.00    -0.002 A 
ATOM      2  C1  UNL d   1      -2.419   1.541   3.664  0.00  0.00     0.010 A 
ATOM      3  C2  UNL d   1      -2.294   1.918   2.325  0.00  0.00     0.041 A 
ATOM      4  C3  UNL d   1      -1.501   1.131   1.466  0.00  0.00    -0.075 A 
ATOM      5  S   UNL d   1      -1.205   1.399  -0.211  0.00  0.00     0.015 SA
ATOM      6  C4  UNL d   1      -0.211   0.019  -0.332  0.00  0.00     0.022 A 
ATOM      7  C5  UNL d   1      -0.097  -0.641   0.869  0.00  0.00     0.026 A 
ATOM      8  C6  UNL d   1      -0.839  -0.012   1.925  0.00  0.00    -0.082 A 
ATOM      9  C7  UNL d   1      -0.985  -0.367   3.288  0.00  0.00     0.045 A 
ENDROOT
TORSDOF 0
ENDMDL
