MODEL 1
REMARK minimizedAffinity -2.06605268
REMARK minimizedRMSD -1
REMARK  0 active torsions:
REMARK  status: ('A' for Active; 'I' for Inactive)
ROOT
ATOM      1  C   UNL d   1       0.878  -0.638  -0.828  0.00  0.00    -0.002 A 
ATOM      2  C1  UNL d   1       1.391   0.644  -0.689  0.00  0.00     0.010 A 
ATOM      3  C2  UNL d   1       0.785   1.562   0.171  0.00  0.00     0.041 A 
ATOM      4  C3  UNL d   1      -0.356   1.166   0.897  0.00  0.00    -0.075 A 
ATOM      5  S   UNL d   1      -1.264   2.121   2.009  0.00  0.00     0.015 SA
ATOM      6  C4  UNL d   1      -2.353   0.849   2.326  0.00  0.00     0.022 A 
ATOM      7  C5  UNL d   1      -2.047  -0.283   1.609  0.00  0.00     0.026 A 
ATOM      8  C6  UNL d   1      -0.891  -0.120   0.774  0.00  0.00    -0.082 A 
ATOM      9  C7  UNL d   1      -0.254  -1.028  -0.106  0.00  0.00     0.045 A 
ENDROOT
TORSDOF 0
ENDMDL
