MODEL 1
REMARK minimizedAffinity -2.62525678
REMARK minimizedRMSD -1
REMARK  1 active torsions:
REMARK  status: ('A' for Active; 'I' for Inactive)
REMARK    1  A    between atoms: C1_2  and  C2_3 
ROOT
ATOM      1  C2  UNL d   1       0.422   1.973  -0.016  0.00  0.00    -0.077 A 
ATOM      2  C3  UNL d   1       1.680   2.038  -0.632  0.00  0.00     0.002 A 
ATOM      3  C4  UNL d   1       2.510   3.142  -0.429  0.00  0.00     0.002 A 
ATOM      4  C5  UNL d   1       2.094   4.187   0.394  0.00  0.00    -0.004 A 
ATOM      5  C6  UNL d   1       0.844   4.132   1.009  0.00  0.00     0.002 A 
ATOM      6  C7  UNL d   1       0.012   3.030   0.806  0.00  0.00     0.002 A 
ENDROOT
BRANCH   1   7
ATOM      7  C1  UNL d   1      -0.454   0.761  -0.195  0.00  0.00     0.055 C 
ATOM      8  C   UNL d   1       0.269  -0.511   0.221  0.00  0.00     0.019 C 
ENDBRANCH   1   7
TORSDOF 1
ENDMDL
