MODEL 1
REMARK minimizedAffinity -4.74672318
REMARK minimizedRMSD -1
REMARK  1 active torsions:
REMARK  status: ('A' for Active; 'I' for Inactive)
REMARK    1  A    between atoms: C1_2  and  C2_3 
ROOT
ATOM      1  C2  UNL d   1      -0.116  -0.304   0.656  0.00  0.00    -0.077 A 
ATOM      2  C3  UNL d   1       0.994  -1.094   0.328  0.00  0.00     0.002 A 
ATOM      3  C4  UNL d   1       0.919  -2.486   0.407  0.00  0.00     0.002 A 
ATOM      4  C5  UNL d   1      -0.266  -3.099   0.810  0.00  0.00    -0.004 A 
ATOM      5  C6  UNL d   1      -1.375  -2.322   1.140  0.00  0.00     0.002 A 
ATOM      6  C7  UNL d   1      -1.301  -0.930   1.063  0.00  0.00     0.002 A 
ENDROOT
BRANCH   1   7
ATOM      7  C1  UNL d   1      -0.052   1.195   0.524  0.00  0.00     0.055 C 
ATOM      8  C   UNL d   1       0.242   1.613  -0.910  0.00  0.00     0.019 C 
ENDBRANCH   1   7
TORSDOF 1
ENDMDL
