MODEL 1
REMARK minimizedAffinity -5.48716164
REMARK minimizedRMSD -1
REMARK  1 active torsions:
REMARK  status: ('A' for Active; 'I' for Inactive)
REMARK    1  A    between atoms: C1_2  and  C2_3 
ROOT
ATOM      1  C2  UNL d   1       0.238  -1.032  -0.229  0.00  0.00    -0.077 A 
ATOM      2  C3  UNL d   1       0.199  -1.274  -1.609  0.00  0.00     0.002 A 
ATOM      3  C4  UNL d   1       0.039  -2.574  -2.094  0.00  0.00     0.002 A 
ATOM      4  C5  UNL d   1      -0.087  -3.640  -1.207  0.00  0.00    -0.004 A 
ATOM      5  C6  UNL d   1      -0.047  -3.410   0.168  0.00  0.00     0.002 A 
ATOM      6  C7  UNL d   1       0.114  -2.112   0.655  0.00  0.00     0.002 A 
ENDROOT
BRANCH   1   7
ATOM      7  C1  UNL d   1       0.361   0.374   0.296  0.00  0.00     0.055 C 
ATOM      8  C   UNL d   1      -0.344   1.369  -0.614  0.00  0.00     0.019 C 
ENDBRANCH   1   7
TORSDOF 1
ENDMDL
