MODEL 1
REMARK minimizedAffinity -3.19779515
REMARK minimizedRMSD -1
REMARK  1 active torsions:
REMARK  status: ('A' for Active; 'I' for Inactive)
REMARK    1  A    between atoms: C1_2  and  C2_3 
ROOT
ATOM      1  C2  UNL d   1       0.239  -1.217   0.594  0.00  0.00    -0.077 A 
ATOM      2  C3  UNL d   1      -0.855  -0.854   1.392  0.00  0.00     0.002 A 
ATOM      3  C4  UNL d   1      -1.320   0.462   1.396  0.00  0.00     0.002 A 
ATOM      4  C5  UNL d   1      -0.700   1.425   0.602  0.00  0.00    -0.004 A 
ATOM      5  C6  UNL d   1       0.390   1.075  -0.193  0.00  0.00     0.002 A 
ATOM      6  C7  UNL d   1       0.857  -0.241  -0.198  0.00  0.00     0.002 A 
ENDROOT
BRANCH   1   7
ATOM      7  C1  UNL d   1       0.712  -2.647   0.550  0.00  0.00     0.055 C 
ATOM      8  C   UNL d   1      -0.456  -3.611   0.402  0.00  0.00     0.019 C 
ENDBRANCH   1   7
TORSDOF 1
ENDMDL
