MODEL 1
REMARK minimizedAffinity -4.75882626
REMARK minimizedRMSD -1
REMARK  1 active torsions:
REMARK  status: ('A' for Active; 'I' for Inactive)
REMARK    1  A    between atoms: C1_2  and  C2_3 
ROOT
ATOM      1  C2  UNL d   1       0.219  -0.940  -0.480  0.00  0.00    -0.077 A 
ATOM      2  C3  UNL d   1      -0.113  -2.035   0.331  0.00  0.00     0.002 A 
ATOM      3  C4  UNL d   1      -0.255  -3.308  -0.225  0.00  0.00     0.002 A 
ATOM      4  C5  UNL d   1      -0.064  -3.499  -1.591  0.00  0.00    -0.004 A 
ATOM      5  C6  UNL d   1       0.265  -2.417  -2.406  0.00  0.00     0.002 A 
ATOM      6  C7  UNL d   1       0.406  -1.143  -1.853  0.00  0.00     0.002 A 
ENDROOT
BRANCH   1   7
ATOM      7  C1  UNL d   1       0.421   0.424   0.125  0.00  0.00     0.055 C 
ATOM      8  C   UNL d   1      -0.011   1.524  -0.835  0.00  0.00     0.019 C 
ENDBRANCH   1   7
TORSDOF 1
ENDMDL
