MODEL 1
REMARK minimizedAffinity -5.67927885
REMARK minimizedRMSD -1
REMARK  1 active torsions:
REMARK  status: ('A' for Active; 'I' for Inactive)
REMARK    1  A    between atoms: C1_2  and  C2_3 
ROOT
ATOM      1  C2  UNL d   1       0.027  -1.168  -0.020  0.00  0.00    -0.077 A 
ATOM      2  C3  UNL d   1      -0.289  -2.478   0.364  0.00  0.00     0.002 A 
ATOM      3  C4  UNL d   1      -0.295  -3.508  -0.579  0.00  0.00     0.002 A 
ATOM      4  C5  UNL d   1       0.018  -3.239  -1.909  0.00  0.00    -0.004 A 
ATOM      5  C6  UNL d   1       0.332  -1.938  -2.301  0.00  0.00     0.002 A 
ATOM      6  C7  UNL d   1       0.338  -0.907  -1.360  0.00  0.00     0.002 A 
ENDROOT
BRANCH   1   7
ATOM      7  C1  UNL d   1       0.083  -0.064   1.005  0.00  0.00     0.055 C 
ATOM      8  C   UNL d   1       0.368   1.281   0.354  0.00  0.00     0.019 C 
ENDBRANCH   1   7
TORSDOF 1
ENDMDL
