MODEL 1
REMARK minimizedAffinity -3.06737232
REMARK minimizedRMSD -1
REMARK  1 active torsions:
REMARK  status: ('A' for Active; 'I' for Inactive)
REMARK    1  A    between atoms: C1_2  and  C2_3 
ROOT
ATOM      1  C2  UNL d   1      -0.316  -0.731  -0.688  0.00  0.00    -0.077 A 
ATOM      2  C3  UNL d   1      -0.048  -1.160  -1.996  0.00  0.00     0.002 A 
ATOM      3  C4  UNL d   1      -0.280  -2.486  -2.366  0.00  0.00     0.002 A 
ATOM      4  C5  UNL d   1      -0.784  -3.392  -1.436  0.00  0.00    -0.004 A 
ATOM      5  C6  UNL d   1      -1.052  -2.977  -0.133  0.00  0.00     0.002 A 
ATOM      6  C7  UNL d   1      -0.819  -1.652   0.239  0.00  0.00     0.002 A 
ENDROOT
BRANCH   1   7
ATOM      7  C1  UNL d   1      -0.113   0.710  -0.301  0.00  0.00     0.055 C 
ATOM      8  C   UNL d   1      -1.418   1.490  -0.364  0.00  0.00     0.019 C 
ENDBRANCH   1   7
TORSDOF 1
ENDMDL
