MODEL 1
REMARK minimizedAffinity -4.28254318
REMARK minimizedRMSD -1
REMARK  1 active torsions:
REMARK  status: ('A' for Active; 'I' for Inactive)
REMARK    1  A    between atoms: C1_2  and  C2_3 
ROOT
ATOM      1  C2  UNL d   1       0.472   2.054   0.063  0.00  0.00    -0.077 A 
ATOM      2  C3  UNL d   1       1.476   2.477  -0.819  0.00  0.00     0.002 A 
ATOM      3  C4  UNL d   1       2.157   3.675  -0.592  0.00  0.00     0.002 A 
ATOM      4  C5  UNL d   1       1.845   4.456   0.518  0.00  0.00    -0.004 A 
ATOM      5  C6  UNL d   1       0.847   4.045   1.401  0.00  0.00     0.002 A 
ATOM      6  C7  UNL d   1       0.164   2.849   1.175  0.00  0.00     0.002 A 
ENDROOT
BRANCH   1   7
ATOM      7  C1  UNL d   1      -0.230   0.739  -0.153  0.00  0.00     0.055 C 
ATOM      8  C   UNL d   1       0.174  -0.283   0.899  0.00  0.00     0.019 C 
ENDBRANCH   1   7
TORSDOF 1
ENDMDL
