MODEL 1
REMARK minimizedAffinity -2.14320922
REMARK minimizedRMSD -1
REMARK  0 active torsions:
REMARK  status: ('A' for Active; 'I' for Inactive)
ROOT
ATOM      1  C   UNL d   1       5.985  -2.911   1.712  0.00  0.00    -0.002 A 
ATOM      2  C1  UNL d   1       5.961  -1.947   2.710  0.00  0.00     0.010 A 
ATOM      3  C2  UNL d   1       5.947  -2.319   4.056  0.00  0.00     0.041 A 
ATOM      4  C3  UNL d   1       5.958  -3.688   4.385  0.00  0.00    -0.075 A 
ATOM      5  S   UNL d   1       5.945  -4.378   5.965  0.00  0.00     0.015 SA
ATOM      6  C4  UNL d   1       5.971  -5.968   5.353  0.00  0.00     0.022 A 
ATOM      7  C5  UNL d   1       5.990  -5.991   3.978  0.00  0.00     0.026 A 
ATOM      8  C6  UNL d   1       5.983  -4.677   3.398  0.00  0.00    -0.082 A 
ATOM      9  C7  UNL d   1       5.997  -4.269   2.043  0.00  0.00     0.045 A 
ENDROOT
TORSDOF 0
ENDMDL
