MODEL 1
REMARK minimizedAffinity -3.2473855
REMARK minimizedRMSD -1
REMARK  0 active torsions:
REMARK  status: ('A' for Active; 'I' for Inactive)
ROOT
ATOM      1  C   UNL d   1       5.994  -2.639   1.560  0.00  0.00    -0.002 A 
ATOM      2  C1  UNL d   1       5.990  -3.980   1.202  0.00  0.00     0.010 A 
ATOM      3  C2  UNL d   1       5.992  -4.976   2.180  0.00  0.00     0.041 A 
ATOM      4  C3  UNL d   1       5.994  -4.599   3.537  0.00  0.00    -0.075 A 
ATOM      5  S   UNL d   1       5.996  -5.646   4.907  0.00  0.00     0.015 SA
ATOM      6  C4  UNL d   1       5.999  -4.338   6.000  0.00  0.00     0.022 A 
ATOM      7  C5  UNL d   1       6.000  -3.125   5.353  0.00  0.00     0.026 A 
ATOM      8  C6  UNL d   1       5.997  -3.256   3.923  0.00  0.00    -0.082 A 
ATOM      9  C7  UNL d   1       5.996  -2.269   2.907  0.00  0.00     0.045 A 
ENDROOT
TORSDOF 0
ENDMDL
