MODEL 1
REMARK minimizedAffinity -3.36578321
REMARK minimizedRMSD -1
REMARK  0 active torsions:
REMARK  status: ('A' for Active; 'I' for Inactive)
ROOT
ATOM      1  C   UNL d   1       6.000  -3.619   1.536  0.00  0.00    -0.002 A 
ATOM      2  C1  UNL d   1       5.822  -2.382   2.138  0.00  0.00     0.010 A 
ATOM      3  C2  UNL d   1       5.639  -2.283   3.519  0.00  0.00     0.041 A 
ATOM      4  C3  UNL d   1       5.639  -3.461   4.292  0.00  0.00    -0.075 A 
ATOM      5  S   UNL d   1       5.434  -3.583   5.999  0.00  0.00     0.015 SA
ATOM      6  C4  UNL d   1       5.579  -5.281   5.970  0.00  0.00     0.022 A 
ATOM      7  C5  UNL d   1       5.779  -5.760   4.697  0.00  0.00     0.026 A 
ATOM      8  C6  UNL d   1       5.817  -4.718   3.709  0.00  0.00    -0.082 A 
ATOM      9  C7  UNL d   1       6.000  -4.785   2.306  0.00  0.00     0.045 A 
ENDROOT
TORSDOF 0
ENDMDL
