MODEL 1
REMARK minimizedAffinity -3.83195853
REMARK minimizedRMSD -1
REMARK  0 active torsions:
REMARK  status: ('A' for Active; 'I' for Inactive)
ROOT
ATOM      1  C   UNL d   1       5.999  -2.802   1.990  0.00  0.00    -0.002 A 
ATOM      2  C1  UNL d   1       5.611  -1.882   2.954  0.00  0.00     0.010 A 
ATOM      3  C2  UNL d   1       5.216  -2.307   4.223  0.00  0.00     0.041 A 
ATOM      4  C3  UNL d   1       5.218  -3.686   4.512  0.00  0.00    -0.075 A 
ATOM      5  S   UNL d   1       4.773  -4.438   5.998  0.00  0.00     0.015 SA
ATOM      6  C4  UNL d   1       5.089  -5.998   5.389  0.00  0.00     0.022 A 
ATOM      7  C5  UNL d   1       5.522  -5.965   4.085  0.00  0.00     0.026 A 
ATOM      8  C6  UNL d   1       5.605  -4.632   3.558  0.00  0.00    -0.082 A 
ATOM      9  C7  UNL d   1       6.000  -4.169   2.280  0.00  0.00     0.045 A 
ENDROOT
TORSDOF 0
ENDMDL
