MODEL 1
REMARK minimizedAffinity -0.51737535
REMARK minimizedRMSD -1
REMARK  0 active torsions:
REMARK  status: ('A' for Active; 'I' for Inactive)
ROOT
ATOM      1  C   UNL d   1       5.407  -4.402   6.000  0.00  0.00    -0.002 A 
ATOM      2  C1  UNL d   1       5.485  -3.053   5.683  0.00  0.00     0.010 A 
ATOM      3  C2  UNL d   1       5.669  -2.644   4.360  0.00  0.00     0.041 A 
ATOM      4  C3  UNL d   1       5.773  -3.622   3.352  0.00  0.00    -0.075 A 
ATOM      5  S   UNL d   1       6.000  -3.355   1.664  0.00  0.00     0.015 SA
ATOM      6  C4  UNL d   1       5.999  -5.025   1.324  0.00  0.00     0.022 A 
ATOM      7  C5  UNL d   1       5.831  -5.782   2.459  0.00  0.00     0.026 A 
ATOM      8  C6  UNL d   1       5.697  -4.986   3.647  0.00  0.00    -0.082 A 
ATOM      9  C7  UNL d   1       5.511  -5.369   4.997  0.00  0.00     0.045 A 
ENDROOT
TORSDOF 0
ENDMDL
