MODEL 1
REMARK minimizedAffinity 0.68147856
REMARK minimizedRMSD -1
REMARK  0 active torsions:
REMARK  status: ('A' for Active; 'I' for Inactive)
ROOT
ATOM      1  C   UNL d   1       4.102  -5.845   5.330  0.00  0.00    -0.002 A 
ATOM      2  C1  UNL d   1       4.331  -6.000   3.970  0.00  0.00     0.010 A 
ATOM      3  C2  UNL d   1       4.904  -4.967   3.224  0.00  0.00     0.041 A 
ATOM      4  C3  UNL d   1       5.247  -3.766   3.875  0.00  0.00    -0.075 A 
ATOM      5  S   UNL d   1       5.960  -2.366   3.165  0.00  0.00     0.015 SA
ATOM      6  C4  UNL d   1       5.977  -1.530   4.650  0.00  0.00     0.022 A 
ATOM      7  C5  UNL d   1       5.455  -2.285   5.673  0.00  0.00     0.026 A 
ATOM      8  C6  UNL d   1       5.026  -3.587   5.244  0.00  0.00    -0.082 A 
ATOM      9  C7  UNL d   1       4.443  -4.652   5.972  0.00  0.00     0.045 A 
ENDROOT
TORSDOF 0
ENDMDL
