MODEL 1
REMARK minimizedAffinity -2.63961744
REMARK minimizedRMSD -1
REMARK  0 active torsions:
REMARK  status: ('A' for Active; 'I' for Inactive)
ROOT
ATOM      1  C   UNL d   1       5.984  -5.862   2.572  0.00  0.00    -0.002 A 
ATOM      2  C1  UNL d   1       5.999  -4.767   1.720  0.00  0.00     0.010 A 
ATOM      3  C2  UNL d   1       5.986  -3.468   2.233  0.00  0.00     0.041 A 
ATOM      4  C3  UNL d   1       5.959  -3.287   3.630  0.00  0.00    -0.075 A 
ATOM      5  S   UNL d   1       5.941  -1.790   4.484  0.00  0.00     0.015 SA
ATOM      6  C4  UNL d   1       5.913  -2.569   6.000  0.00  0.00     0.022 A 
ATOM      7  C5  UNL d   1       5.917  -3.938   5.876  0.00  0.00     0.026 A 
ATOM      8  C6  UNL d   1       5.944  -4.375   4.508  0.00  0.00    -0.082 A 
ATOM      9  C7  UNL d   1       5.957  -5.679   3.957  0.00  0.00     0.045 A 
ENDROOT
TORSDOF 0
ENDMDL
