MODEL 1
REMARK minimizedAffinity -1.78873038
REMARK minimizedRMSD -1
REMARK  0 active torsions:
REMARK  status: ('A' for Active; 'I' for Inactive)
ROOT
ATOM      1  C   UNL d   1       5.138  -4.457   5.970  0.00  0.00    -0.002 A 
ATOM      2  C1  UNL d   1       5.249  -3.098   5.713  0.00  0.00     0.010 A 
ATOM      3  C2  UNL d   1       5.516  -2.638   4.422  0.00  0.00     0.041 A 
ATOM      4  C3  UNL d   1       5.669  -3.576   3.383  0.00  0.00    -0.075 A 
ATOM      5  S   UNL d   1       6.000  -3.245   1.724  0.00  0.00     0.015 SA
ATOM      6  C4  UNL d   1       6.000  -4.899   1.316  0.00  0.00     0.022 A 
ATOM      7  C5  UNL d   1       5.756  -5.700   2.407  0.00  0.00     0.026 A 
ATOM      8  C6  UNL d   1       5.561  -4.950   3.616  0.00  0.00    -0.082 A 
ATOM      9  C7  UNL d   1       5.290  -5.385   4.936  0.00  0.00     0.045 A 
ENDROOT
TORSDOF 0
ENDMDL
