MODEL 1
REMARK minimizedAffinity -2.45315051
REMARK minimizedRMSD -1
REMARK  0 active torsions:
REMARK  status: ('A' for Active; 'I' for Inactive)
ROOT
ATOM      1  C   UNL d   1       5.970  -3.257   1.503  0.00  0.00    -0.002 A 
ATOM      2  C1  UNL d   1       5.995  -1.999   2.091  0.00  0.00     0.010 A 
ATOM      3  C2  UNL d   1       6.000  -1.865   3.480  0.00  0.00     0.041 A 
ATOM      4  C3  UNL d   1       5.980  -3.026   4.278  0.00  0.00    -0.075 A 
ATOM      5  S   UNL d   1       5.982  -3.104   6.000  0.00  0.00     0.015 SA
ATOM      6  C4  UNL d   1       5.949  -4.808   5.997  0.00  0.00     0.022 A 
ATOM      7  C5  UNL d   1       5.937  -5.322   4.721  0.00  0.00     0.026 A 
ATOM      8  C6  UNL d   1       5.955  -4.303   3.710  0.00  0.00    -0.082 A 
ATOM      9  C7  UNL d   1       5.950  -4.406   2.298  0.00  0.00     0.045 A 
ENDROOT
TORSDOF 0
ENDMDL
