MODEL 1
REMARK minimizedAffinity 5.55636311
REMARK minimizedRMSD -1
REMARK  0 active torsions:
REMARK  status: ('A' for Active; 'I' for Inactive)
ROOT
ATOM      1  C   UNL d   1       5.946  -2.046   3.250  0.00  0.00    -0.002 A 
ATOM      2  C1  UNL d   1       5.939  -3.026   2.267  0.00  0.00     0.010 A 
ATOM      3  C2  UNL d   1       5.381  -4.281   2.520  0.00  0.00     0.041 A 
ATOM      4  C3  UNL d   1       4.824  -4.536   3.788  0.00  0.00    -0.075 A 
ATOM      5  S   UNL d   1       4.085  -5.999   4.324  0.00  0.00     0.015 SA
ATOM      6  C4  UNL d   1       3.762  -5.357   5.869  0.00  0.00     0.022 A 
ATOM      7  C5  UNL d   1       4.200  -4.060   5.991  0.00  0.00     0.026 A 
ATOM      8  C6  UNL d   1       4.819  -3.565   4.794  0.00  0.00    -0.082 A 
ATOM      9  C7  UNL d   1       5.393  -2.303   4.507  0.00  0.00     0.045 A 
ENDROOT
TORSDOF 0
ENDMDL
