MODEL 1
REMARK minimizedAffinity -3.63398695
REMARK minimizedRMSD -1
REMARK  0 active torsions:
REMARK  status: ('A' for Active; 'I' for Inactive)
ROOT
ATOM      1  C   UNL d   1       5.637  -2.839   1.492  0.00  0.00    -0.002 A 
ATOM      2  C1  UNL d   1       5.911  -4.169   1.204  0.00  0.00     0.010 A 
ATOM      3  C2  UNL d   1       5.998  -5.114   2.228  0.00  0.00     0.041 A 
ATOM      4  C3  UNL d   1       5.802  -4.697   3.559  0.00  0.00    -0.075 A 
ATOM      5  S   UNL d   1       5.861  -5.678   4.976  0.00  0.00     0.015 SA
ATOM      6  C4  UNL d   1       5.524  -4.356   5.997  0.00  0.00     0.022 A 
ATOM      7  C5  UNL d   1       5.367  -3.186   5.291  0.00  0.00     0.026 A 
ATOM      8  C6  UNL d   1       5.525  -3.364   3.875  0.00  0.00    -0.082 A 
ATOM      9  C7  UNL d   1       5.444  -2.429   2.814  0.00  0.00     0.045 A 
ENDROOT
TORSDOF 0
ENDMDL
