MODEL 1
REMARK minimizedAffinity 5.01877832
REMARK minimizedRMSD -1
REMARK  0 active torsions:
REMARK  status: ('A' for Active; 'I' for Inactive)
ROOT
ATOM      1  C   UNL d   1       3.380  -3.760   0.312  0.00  0.00     0.020 A 
ATOM      2  C1  UNL d   1       3.697  -2.468   0.729  0.00  0.00     0.020 A 
ATOM      3  C2  UNL d   1       4.178  -2.250   2.022  0.00  0.00     0.034 A 
ATOM      4  C3  UNL d   1       4.343  -3.325   2.903  0.00  0.00     0.017 A 
ATOM      5  C4  UNL d   1       4.024  -4.622   2.483  0.00  0.00     0.017 A 
ATOM      6  C5  UNL d   1       3.543  -4.835   1.188  0.00  0.00     0.034 A 
ATOM      7 Cl   UNL d   1       4.200  -5.999   3.513  0.00  0.00    -0.070 Cl
ATOM      8 Cl1  UNL d   1       4.942  -2.982   4.486  0.00  0.00    -0.070 Cl
ENDROOT
TORSDOF 0
ENDMDL
