MODEL 1
REMARK minimizedAffinity 6.43379354
REMARK minimizedRMSD -1
REMARK  0 active torsions:
REMARK  status: ('A' for Active; 'I' for Inactive)
ROOT
ATOM      1  C   UNL d   1       1.930  -2.449   0.209  0.00  0.00     0.020 A 
ATOM      2  C1  UNL d   1       1.591  -1.897   1.443  0.00  0.00     0.020 A 
ATOM      3  C2  UNL d   1       2.383  -2.154   2.564  0.00  0.00     0.034 A 
ATOM      4  C3  UNL d   1       3.518  -2.965   2.453  0.00  0.00     0.017 A 
ATOM      5  C4  UNL d   1       3.857  -3.520   1.214  0.00  0.00     0.017 A 
ATOM      6  C5  UNL d   1       3.061  -3.259   0.095  0.00  0.00     0.034 A 
ATOM      7 Cl   UNL d   1       5.242  -4.531   0.999  0.00  0.00    -0.070 Cl
ATOM      8 Cl1  UNL d   1       4.451  -3.241   3.881  0.00  0.00    -0.070 Cl
ENDROOT
TORSDOF 0
ENDMDL
