MODEL 1
REMARK minimizedAffinity 3.32099771
REMARK minimizedRMSD -1
REMARK  0 active torsions:
REMARK  status: ('A' for Active; 'I' for Inactive)
ROOT
ATOM      1  C   UNL d   1       3.371  -3.871   1.237  0.00  0.00     0.020 A 
ATOM      2  C1  UNL d   1       2.232  -3.218   0.768  0.00  0.00     0.020 A 
ATOM      3  C2  UNL d   1       1.618  -2.238   1.550  0.00  0.00     0.034 A 
ATOM      4  C3  UNL d   1       2.142  -1.908   2.805  0.00  0.00     0.017 A 
ATOM      5  C4  UNL d   1       3.285  -2.564   3.275  0.00  0.00     0.017 A 
ATOM      6  C5  UNL d   1       3.897  -3.545   2.488  0.00  0.00     0.034 A 
ATOM      7 Cl   UNL d   1       3.990  -2.211   4.813  0.00  0.00    -0.070 Cl
ATOM      8 Cl1  UNL d   1       1.331  -0.686   3.719  0.00  0.00    -0.070 Cl
ENDROOT
TORSDOF 0
ENDMDL
