MODEL 1
REMARK minimizedAffinity 4.56291437
REMARK minimizedRMSD -1
REMARK  0 active torsions:
REMARK  status: ('A' for Active; 'I' for Inactive)
ROOT
ATOM      1  C   UNL d   1      -4.845  -1.938  -2.760  0.00  0.00     0.020 A 
ATOM      2  C1  UNL d   1      -3.693  -1.640  -2.033  0.00  0.00     0.020 A 
ATOM      3  C2  UNL d   1      -3.031  -0.428  -2.240  0.00  0.00     0.034 A 
ATOM      4  C3  UNL d   1      -3.520   0.491  -3.176  0.00  0.00     0.017 A 
ATOM      5  C4  UNL d   1      -4.677   0.191  -3.905  0.00  0.00     0.017 A 
ATOM      6  C5  UNL d   1      -5.336  -1.024  -3.694  0.00  0.00     0.034 A 
ATOM      7 Cl   UNL d   1      -5.341   1.274  -5.077  0.00  0.00    -0.070 Cl
ATOM      8 Cl1  UNL d   1      -2.651   1.970  -3.380  0.00  0.00    -0.070 Cl
ENDROOT
TORSDOF 0
ENDMDL
