MODEL 1
REMARK minimizedAffinity -1.32498384
REMARK minimizedRMSD -1
REMARK  0 active torsions:
REMARK  status: ('A' for Active; 'I' for Inactive)
ROOT
ATOM      1  C   UNL d   1       2.103   3.597  -5.958  0.00  0.00     0.020 A 
ATOM      2  C1  UNL d   1       2.087   4.991  -5.979  0.00  0.00     0.020 A 
ATOM      3  C2  UNL d   1       3.288   5.703  -5.991  0.00  0.00     0.034 A 
ATOM      4  C3  UNL d   1       4.510   5.022  -5.983  0.00  0.00     0.017 A 
ATOM      5  C4  UNL d   1       4.526   3.622  -5.963  0.00  0.00     0.017 A 
ATOM      6  C5  UNL d   1       3.320   2.914  -5.951  0.00  0.00     0.034 A 
ATOM      7 Cl   UNL d   1       5.995   2.712  -5.952  0.00  0.00    -0.070 Cl
ATOM      8 Cl1  UNL d   1       5.957   5.966  -6.000  0.00  0.00    -0.070 Cl
ENDROOT
TORSDOF 0
ENDMDL
