MODEL 1
REMARK minimizedAffinity 15.5034227
REMARK minimizedRMSD -1
REMARK  0 active torsions:
REMARK  status: ('A' for Active; 'I' for Inactive)
ROOT
ATOM      1  C   UNL d   1      -3.004   0.415  -1.479  0.00  0.00     0.020 A 
ATOM      2  C1  UNL d   1      -2.676  -0.927  -1.290  0.00  0.00     0.020 A 
ATOM      3  C2  UNL d   1      -3.377  -1.920  -1.977  0.00  0.00     0.034 A 
ATOM      4  C3  UNL d   1      -4.410  -1.573  -2.856  0.00  0.00     0.017 A 
ATOM      5  C4  UNL d   1      -4.738  -0.226  -3.044  0.00  0.00     0.017 A 
ATOM      6  C5  UNL d   1      -4.033   0.765  -2.354  0.00  0.00     0.034 A 
ATOM      7 Cl   UNL d   1      -6.000   0.280  -4.112  0.00  0.00    -0.070 Cl
ATOM      8 Cl1  UNL d   1      -5.234  -2.853  -3.672  0.00  0.00    -0.070 Cl
ENDROOT
TORSDOF 0
ENDMDL
