MODEL 1
REMARK minimizedAffinity 10.0285311
REMARK minimizedRMSD -1
REMARK  0 active torsions:
REMARK  status: ('A' for Active; 'I' for Inactive)
ROOT
ATOM      1  C   UNL d   1       2.121  -3.944  -0.159  0.00  0.00     0.020 A 
ATOM      2  C1  UNL d   1       3.057  -4.718   0.524  0.00  0.00     0.020 A 
ATOM      3  C2  UNL d   1       3.499  -4.324   1.789  0.00  0.00     0.034 A 
ATOM      4  C3  UNL d   1       3.004  -3.153   2.374  0.00  0.00     0.017 A 
ATOM      5  C4  UNL d   1       2.063  -2.377   1.687  0.00  0.00     0.017 A 
ATOM      6  C5  UNL d   1       1.625  -2.776   0.421  0.00  0.00     0.034 A 
ATOM      7 Cl   UNL d   1       1.406  -0.920   2.345  0.00  0.00    -0.070 Cl
ATOM      8 Cl1  UNL d   1       3.593  -2.727   3.941  0.00  0.00    -0.070 Cl
ENDROOT
TORSDOF 0
ENDMDL
