MODEL 1
REMARK minimizedAffinity 9.75951099
REMARK minimizedRMSD -1
REMARK  0 active torsions:
REMARK  status: ('A' for Active; 'I' for Inactive)
ROOT
ATOM      1  C   UNL d   1       4.726  -5.095   1.026  0.00  0.00     0.020 A 
ATOM      2  C1  UNL d   1       5.897  -4.396   0.735  0.00  0.00     0.020 A 
ATOM      3  C2  UNL d   1       5.848  -3.022   0.493  0.00  0.00     0.034 A 
ATOM      4  C3  UNL d   1       4.625  -2.342   0.541  0.00  0.00     0.017 A 
ATOM      5  C4  UNL d   1       3.451  -3.044   0.834  0.00  0.00     0.017 A 
ATOM      6  C5  UNL d   1       3.506  -4.420   1.076  0.00  0.00     0.034 A 
ATOM      7 Cl   UNL d   1       1.905  -2.274   0.912  0.00  0.00    -0.070 Cl
ATOM      8 Cl1  UNL d   1       4.638  -0.642   0.232  0.00  0.00    -0.070 Cl
ENDROOT
TORSDOF 0
ENDMDL
