MODEL 1
REMARK minimizedAffinity -2.11571479
REMARK minimizedRMSD -1
REMARK  1 active torsions:
REMARK  status: ('A' for Active; 'I' for Inactive)
REMARK    1  A    between atoms: C1_2  and  C2_3 
ROOT
ATOM      1  C2  UNL d   1       0.728  -1.075   0.416  0.00  0.00    -0.076 A 
ATOM      2  C3  UNL d   1      -0.496  -1.111  -0.275  0.00  0.00     0.004 A 
ATOM      3  C4  UNL d   1      -1.568  -0.314   0.122  0.00  0.00    -0.003 A 
ATOM      4  C5  UNL d   1      -1.434   0.533   1.217  0.00  0.00     0.000 A 
ATOM      5  C6  UNL d   1      -0.222   0.595   1.903  0.00  0.00     0.000 A 
ATOM      6  C7  UNL d   1       0.874  -0.190   1.506  0.00  0.00    -0.073 A 
ATOM      7  C8  UNL d   1       2.156  -0.087   2.286  0.00  0.00     0.078 C 
ENDROOT
BRANCH   1   8
ATOM      8  C1  UNL d   1       1.847  -1.981  -0.044  0.00  0.00     0.053 C 
ATOM      9  C   UNL d   1       1.391  -3.420  -0.231  0.00  0.00     0.018 C 
ENDBRANCH   1   8
TORSDOF 1
ENDMDL
