MODEL 1
REMARK minimizedAffinity -3.31113172
REMARK minimizedRMSD -1
REMARK  1 active torsions:
REMARK  status: ('A' for Active; 'I' for Inactive)
REMARK    1  A    between atoms: C1_2  and  C2_3 
ROOT
ATOM      1  C2  UNL d   1       0.310  -1.375   0.523  0.00  0.00    -0.076 A 
ATOM      2  C3  UNL d   1       1.392  -0.546   0.866  0.00  0.00     0.004 A 
ATOM      3  C4  UNL d   1       2.707  -0.981   0.711  0.00  0.00    -0.003 A 
ATOM      4  C5  UNL d   1       2.961  -2.252   0.209  0.00  0.00     0.000 A 
ATOM      5  C6  UNL d   1       1.900  -3.082  -0.154  0.00  0.00     0.000 A 
ATOM      6  C7  UNL d   1       0.569  -2.652  -0.019  0.00  0.00    -0.073 A 
ATOM      7  C8  UNL d   1      -0.536  -3.590  -0.420  0.00  0.00     0.078 C 
ENDROOT
BRANCH   1   8
ATOM      8  C1  UNL d   1      -1.095  -0.859   0.738  0.00  0.00     0.053 C 
ATOM      9  C   UNL d   1      -1.155   0.252   1.776  0.00  0.00     0.018 C 
ENDBRANCH   1   8
TORSDOF 1
ENDMDL
