MODEL 1
REMARK minimizedAffinity -2.67970181
REMARK minimizedRMSD -1
REMARK  1 active torsions:
REMARK  status: ('A' for Active; 'I' for Inactive)
REMARK    1  A    between atoms: C1_2  and  C2_3 
ROOT
ATOM      1  C2  UNL d   1      -0.015  -0.276   1.286  0.00  0.00    -0.076 A 
ATOM      2  C3  UNL d   1      -0.693   0.828   1.831  0.00  0.00     0.004 A 
ATOM      3  C4  UNL d   1      -2.062   0.997   1.635  0.00  0.00    -0.003 A 
ATOM      4  C5  UNL d   1      -2.777   0.064   0.892  0.00  0.00     0.000 A 
ATOM      5  C6  UNL d   1      -2.124  -1.047   0.359  0.00  0.00     0.000 A 
ATOM      6  C7  UNL d   1      -0.746  -1.241   0.561  0.00  0.00    -0.073 A 
ATOM      7  C8  UNL d   1      -0.092  -2.454  -0.042  0.00  0.00     0.078 C 
ENDROOT
BRANCH   1   8
ATOM      8  C1  UNL d   1       1.476  -0.392   1.508  0.00  0.00     0.053 C 
ATOM      9  C   UNL d   1       2.263  -0.370   0.207  0.00  0.00     0.018 C 
ENDBRANCH   1   8
TORSDOF 1
ENDMDL
