MODEL 1
REMARK minimizedAffinity 2.77624488
REMARK minimizedRMSD -1
REMARK  1 active torsions:
REMARK  status: ('A' for Active; 'I' for Inactive)
REMARK    1  A    between atoms: C1_2  and  C2_3 
ROOT
ATOM      1  C2  UNL d   1      -0.312  -1.489   0.894  0.00  0.00    -0.076 A 
ATOM      2  C3  UNL d   1      -1.521  -1.315   0.200  0.00  0.00     0.004 A 
ATOM      3  C4  UNL d   1      -2.367  -0.246   0.490  0.00  0.00    -0.003 A 
ATOM      4  C5  UNL d   1      -2.017   0.666   1.479  0.00  0.00     0.000 A 
ATOM      5  C6  UNL d   1      -0.812   0.519   2.166  0.00  0.00     0.000 A 
ATOM      6  C7  UNL d   1       0.060  -0.544   1.874  0.00  0.00    -0.073 A 
ATOM      7  C8  UNL d   1       1.343  -0.659   2.650  0.00  0.00     0.078 C 
ENDROOT
BRANCH   1   8
ATOM      8  C1  UNL d   1       0.552  -2.683   0.554  0.00  0.00     0.053 C 
ATOM      9  C   UNL d   1      -0.041  -3.534  -0.558  0.00  0.00     0.018 C 
ENDBRANCH   1   8
TORSDOF 1
ENDMDL
