MODEL 1
REMARK minimizedAffinity 3.21251416
REMARK minimizedRMSD -1
REMARK  1 active torsions:
REMARK  status: ('A' for Active; 'I' for Inactive)
REMARK    1  A    between atoms: C1_2  and  C2_3 
ROOT
ATOM      1  C2  UNL d   1       0.107  -0.546   0.969  0.00  0.00    -0.076 A 
ATOM      2  C3  UNL d   1      -1.026  -1.352   0.761  0.00  0.00     0.004 A 
ATOM      3  C4  UNL d   1      -0.937  -2.544   0.044  0.00  0.00    -0.003 A 
ATOM      4  C5  UNL d   1       0.288  -2.950  -0.475  0.00  0.00     0.000 A 
ATOM      5  C6  UNL d   1       1.425  -2.173  -0.262  0.00  0.00     0.000 A 
ATOM      6  C7  UNL d   1       1.356  -0.976   0.472  0.00  0.00    -0.073 A 
ATOM      7  C8  UNL d   1       2.613  -0.174   0.665  0.00  0.00     0.078 C 
ENDROOT
BRANCH   1   8
ATOM      8  C1  UNL d   1      -0.056   0.750   1.731  0.00  0.00     0.053 C 
ATOM      9  C   UNL d   1      -1.253   0.728   2.669  0.00  0.00     0.018 C 
ENDBRANCH   1   8
TORSDOF 1
ENDMDL
