MODEL 1
REMARK minimizedAffinity -2.04001069
REMARK minimizedRMSD -1
REMARK  1 active torsions:
REMARK  status: ('A' for Active; 'I' for Inactive)
REMARK    1  A    between atoms: C1_2  and  C2_3 
ROOT
ATOM      1  C2  UNL d   1       1.052  -2.465  -0.078  0.00  0.00    -0.076 A 
ATOM      2  C3  UNL d   1      -0.350  -2.383  -0.003  0.00  0.00     0.004 A 
ATOM      3  C4  UNL d   1      -0.978  -1.222   0.445  0.00  0.00    -0.003 A 
ATOM      4  C5  UNL d   1      -0.215  -0.123   0.823  0.00  0.00     0.000 A 
ATOM      5  C6  UNL d   1       1.176  -0.180   0.737  0.00  0.00     0.000 A 
ATOM      6  C7  UNL d   1       1.825  -1.337   0.273  0.00  0.00    -0.073 A 
ATOM      7  C8  UNL d   1       3.327  -1.346   0.207  0.00  0.00     0.078 C 
ENDROOT
BRANCH   1   8
ATOM      8  C1  UNL d   1       1.678  -3.760  -0.545  0.00  0.00     0.053 C 
ATOM      9  C   UNL d   1       1.201  -4.171  -1.929  0.00  0.00     0.018 C 
ENDBRANCH   1   8
TORSDOF 1
ENDMDL
