MODEL 1
REMARK minimizedAffinity 2.68045163
REMARK minimizedRMSD -1
REMARK  1 active torsions:
REMARK  status: ('A' for Active; 'I' for Inactive)
REMARK    1  A    between atoms: C1_2  and  C2_3 
ROOT
ATOM      1  C2  UNL d   1       1.201  -2.568  -0.277  0.00  0.00    -0.076 A 
ATOM      2  C3  UNL d   1      -0.163  -2.399   0.019  0.00  0.00     0.004 A 
ATOM      3  C4  UNL d   1      -0.602  -1.321   0.787  0.00  0.00    -0.003 A 
ATOM      4  C5  UNL d   1       0.316  -0.396   1.271  0.00  0.00     0.000 A 
ATOM      5  C6  UNL d   1       1.671  -0.538   0.972  0.00  0.00     0.000 A 
ATOM      6  C7  UNL d   1       2.128  -1.610   0.185  0.00  0.00    -0.073 A 
ATOM      7  C8  UNL d   1       3.600  -1.718  -0.101  0.00  0.00     0.078 C 
ENDROOT
BRANCH   1   8
ATOM      8  C1  UNL d   1       1.621  -3.771  -1.092  0.00  0.00     0.053 C 
ATOM      9  C   UNL d   1       0.893  -3.855  -2.424  0.00  0.00     0.018 C 
ENDBRANCH   1   8
TORSDOF 1
ENDMDL
