MODEL 1
REMARK minimizedAffinity 5.74346399
REMARK minimizedRMSD -1
REMARK  1 active torsions:
REMARK  status: ('A' for Active; 'I' for Inactive)
REMARK    1  A    between atoms: C1_2  and  C2_3 
ROOT
ATOM      1  C2  UNL d   1       0.410  -1.670  -0.151  0.00  0.00    -0.076 A 
ATOM      2  C3  UNL d   1      -0.890  -1.801   0.369  0.00  0.00     0.004 A 
ATOM      3  C4  UNL d   1      -1.342  -0.965   1.389  0.00  0.00    -0.003 A 
ATOM      4  C5  UNL d   1      -0.502   0.016   1.905  0.00  0.00     0.000 A 
ATOM      5  C6  UNL d   1       0.784   0.171   1.389  0.00  0.00     0.000 A 
ATOM      6  C7  UNL d   1       1.250  -0.652   0.349  0.00  0.00    -0.073 A 
ATOM      7  C8  UNL d   1       2.648  -0.444  -0.165  0.00  0.00     0.078 C 
ENDROOT
BRANCH   1   8
ATOM      8  C1  UNL d   1       0.854  -2.622  -1.239  0.00  0.00     0.053 C 
ATOM      9  C   UNL d   1       0.370  -2.200  -2.617  0.00  0.00     0.018 C 
ENDBRANCH   1   8
TORSDOF 1
ENDMDL
