MODEL 1
REMARK minimizedAffinity 3.78272414
REMARK minimizedRMSD -1
REMARK  1 active torsions:
REMARK  status: ('A' for Active; 'I' for Inactive)
REMARK    1  A    between atoms: C1_2  and  C2_3 
ROOT
ATOM      1  C2  UNL d   1       1.074  -1.590   0.171  0.00  0.00    -0.076 A 
ATOM      2  C3  UNL d   1       2.403  -1.257   0.484  0.00  0.00     0.004 A 
ATOM      3  C4  UNL d   1       2.699  -0.422   1.560  0.00  0.00    -0.003 A 
ATOM      4  C5  UNL d   1       1.671   0.092   2.342  0.00  0.00     0.000 A 
ATOM      5  C6  UNL d   1       0.347  -0.242   2.057  0.00  0.00     0.000 A 
ATOM      6  C7  UNL d   1       0.033  -1.095   0.985  0.00  0.00    -0.073 A 
ATOM      7  C8  UNL d   1      -1.412  -1.417   0.719  0.00  0.00     0.078 C 
ENDROOT
BRANCH   1   8
ATOM      8  C1  UNL d   1       0.812  -2.477  -1.025  0.00  0.00     0.053 C 
ATOM      9  C   UNL d   1       1.138  -3.937  -0.750  0.00  0.00     0.018 C 
ENDBRANCH   1   8
TORSDOF 1
ENDMDL
