MODEL 1
REMARK minimizedAffinity 6.81847715
REMARK minimizedRMSD -1
REMARK  1 active torsions:
REMARK  status: ('A' for Active; 'I' for Inactive)
REMARK    1  A    between atoms: C1_2  and  C2_3 
ROOT
ATOM      1  C2  UNL d   1       1.112  -1.862   0.367  0.00  0.00    -0.076 A 
ATOM      2  C3  UNL d   1       2.424  -1.574   0.782  0.00  0.00     0.004 A 
ATOM      3  C4  UNL d   1       2.667  -0.676   1.820  0.00  0.00    -0.003 A 
ATOM      4  C5  UNL d   1       1.602  -0.052   2.460  0.00  0.00     0.000 A 
ATOM      5  C6  UNL d   1       0.293  -0.340   2.073  0.00  0.00     0.000 A 
ATOM      6  C7  UNL d   1       0.030  -1.255   1.040  0.00  0.00    -0.073 A 
ATOM      7  C8  UNL d   1      -1.400  -1.523   0.659  0.00  0.00     0.078 C 
ENDROOT
BRANCH   1   8
ATOM      8  C1  UNL d   1       0.912  -2.824  -0.783  0.00  0.00     0.053 C 
ATOM      9  C   UNL d   1       1.682  -4.122  -0.597  0.00  0.00     0.018 C 
ENDBRANCH   1   8
TORSDOF 1
ENDMDL
