MODEL 1
REMARK minimizedAffinity -4.978158
REMARK minimizedRMSD -1
REMARK  1 active torsions:
REMARK  status: ('A' for Active; 'I' for Inactive)
REMARK    1  A    between atoms: C1_2  and  C2_3 
ROOT
ATOM      1  C2  UNL d   1      -2.032  -0.188   0.887  0.00  0.00    -0.076 A 
ATOM      2  C3  UNL d   1      -2.116  -1.039  -0.229  0.00  0.00     0.004 A 
ATOM      3  C4  UNL d   1      -1.387  -2.225  -0.283  0.00  0.00    -0.003 A 
ATOM      4  C5  UNL d   1      -0.562  -2.581   0.778  0.00  0.00     0.000 A 
ATOM      5  C6  UNL d   1      -0.480  -1.758   1.901  0.00  0.00     0.000 A 
ATOM      6  C7  UNL d   1      -1.221  -0.566   1.979  0.00  0.00    -0.073 A 
ATOM      7  C8  UNL d   1      -1.090   0.286   3.211  0.00  0.00     0.078 C 
ENDROOT
BRANCH   1   8
ATOM      8  C1  UNL d   1      -2.826   1.099   0.879  0.00  0.00     0.053 C 
ATOM      9  C   UNL d   1      -3.831   1.156  -0.261  0.00  0.00     0.018 C 
ENDBRANCH   1   8
TORSDOF 1
ENDMDL
