MODEL 1
REMARK minimizedAffinity 12.785841
REMARK minimizedRMSD -1
REMARK  1 active torsions:
REMARK  status: ('A' for Active; 'I' for Inactive)
REMARK    1  A    between atoms: C1_2  and  C2_3 
ROOT
ATOM      1  C2  UNL d   1       3.941   1.111  -2.978  0.00  0.00    -0.076 A 
ATOM      2  C3  UNL d   1       3.044   0.248  -3.633  0.00  0.00     0.004 A 
ATOM      3  C4  UNL d   1       1.772   0.682  -4.003  0.00  0.00    -0.003 A 
ATOM      4  C5  UNL d   1       1.376   1.985  -3.724  0.00  0.00     0.000 A 
ATOM      5  C6  UNL d   1       2.258   2.859  -3.090  0.00  0.00     0.000 A 
ATOM      6  C7  UNL d   1       3.550   2.443  -2.726  0.00  0.00    -0.073 A 
ATOM      7  C8  UNL d   1       4.459   3.426  -2.040  0.00  0.00     0.078 C 
ENDROOT
BRANCH   1   8
ATOM      8  C1  UNL d   1       5.297   0.577  -2.577  0.00  0.00     0.053 C 
ATOM      9  C   UNL d   1       5.792  -0.517  -3.512  0.00  0.00     0.018 C 
ENDBRANCH   1   8
TORSDOF 1
ENDMDL
