MODEL 1
REMARK minimizedAffinity -2.29794741
REMARK minimizedRMSD -1
REMARK  0 active torsions:
REMARK  status: ('A' for Active; 'I' for Inactive)
ROOT
ATOM      1  C   UNL d   1       6.000  -1.953  -6.000  0.00  0.00     0.172 C 
ATOM      2  N   UNL d   1       5.256  -3.083  -5.495  0.00  0.00    -0.070 N 
ATOM      3  C1  UNL d   1       5.637  -4.395  -5.588  0.00  0.00    -0.004 A 
ATOM      4  C2  UNL d   1       4.661  -5.161  -4.988  0.00  0.00    -0.047 A 
ATOM      5  C3  UNL d   1       3.659  -4.279  -4.519  0.00  0.00    -0.047 A 
ATOM      6  C4  UNL d   1       4.053  -2.999  -4.847  0.00  0.00    -0.004 A 
ENDROOT
TORSDOF 0
ENDMDL
