MODEL 1
REMARK minimizedAffinity 0.339143246
REMARK minimizedRMSD -1
REMARK  0 active torsions:
REMARK  status: ('A' for Active; 'I' for Inactive)
ROOT
ATOM      1  C   UNL d   1       5.917  -4.325  -5.858  0.00  0.00     0.172 C 
ATOM      2  N   UNL d   1       5.856  -3.001  -5.287  0.00  0.00    -0.070 N 
ATOM      3  C1  UNL d   1       5.646  -2.710  -3.965  0.00  0.00    -0.004 A 
ATOM      4  C2  UNL d   1       5.657  -1.339  -3.828  0.00  0.00    -0.047 A 
ATOM      5  C3  UNL d   1       5.881  -0.786  -5.111  0.00  0.00    -0.047 A 
ATOM      6  C4  UNL d   1       6.000  -1.837  -5.996  0.00  0.00    -0.004 A 
ENDROOT
TORSDOF 0
ENDMDL
