MODEL 1
REMARK minimizedAffinity -1.30366039
REMARK minimizedRMSD -1
REMARK  0 active torsions:
REMARK  status: ('A' for Active; 'I' for Inactive)
ROOT
ATOM      1  C   UNL d   1      -2.788   1.234  -3.616  0.00  0.00     0.172 C 
ATOM      2  N   UNL d   1      -3.851   2.177  -3.357  0.00  0.00    -0.070 N 
ATOM      3  C1  UNL d   1      -3.940   3.442  -3.874  0.00  0.00    -0.004 A 
ATOM      4  C2  UNL d   1      -5.095   4.016  -3.389  0.00  0.00    -0.047 A 
ATOM      5  C3  UNL d   1      -5.723   3.063  -2.552  0.00  0.00    -0.047 A 
ATOM      6  C4  UNL d   1      -4.931   1.933  -2.550  0.00  0.00    -0.004 A 
ENDROOT
TORSDOF 0
ENDMDL
