MODEL 1
REMARK minimizedAffinity 4.95115614
REMARK minimizedRMSD -1
REMARK  0 active torsions:
REMARK  status: ('A' for Active; 'I' for Inactive)
ROOT
ATOM      1  C   UNL d   1      -4.050   2.506  -3.026  0.00  0.00     0.172 C 
ATOM      2  N   UNL d   1      -2.877   1.675  -2.888  0.00  0.00    -0.070 N 
ATOM      3  C1  UNL d   1      -2.772   0.370  -3.288  0.00  0.00    -0.004 A 
ATOM      4  C2  UNL d   1      -1.500  -0.064  -2.982  0.00  0.00    -0.047 A 
ATOM      5  C3  UNL d   1      -0.818   1.018  -2.376  0.00  0.00    -0.047 A 
ATOM      6  C4  UNL d   1      -1.694   2.082  -2.330  0.00  0.00    -0.004 A 
ENDROOT
TORSDOF 0
ENDMDL
