MODEL 1
REMARK minimizedAffinity -1.79187131
REMARK minimizedRMSD -1
REMARK  0 active torsions:
REMARK  status: ('A' for Active; 'I' for Inactive)
ROOT
ATOM      1  C   UNL d   1      -2.840   1.139  -3.746  0.00  0.00     0.172 C 
ATOM      2  N   UNL d   1      -3.719   2.243  -3.437  0.00  0.00    -0.070 N 
ATOM      3  C1  UNL d   1      -3.603   3.517  -3.925  0.00  0.00    -0.004 A 
ATOM      4  C2  UNL d   1      -4.630   4.268  -3.396  0.00  0.00    -0.047 A 
ATOM      5  C3  UNL d   1      -5.390   3.415  -2.560  0.00  0.00    -0.047 A 
ATOM      6  C4  UNL d   1      -4.804   2.168  -2.604  0.00  0.00    -0.004 A 
ENDROOT
TORSDOF 0
ENDMDL
