MODEL 1
REMARK minimizedAffinity 1.0382514
REMARK minimizedRMSD -1
REMARK  0 active torsions:
REMARK  status: ('A' for Active; 'I' for Inactive)
ROOT
ATOM      1  C   UNL d   1      -2.702   0.844  -2.893  0.00  0.00     0.172 C 
ATOM      2  N   UNL d   1      -3.508   2.039  -2.984  0.00  0.00    -0.070 N 
ATOM      3  C1  UNL d   1      -3.722   2.772  -4.120  0.00  0.00    -0.004 A 
ATOM      4  C2  UNL d   1      -4.543   3.830  -3.792  0.00  0.00    -0.047 A 
ATOM      5  C3  UNL d   1      -4.831   3.729  -2.410  0.00  0.00    -0.047 A 
ATOM      6  C4  UNL d   1      -4.178   2.611  -1.935  0.00  0.00    -0.004 A 
ENDROOT
TORSDOF 0
ENDMDL
