MODEL 1
REMARK minimizedAffinity 2.96896672
REMARK minimizedRMSD -1
REMARK  0 active torsions:
REMARK  status: ('A' for Active; 'I' for Inactive)
ROOT
ATOM      1  C   UNL d   1       4.607  -1.556  -3.761  0.00  0.00     0.172 C 
ATOM      2  N   UNL d   1       5.006  -2.745  -4.477  0.00  0.00    -0.070 N 
ATOM      3  C1  UNL d   1       4.678  -4.030  -4.136  0.00  0.00    -0.004 A 
ATOM      4  C2  UNL d   1       5.247  -4.872  -5.067  0.00  0.00    -0.047 A 
ATOM      5  C3  UNL d   1       5.942  -4.066  -5.999  0.00  0.00    -0.047 A 
ATOM      6  C4  UNL d   1       5.776  -2.753  -5.610  0.00  0.00    -0.004 A 
ENDROOT
TORSDOF 0
ENDMDL
