MODEL 1
REMARK minimizedAffinity 1.05005574
REMARK minimizedRMSD -1
REMARK  0 active torsions:
REMARK  status: ('A' for Active; 'I' for Inactive)
ROOT
ATOM      1  C   UNL d   1      -5.202   4.021  -2.775  0.00  0.00     0.172 C 
ATOM      2  N   UNL d   1      -4.506   2.796  -3.090  0.00  0.00    -0.070 N 
ATOM      3  C1  UNL d   1      -3.877   1.980  -2.188  0.00  0.00    -0.004 A 
ATOM      4  C2  UNL d   1      -3.338   0.919  -2.883  0.00  0.00    -0.047 A 
ATOM      5  C3  UNL d   1      -3.653   1.104  -4.250  0.00  0.00    -0.047 A 
ATOM      6  C4  UNL d   1      -4.376   2.274  -4.350  0.00  0.00    -0.004 A 
ENDROOT
TORSDOF 0
ENDMDL
