MODEL 1
REMARK minimizedAffinity 5.91091156
REMARK minimizedRMSD -1
REMARK  0 active torsions:
REMARK  status: ('A' for Active; 'I' for Inactive)
ROOT
ATOM      1  C   UNL d   1      -3.248   3.556  -3.798  0.00  0.00     0.172 C 
ATOM      2  N   UNL d   1      -2.487   2.370  -3.484  0.00  0.00    -0.070 N 
ATOM      3  C1  UNL d   1      -2.970   1.254  -2.854  0.00  0.00    -0.004 A 
ATOM      4  C2  UNL d   1      -1.936   0.351  -2.742  0.00  0.00    -0.047 A 
ATOM      5  C3  UNL d   1      -0.791   0.944  -3.325  0.00  0.00    -0.047 A 
ATOM      6  C4  UNL d   1      -1.160   2.194  -3.776  0.00  0.00    -0.004 A 
ENDROOT
TORSDOF 0
ENDMDL
