MODEL 1
REMARK minimizedAffinity -2.773422
REMARK minimizedRMSD -1
REMARK  1 active torsions:
REMARK  status: ('A' for Active; 'I' for Inactive)
REMARK    1  A    between atoms: N_2  and  C1_3 
ROOT
ATOM      1  C1  UNL d   1      -4.510  -4.835  -3.259  0.00  0.00     0.143 A 
ATOM      2  C2  UNL d   1      -5.059  -4.878  -1.973  0.00  0.00    -0.057 A 
ATOM      3  C3  UNL d   1      -5.260  -3.709  -1.229  0.00  0.00     0.033 A 
ATOM      4  C4  UNL d   1      -4.886  -2.474  -1.749  0.00  0.00    -0.042 A 
ATOM      5  C5  UNL d   1      -4.316  -2.410  -3.016  0.00  0.00     0.033 A 
ATOM      6  C6  UNL d   1      -4.125  -3.580  -3.756  0.00  0.00    -0.057 A 
ENDROOT
BRANCH   1   7
ATOM      7  N   UNL d   1      -4.195  -5.971  -4.009  0.00  0.00    -0.732 N 
ATOM      8  C   UNL d   1      -4.428  -5.999  -5.437  0.00  0.00     0.284 C 
ATOM      9  H3  UNL d   1      -3.315  -6.393  -3.723  0.00  0.00     0.395 HD
ENDBRANCH   1   7
TORSDOF 1
ENDMDL
