MODEL 1
REMARK minimizedAffinity 2.44745541
REMARK minimizedRMSD -1
REMARK  1 active torsions:
REMARK  status: ('A' for Active; 'I' for Inactive)
REMARK    1  A    between atoms: N_2  and  C1_3 
ROOT
ATOM      1  C1  UNL d   1      -5.267  -4.930  -3.176  0.00  0.00     0.143 A 
ATOM      2  C2  UNL d   1      -5.835  -6.000  -3.877  0.00  0.00    -0.057 A 
ATOM      3  C3  UNL d   1      -5.897  -6.000  -5.276  0.00  0.00     0.033 A 
ATOM      4  C4  UNL d   1      -5.418  -4.913  -6.000  0.00  0.00    -0.042 A 
ATOM      5  C5  UNL d   1      -4.873  -3.827  -5.323  0.00  0.00     0.033 A 
ATOM      6  C6  UNL d   1      -4.807  -3.836  -3.926  0.00  0.00    -0.057 A 
ENDROOT
BRANCH   1   7
ATOM      7  N   UNL d   1      -5.265  -4.827  -1.783  0.00  0.00    -0.732 N 
ATOM      8  C   UNL d   1      -5.698  -3.608  -1.133  0.00  0.00     0.284 C 
ATOM      9  H3  UNL d   1      -5.591  -5.678  -1.330  0.00  0.00     0.395 HD
ENDBRANCH   1   7
TORSDOF 1
ENDMDL
