MODEL 1
REMARK minimizedAffinity -0.368185014
REMARK minimizedRMSD -1
REMARK  1 active torsions:
REMARK  status: ('A' for Active; 'I' for Inactive)
REMARK    1  A    between atoms: N_2  and  C1_3 
ROOT
ATOM      1  C1  UNL d   1      -4.977  -4.442  -3.389  0.00  0.00     0.143 A 
ATOM      2  C2  UNL d   1      -3.956  -5.343  -3.712  0.00  0.00    -0.057 A 
ATOM      3  C3  UNL d   1      -3.931  -6.000  -4.948  0.00  0.00     0.033 A 
ATOM      4  C4  UNL d   1      -4.946  -5.788  -5.875  0.00  0.00    -0.042 A 
ATOM      5  C5  UNL d   1      -5.984  -4.916  -5.566  0.00  0.00     0.033 A 
ATOM      6  C6  UNL d   1      -6.000  -4.258  -4.332  0.00  0.00    -0.057 A 
ENDROOT
BRANCH   1   7
ATOM      7  N   UNL d   1      -5.110  -3.833  -2.139  0.00  0.00    -0.732 N 
ATOM      8  C   UNL d   1      -5.975  -2.686  -1.966  0.00  0.00     0.284 C 
ATOM      9  H3  UNL d   1      -5.161  -4.510  -1.381  0.00  0.00     0.395 HD
ENDBRANCH   1   7
TORSDOF 1
ENDMDL
