MODEL 1
REMARK minimizedAffinity -2.23091841
REMARK minimizedRMSD -1
REMARK  1 active torsions:
REMARK  status: ('A' for Active; 'I' for Inactive)
REMARK    1  A    between atoms: N_2  and  C1_3 
ROOT
ATOM      1  C1  UNL d   1      -5.318  -4.064  -3.513  0.00  0.00     0.143 A 
ATOM      2  C2  UNL d   1      -4.576  -3.571  -4.591  0.00  0.00    -0.057 A 
ATOM      3  C3  UNL d   1      -4.552  -4.237  -5.822  0.00  0.00     0.033 A 
ATOM      4  C4  UNL d   1      -5.250  -5.429  -5.988  0.00  0.00    -0.042 A 
ATOM      5  C5  UNL d   1      -5.975  -5.951  -4.922  0.00  0.00     0.033 A 
ATOM      6  C6  UNL d   1      -6.000  -5.278  -3.697  0.00  0.00    -0.057 A 
ENDROOT
BRANCH   1   7
ATOM      7  N   UNL d   1      -5.303  -3.501  -2.235  0.00  0.00    -0.732 N 
ATOM      8  C   UNL d   1      -5.999  -2.260  -1.968  0.00  0.00     0.284 C 
ATOM      9  H3  UNL d   1      -5.401  -4.199  -1.501  0.00  0.00     0.395 HD
ENDBRANCH   1   7
TORSDOF 1
ENDMDL
