MODEL 1
REMARK minimizedAffinity -2.19372344
REMARK minimizedRMSD -1
REMARK  1 active torsions:
REMARK  status: ('A' for Active; 'I' for Inactive)
REMARK    1  A    between atoms: N_2  and  C1_3 
ROOT
ATOM      1  C1  UNL d   1      -5.093  -4.889  -3.499  0.00  0.00     0.143 A 
ATOM      2  C2  UNL d   1      -6.000  -4.917  -4.565  0.00  0.00    -0.057 A 
ATOM      3  C3  UNL d   1      -5.652  -5.479  -5.799  0.00  0.00     0.033 A 
ATOM      4  C4  UNL d   1      -4.378  -5.998  -6.000  0.00  0.00    -0.042 A 
ATOM      5  C5  UNL d   1      -3.452  -5.959  -4.963  0.00  0.00     0.033 A 
ATOM      6  C6  UNL d   1      -3.807  -5.403  -3.730  0.00  0.00    -0.057 A 
ENDROOT
BRANCH   1   7
ATOM      7  N   UNL d   1      -5.346  -4.257  -2.280  0.00  0.00    -0.732 N 
ATOM      8  C   UNL d   1      -5.794  -2.881  -2.242  0.00  0.00     0.284 C 
ATOM      9  H3  UNL d   1      -5.818  -4.867  -1.616  0.00  0.00     0.395 HD
ENDBRANCH   1   7
TORSDOF 1
ENDMDL
