MODEL 1
REMARK minimizedAffinity 1.62351739
REMARK minimizedRMSD -1
REMARK  1 active torsions:
REMARK  status: ('A' for Active; 'I' for Inactive)
REMARK    1  A    between atoms: N_2  and  C1_3 
ROOT
ATOM      1  C1  UNL d   1       1.505  -1.607   2.034  0.00  0.00     0.143 A 
ATOM      2  C2  UNL d   1       1.928  -2.912   1.758  0.00  0.00    -0.057 A 
ATOM      3  C3  UNL d   1       2.012  -3.877   2.768  0.00  0.00     0.033 A 
ATOM      4  C4  UNL d   1       1.701  -3.545   4.083  0.00  0.00    -0.042 A 
ATOM      5  C5  UNL d   1       1.303  -2.248   4.385  0.00  0.00     0.033 A 
ATOM      6  C6  UNL d   1       1.214  -1.290   3.370  0.00  0.00    -0.057 A 
ENDROOT
BRANCH   1   7
ATOM      7  N   UNL d   1       1.495  -0.576   1.091  0.00  0.00    -0.732 N 
ATOM      8  C   UNL d   1       2.175   0.673   1.356  0.00  0.00     0.284 C 
ATOM      9  H3  UNL d   1       1.611  -0.919   0.140  0.00  0.00     0.395 HD
ENDBRANCH   1   7
TORSDOF 1
ENDMDL
