MODEL 1
REMARK minimizedAffinity 11.0701103
REMARK minimizedRMSD -1
REMARK  1 active torsions:
REMARK  status: ('A' for Active; 'I' for Inactive)
REMARK    1  A    between atoms: N_2  and  C1_3 
ROOT
ATOM      1  C1  UNL d   1       3.622  -3.459   3.865  0.00  0.00     0.143 A 
ATOM      2  C2  UNL d   1       4.806  -3.051   3.241  0.00  0.00    -0.057 A 
ATOM      3  C3  UNL d   1       5.988  -2.876   3.972  0.00  0.00     0.033 A 
ATOM      4  C4  UNL d   1       5.999  -3.078   5.348  0.00  0.00    -0.042 A 
ATOM      5  C5  UNL d   1       4.827  -3.460   5.992  0.00  0.00     0.033 A 
ATOM      6  C6  UNL d   1       3.652  -3.639   5.256  0.00  0.00    -0.057 A 
ENDROOT
BRANCH   1   7
ATOM      7  N   UNL d   1       2.392  -3.555   3.210  0.00  0.00    -0.732 N 
ATOM      8  C   UNL d   1       1.659  -2.363   2.840  0.00  0.00     0.284 C 
ATOM      9  H3  UNL d   1       2.385  -4.284   2.501  0.00  0.00     0.395 HD
ENDBRANCH   1   7
TORSDOF 1
ENDMDL
