MODEL 1
REMARK minimizedAffinity -1.36409843
REMARK minimizedRMSD -1
REMARK  1 active torsions:
REMARK  status: ('A' for Active; 'I' for Inactive)
REMARK    1  A    between atoms: N_2  and  C1_3 
ROOT
ATOM      1  C1  UNL d   1      -5.156  -4.947  -3.200  0.00  0.00     0.143 A 
ATOM      2  C2  UNL d   1      -4.730  -5.996  -4.022  0.00  0.00    -0.057 A 
ATOM      3  C3  UNL d   1      -4.908  -5.951  -5.410  0.00  0.00     0.033 A 
ATOM      4  C4  UNL d   1      -5.545  -4.863  -6.000  0.00  0.00    -0.042 A 
ATOM      5  C5  UNL d   1      -5.999  -3.821  -5.200  0.00  0.00     0.033 A 
ATOM      6  C6  UNL d   1      -5.812  -3.869  -3.815  0.00  0.00    -0.057 A 
ENDROOT
BRANCH   1   7
ATOM      7  N   UNL d   1      -5.096  -4.978  -1.805  0.00  0.00    -0.732 N 
ATOM      8  C   UNL d   1      -5.799  -6.000  -1.059  0.00  0.00     0.284 C 
ATOM      9  H3  UNL d   1      -4.164  -4.772  -1.452  0.00  0.00     0.395 HD
ENDBRANCH   1   7
TORSDOF 1
ENDMDL
