MODEL 1
REMARK minimizedAffinity 9.29246998
REMARK minimizedRMSD -1
REMARK  1 active torsions:
REMARK  status: ('A' for Active; 'I' for Inactive)
REMARK    1  A    between atoms: N_2  and  C1_3 
ROOT
ATOM      1  C1  UNL d   1      -3.963   1.865  -2.666  0.00  0.00     0.143 A 
ATOM      2  C2  UNL d   1      -4.998   2.248  -3.525  0.00  0.00    -0.057 A 
ATOM      3  C3  UNL d   1      -6.000   3.132  -3.106  0.00  0.00     0.033 A 
ATOM      4  C4  UNL d   1      -6.000   3.627  -1.806  0.00  0.00    -0.042 A 
ATOM      5  C5  UNL d   1      -4.994   3.241  -0.927  0.00  0.00     0.033 A 
ATOM      6  C6  UNL d   1      -3.993   2.363  -1.353  0.00  0.00    -0.057 A 
ENDROOT
BRANCH   1   7
ATOM      7  N   UNL d   1      -2.993   0.914  -2.992  0.00  0.00    -0.732 N 
ATOM      8  C   UNL d   1      -3.373  -0.446  -3.311  0.00  0.00     0.284 C 
ATOM      9  H3  UNL d   1      -2.262   1.293  -3.590  0.00  0.00     0.395 HD
ENDBRANCH   1   7
TORSDOF 1
ENDMDL
