MODEL 1
REMARK minimizedAffinity 4.80282068
REMARK minimizedRMSD -1
REMARK  1 active torsions:
REMARK  status: ('A' for Active; 'I' for Inactive)
REMARK    1  A    between atoms: C1_2  and  C2_3 
ROOT
ATOM      1  C2  UNL d   1      -1.455   4.067  -3.854  0.00  0.00    -0.076 A 
ATOM      2  C3  UNL d   1      -2.192   5.087  -3.227  0.00  0.00     0.004 A 
ATOM      3  C4  UNL d   1      -2.933   6.000  -3.975  0.00  0.00    -0.003 A 
ATOM      4  C5  UNL d   1      -2.951   5.907  -5.362  0.00  0.00     0.000 A 
ATOM      5  C6  UNL d   1      -2.240   4.891  -6.000  0.00  0.00     0.000 A 
ATOM      6  C7  UNL d   1      -1.500   3.953  -5.260  0.00  0.00    -0.073 A 
ATOM      7  C8  UNL d   1      -0.748   2.881  -6.000  0.00  0.00     0.078 C 
ENDROOT
BRANCH   1   8
ATOM      8  C1  UNL d   1      -0.648   3.122  -2.992  0.00  0.00     0.053 C 
ATOM      9  C   UNL d   1       0.472   3.829  -2.244  0.00  0.00     0.018 C 
ENDBRANCH   1   8
TORSDOF 1
ENDMDL
