MODEL 1
REMARK minimizedAffinity 5.3800745
REMARK minimizedRMSD -1
REMARK  1 active torsions:
REMARK  status: ('A' for Active; 'I' for Inactive)
REMARK    1  A    between atoms: C1_2  and  C2_3 
ROOT
ATOM      1  C2  UNL d   1      -3.675   3.846  -5.172  0.00  0.00    -0.076 A 
ATOM      2  C3  UNL d   1      -4.875   3.225  -5.559  0.00  0.00     0.004 A 
ATOM      3  C4  UNL d   1      -5.974   3.979  -5.968  0.00  0.00    -0.003 A 
ATOM      4  C5  UNL d   1      -5.890   5.366  -5.998  0.00  0.00     0.000 A 
ATOM      5  C6  UNL d   1      -4.702   5.999  -5.634  0.00  0.00     0.000 A 
ATOM      6  C7  UNL d   1      -3.579   5.253  -5.234  0.00  0.00    -0.073 A 
ATOM      7  C8  UNL d   1      -2.325   5.987  -4.847  0.00  0.00     0.078 C 
ENDROOT
BRANCH   1   8
ATOM      8  C1  UNL d   1      -2.526   2.978  -4.711  0.00  0.00     0.053 C 
ATOM      9  C   UNL d   1      -1.798   2.313  -5.869  0.00  0.00     0.018 C 
ENDBRANCH   1   8
TORSDOF 1
ENDMDL
