MODEL 1
REMARK minimizedAffinity 9.28160191
REMARK minimizedRMSD -1
REMARK  1 active torsions:
REMARK  status: ('A' for Active; 'I' for Inactive)
REMARK    1  A    between atoms: C1_2  and  C2_3 
ROOT
ATOM      1  C2  UNL d   1      -1.946   3.564  -5.933  0.00  0.00    -0.076 A 
ATOM      2  C3  UNL d   1      -1.290   4.807  -5.914  0.00  0.00     0.004 A 
ATOM      3  C4  UNL d   1      -2.012   6.000  -5.930  0.00  0.00    -0.003 A 
ATOM      4  C5  UNL d   1      -3.402   5.968  -5.963  0.00  0.00     0.000 A 
ATOM      5  C6  UNL d   1      -4.070   4.743  -5.964  0.00  0.00     0.000 A 
ATOM      6  C7  UNL d   1      -3.357   3.532  -5.932  0.00  0.00    -0.073 A 
ATOM      7  C8  UNL d   1      -4.128   2.241  -5.941  0.00  0.00     0.078 C 
ENDROOT
BRANCH   1   8
ATOM      8  C1  UNL d   1      -1.110   2.304  -5.942  0.00  0.00     0.053 C 
ATOM      9  C   UNL d   1       0.383   2.596  -5.974  0.00  0.00     0.018 C 
ENDBRANCH   1   8
TORSDOF 1
ENDMDL
