MODEL 1
REMARK minimizedAffinity 7.68050814
REMARK minimizedRMSD -1
REMARK  1 active torsions:
REMARK  status: ('A' for Active; 'I' for Inactive)
REMARK    1  A    between atoms: C1_2  and  C2_3 
ROOT
ATOM      1  C2  UNL d   1       1.428  -0.233  -0.335  0.00  0.00    -0.076 A 
ATOM      2  C3  UNL d   1       1.280  -1.346  -1.180  0.00  0.00     0.004 A 
ATOM      3  C4  UNL d   1       1.923  -1.399  -2.415  0.00  0.00    -0.003 A 
ATOM      4  C5  UNL d   1       2.726  -0.340  -2.825  0.00  0.00     0.000 A 
ATOM      5  C6  UNL d   1       2.898   0.764  -1.991  0.00  0.00     0.000 A 
ATOM      6  C7  UNL d   1       2.269   0.827  -0.736  0.00  0.00    -0.073 A 
ATOM      7  C8  UNL d   1       2.485   2.045   0.120  0.00  0.00     0.078 C 
ENDROOT
BRANCH   1   8
ATOM      8  C1  UNL d   1       0.684  -0.219   0.982  0.00  0.00     0.053 C 
ATOM      9  C   UNL d   1      -0.741   0.295   0.841  0.00  0.00     0.018 C 
ENDBRANCH   1   8
TORSDOF 1
ENDMDL
