MODEL 1
REMARK minimizedAffinity 10.5698938
REMARK minimizedRMSD -1
REMARK  1 active torsions:
REMARK  status: ('A' for Active; 'I' for Inactive)
REMARK    1  A    between atoms: C1_2  and  C2_3 
ROOT
ATOM      1  C2  UNL d   1      -2.559   3.440  -5.805  0.00  0.00    -0.076 A 
ATOM      2  C3  UNL d   1      -1.982   2.159  -5.851  0.00  0.00     0.004 A 
ATOM      3  C4  UNL d   1      -0.601   1.997  -5.947  0.00  0.00    -0.003 A 
ATOM      4  C5  UNL d   1       0.226   3.114  -5.998  0.00  0.00     0.000 A 
ATOM      5  C6  UNL d   1      -0.328   4.392  -5.936  0.00  0.00     0.000 A 
ATOM      6  C7  UNL d   1      -1.717   4.573  -5.822  0.00  0.00    -0.073 A 
ATOM      7  C8  UNL d   1      -2.260   5.974  -5.765  0.00  0.00     0.078 C 
ENDROOT
BRANCH   1   8
ATOM      8  C1  UNL d   1      -4.065   3.554  -5.728  0.00  0.00     0.053 C 
ATOM      9  C   UNL d   1      -4.571   3.628  -4.296  0.00  0.00     0.018 C 
ENDBRANCH   1   8
TORSDOF 1
ENDMDL
