MODEL 1
REMARK minimizedAffinity 15.7725868
REMARK minimizedRMSD -1
REMARK  1 active torsions:
REMARK  status: ('A' for Active; 'I' for Inactive)
REMARK    1  A    between atoms: C1_2  and  C2_3 
ROOT
ATOM      1  C2  UNL d   1      -1.197   1.060   0.406  0.00  0.00    -0.076 A 
ATOM      2  C3  UNL d   1      -0.542   2.178  -0.140  0.00  0.00     0.004 A 
ATOM      3  C4  UNL d   1       0.759   2.078  -0.629  0.00  0.00    -0.003 A 
ATOM      4  C5  UNL d   1       1.426   0.859  -0.581  0.00  0.00     0.000 A 
ATOM      5  C6  UNL d   1       0.785  -0.264  -0.059  0.00  0.00     0.000 A 
ATOM      6  C7  UNL d   1      -0.532  -0.185   0.423  0.00  0.00    -0.073 A 
ATOM      7  C8  UNL d   1      -1.173  -1.426   0.981  0.00  0.00     0.078 C 
ENDROOT
BRANCH   1   8
ATOM      8  C1  UNL d   1      -2.599   1.235   0.946  0.00  0.00     0.053 C 
ATOM      9  C   UNL d   1      -2.697   2.368   1.956  0.00  0.00     0.018 C 
ENDBRANCH   1   8
TORSDOF 1
ENDMDL
