MODEL 1
REMARK minimizedAffinity 4.03946018
REMARK minimizedRMSD -1
REMARK  1 active torsions:
REMARK  status: ('A' for Active; 'I' for Inactive)
REMARK    1  A    between atoms: C1_2  and  C2_3 
ROOT
ATOM      1  C2  UNL d   1      -1.128   3.920  -4.604  0.00  0.00    -0.076 A 
ATOM      2  C3  UNL d   1      -2.043   3.179  -3.837  0.00  0.00     0.004 A 
ATOM      3  C4  UNL d   1      -3.328   3.661  -3.590  0.00  0.00    -0.003 A 
ATOM      4  C5  UNL d   1      -3.718   4.891  -4.107  0.00  0.00     0.000 A 
ATOM      5  C6  UNL d   1      -2.829   5.632  -4.885  0.00  0.00     0.000 A 
ATOM      6  C7  UNL d   1      -1.536   5.153  -5.157  0.00  0.00    -0.073 A 
ATOM      7  C8  UNL d   1      -0.616   5.996  -5.998  0.00  0.00     0.078 C 
ENDROOT
BRANCH   1   8
ATOM      8  C1  UNL d   1       0.260   3.360  -4.816  0.00  0.00     0.053 C 
ATOM      9  C   UNL d   1       0.330   2.407  -5.999  0.00  0.00     0.018 C 
ENDBRANCH   1   8
TORSDOF 1
ENDMDL
