MODEL 1
REMARK minimizedAffinity 11.9255886
REMARK minimizedRMSD -1
REMARK  1 active torsions:
REMARK  status: ('A' for Active; 'I' for Inactive)
REMARK    1  A    between atoms: C1_2  and  C2_3 
ROOT
ATOM      1  C2  UNL d   1       0.905   0.773  -0.064  0.00  0.00    -0.076 A 
ATOM      2  C3  UNL d   1       0.656  -0.575   0.251  0.00  0.00     0.004 A 
ATOM      3  C4  UNL d   1      -0.590  -0.982   0.724  0.00  0.00    -0.003 A 
ATOM      4  C5  UNL d   1      -1.607  -0.050   0.890  0.00  0.00     0.000 A 
ATOM      5  C6  UNL d   1      -1.384   1.288   0.566  0.00  0.00     0.000 A 
ATOM      6  C7  UNL d   1      -0.138   1.713   0.072  0.00  0.00    -0.073 A 
ATOM      7  C8  UNL d   1       0.050   3.169  -0.255  0.00  0.00     0.078 C 
ENDROOT
BRANCH   1   8
ATOM      8  C1  UNL d   1       2.284   1.161  -0.547  0.00  0.00     0.053 C 
ATOM      9  C   UNL d   1       2.725   0.355  -1.760  0.00  0.00     0.018 C 
ENDBRANCH   1   8
TORSDOF 1
ENDMDL
