MODEL 1
REMARK minimizedAffinity 16.5060139
REMARK minimizedRMSD -1
REMARK  1 active torsions:
REMARK  status: ('A' for Active; 'I' for Inactive)
REMARK    1  A    between atoms: C1_2  and  C2_3 
ROOT
ATOM      1  C2  UNL d   1       4.096   2.155   0.045  0.00  0.00    -0.076 A 
ATOM      2  C3  UNL d   1       3.842   1.814   1.385  0.00  0.00     0.004 A 
ATOM      3  C4  UNL d   1       4.657   2.285   2.413  0.00  0.00    -0.003 A 
ATOM      4  C5  UNL d   1       5.740   3.106   2.117  0.00  0.00     0.000 A 
ATOM      5  C6  UNL d   1       5.996   3.469   0.795  0.00  0.00     0.000 A 
ATOM      6  C7  UNL d   1       5.174   3.016  -0.251  0.00  0.00    -0.073 A 
ATOM      7  C8  UNL d   1       5.501   3.433  -1.659  0.00  0.00     0.078 C 
ENDROOT
BRANCH   1   8
ATOM      8  C1  UNL d   1       3.193   1.592  -1.029  0.00  0.00     0.053 C 
ATOM      9  C   UNL d   1       2.249   0.525  -0.496  0.00  0.00     0.018 C 
ENDBRANCH   1   8
TORSDOF 1
ENDMDL
