MODEL 1
REMARK minimizedAffinity 10.4030495
REMARK minimizedRMSD -1
REMARK  1 active torsions:
REMARK  status: ('A' for Active; 'I' for Inactive)
REMARK    1  A    between atoms: C1_2  and  C2_3 
ROOT
ATOM      1  C2  UNL d   1      -2.772  -3.564  -0.812  0.00  0.00    -0.076 A 
ATOM      2  C3  UNL d   1      -4.000  -3.590  -0.129  0.00  0.00     0.004 A 
ATOM      3  C4  UNL d   1      -4.651  -4.795   0.130  0.00  0.00    -0.003 A 
ATOM      4  C5  UNL d   1      -4.084  -5.993  -0.289  0.00  0.00     0.000 A 
ATOM      5  C6  UNL d   1      -2.857  -5.987  -0.952  0.00  0.00     0.000 A 
ATOM      6  C7  UNL d   1      -2.180  -4.782  -1.207  0.00  0.00    -0.073 A 
ATOM      7  C8  UNL d   1      -0.862  -4.834  -1.931  0.00  0.00     0.078 C 
ENDROOT
BRANCH   1   8
ATOM      8  C1  UNL d   1      -2.125  -2.225  -1.088  0.00  0.00     0.053 C 
ATOM      9  C   UNL d   1      -1.553  -1.584   0.167  0.00  0.00     0.018 C 
ENDBRANCH   1   8
TORSDOF 1
ENDMDL
