MODEL 1
REMARK minimizedAffinity -3.43830562
REMARK minimizedRMSD -1
REMARK  0 active torsions:
REMARK  status: ('A' for Active; 'I' for Inactive)
ROOT
ATOM      1  C   UNL d   1       0.744  -0.518  -0.010  0.00  0.00     0.124 A 
ATOM      2  C1  UNL d   1       0.140   0.136  -1.075  0.00  0.00     0.062 A 
ATOM      3  C2  UNL d   1      -0.370   1.420  -0.909  0.00  0.00     0.162 A 
ATOM      4  C3  UNL d   1      -0.278   2.060   0.327  0.00  0.00    -0.034 A 
ATOM      5  C4  UNL d   1       0.330   1.395   1.394  0.00  0.00     0.162 A 
ATOM      6  C5  UNL d   1       0.838   0.112   1.223  0.00  0.00     0.062 A 
ATOM      7  F   UNL d   1       1.421  -0.519   2.253  0.00  0.00    -0.097 F 
ATOM      8  F1  UNL d   1       0.435   1.981   2.596  0.00  0.00    -0.096 F 
ATOM      9  I   UNL d   1      -1.040   3.980   0.579  0.00  0.00    -0.060 I 
ATOM     10  F2  UNL d   1      -0.949   2.028  -1.955  0.00  0.00    -0.096 F 
ATOM     11  F3  UNL d   1       0.046  -0.471  -2.266  0.00  0.00    -0.097 F 
ATOM     12  F4  UNL d   1       1.233  -1.755  -0.172  0.00  0.00    -0.092 F 
ENDROOT
TORSDOF 0
ENDMDL
