MODEL 1
REMARK minimizedAffinity 4.51412296
REMARK minimizedRMSD -1
REMARK  0 active torsions:
REMARK  status: ('A' for Active; 'I' for Inactive)
ROOT
ATOM      1  C   UNL d   1      -0.166   1.958   0.230  0.00  0.00     0.124 A 
ATOM      2  C1  UNL d   1       0.269   1.110   1.239  0.00  0.00     0.062 A 
ATOM      3  C2  UNL d   1       0.500  -0.236   0.972  0.00  0.00     0.162 A 
ATOM      4  C3  UNL d   1       0.296  -0.743  -0.312  0.00  0.00    -0.034 A 
ATOM      5  C4  UNL d   1      -0.142   0.115  -1.321  0.00  0.00     0.162 A 
ATOM      6  C5  UNL d   1      -0.371   1.460  -1.049  0.00  0.00     0.062 A 
ATOM      7  F   UNL d   1      -0.791   2.277  -2.026  0.00  0.00    -0.097 F 
ATOM      8  F1  UNL d   1      -0.347  -0.340  -2.566  0.00  0.00    -0.096 F 
ATOM      9  I   UNL d   1       0.640  -2.756  -0.715  0.00  0.00    -0.060 I 
ATOM     10  F2  UNL d   1       0.920  -1.032   1.966  0.00  0.00    -0.096 F 
ATOM     11  F3  UNL d   1       0.467   1.589   2.476  0.00  0.00    -0.097 F 
ATOM     12  F4  UNL d   1      -0.388   3.253   0.490  0.00  0.00    -0.092 F 
ENDROOT
TORSDOF 0
ENDMDL
