MODEL 1
REMARK minimizedAffinity 0.275959313
REMARK minimizedRMSD -1
REMARK  0 active torsions:
REMARK  status: ('A' for Active; 'I' for Inactive)
ROOT
ATOM      1  C   UNL d   1      -0.270   2.590   0.387  0.00  0.00     0.124 A 
ATOM      2  C1  UNL d   1      -0.232   1.574   1.331  0.00  0.00     0.062 A 
ATOM      3  C2  UNL d   1      -0.066   0.251   0.930  0.00  0.00     0.162 A 
ATOM      4  C3  UNL d   1       0.065  -0.063  -0.423  0.00  0.00    -0.034 A 
ATOM      5  C4  UNL d   1       0.025   0.965  -1.367  0.00  0.00     0.162 A 
ATOM      6  C5  UNL d   1      -0.141   2.285  -0.961  0.00  0.00     0.062 A 
ATOM      7  F   UNL d   1      -0.177   3.266  -1.875  0.00  0.00    -0.097 F 
ATOM      8  F1  UNL d   1       0.148   0.698  -2.676  0.00  0.00    -0.096 F 
ATOM      9  I   UNL d   1       0.314  -2.039  -1.027  0.00  0.00    -0.060 I 
ATOM     10  F2  UNL d   1      -0.033  -0.711   1.864  0.00  0.00    -0.096 F 
ATOM     11  F3  UNL d   1      -0.357   1.866   2.634  0.00  0.00    -0.097 F 
ATOM     12  F4  UNL d   1      -0.431   3.861   0.775  0.00  0.00    -0.092 F 
ENDROOT
TORSDOF 0
ENDMDL
