MODEL 1
REMARK minimizedAffinity 0.697633862
REMARK minimizedRMSD -1
REMARK  0 active torsions:
REMARK  status: ('A' for Active; 'I' for Inactive)
ROOT
ATOM      1  C   UNL d   1      -0.739   2.024   0.929  0.00  0.00     0.124 A 
ATOM      2  C1  UNL d   1       0.020   1.198   1.745  0.00  0.00     0.062 A 
ATOM      3  C2  UNL d   1       0.447  -0.044   1.282  0.00  0.00     0.162 A 
ATOM      4  C3  UNL d   1       0.116  -0.466  -0.005  0.00  0.00    -0.034 A 
ATOM      5  C4  UNL d   1      -0.648   0.371  -0.821  0.00  0.00     0.162 A 
ATOM      6  C5  UNL d   1      -1.072   1.610  -0.353  0.00  0.00     0.062 A 
ATOM      7  F   UNL d   1      -1.805   2.408  -1.144  0.00  0.00    -0.097 F 
ATOM      8  F1  UNL d   1      -0.984  -0.004  -2.064  0.00  0.00    -0.096 F 
ATOM      9  I   UNL d   1       0.752  -2.321  -0.702  0.00  0.00    -0.060 I 
ATOM     10  F2  UNL d   1       1.179  -0.822   2.093  0.00  0.00    -0.096 F 
ATOM     11  F3  UNL d   1       0.343   1.595   2.985  0.00  0.00    -0.097 F 
ATOM     12  F4  UNL d   1      -1.149   3.218   1.377  0.00  0.00    -0.092 F 
ENDROOT
TORSDOF 0
ENDMDL
