MODEL 1
REMARK minimizedAffinity -4.88947105
REMARK minimizedRMSD -1
REMARK  0 active torsions:
REMARK  status: ('A' for Active; 'I' for Inactive)
ROOT
ATOM      1  C   UNL d   1      -0.883   2.785   1.387  0.00  0.00     0.124 A 
ATOM      2  C1  UNL d   1      -0.162   1.780   2.016  0.00  0.00     0.062 A 
ATOM      3  C2  UNL d   1       0.328   0.705   1.281  0.00  0.00     0.162 A 
ATOM      4  C3  UNL d   1       0.100   0.630  -0.093  0.00  0.00    -0.034 A 
ATOM      5  C4  UNL d   1      -0.627   1.644  -0.719  0.00  0.00     0.162 A 
ATOM      6  C5  UNL d   1      -1.115   2.716   0.020  0.00  0.00     0.062 A 
ATOM      7  F   UNL d   1      -1.812   3.686  -0.589  0.00  0.00    -0.097 F 
ATOM      8  F1  UNL d   1      -0.865   1.602  -2.038  0.00  0.00    -0.096 F 
ATOM      9  I   UNL d   1       0.831  -0.977  -1.196  0.00  0.00    -0.060 I 
ATOM     10  F2  UNL d   1       1.022  -0.252   1.915  0.00  0.00    -0.096 F 
ATOM     11  F3  UNL d   1       0.062   1.844   3.337  0.00  0.00    -0.097 F 
ATOM     12  F4  UNL d   1      -1.355   3.818   2.097  0.00  0.00    -0.092 F 
ENDROOT
TORSDOF 0
ENDMDL
