MODEL 1
REMARK minimizedAffinity 1.19324863
REMARK minimizedRMSD -1
REMARK  0 active torsions:
REMARK  status: ('A' for Active; 'I' for Inactive)
ROOT
ATOM      1  C   UNL d   1      -0.873   2.197   1.680  0.00  0.00     0.124 A 
ATOM      2  C1  UNL d   1       0.121   1.344   2.139  0.00  0.00     0.062 A 
ATOM      3  C2  UNL d   1       0.515   0.251   1.372  0.00  0.00     0.162 A 
ATOM      4  C3  UNL d   1      -0.084   0.005   0.137  0.00  0.00    -0.034 A 
ATOM      5  C4  UNL d   1      -1.084   0.867  -0.318  0.00  0.00     0.162 A 
ATOM      6  C5  UNL d   1      -1.475   1.958   0.452  0.00  0.00     0.062 A 
ATOM      7  F   UNL d   1      -2.436   2.780   0.007  0.00  0.00    -0.097 F 
ATOM      8  F1  UNL d   1      -1.682   0.660  -1.501  0.00  0.00    -0.096 F 
ATOM      9  I   UNL d   1       0.502  -1.627  -1.013  0.00  0.00    -0.060 I 
ATOM     10  F2  UNL d   1       1.479  -0.556   1.840  0.00  0.00    -0.096 F 
ATOM     11  F3  UNL d   1       0.704   1.573   3.325  0.00  0.00    -0.097 F 
ATOM     12  F4  UNL d   1      -1.251   3.247   2.420  0.00  0.00    -0.092 F 
ENDROOT
TORSDOF 0
ENDMDL
