MODEL 1
REMARK minimizedAffinity -0.430242449
REMARK minimizedRMSD -1
REMARK  0 active torsions:
REMARK  status: ('A' for Active; 'I' for Inactive)
ROOT
ATOM      1  C   UNL d   1      -1.013   2.767   1.299  0.00  0.00     0.124 A 
ATOM      2  C1  UNL d   1      -0.385   1.738   1.988  0.00  0.00     0.062 A 
ATOM      3  C2  UNL d   1      -0.003   0.579   1.319  0.00  0.00     0.162 A 
ATOM      4  C3  UNL d   1      -0.248   0.442  -0.048  0.00  0.00    -0.034 A 
ATOM      5  C4  UNL d   1      -0.881   1.480  -0.733  0.00  0.00     0.162 A 
ATOM      6  C5  UNL d   1      -1.261   2.637  -0.060  0.00  0.00     0.062 A 
ATOM      7  F   UNL d   1      -1.868   3.629  -0.727  0.00  0.00    -0.097 F 
ATOM      8  F1  UNL d   1      -1.132   1.381  -2.047  0.00  0.00    -0.096 F 
ATOM      9  I   UNL d   1       0.321  -1.291  -1.051  0.00  0.00    -0.060 I 
ATOM     10  F2  UNL d   1       0.602  -0.399   2.009  0.00  0.00    -0.096 F 
ATOM     11  F3  UNL d   1      -0.145   1.861   3.301  0.00  0.00    -0.097 F 
ATOM     12  F4  UNL d   1      -1.380   3.881   1.945  0.00  0.00    -0.092 F 
ENDROOT
TORSDOF 0
ENDMDL
