MODEL 1
REMARK minimizedAffinity 8.06253242
REMARK minimizedRMSD -1
REMARK  0 active torsions:
REMARK  status: ('A' for Active; 'I' for Inactive)
ROOT
ATOM      1  C   UNL d   1      -1.039  -4.582  -3.131  0.00  0.00     0.124 A 
ATOM      2  C1  UNL d   1      -1.800  -3.421  -3.135  0.00  0.00     0.062 A 
ATOM      3  C2  UNL d   1      -1.758  -2.552  -2.049  0.00  0.00     0.162 A 
ATOM      4  C3  UNL d   1      -0.951  -2.841  -0.948  0.00  0.00    -0.034 A 
ATOM      5  C4  UNL d   1      -0.189  -4.011  -0.950  0.00  0.00     0.162 A 
ATOM      6  C5  UNL d   1      -0.234  -4.876  -2.039  0.00  0.00     0.062 A 
ATOM      7  F   UNL d   1       0.501  -5.997  -2.032  0.00  0.00    -0.097 F 
ATOM      8  F1  UNL d   1       0.598  -4.318   0.092  0.00  0.00    -0.096 F 
ATOM      9  I   UNL d   1      -0.885  -1.544   0.679  0.00  0.00    -0.060 I 
ATOM     10  F2  UNL d   1      -2.503  -1.438  -2.080  0.00  0.00    -0.096 F 
ATOM     11  F3  UNL d   1      -2.578  -3.136  -4.189  0.00  0.00    -0.097 F 
ATOM     12  F4  UNL d   1      -1.082  -5.417  -4.177  0.00  0.00    -0.092 F 
ENDROOT
TORSDOF 0
ENDMDL
