MODEL 1
REMARK minimizedAffinity 8.3774004
REMARK minimizedRMSD -1
REMARK  1 active torsions:
REMARK  status: ('A' for Active; 'I' for Inactive)
REMARK    1  A    between atoms: C1_2  and  C2_3 
ROOT
ATOM      1  C2  UNL d   1       2.075   2.016   1.992  0.00  0.00    -0.077 A 
ATOM      2  C3  UNL d   1       2.676   0.798   2.337  0.00  0.00     0.002 A 
ATOM      3  C4  UNL d   1       2.927  -0.168   1.360  0.00  0.00     0.002 A 
ATOM      4  C5  UNL d   1       2.584   0.077   0.032  0.00  0.00    -0.004 A 
ATOM      5  C6  UNL d   1       1.984   1.285  -0.321  0.00  0.00     0.002 A 
ATOM      6  C7  UNL d   1       1.731   2.250   0.654  0.00  0.00     0.002 A 
ENDROOT
BRANCH   1   7
ATOM      7  C1  UNL d   1       1.848   3.078   3.036  0.00  0.00     0.055 C 
ATOM      8  C   UNL d   1       1.067   2.531   4.222  0.00  0.00     0.019 C 
ENDBRANCH   1   7
TORSDOF 1
ENDMDL
