MODEL 1
REMARK minimizedAffinity 1.42876112
REMARK minimizedRMSD -1
REMARK  1 active torsions:
REMARK  status: ('A' for Active; 'I' for Inactive)
REMARK    1  A    between atoms: C1_2  and  C2_3 
ROOT
ATOM      1  C2  UNL d   1       0.529   1.018   2.826  0.00  0.00    -0.077 A 
ATOM      2  C3  UNL d   1      -0.699   1.655   2.598  0.00  0.00     0.002 A 
ATOM      3  C4  UNL d   1      -0.911   2.379   1.423  0.00  0.00     0.002 A 
ATOM      4  C5  UNL d   1       0.097   2.470   0.466  0.00  0.00    -0.004 A 
ATOM      5  C6  UNL d   1       1.323   1.841   0.685  0.00  0.00     0.002 A 
ATOM      6  C7  UNL d   1       1.537   1.118   1.859  0.00  0.00     0.002 A 
ENDROOT
BRANCH   1   7
ATOM      7  C1  UNL d   1       0.743   0.196   4.070  0.00  0.00     0.055 C 
ATOM      8  C   UNL d   1       0.829  -1.288   3.744  0.00  0.00     0.019 C 
ENDBRANCH   1   7
TORSDOF 1
ENDMDL
