MODEL 1
REMARK minimizedAffinity 8.71157551
REMARK minimizedRMSD -1
REMARK  1 active torsions:
REMARK  status: ('A' for Active; 'I' for Inactive)
REMARK    1  A    between atoms: C1_2  and  C2_3 
ROOT
ATOM      1  C2  UNL d   1       1.256  -0.035  -0.714  0.00  0.00    -0.077 A 
ATOM      2  C3  UNL d   1       1.841   0.665   0.351  0.00  0.00     0.002 A 
ATOM      3  C4  UNL d   1       1.525   2.007   0.572  0.00  0.00     0.002 A 
ATOM      4  C5  UNL d   1       0.620   2.658  -0.264  0.00  0.00    -0.004 A 
ATOM      5  C6  UNL d   1       0.034   1.971  -1.326  0.00  0.00     0.002 A 
ATOM      6  C7  UNL d   1       0.350   0.630  -1.550  0.00  0.00     0.002 A 
ENDROOT
BRANCH   1   7
ATOM      7  C1  UNL d   1       1.557  -1.496  -0.924  0.00  0.00     0.055 C 
ATOM      8  C   UNL d   1       2.724  -1.951  -0.059  0.00  0.00     0.019 C 
ENDBRANCH   1   7
TORSDOF 1
ENDMDL
