MODEL 1
REMARK minimizedAffinity 4.22295523
REMARK minimizedRMSD -1
REMARK  1 active torsions:
REMARK  status: ('A' for Active; 'I' for Inactive)
REMARK    1  A    between atoms: C1_2  and  C2_3 
ROOT
ATOM      1  C2  UNL d   1       2.051   0.524   0.581  0.00  0.00    -0.077 A 
ATOM      2  C3  UNL d   1       2.591   0.344   1.862  0.00  0.00     0.002 A 
ATOM      3  C4  UNL d   1       3.208  -0.860   2.206  0.00  0.00     0.002 A 
ATOM      4  C5  UNL d   1       3.295  -1.892   1.274  0.00  0.00    -0.004 A 
ATOM      5  C6  UNL d   1       2.759  -1.724  -0.002  0.00  0.00     0.002 A 
ATOM      6  C7  UNL d   1       2.141  -0.521  -0.348  0.00  0.00     0.002 A 
ENDROOT
BRANCH   1   7
ATOM      7  C1  UNL d   1       1.428   1.839   0.192  0.00  0.00     0.055 C 
ATOM      8  C   UNL d   1       0.036   1.642  -0.389  0.00  0.00     0.019 C 
ENDBRANCH   1   7
TORSDOF 1
ENDMDL
