MODEL 1
REMARK minimizedAffinity -0.35562408
REMARK minimizedRMSD -1
REMARK  1 active torsions:
REMARK  status: ('A' for Active; 'I' for Inactive)
REMARK    1  A    between atoms: C1_2  and  C2_3 
ROOT
ATOM      1  C2  UNL d   1       2.732   0.079   0.131  0.00  0.00    -0.077 A 
ATOM      2  C3  UNL d   1       1.730   1.051   0.252  0.00  0.00     0.002 A 
ATOM      3  C4  UNL d   1       2.063   2.407   0.294  0.00  0.00     0.002 A 
ATOM      4  C5  UNL d   1       3.396   2.801   0.212  0.00  0.00    -0.004 A 
ATOM      5  C6  UNL d   1       4.401   1.842   0.094  0.00  0.00     0.002 A 
ATOM      6  C7  UNL d   1       4.070   0.486   0.053  0.00  0.00     0.002 A 
ENDROOT
BRANCH   1   7
ATOM      7  C1  UNL d   1       2.372  -1.381   0.036  0.00  0.00     0.055 C 
ATOM      8  C   UNL d   1       1.095  -1.585  -0.765  0.00  0.00     0.019 C 
ENDBRANCH   1   7
TORSDOF 1
ENDMDL
