MODEL 1
REMARK minimizedAffinity 0.22087197
REMARK minimizedRMSD -1
REMARK  1 active torsions:
REMARK  status: ('A' for Active; 'I' for Inactive)
REMARK    1  A    between atoms: C1_2  and  C2_3 
ROOT
ATOM      1  C2  UNL d   1       1.079   0.711  -0.280  0.00  0.00    -0.077 A 
ATOM      2  C3  UNL d   1       1.406  -0.563  -0.763  0.00  0.00     0.002 A 
ATOM      3  C4  UNL d   1       2.614  -1.166  -0.403  0.00  0.00     0.002 A 
ATOM      4  C5  UNL d   1       3.500  -0.503   0.443  0.00  0.00    -0.004 A 
ATOM      5  C6  UNL d   1       3.184   0.766   0.926  0.00  0.00     0.002 A 
ATOM      6  C7  UNL d   1       1.979   1.370   0.567  0.00  0.00     0.002 A 
ENDROOT
BRANCH   1   7
ATOM      7  C1  UNL d   1      -0.244   1.342  -0.627  0.00  0.00     0.055 C 
ATOM      8  C   UNL d   1      -0.915   0.621  -1.787  0.00  0.00     0.019 C 
ENDBRANCH   1   7
TORSDOF 1
ENDMDL
