MODEL 1
REMARK minimizedAffinity 0.74124068
REMARK minimizedRMSD -1
REMARK  1 active torsions:
REMARK  status: ('A' for Active; 'I' for Inactive)
REMARK    1  A    between atoms: C1_2  and  C2_3 
ROOT
ATOM      1  C2  UNL d   1       1.309  -0.288  -0.983  0.00  0.00    -0.077 A 
ATOM      2  C3  UNL d   1       1.068   0.843  -0.192  0.00  0.00     0.002 A 
ATOM      3  C4  UNL d   1      -0.008   1.687  -0.476  0.00  0.00     0.002 A 
ATOM      4  C5  UNL d   1      -0.852   1.406  -1.548  0.00  0.00    -0.004 A 
ATOM      5  C6  UNL d   1      -0.619   0.284  -2.342  0.00  0.00     0.002 A 
ATOM      6  C7  UNL d   1       0.456  -0.560  -2.061  0.00  0.00     0.002 A 
ENDROOT
BRANCH   1   7
ATOM      7  C1  UNL d   1       2.439  -1.227  -0.649  0.00  0.00     0.055 C 
ATOM      8  C   UNL d   1       2.874  -1.075   0.801  0.00  0.00     0.019 C 
ENDBRANCH   1   7
TORSDOF 1
ENDMDL
