MODEL 1
REMARK minimizedAffinity 0.908107758
REMARK minimizedRMSD -1
REMARK  0 active torsions:
REMARK  status: ('A' for Active; 'I' for Inactive)
ROOT
ATOM      1  C   UNL d   1       1.835  -0.197   1.627  0.00  0.00     0.124 A 
ATOM      2  C1  UNL d   1       1.716   0.972   0.890  0.00  0.00     0.062 A 
ATOM      3  C2  UNL d   1       0.606   1.176   0.075  0.00  0.00     0.162 A 
ATOM      4  C3  UNL d   1      -0.395   0.207  -0.006  0.00  0.00    -0.034 A 
ATOM      5  C4  UNL d   1      -0.267  -0.967   0.737  0.00  0.00     0.162 A 
ATOM      6  C5  UNL d   1       0.844  -1.166   1.550  0.00  0.00     0.062 A 
ATOM      7  F   UNL d   1       0.958  -2.297   2.262  0.00  0.00    -0.097 F 
ATOM      8  F1  UNL d   1      -1.210  -1.919   0.682  0.00  0.00    -0.096 F 
ATOM      9  I   UNL d   1      -2.056   0.508  -1.223  0.00  0.00    -0.060 I 
ATOM     10  F2  UNL d   1       0.516   2.316  -0.626  0.00  0.00    -0.096 F 
ATOM     11  F3  UNL d   1       2.672   1.909   0.962  0.00  0.00    -0.097 F 
ATOM     12  F4  UNL d   1       2.905  -0.391   2.410  0.00  0.00    -0.092 F 
ENDROOT
TORSDOF 0
ENDMDL
