MODEL 1
REMARK minimizedAffinity 1.82705832
REMARK minimizedRMSD -1
REMARK  0 active torsions:
REMARK  status: ('A' for Active; 'I' for Inactive)
ROOT
ATOM      1  C   UNL d   1       2.086   0.192   2.233  0.00  0.00     0.124 A 
ATOM      2  C1  UNL d   1       1.834   1.254   1.376  0.00  0.00     0.062 A 
ATOM      3  C2  UNL d   1       0.796   1.176   0.452  0.00  0.00     0.162 A 
ATOM      4  C3  UNL d   1       0.001   0.032   0.381  0.00  0.00    -0.034 A 
ATOM      5  C4  UNL d   1       0.261  -1.033   1.246  0.00  0.00     0.162 A 
ATOM      6  C5  UNL d   1       1.300  -0.950   2.168  0.00  0.00     0.062 A 
ATOM      7  F   UNL d   1       1.542  -1.976   2.996  0.00  0.00    -0.097 F 
ATOM      8  F1  UNL d   1      -0.483  -2.147   1.205  0.00  0.00    -0.096 F 
ATOM      9  I   UNL d   1      -1.552  -0.089  -0.999  0.00  0.00    -0.060 I 
ATOM     10  F2  UNL d   1       0.575   2.217  -0.365  0.00  0.00    -0.096 F 
ATOM     11  F3  UNL d   1       2.592   2.358   1.436  0.00  0.00    -0.097 F 
ATOM     12  F4  UNL d   1       3.086   0.269   3.121  0.00  0.00    -0.092 F 
ENDROOT
TORSDOF 0
ENDMDL
