MODEL 1
REMARK minimizedAffinity -4.47329617
REMARK minimizedRMSD -1
REMARK  0 active torsions:
REMARK  status: ('A' for Active; 'I' for Inactive)
ROOT
ATOM      1  C   UNL d   1       1.728  -0.763   1.628  0.00  0.00     0.124 A 
ATOM      2  C1  UNL d   1       0.603  -1.575   1.658  0.00  0.00     0.062 A 
ATOM      3  C2  UNL d   1      -0.500  -1.275   0.864  0.00  0.00     0.162 A 
ATOM      4  C3  UNL d   1      -0.482  -0.156   0.030  0.00  0.00    -0.034 A 
ATOM      5  C4  UNL d   1       0.653   0.656   0.005  0.00  0.00     0.162 A 
ATOM      6  C5  UNL d   1       1.752   0.351   0.802  0.00  0.00     0.062 A 
ATOM      7  F   UNL d   1       2.838   1.137   0.771  0.00  0.00    -0.097 F 
ATOM      8  F1  UNL d   1       0.704   1.739  -0.785  0.00  0.00    -0.096 F 
ATOM      9  I   UNL d   1      -2.128   0.297  -1.160  0.00  0.00    -0.060 I 
ATOM     10  F2  UNL d   1      -1.574  -2.077   0.913  0.00  0.00    -0.096 F 
ATOM     11  F3  UNL d   1       0.576  -2.653   2.457  0.00  0.00    -0.097 F 
ATOM     12  F4  UNL d   1       2.787  -1.055   2.394  0.00  0.00    -0.092 F 
ENDROOT
TORSDOF 0
ENDMDL
