MODEL 1
REMARK minimizedAffinity -1.41739285
REMARK minimizedRMSD -1
REMARK  0 active torsions:
REMARK  status: ('A' for Active; 'I' for Inactive)
ROOT
ATOM      1  C   UNL d   1       2.235   1.510   0.407  0.00  0.00     0.124 A 
ATOM      2  C1  UNL d   1       2.124   0.138   0.585  0.00  0.00     0.062 A 
ATOM      3  C2  UNL d   1       0.898  -0.495   0.402  0.00  0.00     0.162 A 
ATOM      4  C3  UNL d   1      -0.228   0.244   0.039  0.00  0.00    -0.034 A 
ATOM      5  C4  UNL d   1      -0.109   1.624  -0.137  0.00  0.00     0.162 A 
ATOM      6  C5  UNL d   1       1.119   2.251   0.047  0.00  0.00     0.062 A 
ATOM      7  F   UNL d   1       1.224   3.577  -0.125  0.00  0.00    -0.097 F 
ATOM      8  F1  UNL d   1      -1.171   2.365  -0.486  0.00  0.00    -0.096 F 
ATOM      9  I   UNL d   1      -2.064  -0.698  -0.235  0.00  0.00    -0.060 I 
ATOM     10  F2  UNL d   1       0.820  -1.822   0.581  0.00  0.00    -0.096 F 
ATOM     11  F3  UNL d   1       3.201  -0.581   0.934  0.00  0.00    -0.097 F 
ATOM     12  F4  UNL d   1       3.416   2.116   0.585  0.00  0.00    -0.092 F 
ENDROOT
TORSDOF 0
ENDMDL
