MODEL 1
REMARK minimizedAffinity -4.27674007
REMARK minimizedRMSD -1
REMARK  0 active torsions:
REMARK  status: ('A' for Active; 'I' for Inactive)
ROOT
ATOM      1  C   UNL d   1       2.534   1.133   3.323  0.00  0.00     0.124 A 
ATOM      2  C1  UNL d   1       1.581   1.951   2.732  0.00  0.00     0.062 A 
ATOM      3  C2  UNL d   1       0.963   1.563   1.547  0.00  0.00     0.162 A 
ATOM      4  C3  UNL d   1       1.295   0.349   0.944  0.00  0.00    -0.034 A 
ATOM      5  C4  UNL d   1       2.256  -0.467   1.544  0.00  0.00     0.162 A 
ATOM      6  C5  UNL d   1       2.871  -0.075   2.728  0.00  0.00     0.062 A 
ATOM      7  F   UNL d   1       3.792  -0.867   3.297  0.00  0.00    -0.097 F 
ATOM      8  F1  UNL d   1       2.599  -1.640   0.991  0.00  0.00    -0.096 F 
ATOM      9  I   UNL d   1       0.373  -0.235  -0.828  0.00  0.00    -0.060 I 
ATOM     10  F2  UNL d   1       0.045   2.373   0.999  0.00  0.00    -0.096 F 
ATOM     11  F3  UNL d   1       1.255   3.119   3.304  0.00  0.00    -0.097 F 
ATOM     12  F4  UNL d   1       3.128   1.509   4.462  0.00  0.00    -0.092 F 
ENDROOT
TORSDOF 0
ENDMDL
