MODEL 1
REMARK minimizedAffinity -0.892807305
REMARK minimizedRMSD -1
REMARK  0 active torsions:
REMARK  status: ('A' for Active; 'I' for Inactive)
ROOT
ATOM      1  C   UNL d   1       1.779   1.367   1.036  0.00  0.00     0.124 A 
ATOM      2  C1  UNL d   1       2.278   0.166   0.552  0.00  0.00     0.062 A 
ATOM      3  C2  UNL d   1       1.446  -0.712  -0.137  0.00  0.00     0.162 A 
ATOM      4  C3  UNL d   1       0.104  -0.391  -0.347  0.00  0.00    -0.034 A 
ATOM      5  C4  UNL d   1      -0.391   0.819   0.144  0.00  0.00     0.162 A 
ATOM      6  C5  UNL d   1       0.445   1.692   0.832  0.00  0.00     0.062 A 
ATOM      7  F   UNL d   1      -0.039   2.852   1.299  0.00  0.00    -0.097 F 
ATOM      8  F1  UNL d   1      -1.675   1.158  -0.040  0.00  0.00    -0.096 F 
ATOM      9  I   UNL d   1      -1.144  -1.700  -1.377  0.00  0.00    -0.060 I 
ATOM     10  F2  UNL d   1       1.955  -1.865  -0.594  0.00  0.00    -0.096 F 
ATOM     11  F3  UNL d   1       3.566  -0.151   0.748  0.00  0.00    -0.097 F 
ATOM     12  F4  UNL d   1       2.582   2.209   1.699  0.00  0.00    -0.092 F 
ENDROOT
TORSDOF 0
ENDMDL
