MODEL 1
REMARK minimizedAffinity -1.52489746
REMARK minimizedRMSD -1
REMARK  0 active torsions:
REMARK  status: ('A' for Active; 'I' for Inactive)
ROOT
ATOM      1  C   UNL d   1       2.447  -0.407   1.723  0.00  0.00     0.124 A 
ATOM      2  C1  UNL d   1       2.172   0.706   0.940  0.00  0.00     0.062 A 
ATOM      3  C2  UNL d   1       0.998   0.764   0.194  0.00  0.00     0.162 A 
ATOM      4  C3  UNL d   1       0.090  -0.295   0.227  0.00  0.00    -0.034 A 
ATOM      5  C4  UNL d   1       0.375  -1.411   1.016  0.00  0.00     0.162 A 
ATOM      6  C5  UNL d   1       1.549  -1.464   1.760  0.00  0.00     0.062 A 
ATOM      7  F   UNL d   1       1.814  -2.540   2.515  0.00  0.00    -0.097 F 
ATOM      8  F1  UNL d   1      -0.476  -2.446   1.071  0.00  0.00    -0.096 F 
ATOM      9  I   UNL d   1      -1.665  -0.212  -0.887  0.00  0.00    -0.060 I 
ATOM     10  F2  UNL d   1       0.758   1.852  -0.553  0.00  0.00    -0.096 F 
ATOM     11  F3  UNL d   1       3.038   1.728   0.902  0.00  0.00    -0.097 F 
ATOM     12  F4  UNL d   1       3.578  -0.460   2.439  0.00  0.00    -0.092 F 
ENDROOT
TORSDOF 0
ENDMDL
