MODEL 1
REMARK minimizedAffinity 5.39591646
REMARK minimizedRMSD -1
REMARK  0 active torsions:
REMARK  status: ('A' for Active; 'I' for Inactive)
ROOT
ATOM      1  C   UNL d   1       1.012  -0.694   1.193  0.00  0.00     0.124 A 
ATOM      2  C1  UNL d   1      -0.209  -1.351   1.249  0.00  0.00     0.062 A 
ATOM      3  C2  UNL d   1      -1.220  -1.028   0.349  0.00  0.00     0.162 A 
ATOM      4  C3  UNL d   1      -1.014  -0.042  -0.616  0.00  0.00    -0.034 A 
ATOM      5  C4  UNL d   1       0.216   0.615  -0.666  0.00  0.00     0.162 A 
ATOM      6  C5  UNL d   1       1.224   0.288   0.236  0.00  0.00     0.062 A 
ATOM      7  F   UNL d   1       2.403   0.924   0.180  0.00  0.00    -0.097 F 
ATOM      8  F1  UNL d   1       0.448   1.567  -1.581  0.00  0.00    -0.096 F 
ATOM      9  I   UNL d   1      -2.523   0.445  -1.964  0.00  0.00    -0.060 I 
ATOM     10  F2  UNL d   1      -2.391  -1.679   0.426  0.00  0.00    -0.096 F 
ATOM     11  F3  UNL d   1      -0.417  -2.300   2.174  0.00  0.00    -0.097 F 
ATOM     12  F4  UNL d   1       1.983  -1.007   2.061  0.00  0.00    -0.092 F 
ENDROOT
TORSDOF 0
ENDMDL
