MODEL 1
REMARK minimizedAffinity 2.72686172
REMARK minimizedRMSD -1
REMARK  0 active torsions:
REMARK  status: ('A' for Active; 'I' for Inactive)
ROOT
ATOM      1  C   UNL d   1       2.144  -0.161   3.265  0.00  0.00     0.124 A 
ATOM      2  C1  UNL d   1       1.273  -0.906   2.483  0.00  0.00     0.062 A 
ATOM      3  C2  UNL d   1       0.743  -0.365   1.315  0.00  0.00     0.162 A 
ATOM      4  C3  UNL d   1       1.083   0.929   0.921  0.00  0.00    -0.034 A 
ATOM      5  C4  UNL d   1       1.959   1.673   1.713  0.00  0.00     0.162 A 
ATOM      6  C5  UNL d   1       2.486   1.128   2.880  0.00  0.00     0.062 A 
ATOM      7  F   UNL d   1       3.327   1.850   3.634  0.00  0.00    -0.097 F 
ATOM      8  F1  UNL d   1       2.307   2.920   1.364  0.00  0.00    -0.096 F 
ATOM      9  I   UNL d   1       0.292   1.741  -0.824  0.00  0.00    -0.060 I 
ATOM     10  F2  UNL d   1      -0.097  -1.109   0.579  0.00  0.00    -0.096 F 
ATOM     11  F3  UNL d   1       0.940  -2.151   2.853  0.00  0.00    -0.097 F 
ATOM     12  F4  UNL d   1       2.652  -0.683   4.388  0.00  0.00    -0.092 F 
ENDROOT
TORSDOF 0
ENDMDL
