MODEL 1
REMARK minimizedAffinity -1.77511787
REMARK minimizedRMSD -1
REMARK  2 active torsions:
REMARK  status: ('A' for Active; 'I' for Inactive)
REMARK    1  A    between atoms: C1_2  and  C2_3 
REMARK    2  A    between atoms: C2_3  and  C3_4 
ROOT
ATOM      1  C3  UNL d   1       0.518  -2.352   0.447  0.00  0.00    -0.075 A 
ATOM      2  C4  UNL d   1      -0.484  -1.392   0.646  0.00  0.00     0.002 A 
ATOM      3  C5  UNL d   1      -1.255  -0.939  -0.425  0.00  0.00     0.002 A 
ATOM      4  C6  UNL d   1      -1.027  -1.432  -1.708  0.00  0.00    -0.004 A 
ATOM      5  C7  UNL d   1      -0.023  -2.374  -1.921  0.00  0.00     0.002 A 
ATOM      6  C8  UNL d   1       0.747  -2.832  -0.850  0.00  0.00     0.002 A 
ENDROOT
BRANCH   1   7
ATOM      7  C2  UNL d   1       1.336  -2.868   1.607  0.00  0.00     0.056 C 
BRANCH   7   8
ATOM      8  C1  UNL d   1       1.752  -1.784   2.607  0.00  0.00     0.007 C 
ATOM      9  C   UNL d   1       2.208  -2.346   3.947  0.00  0.00     0.009 C 
ENDBRANCH   7   8
ENDBRANCH   1   7
TORSDOF 2
ENDMDL
