MODEL 1
REMARK minimizedAffinity 6.50225687
REMARK minimizedRMSD -1
REMARK  2 active torsions:
REMARK  status: ('A' for Active; 'I' for Inactive)
REMARK    1  A    between atoms: C1_2  and  C2_3 
REMARK    2  A    between atoms: C2_3  and  C3_4 
ROOT
ATOM      1  C3  UNL d   1       2.307  -0.704   3.036  0.00  0.00    -0.075 A 
ATOM      2  C4  UNL d   1       2.515  -0.526   1.661  0.00  0.00     0.002 A 
ATOM      3  C5  UNL d   1       2.552   0.756   1.110  0.00  0.00     0.002 A 
ATOM      4  C6  UNL d   1       2.370   1.872   1.924  0.00  0.00    -0.004 A 
ATOM      5  C7  UNL d   1       2.146   1.706   3.289  0.00  0.00     0.002 A 
ATOM      6  C8  UNL d   1       2.113   0.425   3.843  0.00  0.00     0.002 A 
ENDROOT
BRANCH   1   7
ATOM      7  C2  UNL d   1       2.295  -2.087   3.643  0.00  0.00     0.056 C 
BRANCH   7   8
ATOM      8  C1  UNL d   1       3.672  -2.577   4.103  0.00  0.00     0.007 C 
ATOM      9  C   UNL d   1       3.737  -4.086   4.301  0.00  0.00     0.009 C 
ENDBRANCH   7   8
ENDBRANCH   1   7
TORSDOF 2
ENDMDL
