MODEL 1
REMARK minimizedAffinity 3.15385485
REMARK minimizedRMSD -1
REMARK  2 active torsions:
REMARK  status: ('A' for Active; 'I' for Inactive)
REMARK    1  A    between atoms: C1_2  and  C2_3 
REMARK    2  A    between atoms: C2_3  and  C3_4 
ROOT
ATOM      1  C3  UNL d   1       2.607   1.298   2.169  0.00  0.00    -0.075 A 
ATOM      2  C4  UNL d   1       2.610  -0.080   1.909  0.00  0.00     0.002 A 
ATOM      3  C5  UNL d   1       2.493  -0.998   2.954  0.00  0.00     0.002 A 
ATOM      4  C6  UNL d   1       2.384  -0.551   4.269  0.00  0.00    -0.004 A 
ATOM      5  C7  UNL d   1       2.397   0.816   4.540  0.00  0.00     0.002 A 
ATOM      6  C8  UNL d   1       2.509   1.736   3.496  0.00  0.00     0.002 A 
ENDROOT
BRANCH   1   7
ATOM      7  C2  UNL d   1       2.703   2.297   1.040  0.00  0.00     0.056 C 
BRANCH   7   8
ATOM      8  C1  UNL d   1       1.580   3.339   1.032  0.00  0.00     0.007 C 
ATOM      9  C   UNL d   1       1.472   4.095  -0.285  0.00  0.00     0.009 C 
ENDBRANCH   7   8
ENDBRANCH   1   7
TORSDOF 2
ENDMDL
