MODEL 1
REMARK minimizedAffinity 5.13107681
REMARK minimizedRMSD -1
REMARK  2 active torsions:
REMARK  status: ('A' for Active; 'I' for Inactive)
REMARK    1  A    between atoms: C1_2  and  C2_3 
REMARK    2  A    between atoms: C2_3  and  C3_4 
ROOT
ATOM      1  C3  UNL d   1      -4.679   2.583  -1.584  0.00  0.00    -0.075 A 
ATOM      2  C4  UNL d   1      -3.829   1.842  -2.418  0.00  0.00     0.002 A 
ATOM      3  C5  UNL d   1      -4.055   1.792  -3.794  0.00  0.00     0.002 A 
ATOM      4  C6  UNL d   1      -5.137   2.471  -4.351  0.00  0.00    -0.004 A 
ATOM      5  C7  UNL d   1      -5.997   3.197  -3.529  0.00  0.00     0.002 A 
ATOM      6  C8  UNL d   1      -5.770   3.253  -2.153  0.00  0.00     0.002 A 
ENDROOT
BRANCH   1   7
ATOM      7  C2  UNL d   1      -4.423   2.666  -0.098  0.00  0.00     0.056 C 
BRANCH   7   8
ATOM      8  C1  UNL d   1      -2.956   2.458   0.294  0.00  0.00     0.007 C 
ATOM      9  C   UNL d   1      -2.780   1.529   1.488  0.00  0.00     0.009 C 
ENDBRANCH   7   8
ENDBRANCH   1   7
TORSDOF 2
ENDMDL
