MODEL 1
REMARK minimizedAffinity 1.77580404
REMARK minimizedRMSD -1
REMARK  2 active torsions:
REMARK  status: ('A' for Active; 'I' for Inactive)
REMARK    1  A    between atoms: C1_2  and  C2_3 
REMARK    2  A    between atoms: C2_3  and  C3_4 
ROOT
ATOM      1  C3  UNL d   1       0.799  -0.917   1.433  0.00  0.00    -0.075 A 
ATOM      2  C4  UNL d   1       1.163   0.389   1.071  0.00  0.00     0.002 A 
ATOM      3  C5  UNL d   1       2.118   1.088   1.810  0.00  0.00     0.002 A 
ATOM      4  C6  UNL d   1       2.713   0.497   2.922  0.00  0.00    -0.004 A 
ATOM      5  C7  UNL d   1       2.347  -0.793   3.300  0.00  0.00     0.002 A 
ATOM      6  C8  UNL d   1       1.395  -1.497   2.561  0.00  0.00     0.002 A 
ENDROOT
BRANCH   1   7
ATOM      7  C2  UNL d   1      -0.212  -1.690   0.621  0.00  0.00     0.056 C 
BRANCH   7   8
ATOM      8  C1  UNL d   1       0.406  -2.732  -0.317  0.00  0.00     0.007 C 
ATOM      9  C   UNL d   1      -0.056  -2.589  -1.761  0.00  0.00     0.009 C 
ENDBRANCH   7   8
ENDBRANCH   1   7
TORSDOF 2
ENDMDL
