MODEL 1
REMARK minimizedAffinity -2.33950019
REMARK minimizedRMSD -1
REMARK  0 active torsions:
REMARK  status: ('A' for Active; 'I' for Inactive)
ROOT
ATOM      1  C   UNL d   1       0.158   0.378   0.357  0.00  0.00     0.172 C 
ATOM      2  N   UNL d   1       1.253  -0.556   0.234  0.00  0.00    -0.070 N 
ATOM      3  C1  UNL d   1       1.239  -1.710  -0.503  0.00  0.00    -0.004 A 
ATOM      4  C2  UNL d   1       2.468  -2.316  -0.362  0.00  0.00    -0.047 A 
ATOM      5  C3  UNL d   1       3.249  -1.498   0.489  0.00  0.00    -0.047 A 
ATOM      6  C4  UNL d   1       2.472  -0.415   0.843  0.00  0.00    -0.004 A 
ENDROOT
TORSDOF 0
ENDMDL
