MODEL 1
REMARK minimizedAffinity -1.12148046
REMARK minimizedRMSD -1
REMARK  0 active torsions:
REMARK  status: ('A' for Active; 'I' for Inactive)
ROOT
ATOM      1  C   UNL d   1       1.647  -1.779  -0.749  0.00  0.00     0.172 C 
ATOM      2  N   UNL d   1       0.742  -0.700  -0.432  0.00  0.00    -0.070 N 
ATOM      3  C1  UNL d   1       0.935   0.244   0.542  0.00  0.00    -0.004 A 
ATOM      4  C2  UNL d   1      -0.150   1.094   0.527  0.00  0.00    -0.047 A 
ATOM      5  C3  UNL d   1      -1.026   0.644  -0.489  0.00  0.00    -0.047 A 
ATOM      6  C4  UNL d   1      -0.449  -0.467  -1.067  0.00  0.00    -0.004 A 
ENDROOT
TORSDOF 0
ENDMDL
