MODEL 1
REMARK minimizedAffinity -2.56936359
REMARK minimizedRMSD -1
REMARK  0 active torsions:
REMARK  status: ('A' for Active; 'I' for Inactive)
ROOT
ATOM      1  C   UNL d   1       2.189  -1.205   0.827  0.00  0.00     0.172 C 
ATOM      2  N   UNL d   1       1.045  -0.392   0.489  0.00  0.00    -0.070 N 
ATOM      3  C1  UNL d   1       0.968   0.970   0.613  0.00  0.00    -0.004 A 
ATOM      4  C2  UNL d   1      -0.282   1.362   0.188  0.00  0.00    -0.047 A 
ATOM      5  C3  UNL d   1      -0.982   0.196  -0.205  0.00  0.00    -0.047 A 
ATOM      6  C4  UNL d   1      -0.137  -0.875  -0.008  0.00  0.00    -0.004 A 
ENDROOT
TORSDOF 0
ENDMDL
