MODEL 1
REMARK minimizedAffinity -4.26450109
REMARK minimizedRMSD -1
REMARK  0 active torsions:
REMARK  status: ('A' for Active; 'I' for Inactive)
ROOT
ATOM      1  C   UNL d   1      -0.276   0.045  -0.004  0.00  0.00     0.172 C 
ATOM      2  N   UNL d   1       1.125   0.026   0.347  0.00  0.00    -0.070 N 
ATOM      3  C1  UNL d   1       1.959   1.112   0.360  0.00  0.00    -0.004 A 
ATOM      4  C2  UNL d   1       3.209   0.680   0.748  0.00  0.00    -0.047 A 
ATOM      5  C3  UNL d   1       3.123  -0.714   0.975  0.00  0.00    -0.047 A 
ATOM      6  C4  UNL d   1       1.822  -1.093   0.719  0.00  0.00    -0.004 A 
ENDROOT
TORSDOF 0
ENDMDL
