MODEL 1
REMARK minimizedAffinity -4.03136683
REMARK minimizedRMSD -1
REMARK  0 active torsions:
REMARK  status: ('A' for Active; 'I' for Inactive)
ROOT
ATOM      1  C   UNL d   1      -0.438   0.082  -0.282  0.00  0.00     0.172 C 
ATOM      2  N   UNL d   1       0.974   0.118   0.015  0.00  0.00    -0.070 N 
ATOM      3  C1  UNL d   1       1.776  -0.974   0.217  0.00  0.00    -0.004 A 
ATOM      4  C2  UNL d   1       3.052  -0.519   0.472  0.00  0.00    -0.047 A 
ATOM      5  C3  UNL d   1       3.015   0.895   0.424  0.00  0.00    -0.047 A 
ATOM      6  C4  UNL d   1       1.717   1.262   0.139  0.00  0.00    -0.004 A 
ENDROOT
TORSDOF 0
ENDMDL
