MODEL 1
REMARK minimizedAffinity -4.19645309
REMARK minimizedRMSD -1
REMARK  0 active torsions:
REMARK  status: ('A' for Active; 'I' for Inactive)
ROOT
ATOM      1  C   UNL d   1      -0.362   0.634  -0.217  0.00  0.00     0.172 C 
ATOM      2  N   UNL d   1       0.775  -0.144   0.217  0.00  0.00    -0.070 N 
ATOM      3  C1  UNL d   1       1.857   0.339   0.904  0.00  0.00    -0.004 A 
ATOM      4  C2  UNL d   1       2.718  -0.713   1.128  0.00  0.00    -0.047 A 
ATOM      5  C3  UNL d   1       2.134  -1.868   0.555  0.00  0.00    -0.047 A 
ATOM      6  C4  UNL d   1       0.932  -1.487  -0.002  0.00  0.00    -0.004 A 
ENDROOT
TORSDOF 0
ENDMDL
