MODEL 1
REMARK minimizedAffinity -0.710050941
REMARK minimizedRMSD -1
REMARK  0 active torsions:
REMARK  status: ('A' for Active; 'I' for Inactive)
ROOT
ATOM      1  C   UNL d   1       3.383  -0.986  -0.121  0.00  0.00     0.172 C 
ATOM      2  N   UNL d   1       2.229  -0.121  -0.056  0.00  0.00    -0.070 N 
ATOM      3  C1  UNL d   1       2.251   1.247  -0.127  0.00  0.00    -0.004 A 
ATOM      4  C2  UNL d   1       0.952   1.696  -0.028  0.00  0.00    -0.047 A 
ATOM      5  C3  UNL d   1       0.120   0.559   0.109  0.00  0.00    -0.047 A 
ATOM      6  C4  UNL d   1       0.937  -0.552   0.089  0.00  0.00    -0.004 A 
ENDROOT
TORSDOF 0
ENDMDL
