MODEL 1
REMARK minimizedAffinity -2.34793687
REMARK minimizedRMSD -1
REMARK  0 active torsions:
REMARK  status: ('A' for Active; 'I' for Inactive)
ROOT
ATOM      1  C   UNL d   1      -0.232  -1.420  -0.780  0.00  0.00     0.172 C 
ATOM      2  N   UNL d   1       0.786  -0.835   0.061  0.00  0.00    -0.070 N 
ATOM      3  C1  UNL d   1       1.875  -1.490   0.569  0.00  0.00    -0.004 A 
ATOM      4  C2  UNL d   1       2.600  -0.587   1.317  0.00  0.00    -0.047 A 
ATOM      5  C3  UNL d   1       1.923   0.654   1.256  0.00  0.00    -0.047 A 
ATOM      6  C4  UNL d   1       0.803   0.472   0.472  0.00  0.00    -0.004 A 
ENDROOT
TORSDOF 0
ENDMDL
