MODEL 1
REMARK minimizedAffinity 16.105175
REMARK minimizedRMSD -1
REMARK  2 active torsions:
REMARK  status: ('A' for Active; 'I' for Inactive)
REMARK    1  A    between atoms: C1_2  and  C2_3 
REMARK    2  A    between atoms: C2_3  and  C3_4 
ROOT
ATOM      1  C3  UNL d   1       5.395   3.257   3.883  0.00  0.00    -0.075 A 
ATOM      2  C4  UNL d   1       4.781   3.735   2.716  0.00  0.00     0.002 A 
ATOM      3  C5  UNL d   1       4.788   5.099   2.420  0.00  0.00     0.002 A 
ATOM      4  C6  UNL d   1       5.399   6.000   3.289  0.00  0.00    -0.004 A 
ATOM      5  C7  UNL d   1       5.998   5.537   4.459  0.00  0.00     0.002 A 
ATOM      6  C8  UNL d   1       5.996   4.173   4.755  0.00  0.00     0.002 A 
ENDROOT
BRANCH   1   7
ATOM      7  C2  UNL d   1       5.416   1.779   4.194  0.00  0.00     0.056 C 
BRANCH   7   8
ATOM      8  C1  UNL d   1       4.345   1.337   5.196  0.00  0.00     0.007 C 
ATOM      9  C   UNL d   1       3.078   0.817   4.530  0.00  0.00     0.009 C 
ENDBRANCH   7   8
ENDBRANCH   1   7
TORSDOF 2
ENDMDL
