MODEL 1
REMARK minimizedAffinity 16.8733101
REMARK minimizedRMSD -1
REMARK  2 active torsions:
REMARK  status: ('A' for Active; 'I' for Inactive)
REMARK    1  A    between atoms: C1_2  and  C2_3 
REMARK    2  A    between atoms: C2_3  and  C3_4 
ROOT
ATOM      1  C3  UNL d   1       1.247  -1.733   4.019  0.00  0.00    -0.075 A 
ATOM      2  C4  UNL d   1       1.499  -0.400   4.375  0.00  0.00     0.002 A 
ATOM      3  C5  UNL d   1       0.980   0.647   3.613  0.00  0.00     0.002 A 
ATOM      4  C6  UNL d   1       0.214   0.376   2.481  0.00  0.00    -0.004 A 
ATOM      5  C7  UNL d   1      -0.028  -0.945   2.109  0.00  0.00     0.002 A 
ATOM      6  C8  UNL d   1       0.486  -1.994   2.873  0.00  0.00     0.002 A 
ENDROOT
BRANCH   1   7
ATOM      7  C2  UNL d   1       1.781  -2.870   4.857  0.00  0.00     0.056 C 
BRANCH   7   8
ATOM      8  C1  UNL d   1       3.257  -3.194   4.602  0.00  0.00     0.007 C 
ATOM      9  C   UNL d   1       3.941  -3.855   5.792  0.00  0.00     0.009 C 
ENDBRANCH   7   8
ENDBRANCH   1   7
TORSDOF 2
ENDMDL
