MODEL 1
REMARK minimizedAffinity 9.74847603
REMARK minimizedRMSD -1
REMARK  2 active torsions:
REMARK  status: ('A' for Active; 'I' for Inactive)
REMARK    1  A    between atoms: C1_2  and  C2_3 
REMARK    2  A    between atoms: C2_3  and  C3_4 
ROOT
ATOM      1  C3  UNL d   1       1.204  -1.133  -4.884  0.00  0.00    -0.075 A 
ATOM      2  C4  UNL d   1       0.635  -1.133  -3.602  0.00  0.00     0.002 A 
ATOM      3  C5  UNL d   1      -0.751  -1.152  -3.442  0.00  0.00     0.002 A 
ATOM      4  C6  UNL d   1      -1.583  -1.161  -4.559  0.00  0.00    -0.004 A 
ATOM      5  C7  UNL d   1      -1.029  -1.144  -5.837  0.00  0.00     0.002 A 
ATOM      6  C8  UNL d   1       0.357  -1.129  -6.000  0.00  0.00     0.002 A 
ENDROOT
BRANCH   1   7
ATOM      7  C2  UNL d   1       2.704  -1.142  -5.063  0.00  0.00     0.056 C 
BRANCH   7   8
ATOM      8  C1  UNL d   1       3.345  -2.523  -4.886  0.00  0.00     0.007 C 
ATOM      9  C   UNL d   1       3.789  -2.800  -3.456  0.00  0.00     0.009 C 
ENDBRANCH   7   8
ENDBRANCH   1   7
TORSDOF 2
ENDMDL
