MODEL 1
REMARK minimizedAffinity 12.9124422
REMARK minimizedRMSD -1
REMARK  2 active torsions:
REMARK  status: ('A' for Active; 'I' for Inactive)
REMARK    1  A    between atoms: C1_2  and  C2_3 
REMARK    2  A    between atoms: C2_3  and  C3_4 
ROOT
ATOM      1  C3  UNL d   1      -0.892  -2.985  -5.332  0.00  0.00    -0.075 A 
ATOM      2  C4  UNL d   1      -0.168  -1.985  -5.998  0.00  0.00     0.002 A 
ATOM      3  C5  UNL d   1       0.078  -0.758  -5.380  0.00  0.00     0.002 A 
ATOM      4  C6  UNL d   1      -0.404  -0.512  -4.097  0.00  0.00    -0.004 A 
ATOM      5  C7  UNL d   1      -1.139  -1.491  -3.432  0.00  0.00     0.002 A 
ATOM      6  C8  UNL d   1      -1.383  -2.721  -4.046  0.00  0.00     0.002 A 
ENDROOT
BRANCH   1   7
ATOM      7  C2  UNL d   1      -1.137  -4.325  -5.982  0.00  0.00     0.056 C 
BRANCH   7   8
ATOM      8  C1  UNL d   1      -0.296  -5.465  -5.398  0.00  0.00     0.007 C 
ATOM      9  C   UNL d   1       1.145  -5.460  -5.891  0.00  0.00     0.009 C 
ENDBRANCH   7   8
ENDBRANCH   1   7
TORSDOF 2
ENDMDL
