MODEL 1
REMARK minimizedAffinity 5.7330122
REMARK minimizedRMSD -1
REMARK  2 active torsions:
REMARK  status: ('A' for Active; 'I' for Inactive)
REMARK    1  A    between atoms: C1_2  and  C2_3 
REMARK    2  A    between atoms: C2_3  and  C3_4 
ROOT
ATOM      1  C3  UNL d   1      -0.784  -0.376   2.846  0.00  0.00    -0.075 A 
ATOM      2  C4  UNL d   1      -0.404  -1.502   3.591  0.00  0.00     0.002 A 
ATOM      3  C5  UNL d   1       0.918  -1.662   4.006  0.00  0.00     0.002 A 
ATOM      4  C6  UNL d   1       1.877  -0.708   3.674  0.00  0.00    -0.004 A 
ATOM      5  C7  UNL d   1       1.514   0.406   2.920  0.00  0.00     0.002 A 
ATOM      6  C8  UNL d   1       0.191   0.572   2.507  0.00  0.00     0.002 A 
ENDROOT
BRANCH   1   7
ATOM      7  C2  UNL d   1      -2.219  -0.181   2.418  0.00  0.00     0.056 C 
BRANCH   7   8
ATOM      8  C1  UNL d   1      -3.004  -1.487   2.255  0.00  0.00     0.007 C 
ATOM      9  C   UNL d   1      -4.292  -1.519   3.067  0.00  0.00     0.009 C 
ENDBRANCH   7   8
ENDBRANCH   1   7
TORSDOF 2
ENDMDL
