MODEL 1
REMARK minimizedAffinity 0.558648348
REMARK minimizedRMSD -1
REMARK  2 active torsions:
REMARK  status: ('A' for Active; 'I' for Inactive)
REMARK    1  A    between atoms: C1_2  and  C2_3 
REMARK    2  A    between atoms: C2_3  and  C3_4 
ROOT
ATOM      1  C3  UNL d   1       1.585  -0.844   4.046  0.00  0.00    -0.075 A 
ATOM      2  C4  UNL d   1       2.502   0.159   3.696  0.00  0.00     0.002 A 
ATOM      3  C5  UNL d   1       2.085   1.281   2.979  0.00  0.00     0.002 A 
ATOM      4  C6  UNL d   1       0.753   1.410   2.594  0.00  0.00    -0.004 A 
ATOM      5  C7  UNL d   1      -0.163   0.413   2.921  0.00  0.00     0.002 A 
ATOM      6  C8  UNL d   1       0.250  -0.709   3.642  0.00  0.00     0.002 A 
ENDROOT
BRANCH   1   7
ATOM      7  C2  UNL d   1       2.023  -2.046   4.847  0.00  0.00     0.056 C 
BRANCH   7   8
ATOM      8  C1  UNL d   1       3.530  -2.315   4.794  0.00  0.00     0.007 C 
ATOM      9  C   UNL d   1       4.043  -3.100   5.994  0.00  0.00     0.009 C 
ENDBRANCH   7   8
ENDBRANCH   1   7
TORSDOF 2
ENDMDL
