MODEL 1
REMARK minimizedAffinity 12.3077621
REMARK minimizedRMSD -1
REMARK  2 active torsions:
REMARK  status: ('A' for Active; 'I' for Inactive)
REMARK    1  A    between atoms: C1_2  and  C2_3 
REMARK    2  A    between atoms: C2_3  and  C3_4 
ROOT
ATOM      1  C3  UNL d   1      -0.316  -2.812  -5.332  0.00  0.00    -0.075 A 
ATOM      2  C4  UNL d   1      -0.899  -2.426  -4.116  0.00  0.00     0.002 A 
ATOM      3  C5  UNL d   1      -0.564  -1.207  -3.526  0.00  0.00     0.002 A 
ATOM      4  C6  UNL d   1       0.365  -0.366  -4.135  0.00  0.00    -0.004 A 
ATOM      5  C7  UNL d   1       0.963  -0.748  -5.335  0.00  0.00     0.002 A 
ATOM      6  C8  UNL d   1       0.625  -1.965  -5.930  0.00  0.00     0.002 A 
ENDROOT
BRANCH   1   7
ATOM      7  C2  UNL d   1      -0.697  -4.116  -5.991  0.00  0.00     0.056 C 
BRANCH   7   8
ATOM      8  C1  UNL d   1      -1.831  -4.865  -5.283  0.00  0.00     0.007 C 
ATOM      9  C   UNL d   1      -3.169  -4.746  -6.000  0.00  0.00     0.009 C 
ENDBRANCH   7   8
ENDBRANCH   1   7
TORSDOF 2
ENDMDL
