MODEL 1
REMARK minimizedAffinity 8.54350185
REMARK minimizedRMSD -1
REMARK  2 active torsions:
REMARK  status: ('A' for Active; 'I' for Inactive)
REMARK    1  A    between atoms: C1_2  and  C2_3 
REMARK    2  A    between atoms: C2_3  and  C3_4 
ROOT
ATOM      1  C3  UNL d   1       2.772  -0.028  -5.532  0.00  0.00    -0.075 A 
ATOM      2  C4  UNL d   1       1.375   0.055  -5.615  0.00  0.00     0.002 A 
ATOM      3  C5  UNL d   1       0.587  -1.087  -5.470  0.00  0.00     0.002 A 
ATOM      4  C6  UNL d   1       1.185  -2.326  -5.250  0.00  0.00    -0.004 A 
ATOM      5  C7  UNL d   1       2.573  -2.423  -5.182  0.00  0.00     0.002 A 
ATOM      6  C8  UNL d   1       3.364  -1.281  -5.323  0.00  0.00     0.002 A 
ENDROOT
BRANCH   1   7
ATOM      7  C2  UNL d   1       3.629   1.209  -5.659  0.00  0.00     0.056 C 
BRANCH   7   8
ATOM      8  C1  UNL d   1       5.096   0.920  -5.997  0.00  0.00     0.007 C 
ATOM      9  C   UNL d   1       5.982   2.156  -5.928  0.00  0.00     0.009 C 
ENDBRANCH   7   8
ENDBRANCH   1   7
TORSDOF 2
ENDMDL
