MODEL 1
REMARK minimizedAffinity 8.30974197
REMARK minimizedRMSD -1
REMARK  2 active torsions:
REMARK  status: ('A' for Active; 'I' for Inactive)
REMARK    1  A    between atoms: C1_2  and  C2_3 
REMARK    2  A    between atoms: C2_3  and  C3_4 
ROOT
ATOM      1  C3  UNL d   1       1.495   1.162   1.845  0.00  0.00    -0.075 A 
ATOM      2  C4  UNL d   1       0.520   0.234   1.452  0.00  0.00     0.002 A 
ATOM      3  C5  UNL d   1       0.137  -0.798   2.310  0.00  0.00     0.002 A 
ATOM      4  C6  UNL d   1       0.730  -0.920   3.564  0.00  0.00    -0.004 A 
ATOM      5  C7  UNL d   1       1.712  -0.014   3.959  0.00  0.00     0.002 A 
ATOM      6  C8  UNL d   1       2.094   1.022   3.104  0.00  0.00     0.002 A 
ENDROOT
BRANCH   1   7
ATOM      7  C2  UNL d   1       1.893   2.298   0.933  0.00  0.00     0.056 C 
BRANCH   7   8
ATOM      8  C1  UNL d   1       3.390   2.623   0.958  0.00  0.00     0.007 C 
ATOM      9  C   UNL d   1       3.739   3.769   1.898  0.00  0.00     0.009 C 
ENDBRANCH   7   8
ENDBRANCH   1   7
TORSDOF 2
ENDMDL
