MODEL 1
REMARK minimizedAffinity 8.87847137
REMARK minimizedRMSD -1
REMARK  2 active torsions:
REMARK  status: ('A' for Active; 'I' for Inactive)
REMARK    1  A    between atoms: C1_2  and  C2_3 
REMARK    2  A    between atoms: C2_3  and  C3_4 
ROOT
ATOM      1  C3  UNL d   1       2.679  -0.527  -5.444  0.00  0.00    -0.075 A 
ATOM      2  C4  UNL d   1       2.260  -1.744  -6.000  0.00  0.00     0.002 A 
ATOM      3  C5  UNL d   1       0.911  -2.103  -5.986  0.00  0.00     0.002 A 
ATOM      4  C6  UNL d   1      -0.032  -1.256  -5.408  0.00  0.00    -0.004 A 
ATOM      5  C7  UNL d   1       0.376  -0.052  -4.838  0.00  0.00     0.002 A 
ATOM      6  C8  UNL d   1       1.723   0.312  -4.854  0.00  0.00     0.002 A 
ENDROOT
BRANCH   1   7
ATOM      7  C2  UNL d   1       4.132  -0.120  -5.482  0.00  0.00     0.056 C 
BRANCH   7   8
ATOM      8  C1  UNL d   1       4.368   1.304  -5.994  0.00  0.00     0.007 C 
ATOM      9  C   UNL d   1       5.837   1.705  -6.000  0.00  0.00     0.009 C 
ENDBRANCH   7   8
ENDBRANCH   1   7
TORSDOF 2
ENDMDL
