MODEL 1
REMARK minimizedAffinity 15.3632679
REMARK minimizedRMSD -1
REMARK  2 active torsions:
REMARK  status: ('A' for Active; 'I' for Inactive)
REMARK    1  A    between atoms: C1_2  and  C2_3 
REMARK    2  A    between atoms: C2_3  and  C3_4 
ROOT
ATOM      1  C3  UNL d   1       2.759   0.146  -5.583  0.00  0.00    -0.075 A 
ATOM      2  C4  UNL d   1       3.371  -1.039  -5.148  0.00  0.00     0.002 A 
ATOM      3  C5  UNL d   1       2.665  -2.242  -5.150  0.00  0.00     0.002 A 
ATOM      4  C6  UNL d   1       1.339  -2.275  -5.576  0.00  0.00    -0.004 A 
ATOM      5  C7  UNL d   1       0.716  -1.101  -5.994  0.00  0.00     0.002 A 
ATOM      6  C8  UNL d   1       1.421   0.104  -5.997  0.00  0.00     0.002 A 
ENDROOT
BRANCH   1   7
ATOM      7  C2  UNL d   1       3.526   1.446  -5.611  0.00  0.00     0.056 C 
BRANCH   7   8
ATOM      8  C1  UNL d   1       5.015   1.285  -5.933  0.00  0.00     0.007 C 
ATOM      9  C   UNL d   1       5.786   2.598  -5.883  0.00  0.00     0.009 C 
ENDBRANCH   7   8
ENDBRANCH   1   7
TORSDOF 2
ENDMDL
