MODEL 1
REMARK minimizedAffinity -3.04035664
REMARK minimizedRMSD -1
REMARK  1 active torsions:
REMARK  status: ('A' for Active; 'I' for Inactive)
REMARK    1  A    between atoms: C1_2  and  C2_3 
ROOT
ATOM      1  C2  UNL d   1       0.800   0.675   0.187  0.00  0.00    -0.073 A 
ATOM      2  C3  UNL d   1       0.495   0.774  -1.176  0.00  0.00    -0.002 A 
ATOM      3  C4  UNL d   1       0.144  -0.364  -1.903  0.00  0.00     0.004 A 
ATOM      4  C5  UNL d   1       0.087  -1.608  -1.276  0.00  0.00    -0.004 A 
ATOM      5  C6  UNL d   1       0.377  -1.725   0.087  0.00  0.00    -0.075 A 
ATOM      6  C7  UNL d   1       0.323  -3.057   0.776  0.00  0.00     0.076 C 
ATOM      7  C8  UNL d   1       0.732  -0.579   0.810  0.00  0.00     0.001 A 
ENDROOT
BRANCH   1   8
ATOM      8  C1  UNL d   1       1.174   1.902   0.978  0.00  0.00     0.053 C 
ATOM      9  C   UNL d   1       2.499   2.492   0.523  0.00  0.00     0.018 C 
ENDBRANCH   1   8
TORSDOF 1
ENDMDL
