MODEL 1
REMARK minimizedAffinity -0.659760118
REMARK minimizedRMSD -1
REMARK  1 active torsions:
REMARK  status: ('A' for Active; 'I' for Inactive)
REMARK    1  A    between atoms: C1_2  and  C2_3 
ROOT
ATOM      1  C2  UNL d   1      -1.623   0.545   0.988  0.00  0.00    -0.073 A 
ATOM      2  C3  UNL d   1      -0.664   1.207   0.212  0.00  0.00    -0.002 A 
ATOM      3  C4  UNL d   1       0.412   0.503  -0.331  0.00  0.00     0.004 A 
ATOM      4  C5  UNL d   1       0.536  -0.869  -0.110  0.00  0.00    -0.004 A 
ATOM      5  C6  UNL d   1      -0.418  -1.550   0.652  0.00  0.00    -0.075 A 
ATOM      6  C7  UNL d   1      -0.298  -3.025   0.900  0.00  0.00     0.076 C 
ATOM      7  C8  UNL d   1      -1.494  -0.836   1.196  0.00  0.00     0.001 A 
ENDROOT
BRANCH   1   8
ATOM      8  C1  UNL d   1      -2.789   1.300   1.570  0.00  0.00     0.053 C 
ATOM      9  C   UNL d   1      -3.458   2.199   0.542  0.00  0.00     0.018 C 
ENDBRANCH   1   8
TORSDOF 1
ENDMDL
