MODEL 1
REMARK minimizedAffinity -2.04709268
REMARK minimizedRMSD -1
REMARK  1 active torsions:
REMARK  status: ('A' for Active; 'I' for Inactive)
REMARK    1  A    between atoms: C1_2  and  C2_3 
ROOT
ATOM      1  C2  UNL d   1       1.072   4.269   0.912  0.00  0.00    -0.073 A 
ATOM      2  C3  UNL d   1       2.131   3.817   1.707  0.00  0.00    -0.002 A 
ATOM      3  C4  UNL d   1       3.311   3.362   1.116  0.00  0.00     0.004 A 
ATOM      4  C5  UNL d   1       3.446   3.360  -0.272  0.00  0.00    -0.004 A 
ATOM      5  C6  UNL d   1       2.403   3.819  -1.083  0.00  0.00    -0.075 A 
ATOM      6  C7  UNL d   1       2.531   3.821  -2.578  0.00  0.00     0.076 C 
ATOM      7  C8  UNL d   1       1.220   4.271  -0.483  0.00  0.00     0.001 A 
ENDROOT
BRANCH   1   8
ATOM      8  C1  UNL d   1      -0.202   4.767   1.545  0.00  0.00     0.053 C 
ATOM      9  C   UNL d   1       0.067   5.794   2.633  0.00  0.00     0.018 C 
ENDBRANCH   1   8
TORSDOF 1
ENDMDL
