MODEL 1
REMARK minimizedAffinity -3.04748297
REMARK minimizedRMSD -1
REMARK  1 active torsions:
REMARK  status: ('A' for Active; 'I' for Inactive)
REMARK    1  A    between atoms: C1_2  and  C2_3 
ROOT
ATOM      1  C2  UNL d   1      -2.657   0.929   1.539  0.00  0.00    -0.073 A 
ATOM      2  C3  UNL d   1      -2.242   0.133   2.613  0.00  0.00    -0.002 A 
ATOM      3  C4  UNL d   1      -1.118  -0.685   2.491  0.00  0.00     0.004 A 
ATOM      4  C5  UNL d   1      -0.394  -0.711   1.299  0.00  0.00    -0.004 A 
ATOM      5  C6  UNL d   1      -0.786   0.087   0.218  0.00  0.00    -0.075 A 
ATOM      6  C7  UNL d   1      -0.019   0.069  -1.071  0.00  0.00     0.076 C 
ATOM      7  C8  UNL d   1      -1.917   0.904   0.348  0.00  0.00     0.001 A 
ENDROOT
BRANCH   1   8
ATOM      8  C1  UNL d   1      -3.866   1.819   1.668  0.00  0.00     0.053 C 
ATOM      9  C   UNL d   1      -4.724   1.444   2.865  0.00  0.00     0.018 C 
ENDBRANCH   1   8
TORSDOF 1
ENDMDL
