MODEL 1
REMARK minimizedAffinity -1.58656502
REMARK minimizedRMSD -1
REMARK  1 active torsions:
REMARK  status: ('A' for Active; 'I' for Inactive)
REMARK    1  A    between atoms: C1_2  and  C2_3 
ROOT
ATOM      1  C2  UNL d   1      -1.722   0.512   0.670  0.00  0.00    -0.073 A 
ATOM      2  C3  UNL d   1      -1.849  -0.363   1.755  0.00  0.00    -0.002 A 
ATOM      3  C4  UNL d   1      -1.155  -1.574   1.769  0.00  0.00     0.004 A 
ATOM      4  C5  UNL d   1      -0.323  -1.918   0.703  0.00  0.00    -0.004 A 
ATOM      5  C6  UNL d   1      -0.175  -1.052  -0.385  0.00  0.00    -0.075 A 
ATOM      6  C7  UNL d   1       0.714  -1.409  -1.540  0.00  0.00     0.076 C 
ATOM      7  C8  UNL d   1      -0.877   0.161  -0.392  0.00  0.00     0.001 A 
ENDROOT
BRANCH   1   8
ATOM      8  C1  UNL d   1      -2.464   1.823   0.654  0.00  0.00     0.053 C 
ATOM      9  C   UNL d   1      -3.970   1.627   0.730  0.00  0.00     0.018 C 
ENDBRANCH   1   8
TORSDOF 1
ENDMDL
