MODEL 1
REMARK minimizedAffinity -3.67906785
REMARK minimizedRMSD -1
REMARK  1 active torsions:
REMARK  status: ('A' for Active; 'I' for Inactive)
REMARK    1  A    between atoms: C1_2  and  C2_3 
ROOT
ATOM      1  C2  UNL d   1      -2.201   1.319   0.340  0.00  0.00    -0.073 A 
ATOM      2  C3  UNL d   1      -1.005   1.786  -0.216  0.00  0.00    -0.002 A 
ATOM      3  C4  UNL d   1       0.121   0.962  -0.263  0.00  0.00     0.004 A 
ATOM      4  C5  UNL d   1       0.060  -0.338   0.239  0.00  0.00    -0.004 A 
ATOM      5  C6  UNL d   1      -1.130  -0.827   0.787  0.00  0.00    -0.075 A 
ATOM      6  C7  UNL d   1      -1.211  -2.223   1.333  0.00  0.00     0.076 C 
ATOM      7  C8  UNL d   1      -2.255   0.007   0.833  0.00  0.00     0.001 A 
ENDROOT
BRANCH   1   8
ATOM      8  C1  UNL d   1      -3.420   2.203   0.387  0.00  0.00     0.053 C 
ATOM      9  C   UNL d   1      -4.175   2.064   1.700  0.00  0.00     0.018 C 
ENDBRANCH   1   8
TORSDOF 1
ENDMDL
