MODEL 1
REMARK minimizedAffinity -2.44910264
REMARK minimizedRMSD -1
REMARK  1 active torsions:
REMARK  status: ('A' for Active; 'I' for Inactive)
REMARK    1  A    between atoms: C1_2  and  C2_3 
ROOT
ATOM      1  C2  UNL d   1       0.770   1.671   0.098  0.00  0.00    -0.073 A 
ATOM      2  C3  UNL d   1       2.166   1.651   0.002  0.00  0.00    -0.002 A 
ATOM      3  C4  UNL d   1       2.919   2.737   0.452  0.00  0.00     0.004 A 
ATOM      4  C5  UNL d   1       2.286   3.848   1.007  0.00  0.00    -0.004 A 
ATOM      5  C6  UNL d   1       0.892   3.882   1.123  0.00  0.00    -0.075 A 
ATOM      6  C7  UNL d   1       0.196   5.071   1.717  0.00  0.00     0.076 C 
ATOM      7  C8  UNL d   1       0.143   2.789   0.667  0.00  0.00     0.001 A 
ENDROOT
BRANCH   1   8
ATOM      8  C1  UNL d   1      -0.047   0.499  -0.380  0.00  0.00     0.053 C 
ATOM      9  C   UNL d   1       0.173   0.215  -1.858  0.00  0.00     0.018 C 
ENDBRANCH   1   8
TORSDOF 1
ENDMDL
