MODEL 1
REMARK minimizedAffinity 6.3926487
REMARK minimizedRMSD -1
REMARK  1 active torsions:
REMARK  status: ('A' for Active; 'I' for Inactive)
REMARK    1  A    between atoms: C1_2  and  C2_3 
ROOT
ATOM      1  C2  UNL d   1      -1.487  -4.746  -4.048  0.00  0.00    -0.073 A 
ATOM      2  C3  UNL d   1      -1.808  -5.954  -3.418  0.00  0.00    -0.002 A 
ATOM      3  C4  UNL d   1      -2.105  -5.981  -2.054  0.00  0.00     0.004 A 
ATOM      4  C5  UNL d   1      -2.091  -4.801  -1.310  0.00  0.00    -0.004 A 
ATOM      5  C6  UNL d   1      -1.784  -3.583  -1.924  0.00  0.00    -0.075 A 
ATOM      6  C7  UNL d   1      -1.763  -2.306  -1.136  0.00  0.00     0.076 C 
ATOM      7  C8  UNL d   1      -1.485  -3.564  -3.293  0.00  0.00     0.001 A 
ENDROOT
BRANCH   1   8
ATOM      8  C1  UNL d   1      -1.172  -4.711  -5.521  0.00  0.00     0.053 C 
ATOM      9  C   UNL d   1      -0.518  -5.999  -5.995  0.00  0.00     0.018 C 
ENDBRANCH   1   8
TORSDOF 1
ENDMDL
