MODEL 1
REMARK minimizedAffinity 3.65417218
REMARK minimizedRMSD -1
REMARK  1 active torsions:
REMARK  status: ('A' for Active; 'I' for Inactive)
REMARK    1  A    between atoms: C1_2  and  C2_3 
ROOT
ATOM      1  C2  UNL d   1      -1.367   2.283   1.140  0.00  0.00    -0.073 A 
ATOM      2  C3  UNL d   1      -0.211   1.574   0.791  0.00  0.00    -0.002 A 
ATOM      3  C4  UNL d   1       1.012   1.883   1.388  0.00  0.00     0.004 A 
ATOM      4  C5  UNL d   1       1.091   2.896   2.343  0.00  0.00    -0.004 A 
ATOM      5  C6  UNL d   1      -0.055   3.607   2.714  0.00  0.00    -0.075 A 
ATOM      6  C7  UNL d   1       0.013   4.701   3.739  0.00  0.00     0.076 C 
ATOM      7  C8  UNL d   1      -1.279   3.293   2.108  0.00  0.00     0.001 A 
ENDROOT
BRANCH   1   8
ATOM      8  C1  UNL d   1      -2.691   1.949   0.502  0.00  0.00     0.053 C 
ATOM      9  C   UNL d   1      -3.759   1.634   1.538  0.00  0.00     0.018 C 
ENDBRANCH   1   8
TORSDOF 1
ENDMDL
