MODEL 1
REMARK minimizedAffinity 5.81360579
REMARK minimizedRMSD -1
REMARK  1 active torsions:
REMARK  status: ('A' for Active; 'I' for Inactive)
REMARK    1  A    between atoms: C1_2  and  C2_3 
ROOT
ATOM      1  C2  UNL d   1       1.962   4.294   1.579  0.00  0.00    -0.073 A 
ATOM      2  C3  UNL d   1       1.418   3.031   1.319  0.00  0.00    -0.002 A 
ATOM      3  C4  UNL d   1       2.023   2.180   0.394  0.00  0.00     0.004 A 
ATOM      4  C5  UNL d   1       3.179   2.579  -0.276  0.00  0.00    -0.004 A 
ATOM      5  C6  UNL d   1       3.745   3.833  -0.021  0.00  0.00    -0.075 A 
ATOM      6  C7  UNL d   1       4.987   4.278  -0.735  0.00  0.00     0.076 C 
ATOM      7  C8  UNL d   1       3.130   4.683   0.907  0.00  0.00     0.001 A 
ENDROOT
BRANCH   1   8
ATOM      8  C1  UNL d   1       1.316   5.215   2.582  0.00  0.00     0.053 C 
ATOM      9  C   UNL d   1      -0.113   5.565   2.197  0.00  0.00     0.018 C 
ENDBRANCH   1   8
TORSDOF 1
ENDMDL
