MODEL 1
REMARK minimizedAffinity 2.66044688
REMARK minimizedRMSD -1
REMARK  0 active torsions:
REMARK  status: ('A' for Active; 'I' for Inactive)
ROOT
ATOM      1  C   UNL d   1      -1.384  -0.268   2.199  0.00  0.00     0.124 A 
ATOM      2  C1  UNL d   1      -0.056   0.030   1.932  0.00  0.00     0.062 A 
ATOM      3  C2  UNL d   1       0.962  -0.625   2.620  0.00  0.00     0.162 A 
ATOM      4  C3  UNL d   1       0.654  -1.586   3.583  0.00  0.00    -0.034 A 
ATOM      5  C4  UNL d   1      -0.685  -1.880   3.847  0.00  0.00     0.162 A 
ATOM      6  C5  UNL d   1      -1.698  -1.223   3.157  0.00  0.00     0.062 A 
ATOM      7  F   UNL d   1      -2.981  -1.512   3.417  0.00  0.00    -0.097 F 
ATOM      8  F1  UNL d   1      -1.016  -2.799   4.767  0.00  0.00    -0.096 F 
ATOM      9  I   UNL d   1       2.172  -2.567   4.614  0.00  0.00    -0.060 I 
ATOM     10  F2  UNL d   1       2.237  -0.316   2.341  0.00  0.00    -0.096 F 
ATOM     11  F3  UNL d   1       0.250   0.953   1.008  0.00  0.00    -0.097 F 
ATOM     12  F4  UNL d   1      -2.361   0.364   1.536  0.00  0.00    -0.092 F 
ENDROOT
TORSDOF 0
ENDMDL
