MODEL 1
REMARK minimizedAffinity 1.10080588
REMARK minimizedRMSD -1
REMARK  0 active torsions:
REMARK  status: ('A' for Active; 'I' for Inactive)
ROOT
ATOM      1  C   UNL d   1      -1.271  -0.517   2.061  0.00  0.00     0.124 A 
ATOM      2  C1  UNL d   1       0.049  -0.100   1.968  0.00  0.00     0.062 A 
ATOM      3  C2  UNL d   1       1.031  -0.705   2.747  0.00  0.00     0.162 A 
ATOM      4  C3  UNL d   1       0.696  -1.735   3.626  0.00  0.00    -0.034 A 
ATOM      5  C4  UNL d   1      -0.634  -2.149   3.714  0.00  0.00     0.162 A 
ATOM      6  C5  UNL d   1      -1.612  -1.541   2.933  0.00  0.00     0.062 A 
ATOM      7  F   UNL d   1      -2.887  -1.945   3.024  0.00  0.00    -0.097 F 
ATOM      8  F1  UNL d   1      -0.991  -3.136   4.549  0.00  0.00    -0.096 F 
ATOM      9  I   UNL d   1       2.161  -2.642   4.793  0.00  0.00    -0.060 I 
ATOM     10  F2  UNL d   1       2.299  -0.281   2.637  0.00  0.00    -0.096 F 
ATOM     11  F3  UNL d   1       0.381   0.890   1.126  0.00  0.00    -0.097 F 
ATOM     12  F4  UNL d   1      -2.214   0.068   1.310  0.00  0.00    -0.092 F 
ENDROOT
TORSDOF 0
ENDMDL
