MODEL 1
REMARK minimizedAffinity 5.88835382
REMARK minimizedRMSD -1
REMARK  0 active torsions:
REMARK  status: ('A' for Active; 'I' for Inactive)
ROOT
ATOM      1  C   UNL d   1      -1.187  -0.622   2.096  0.00  0.00     0.124 A 
ATOM      2  C1  UNL d   1       0.109  -0.230   1.791  0.00  0.00     0.062 A 
ATOM      3  C2  UNL d   1       1.178  -0.695   2.550  0.00  0.00     0.162 A 
ATOM      4  C3  UNL d   1       0.957  -1.560   3.622  0.00  0.00    -0.034 A 
ATOM      5  C4  UNL d   1      -0.349  -1.949   3.924  0.00  0.00     0.162 A 
ATOM      6  C5  UNL d   1      -1.415  -1.481   3.162  0.00  0.00     0.062 A 
ATOM      7  F   UNL d   1      -2.666  -1.862   3.458  0.00  0.00    -0.097 F 
ATOM      8  F1  UNL d   1      -0.598  -2.779   4.948  0.00  0.00    -0.096 F 
ATOM      9  I   UNL d   1       2.553  -2.258   4.760  0.00  0.00    -0.060 I 
ATOM     10  F2  UNL d   1       2.420  -0.299   2.233  0.00  0.00    -0.096 F 
ATOM     11  F3  UNL d   1       0.331   0.601   0.762  0.00  0.00    -0.097 F 
ATOM     12  F4  UNL d   1      -2.214  -0.172   1.364  0.00  0.00    -0.092 F 
ENDROOT
TORSDOF 0
ENDMDL
