MODEL 1
REMARK minimizedAffinity 6.36791658
REMARK minimizedRMSD -1
REMARK  0 active torsions:
REMARK  status: ('A' for Active; 'I' for Inactive)
ROOT
ATOM      1  C   UNL d   1       1.714  -0.578   2.316  0.00  0.00     0.124 A 
ATOM      2  C1  UNL d   1       0.687   0.094   1.668  0.00  0.00     0.062 A 
ATOM      3  C2  UNL d   1      -0.640  -0.217   1.950  0.00  0.00     0.162 A 
ATOM      4  C3  UNL d   1      -0.948  -1.205   2.885  0.00  0.00    -0.034 A 
ATOM      5  C4  UNL d   1       0.090  -1.877   3.533  0.00  0.00     0.162 A 
ATOM      6  C5  UNL d   1       1.415  -1.562   3.248  0.00  0.00     0.062 A 
ATOM      7  F   UNL d   1       2.406  -2.212   3.875  0.00  0.00    -0.097 F 
ATOM      8  F1  UNL d   1      -0.171  -2.831   4.438  0.00  0.00    -0.096 F 
ATOM      9  I   UNL d   1      -2.932  -1.673   3.309  0.00  0.00    -0.060 I 
ATOM     10  F2  UNL d   1      -1.612   0.448   1.308  0.00  0.00    -0.096 F 
ATOM     11  F3  UNL d   1       0.973   1.045   0.767  0.00  0.00    -0.097 F 
ATOM     12  F4  UNL d   1       2.990  -0.277   2.043  0.00  0.00    -0.092 F 
ENDROOT
TORSDOF 0
ENDMDL
