MODEL 1
REMARK minimizedAffinity 5.88822126
REMARK minimizedRMSD -1
REMARK  0 active torsions:
REMARK  status: ('A' for Active; 'I' for Inactive)
ROOT
ATOM      1  C   UNL d   1       1.086  -0.964   3.375  0.00  0.00     0.124 A 
ATOM      2  C1  UNL d   1       0.651  -2.117   4.012  0.00  0.00     0.062 A 
ATOM      3  C2  UNL d   1      -0.681  -2.508   3.919  0.00  0.00     0.162 A 
ATOM      4  C3  UNL d   1      -1.589  -1.746   3.183  0.00  0.00    -0.034 A 
ATOM      5  C4  UNL d   1      -1.144  -0.586   2.546  0.00  0.00     0.162 A 
ATOM      6  C5  UNL d   1       0.189  -0.199   2.642  0.00  0.00     0.062 A 
ATOM      7  F   UNL d   1       0.607   0.915   2.026  0.00  0.00    -0.097 F 
ATOM      8  F1  UNL d   1      -1.990   0.170   1.831  0.00  0.00    -0.096 F 
ATOM      9  I   UNL d   1      -3.582  -2.328   3.041  0.00  0.00    -0.060 I 
ATOM     10  F2  UNL d   1      -1.074  -3.628   4.545  0.00  0.00    -0.096 F 
ATOM     11  F3  UNL d   1       1.516  -2.857   4.721  0.00  0.00    -0.097 F 
ATOM     12  F4  UNL d   1       2.369  -0.589   3.467  0.00  0.00    -0.092 F 
ENDROOT
TORSDOF 0
ENDMDL
