MODEL 1
REMARK minimizedAffinity 5.05991697
REMARK minimizedRMSD -1
REMARK  0 active torsions:
REMARK  status: ('A' for Active; 'I' for Inactive)
ROOT
ATOM      1  C   UNL d   1      -1.367  -0.167   1.943  0.00  0.00     0.124 A 
ATOM      2  C1  UNL d   1      -1.608  -1.129   2.914  0.00  0.00     0.062 A 
ATOM      3  C2  UNL d   1      -0.547  -1.704   3.608  0.00  0.00     0.162 A 
ATOM      4  C3  UNL d   1       0.765  -1.317   3.334  0.00  0.00    -0.034 A 
ATOM      5  C4  UNL d   1       0.999  -0.349   2.356  0.00  0.00     0.162 A 
ATOM      6  C5  UNL d   1      -0.064   0.222   1.665  0.00  0.00     0.062 A 
ATOM      7  F   UNL d   1       0.170   1.152   0.728  0.00  0.00    -0.097 F 
ATOM      8  F1  UNL d   1       2.248   0.046   2.068  0.00  0.00    -0.096 F 
ATOM      9  I   UNL d   1       2.354  -2.175   4.370  0.00  0.00    -0.060 I 
ATOM     10  F2  UNL d   1      -0.809  -2.632   4.540  0.00  0.00    -0.096 F 
ATOM     11  F3  UNL d   1      -2.865  -1.507   3.183  0.00  0.00    -0.097 F 
ATOM     12  F4  UNL d   1      -2.389   0.384   1.276  0.00  0.00    -0.092 F 
ENDROOT
TORSDOF 0
ENDMDL
