MODEL 1
REMARK minimizedAffinity 9.07131386
REMARK minimizedRMSD -1
REMARK  0 active torsions:
REMARK  status: ('A' for Active; 'I' for Inactive)
ROOT
ATOM      1  C   UNL d   1       1.213  -2.523   3.908  0.00  0.00     0.124 A 
ATOM      2  C1  UNL d   1      -0.134  -2.851   3.974  0.00  0.00     0.062 A 
ATOM      3  C2  UNL d   1      -1.079  -2.063   3.324  0.00  0.00     0.162 A 
ATOM      4  C3  UNL d   1      -0.680  -0.939   2.600  0.00  0.00    -0.034 A 
ATOM      5  C4  UNL d   1       0.676  -0.615   2.539  0.00  0.00     0.162 A 
ATOM      6  C5  UNL d   1       1.617  -1.405   3.190  0.00  0.00     0.062 A 
ATOM      7  F   UNL d   1       2.918  -1.087   3.125  0.00  0.00    -0.097 F 
ATOM      8  F1  UNL d   1       1.094   0.459   1.852  0.00  0.00    -0.096 F 
ATOM      9  I   UNL d   1      -2.091   0.242   1.626  0.00  0.00    -0.060 I 
ATOM     10  F2  UNL d   1      -2.374  -2.404   3.405  0.00  0.00    -0.096 F 
ATOM     11  F3  UNL d   1      -0.526  -3.929   4.667  0.00  0.00    -0.097 F 
ATOM     12  F4  UNL d   1       2.120  -3.282   4.535  0.00  0.00    -0.092 F 
ENDROOT
TORSDOF 0
ENDMDL
