MODEL 1
REMARK minimizedAffinity 3.54423261
REMARK minimizedRMSD -1
REMARK  0 active torsions:
REMARK  status: ('A' for Active; 'I' for Inactive)
ROOT
ATOM      1  C   UNL d   1      -1.797  -0.595   1.677  0.00  0.00     0.124 A 
ATOM      2  C1  UNL d   1      -0.568   0.047   1.744  0.00  0.00     0.062 A 
ATOM      3  C2  UNL d   1       0.440  -0.455   2.560  0.00  0.00     0.162 A 
ATOM      4  C3  UNL d   1       0.225  -1.607   3.317  0.00  0.00    -0.034 A 
ATOM      5  C4  UNL d   1      -1.013  -2.247   3.245  0.00  0.00     0.162 A 
ATOM      6  C5  UNL d   1      -2.018  -1.741   2.427  0.00  0.00     0.062 A 
ATOM      7  F   UNL d   1      -3.205  -2.363   2.364  0.00  0.00    -0.097 F 
ATOM      8  F1  UNL d   1      -1.254  -3.357   3.959  0.00  0.00    -0.096 F 
ATOM      9  I   UNL d   1       1.731  -2.362   4.539  0.00  0.00    -0.060 I 
ATOM     10  F2  UNL d   1       1.618   0.186   2.605  0.00  0.00    -0.096 F 
ATOM     11  F3  UNL d   1      -0.352   1.155   1.020  0.00  0.00    -0.097 F 
ATOM     12  F4  UNL d   1      -2.766  -0.109   0.891  0.00  0.00    -0.092 F 
ENDROOT
TORSDOF 0
ENDMDL
