MODEL 1
REMARK minimizedAffinity 3.73000383
REMARK minimizedRMSD -1
REMARK  0 active torsions:
REMARK  status: ('A' for Active; 'I' for Inactive)
ROOT
ATOM      1  C   UNL d   1       0.342  -1.528   3.006  0.00  0.00     0.124 A 
ATOM      2  C1  UNL d   1       1.101  -0.382   2.812  0.00  0.00     0.062 A 
ATOM      3  C2  UNL d   1       2.267  -0.182   3.545  0.00  0.00     0.162 A 
ATOM      4  C3  UNL d   1       2.682  -1.131   4.479  0.00  0.00    -0.034 A 
ATOM      5  C4  UNL d   1       1.914  -2.280   4.670  0.00  0.00     0.162 A 
ATOM      6  C5  UNL d   1       0.749  -2.476   3.935  0.00  0.00     0.062 A 
ATOM      7  F   UNL d   1       0.018  -3.584   4.124  0.00  0.00    -0.097 F 
ATOM      8  F1  UNL d   1       2.284  -3.213   5.560  0.00  0.00    -0.096 F 
ATOM      9  I   UNL d   1       4.425  -0.835   5.578  0.00  0.00    -0.060 I 
ATOM     10  F2  UNL d   1       2.980   0.935   3.336  0.00  0.00    -0.096 F 
ATOM     11  F3  UNL d   1       0.709   0.535   1.916  0.00  0.00    -0.097 F 
ATOM     12  F4  UNL d   1      -0.780  -1.718   2.300  0.00  0.00    -0.092 F 
ENDROOT
TORSDOF 0
ENDMDL
