MODEL 1
REMARK minimizedAffinity 13.9391546
REMARK minimizedRMSD -1
REMARK  0 active torsions:
REMARK  status: ('A' for Active; 'I' for Inactive)
ROOT
ATOM      1  C   UNL d   1      -4.312  -4.514  -2.256  0.00  0.00     0.124 A 
ATOM      2  C1  UNL d   1      -5.106  -3.521  -2.811  0.00  0.00     0.062 A 
ATOM      3  C2  UNL d   1      -4.977  -2.202  -2.385  0.00  0.00     0.162 A 
ATOM      4  C3  UNL d   1      -4.050  -1.869  -1.398  0.00  0.00    -0.034 A 
ATOM      5  C4  UNL d   1      -3.255  -2.874  -0.843  0.00  0.00     0.162 A 
ATOM      6  C5  UNL d   1      -3.388  -4.190  -1.273  0.00  0.00     0.062 A 
ATOM      7  F   UNL d   1      -2.620  -5.149  -0.735  0.00  0.00    -0.097 F 
ATOM      8  F1  UNL d   1      -2.354  -2.588   0.108  0.00  0.00    -0.096 F 
ATOM      9  I   UNL d   1      -3.855   0.102  -0.758  0.00  0.00    -0.060 I 
ATOM     10  F2  UNL d   1      -5.758  -1.262  -2.939  0.00  0.00    -0.096 F 
ATOM     11  F3  UNL d   1      -6.000  -3.832  -3.761  0.00  0.00    -0.097 F 
ATOM     12  F4  UNL d   1      -4.438  -5.783  -2.667  0.00  0.00    -0.092 F 
ENDROOT
TORSDOF 0
ENDMDL
