MODEL 1
REMARK minimizedAffinity 21.7701855
REMARK minimizedRMSD -1
REMARK  0 active torsions:
REMARK  status: ('A' for Active; 'I' for Inactive)
ROOT
ATOM      1  C   UNL d   1      -1.493  -3.032  -2.453  0.00  0.00     0.124 A 
ATOM      2  C1  UNL d   1      -1.472  -2.633  -3.782  0.00  0.00     0.062 A 
ATOM      3  C2  UNL d   1      -0.756  -3.369  -4.722  0.00  0.00     0.162 A 
ATOM      4  C3  UNL d   1      -0.056  -4.512  -4.337  0.00  0.00    -0.034 A 
ATOM      5  C4  UNL d   1      -0.081  -4.906  -2.998  0.00  0.00     0.162 A 
ATOM      6  C5  UNL d   1      -0.798  -4.167  -2.062  0.00  0.00     0.062 A 
ATOM      7  F   UNL d   1      -0.817  -4.554  -0.778  0.00  0.00    -0.097 F 
ATOM      8  F1  UNL d   1       0.581  -6.000  -2.593  0.00  0.00    -0.096 F 
ATOM      9  I   UNL d   1       1.016  -5.614  -5.739  0.00  0.00    -0.060 I 
ATOM     10  F2  UNL d   1      -0.753  -2.960  -6.000  0.00  0.00    -0.096 F 
ATOM     11  F3  UNL d   1      -2.142  -1.536  -4.162  0.00  0.00    -0.097 F 
ATOM     12  F4  UNL d   1      -2.182  -2.322  -1.550  0.00  0.00    -0.092 F 
ENDROOT
TORSDOF 0
ENDMDL
