MODEL 1
REMARK minimizedAffinity 0.18941389
REMARK minimizedRMSD -1
REMARK  0 active torsions:
REMARK  status: ('A' for Active; 'I' for Inactive)
ROOT
ATOM      1  C   UNL d   1       1.219  -0.715  -0.821  0.00  0.00     0.020 A 
ATOM      2  C1  UNL d   1       0.571   0.448  -1.237  0.00  0.00     0.020 A 
ATOM      3  C2  UNL d   1      -0.265   1.135  -0.354  0.00  0.00     0.034 A 
ATOM      4  C3  UNL d   1      -0.456   0.660   0.948  0.00  0.00     0.017 A 
ATOM      5  C4  UNL d   1       0.195  -0.507   1.365  0.00  0.00     0.017 A 
ATOM      6  C5  UNL d   1       1.031  -1.191   0.477  0.00  0.00     0.034 A 
ATOM      7 Cl   UNL d   1       0.009  -1.154   2.957  0.00  0.00    -0.070 Cl
ATOM      8 Cl1  UNL d   1      -1.503   1.561   1.986  0.00  0.00    -0.070 Cl
ENDROOT
TORSDOF 0
ENDMDL
