MODEL 1
REMARK minimizedAffinity -3.12988925
REMARK minimizedRMSD -1
REMARK  0 active torsions:
REMARK  status: ('A' for Active; 'I' for Inactive)
ROOT
ATOM      1  C   UNL d   1       0.773   1.088  -1.003  0.00  0.00     0.020 A 
ATOM      2  C1  UNL d   1       1.336  -0.081  -0.492  0.00  0.00     0.020 A 
ATOM      3  C2  UNL d   1       0.775  -0.691   0.632  0.00  0.00     0.034 A 
ATOM      4  C3  UNL d   1      -0.351  -0.134   1.248  0.00  0.00     0.017 A 
ATOM      5  C4  UNL d   1      -0.915   1.039   0.734  0.00  0.00     0.017 A 
ATOM      6  C5  UNL d   1      -0.351   1.646  -0.392  0.00  0.00     0.034 A 
ATOM      7 Cl   UNL d   1      -2.305   1.785   1.439  0.00  0.00    -0.070 Cl
ATOM      8 Cl1  UNL d   1      -0.991  -0.943   2.634  0.00  0.00    -0.070 Cl
ENDROOT
TORSDOF 0
ENDMDL
