MODEL 1
REMARK minimizedAffinity -1.32037723
REMARK minimizedRMSD -1
REMARK  0 active torsions:
REMARK  status: ('A' for Active; 'I' for Inactive)
ROOT
ATOM      1  C   UNL d   1      -1.314  -0.022   2.108  0.00  0.00     0.020 A 
ATOM      2  C1  UNL d   1      -1.422   1.360   1.956  0.00  0.00     0.020 A 
ATOM      3  C2  UNL d   1      -0.874   1.983   0.832  0.00  0.00     0.034 A 
ATOM      4  C3  UNL d   1      -0.216   1.225  -0.143  0.00  0.00     0.017 A 
ATOM      5  C4  UNL d   1      -0.109  -0.162   0.011  0.00  0.00     0.017 A 
ATOM      6  C5  UNL d   1      -0.659  -0.781   1.138  0.00  0.00     0.034 A 
ATOM      7 Cl   UNL d   1       0.688  -1.165  -1.150  0.00  0.00    -0.070 Cl
ATOM      8 Cl1  UNL d   1       0.437   2.061  -1.506  0.00  0.00    -0.070 Cl
ENDROOT
TORSDOF 0
ENDMDL
