MODEL 1
REMARK minimizedAffinity -3.23632145
REMARK minimizedRMSD -1
REMARK  0 active torsions:
REMARK  status: ('A' for Active; 'I' for Inactive)
ROOT
ATOM      1  C   UNL d   1      -1.470   0.897   2.015  0.00  0.00     0.020 A 
ATOM      2  C1  UNL d   1      -1.651   2.120   1.372  0.00  0.00     0.020 A 
ATOM      3  C2  UNL d   1      -0.912   2.424   0.227  0.00  0.00     0.034 A 
ATOM      4  C3  UNL d   1       0.012   1.502  -0.279  0.00  0.00     0.017 A 
ATOM      5  C4  UNL d   1       0.193   0.274   0.367  0.00  0.00     0.017 A 
ATOM      6  C5  UNL d   1      -0.549  -0.025   1.514  0.00  0.00     0.034 A 
ATOM      7 Cl   UNL d   1       1.315  -0.914  -0.197  0.00  0.00    -0.070 Cl
ATOM      8 Cl1  UNL d   1       0.892   1.943  -1.699  0.00  0.00    -0.070 Cl
ENDROOT
TORSDOF 0
ENDMDL
