MODEL 1
REMARK minimizedAffinity -1.16610634
REMARK minimizedRMSD -1
REMARK  0 active torsions:
REMARK  status: ('A' for Active; 'I' for Inactive)
ROOT
ATOM      1  C   UNL d   1      -1.409   1.333   2.188  0.00  0.00     0.020 A 
ATOM      2  C1  UNL d   1      -1.217  -0.039   2.348  0.00  0.00     0.020 A 
ATOM      3  C2  UNL d   1      -0.655  -0.790   1.314  0.00  0.00     0.034 A 
ATOM      4  C3  UNL d   1      -0.284  -0.171   0.115  0.00  0.00     0.017 A 
ATOM      5  C4  UNL d   1      -0.477   1.206  -0.045  0.00  0.00     0.017 A 
ATOM      6  C5  UNL d   1      -1.040   1.954   0.994  0.00  0.00     0.034 A 
ATOM      7 Cl   UNL d   1      -0.044   2.040  -1.495  0.00  0.00    -0.070 Cl
ATOM      8 Cl1  UNL d   1       0.406  -1.162  -1.121  0.00  0.00    -0.070 Cl
ENDROOT
TORSDOF 0
ENDMDL
