MODEL 1
REMARK minimizedAffinity -0.0197942704
REMARK minimizedRMSD -1
REMARK  0 active torsions:
REMARK  status: ('A' for Active; 'I' for Inactive)
ROOT
ATOM      1  C   UNL d   1       0.489  -0.997   0.016  0.00  0.00     0.020 A 
ATOM      2  C1  UNL d   1       1.271  -0.638  -1.081  0.00  0.00     0.020 A 
ATOM      3  C2  UNL d   1       1.163   0.643  -1.625  0.00  0.00     0.034 A 
ATOM      4  C3  UNL d   1       0.273   1.571  -1.072  0.00  0.00     0.017 A 
ATOM      5  C4  UNL d   1      -0.511   1.209   0.030  0.00  0.00     0.017 A 
ATOM      6  C5  UNL d   1      -0.399  -0.075   0.571  0.00  0.00     0.034 A 
ATOM      7 Cl   UNL d   1      -1.632   2.299   0.767  0.00  0.00    -0.070 Cl
ATOM      8 Cl1  UNL d   1       0.192   3.138  -1.795  0.00  0.00    -0.070 Cl
ENDROOT
TORSDOF 0
ENDMDL
