MODEL 1
REMARK minimizedAffinity -0.828438759
REMARK minimizedRMSD -1
REMARK  0 active torsions:
REMARK  status: ('A' for Active; 'I' for Inactive)
ROOT
ATOM      1  C   UNL d   1      -0.830   1.348   1.318  0.00  0.00     0.020 A 
ATOM      2  C1  UNL d   1      -1.233   0.016   1.402  0.00  0.00     0.020 A 
ATOM      3  C2  UNL d   1      -0.717  -0.928   0.511  0.00  0.00     0.034 A 
ATOM      4  C3  UNL d   1       0.205  -0.541  -0.468  0.00  0.00     0.017 A 
ATOM      5  C4  UNL d   1       0.609   0.797  -0.552  0.00  0.00     0.017 A 
ATOM      6  C5  UNL d   1       0.089   1.737   0.343  0.00  0.00     0.034 A 
ATOM      7 Cl   UNL d   1       1.743   1.350  -1.733  0.00  0.00    -0.070 Cl
ATOM      8 Cl1  UNL d   1       0.802  -1.760  -1.536  0.00  0.00    -0.070 Cl
ENDROOT
TORSDOF 0
ENDMDL
