MODEL 1
REMARK minimizedAffinity -4.46149683
REMARK minimizedRMSD -1
REMARK  0 active torsions:
REMARK  status: ('A' for Active; 'I' for Inactive)
ROOT
ATOM      1  C   UNL d   1      -2.143   1.315   1.455  0.00  0.00     0.020 A 
ATOM      2  C1  UNL d   1      -1.845  -0.029   1.680  0.00  0.00     0.020 A 
ATOM      3  C2  UNL d   1      -0.873  -0.667   0.906  0.00  0.00     0.034 A 
ATOM      4  C3  UNL d   1      -0.197   0.038  -0.097  0.00  0.00     0.017 A 
ATOM      5  C4  UNL d   1      -0.498   1.387  -0.322  0.00  0.00     0.017 A 
ATOM      6  C5  UNL d   1      -1.471   2.021   0.457  0.00  0.00     0.034 A 
ATOM      7 Cl   UNL d   1       0.294   2.322  -1.540  0.00  0.00    -0.070 Cl
ATOM      8 Cl1  UNL d   1       0.992  -0.814  -1.016  0.00  0.00    -0.070 Cl
ENDROOT
TORSDOF 0
ENDMDL
