MODEL 1
REMARK minimizedAffinity -4.32154417
REMARK minimizedRMSD -1
REMARK  0 active torsions:
REMARK  status: ('A' for Active; 'I' for Inactive)
ROOT
ATOM      1  C   UNL d   1       0.638  -0.220   0.017  0.00  0.00     0.020 A 
ATOM      2  C1  UNL d   1      -0.749  -0.082   0.043  0.00  0.00     0.020 A 
ATOM      3  C2  UNL d   1      -1.543  -0.844  -0.817  0.00  0.00     0.034 A 
ATOM      4  C3  UNL d   1      -0.951  -1.747  -1.707  0.00  0.00     0.017 A 
ATOM      5  C4  UNL d   1       0.442  -1.885  -1.733  0.00  0.00     0.017 A 
ATOM      6  C5  UNL d   1       1.232  -1.120  -0.869  0.00  0.00     0.034 A 
ATOM      7 Cl   UNL d   1       1.245  -2.978  -2.803  0.00  0.00    -0.070 Cl
ATOM      8 Cl1  UNL d   1      -1.994  -2.657  -2.741  0.00  0.00    -0.070 Cl
ENDROOT
TORSDOF 0
ENDMDL
