MODEL 1
REMARK minimizedAffinity -4.29426718
REMARK minimizedRMSD -1
REMARK  0 active torsions:
REMARK  status: ('A' for Active; 'I' for Inactive)
ROOT
ATOM      1  C   UNL d   1      -2.210   2.444   1.748  0.00  0.00     0.020 A 
ATOM      2  C1  UNL d   1      -1.990   1.113   2.102  0.00  0.00     0.020 A 
ATOM      3  C2  UNL d   1      -1.075   0.341   1.383  0.00  0.00     0.034 A 
ATOM      4  C3  UNL d   1      -0.376   0.900   0.306  0.00  0.00     0.017 A 
ATOM      5  C4  UNL d   1      -0.598   2.236  -0.048  0.00  0.00     0.017 A 
ATOM      6  C5  UNL d   1      -1.515   3.004   0.676  0.00  0.00     0.034 A 
ATOM      7 Cl   UNL d   1       0.227   2.994  -1.364  0.00  0.00    -0.070 Cl
ATOM      8 Cl1  UNL d   1       0.741  -0.112  -0.538  0.00  0.00    -0.070 Cl
ENDROOT
TORSDOF 0
ENDMDL
