MODEL 1
REMARK minimizedAffinity -1.91949427
REMARK minimizedRMSD -1
REMARK  0 active torsions:
REMARK  status: ('A' for Active; 'I' for Inactive)
ROOT
ATOM      1  C   UNL d   1      -1.908   2.103  -0.119  0.00  0.00     0.020 A 
ATOM      2  C1  UNL d   1      -2.093   2.067   1.263  0.00  0.00     0.020 A 
ATOM      3  C2  UNL d   1      -1.404   1.128   2.034  0.00  0.00     0.034 A 
ATOM      4  C3  UNL d   1      -0.528   0.222   1.425  0.00  0.00     0.017 A 
ATOM      5  C4  UNL d   1      -0.344   0.260   0.038  0.00  0.00     0.017 A 
ATOM      6  C5  UNL d   1      -1.036   1.202  -0.730  0.00  0.00     0.034 A 
ATOM      7 Cl   UNL d   1       0.720  -0.825  -0.786  0.00  0.00    -0.070 Cl
ATOM      8 Cl1  UNL d   1       0.290  -0.911   2.440  0.00  0.00    -0.070 Cl
ENDROOT
TORSDOF 0
ENDMDL
