MODEL 1
REMARK minimizedAffinity -2.92218614
REMARK minimizedRMSD -1
REMARK  0 active torsions:
REMARK  status: ('A' for Active; 'I' for Inactive)
ROOT
ATOM      1  C   UNL d   1      -1.798   3.498   0.436  0.00  0.00     0.020 A 
ATOM      2  C1  UNL d   1      -2.203   2.697   1.503  0.00  0.00     0.020 A 
ATOM      3  C2  UNL d   1      -1.571   1.474   1.737  0.00  0.00     0.034 A 
ATOM      4  C3  UNL d   1      -0.531   1.048   0.902  0.00  0.00     0.017 A 
ATOM      5  C4  UNL d   1      -0.125   1.852  -0.169  0.00  0.00     0.017 A 
ATOM      6  C5  UNL d   1      -0.762   3.076  -0.398  0.00  0.00     0.034 A 
ATOM      7 Cl   UNL d   1       1.150   1.394  -1.241  0.00  0.00    -0.070 Cl
ATOM      8 Cl1  UNL d   1       0.206  -0.476   1.250  0.00  0.00    -0.070 Cl
ENDROOT
TORSDOF 0
ENDMDL
