MODEL 1
REMARK minimizedAffinity -5.42813063
REMARK minimizedRMSD -1
REMARK  0 active torsions:
REMARK  status: ('A' for Active; 'I' for Inactive)
ROOT
ATOM      1  C   UNL d   1      -1.264  -0.938  -3.326  0.00  0.00     0.020 A 
ATOM      2  C1  UNL d   1      -1.915  -1.458  -2.208  0.00  0.00     0.020 A 
ATOM      3  C2  UNL d   1      -1.464  -1.139  -0.925  0.00  0.00     0.034 A 
ATOM      4  C3  UNL d   1      -0.358  -0.297  -0.758  0.00  0.00     0.017 A 
ATOM      5  C4  UNL d   1       0.295   0.224  -1.881  0.00  0.00     0.017 A 
ATOM      6  C5  UNL d   1      -0.162  -0.099  -3.162  0.00  0.00     0.034 A 
ATOM      7 Cl   UNL d   1       1.665   1.270  -1.754  0.00  0.00    -0.070 Cl
ATOM      8 Cl1  UNL d   1       0.146   0.056   0.857  0.00  0.00    -0.070 Cl
ENDROOT
TORSDOF 0
ENDMDL
