MODEL 1
REMARK minimizedAffinity -3.87360811
REMARK minimizedRMSD -1
REMARK  0 active torsions:
REMARK  status: ('A' for Active; 'I' for Inactive)
ROOT
ATOM      1  C   UNL d   1      -1.233   1.357   1.055  0.00  0.00     0.020 A 
ATOM      2  C1  UNL d   1      -1.843   0.103   1.062  0.00  0.00     0.020 A 
ATOM      3  C2  UNL d   1      -1.320  -0.932   0.283  0.00  0.00     0.034 A 
ATOM      4  C3  UNL d   1      -0.185  -0.714  -0.507  0.00  0.00     0.017 A 
ATOM      5  C4  UNL d   1       0.426   0.545  -0.513  0.00  0.00     0.017 A 
ATOM      6  C5  UNL d   1      -0.102   1.578   0.269  0.00  0.00     0.034 A 
ATOM      7 Cl   UNL d   1       1.829   0.890  -1.461  0.00  0.00    -0.070 Cl
ATOM      8 Cl1  UNL d   1       0.408  -2.038  -1.445  0.00  0.00    -0.070 Cl
ENDROOT
TORSDOF 0
ENDMDL
