MODEL 1
REMARK minimizedAffinity 3.28280139
REMARK minimizedRMSD -1
REMARK  0 active torsions:
REMARK  status: ('A' for Active; 'I' for Inactive)
ROOT
ATOM      1  O1  BZF d   1       4.716  -6.000   4.880  0.00  0.00    -0.204 OA
ATOM      2  C2  BZF d   1       5.996  -5.706   4.451  0.00  0.00     0.174 A 
ATOM      3  C3  BZF d   1       6.000  -5.388   3.140  0.00  0.00    -0.012 A 
ATOM      4  C3A BZF d   1       4.624  -5.400   2.746  0.00  0.00    -0.107 A 
ATOM      5  C4  BZF d   1       3.983  -5.148   1.567  0.00  0.00     0.055 A 
ATOM      6  C5  BZF d   1       2.637  -5.319   1.497  0.00  0.00    -0.016 A 
ATOM      7  C6  BZF d   1       1.902  -5.743   2.585  0.00  0.00     0.022 A 
ATOM      8  C7  BZF d   1       2.492  -6.000   3.777  0.00  0.00     0.029 A 
ATOM      9  C7A BZF d   1       3.848  -5.797   3.859  0.00  0.00     0.058 A 
ENDROOT
TORSDOF 0
ENDMDL
