MODEL 1
REMARK minimizedAffinity 0.822165191
REMARK minimizedRMSD -1
REMARK  0 active torsions:
REMARK  status: ('A' for Active; 'I' for Inactive)
ROOT
ATOM      1  O1  BZF d   1      -2.669  -0.334   1.832  0.00  0.00    -0.204 OA
ATOM      2  C2  BZF d   1      -3.826   0.349   1.510  0.00  0.00     0.174 A 
ATOM      3  C3  BZF d   1      -3.774   1.618   1.963  0.00  0.00    -0.012 A 
ATOM      4  C3A BZF d   1      -2.467   1.762   2.528  0.00  0.00    -0.107 A 
ATOM      5  C4  BZF d   1      -1.812   2.802   3.124  0.00  0.00     0.055 A 
ATOM      6  C5  BZF d   1      -0.569   2.594   3.634  0.00  0.00    -0.016 A 
ATOM      7  C6  BZF d   1       0.045   1.360   3.569  0.00  0.00     0.022 A 
ATOM      8  C7  BZF d   1      -0.564   0.301   2.983  0.00  0.00     0.029 A 
ATOM      9  C7A BZF d   1      -1.806   0.516   2.438  0.00  0.00     0.058 A 
ENDROOT
TORSDOF 0
ENDMDL
