MODEL 1
REMARK minimizedAffinity 2.61557794
REMARK minimizedRMSD -1
REMARK  0 active torsions:
REMARK  status: ('A' for Active; 'I' for Inactive)
ROOT
ATOM      1  O1  BZF d   1      -1.815  -4.866  -5.954  0.00  0.00    -0.204 OA
ATOM      2  C2  BZF d   1      -2.655  -5.963  -5.960  0.00  0.00     0.174 A 
ATOM      3  C3  BZF d   1      -3.946  -5.576  -5.921  0.00  0.00    -0.012 A 
ATOM      4  C3A BZF d   1      -3.913  -4.147  -5.981  0.00  0.00    -0.107 A 
ATOM      5  C4  BZF d   1      -4.883  -3.185  -5.993  0.00  0.00     0.055 A 
ATOM      6  C5  BZF d   1      -4.515  -1.877  -5.983  0.00  0.00    -0.016 A 
ATOM      7  C6  BZF d   1      -3.190  -1.495  -5.955  0.00  0.00     0.022 A 
ATOM      8  C7  BZF d   1      -2.193  -2.413  -5.947  0.00  0.00     0.029 A 
ATOM      9  C7A BZF d   1      -2.560  -3.736  -5.990  0.00  0.00     0.058 A 
ENDROOT
TORSDOF 0
ENDMDL
