MODEL 1
REMARK minimizedAffinity 2.91812682
REMARK minimizedRMSD -1
REMARK  0 active torsions:
REMARK  status: ('A' for Active; 'I' for Inactive)
ROOT
ATOM      1  O1  BZF d   1      -3.589   2.206   1.563  0.00  0.00    -0.204 OA
ATOM      2  C2  BZF d   1      -3.946   1.055   0.888  0.00  0.00     0.174 A 
ATOM      3  C3  BZF d   1      -2.989   0.112   1.012  0.00  0.00    -0.012 A 
ATOM      4  C3A BZF d   1      -2.013   0.679   1.892  0.00  0.00    -0.107 A 
ATOM      5  C4  BZF d   1      -0.836   0.220   2.409  0.00  0.00     0.055 A 
ATOM      6  C5  BZF d   1      -0.084   1.051   3.178  0.00  0.00    -0.016 A 
ATOM      7  C6  BZF d   1      -0.476   2.346   3.446  0.00  0.00     0.022 A 
ATOM      8  C7  BZF d   1      -1.639   2.844   2.960  0.00  0.00     0.029 A 
ATOM      9  C7A BZF d   1      -2.417   1.997   2.209  0.00  0.00     0.058 A 
ENDROOT
TORSDOF 0
ENDMDL
