MODEL 1
REMARK minimizedAffinity -3.28040099
REMARK minimizedRMSD -1
REMARK  0 active torsions:
REMARK  status: ('A' for Active; 'I' for Inactive)
ROOT
ATOM      1  O1  BZF d   1      -1.954   1.805   1.900  0.00  0.00    -0.204 OA
ATOM      2  C2  BZF d   1      -2.878   0.901   1.413  0.00  0.00     0.174 A 
ATOM      3  C3  BZF d   1      -2.426  -0.363   1.545  0.00  0.00    -0.012 A 
ATOM      4  C3A BZF d   1      -1.179  -0.246   2.237  0.00  0.00    -0.107 A 
ATOM      5  C4  BZF d   1      -0.259  -1.156   2.674  0.00  0.00     0.055 A 
ATOM      6  C5  BZF d   1       0.888  -0.710   3.250  0.00  0.00    -0.016 A 
ATOM      7  C6  BZF d   1       1.150   0.636   3.400  0.00  0.00     0.022 A 
ATOM      8  C7  BZF d   1       0.265   1.576   2.987  0.00  0.00     0.029 A 
ATOM      9  C7A BZF d   1      -0.910   1.128   2.434  0.00  0.00     0.058 A 
ENDROOT
TORSDOF 0
ENDMDL
