MODEL 1
REMARK minimizedAffinity 10.8043699
REMARK minimizedRMSD -1
REMARK  0 active torsions:
REMARK  status: ('A' for Active; 'I' for Inactive)
ROOT
ATOM      1  O1  BZF d   1      -3.414  -0.660   5.040  0.00  0.00    -0.204 OA
ATOM      2  C2  BZF d   1      -4.690  -0.223   5.337  0.00  0.00     0.174 A 
ATOM      3  C3  BZF d   1      -5.170   0.559   4.349  0.00  0.00    -0.012 A 
ATOM      4  C3A BZF d   1      -4.165   0.538   3.331  0.00  0.00    -0.107 A 
ATOM      5  C4  BZF d   1      -4.067   1.113   2.096  0.00  0.00     0.055 A 
ATOM      6  C5  BZF d   1      -2.921   0.955   1.383  0.00  0.00    -0.016 A 
ATOM      7  C6  BZF d   1      -1.852   0.234   1.876  0.00  0.00     0.022 A 
ATOM      8  C7  BZF d   1      -1.904  -0.358   3.094  0.00  0.00     0.029 A 
ATOM      9  C7A BZF d   1      -3.074  -0.228   3.803  0.00  0.00     0.058 A 
ENDROOT
TORSDOF 0
ENDMDL
