MODEL 1
REMARK minimizedAffinity 6.55378437
REMARK minimizedRMSD -1
REMARK  0 active torsions:
REMARK  status: ('A' for Active; 'I' for Inactive)
ROOT
ATOM      1  O1  BZF d   1      -1.715  -2.166   0.696  0.00  0.00    -0.204 OA
ATOM      2  C2  BZF d   1      -2.670  -2.906   0.025  0.00  0.00     0.174 A 
ATOM      3  C3  BZF d   1      -3.869  -2.290   0.068  0.00  0.00    -0.012 A 
ATOM      4  C3A BZF d   1      -3.630  -1.046   0.732  0.00  0.00    -0.107 A 
ATOM      5  C4  BZF d   1      -4.429   0.012   1.061  0.00  0.00     0.055 A 
ATOM      6  C5  BZF d   1      -3.902   1.042   1.773  0.00  0.00    -0.016 A 
ATOM      7  C6  BZF d   1      -2.582   1.045   2.176  0.00  0.00     0.022 A 
ATOM      8  C7  BZF d   1      -1.749   0.022   1.868  0.00  0.00     0.029 A 
ATOM      9  C7A BZF d   1      -2.271  -1.006   1.121  0.00  0.00     0.058 A 
ENDROOT
TORSDOF 0
ENDMDL
