MODEL 1
REMARK minimizedAffinity 12.2609644
REMARK minimizedRMSD -1
REMARK  0 active torsions:
REMARK  status: ('A' for Active; 'I' for Inactive)
ROOT
ATOM      1  O1  BZF d   1      -4.727  -1.095  -0.504  0.00  0.00    -0.204 OA
ATOM      2  C2  BZF d   1      -4.318  -2.408  -0.376  0.00  0.00     0.174 A 
ATOM      3  C3  BZF d   1      -3.187  -2.487   0.355  0.00  0.00    -0.012 A 
ATOM      4  C3A BZF d   1      -2.921  -1.148   0.784  0.00  0.00    -0.107 A 
ATOM      5  C4  BZF d   1      -1.943  -0.585   1.553  0.00  0.00     0.055 A 
ATOM      6  C5  BZF d   1      -1.929   0.763   1.721  0.00  0.00    -0.016 A 
ATOM      7  C6  BZF d   1      -2.873   1.578   1.131  0.00  0.00     0.022 A 
ATOM      8  C7  BZF d   1      -3.865   1.065   0.363  0.00  0.00     0.029 A 
ATOM      9  C7A BZF d   1      -3.901  -0.300   0.218  0.00  0.00     0.058 A 
ENDROOT
TORSDOF 0
ENDMDL
