MODEL 1
REMARK minimizedAffinity 8.28703117
REMARK minimizedRMSD -1
REMARK  0 active torsions:
REMARK  status: ('A' for Active; 'I' for Inactive)
ROOT
ATOM      1  O1  BZF d   1      -1.290   0.230   3.355  0.00  0.00    -0.204 OA
ATOM      2  C2  BZF d   1      -0.396   0.215   2.302  0.00  0.00     0.174 A 
ATOM      3  C3  BZF d   1      -1.044   0.310   1.123  0.00  0.00    -0.012 A 
ATOM      4  C3A BZF d   1      -2.423   0.482   1.464  0.00  0.00    -0.107 A 
ATOM      5  C4  BZF d   1      -3.559   0.650   0.726  0.00  0.00     0.055 A 
ATOM      6  C5  BZF d   1      -4.758   0.716   1.363  0.00  0.00    -0.016 A 
ATOM      7  C6  BZF d   1      -4.857   0.612   2.735  0.00  0.00     0.022 A 
ATOM      8  C7  BZF d   1      -3.757   0.450   3.511  0.00  0.00     0.029 A 
ATOM      9  C7A BZF d   1      -2.542   0.417   2.872  0.00  0.00     0.058 A 
ENDROOT
TORSDOF 0
ENDMDL
