MODEL 1
REMARK minimizedAffinity 3.92363954
REMARK minimizedRMSD -1
REMARK  0 active torsions:
REMARK  status: ('A' for Active; 'I' for Inactive)
ROOT
ATOM      1  O1  BZF d   1      -0.749   0.723   1.120  0.00  0.00    -0.204 OA
ATOM      2  C2  BZF d   1       0.129   0.588   2.178  0.00  0.00     0.174 A 
ATOM      3  C3  BZF d   1      -0.539   0.373   3.330  0.00  0.00    -0.012 A 
ATOM      4  C3A BZF d   1      -1.916   0.283   2.955  0.00  0.00    -0.107 A 
ATOM      5  C4  BZF d   1      -3.068   0.063   3.656  0.00  0.00     0.055 A 
ATOM      6  C5  BZF d   1      -4.258   0.107   3.002  0.00  0.00    -0.016 A 
ATOM      7  C6  BZF d   1      -4.334   0.374   1.651  0.00  0.00     0.022 A 
ATOM      8  C7  BZF d   1      -3.219   0.594   0.912  0.00  0.00     0.029 A 
ATOM      9  C7A BZF d   1      -2.013   0.517   1.564  0.00  0.00     0.058 A 
ENDROOT
TORSDOF 0
ENDMDL
