MODEL 1
REMARK minimizedAffinity 2.41732144
REMARK minimizedRMSD -1
REMARK  0 active torsions:
REMARK  status: ('A' for Active; 'I' for Inactive)
ROOT
ATOM      1  O1  BZF d   1       5.022  -5.965   1.138  0.00  0.00    -0.204 OA
ATOM      2  C2  BZF d   1       5.906  -5.973   2.200  0.00  0.00     0.174 A 
ATOM      3  C3  BZF d   1       5.244  -5.929   3.374  0.00  0.00    -0.012 A 
ATOM      4  C3A BZF d   1       3.857  -5.986   3.026  0.00  0.00    -0.107 A 
ATOM      5  C4  BZF d   1       2.705  -5.994   3.759  0.00  0.00     0.055 A 
ATOM      6  C5  BZF d   1       1.510  -5.981   3.112  0.00  0.00    -0.016 A 
ATOM      7  C6  BZF d   1       1.430  -5.954   1.735  0.00  0.00     0.022 A 
ATOM      8  C7  BZF d   1       2.546  -5.950   0.965  0.00  0.00     0.029 A 
ATOM      9  C7A BZF d   1       3.755  -5.997   1.616  0.00  0.00     0.058 A 
ENDROOT
TORSDOF 0
ENDMDL
