MODEL 1
REMARK minimizedAffinity 9.28929234
REMARK minimizedRMSD -1
REMARK  0 active torsions:
REMARK  status: ('A' for Active; 'I' for Inactive)
ROOT
ATOM      1  O1  BZF d   1       2.101  -5.966   3.672  0.00  0.00    -0.204 OA
ATOM      2  C2  BZF d   1       2.357  -5.949   5.029  0.00  0.00     0.174 A 
ATOM      3  C3  BZF d   1       3.684  -5.991   5.266  0.00  0.00    -0.012 A 
ATOM      4  C3A BZF d   1       4.298  -5.945   3.975  0.00  0.00    -0.107 A 
ATOM      5  C4  BZF d   1       5.597  -5.940   3.553  0.00  0.00     0.055 A 
ATOM      6  C5  BZF d   1       5.859  -5.963   2.220  0.00  0.00    -0.016 A 
ATOM      7  C6  BZF d   1       4.847  -5.995   1.282  0.00  0.00     0.022 A 
ATOM      8  C7  BZF d   1       3.544  -5.995   1.652  0.00  0.00     0.029 A 
ATOM      9  C7A BZF d   1       3.276  -5.939   2.998  0.00  0.00     0.058 A 
ENDROOT
TORSDOF 0
ENDMDL
