MODEL 1
REMARK minimizedAffinity 0.554903567
REMARK minimizedRMSD -1
REMARK  0 active torsions:
REMARK  status: ('A' for Active; 'I' for Inactive)
ROOT
ATOM      1  O1  BZF d   1       0.606   0.810   1.940  0.00  0.00    -0.204 OA
ATOM      2  C2  BZF d   1       0.764   0.534   3.284  0.00  0.00     0.174 A 
ATOM      3  C3  BZF d   1       2.001   0.057   3.533  0.00  0.00    -0.012 A 
ATOM      4  C3A BZF d   1       2.688   0.121   2.279  0.00  0.00    -0.107 A 
ATOM      5  C4  BZF d   1       3.956  -0.198   1.886  0.00  0.00     0.055 A 
ATOM      6  C5  BZF d   1       4.288  -0.086   0.573  0.00  0.00    -0.016 A 
ATOM      7  C6  BZF d   1       3.378   0.336  -0.373  0.00  0.00     0.022 A 
ATOM      8  C7  BZF d   1       2.110   0.669  -0.030  0.00  0.00     0.029 A 
ATOM      9  C7A BZF d   1       1.780   0.589   1.301  0.00  0.00     0.058 A 
ENDROOT
TORSDOF 0
ENDMDL
