MODEL 1
REMARK minimizedAffinity 5.84172106
REMARK minimizedRMSD -1
REMARK  0 active torsions:
REMARK  status: ('A' for Active; 'I' for Inactive)
ROOT
ATOM      1  O1  BZF d   1       2.613  -5.055   0.811  0.00  0.00    -0.204 OA
ATOM      2  C2  BZF d   1       1.537  -5.451   1.582  0.00  0.00     0.174 A 
ATOM      3  C3  BZF d   1       1.953  -5.928   2.774  0.00  0.00    -0.012 A 
ATOM      4  C3A BZF d   1       3.371  -5.738   2.781  0.00  0.00    -0.107 A 
ATOM      5  C4  BZF d   1       4.348  -5.999   3.699  0.00  0.00     0.055 A 
ATOM      6  C5  BZF d   1       5.645  -5.762   3.368  0.00  0.00    -0.016 A 
ATOM      7  C6  BZF d   1       6.000  -5.270   2.129  0.00  0.00     0.022 A 
ATOM      8  C7  BZF d   1       5.065  -4.991   1.188  0.00  0.00     0.029 A 
ATOM      9  C7A BZF d   1       3.752  -5.198   1.531  0.00  0.00     0.058 A 
ENDROOT
TORSDOF 0
ENDMDL
