MODEL 1
REMARK minimizedAffinity 10.0011454
REMARK minimizedRMSD -1
REMARK  0 active torsions:
REMARK  status: ('A' for Active; 'I' for Inactive)
ROOT
ATOM      1  O1  BZF d   1      -0.637  -0.133   0.759  0.00  0.00    -0.204 OA
ATOM      2  C2  BZF d   1       0.053   0.692   1.626  0.00  0.00     0.174 A 
ATOM      3  C3  BZF d   1      -0.800   1.450   2.345  0.00  0.00    -0.012 A 
ATOM      4  C3A BZF d   1      -2.107   1.010   1.966  0.00  0.00    -0.107 A 
ATOM      5  C4  BZF d   1      -3.367   1.371   2.348  0.00  0.00     0.055 A 
ATOM      6  C5  BZF d   1      -4.434   0.797   1.733  0.00  0.00    -0.016 A 
ATOM      7  C6  BZF d   1      -4.278  -0.136   0.729  0.00  0.00     0.022 A 
ATOM      8  C7  BZF d   1      -3.048  -0.531   0.320  0.00  0.00     0.029 A 
ATOM      9  C7A BZF d   1      -1.968   0.023   0.963  0.00  0.00     0.058 A 
ENDROOT
TORSDOF 0
ENDMDL
