MODEL 1
REMARK minimizedAffinity 6.29510736
REMARK minimizedRMSD -1
REMARK  0 active torsions:
REMARK  status: ('A' for Active; 'I' for Inactive)
ROOT
ATOM      1  O1  BZF d   1      -2.893   1.437   1.152  0.00  0.00    -0.204 OA
ATOM      2  C2  BZF d   1      -2.886   0.111   0.763  0.00  0.00     0.174 A 
ATOM      3  C3  BZF d   1      -1.868  -0.553   1.346  0.00  0.00    -0.012 A 
ATOM      4  C3A BZF d   1      -1.252   0.395   2.222  0.00  0.00    -0.107 A 
ATOM      5  C4  BZF d   1      -0.196   0.328   3.086  0.00  0.00     0.055 A 
ATOM      6  C5  BZF d   1       0.196   1.454   3.738  0.00  0.00    -0.016 A 
ATOM      7  C6  BZF d   1      -0.439   2.663   3.546  0.00  0.00     0.022 A 
ATOM      8  C7  BZF d   1      -1.494   2.778   2.703  0.00  0.00     0.029 A 
ATOM      9  C7A BZF d   1      -1.914   1.635   2.067  0.00  0.00     0.058 A 
ENDROOT
TORSDOF 0
ENDMDL
