MODEL 1
REMARK minimizedAffinity 4.80473423
REMARK minimizedRMSD -1
REMARK  0 active torsions:
REMARK  status: ('A' for Active; 'I' for Inactive)
ROOT
ATOM      1  O1  BZF d   1      -3.623   0.468   4.867  0.00  0.00    -0.204 OA
ATOM      2  C2  BZF d   1      -4.979   0.521   4.608  0.00  0.00     0.174 A 
ATOM      3  C3  BZF d   1      -5.208   0.617   3.282  0.00  0.00    -0.012 A 
ATOM      4  C3A BZF d   1      -3.918   0.532   2.669  0.00  0.00    -0.107 A 
ATOM      5  C4  BZF d   1      -3.492   0.551   1.372  0.00  0.00     0.055 A 
ATOM      6  C5  BZF d   1      -2.158   0.521   1.115  0.00  0.00    -0.016 A 
ATOM      7  C6  BZF d   1      -1.224   0.478   2.129  0.00  0.00     0.022 A 
ATOM      8  C7  BZF d   1      -1.599   0.453   3.431  0.00  0.00     0.029 A 
ATOM      9  C7A BZF d   1      -2.947   0.450   3.694  0.00  0.00     0.058 A 
ENDROOT
TORSDOF 0
ENDMDL
