MODEL 1
REMARK minimizedAffinity 8.89116573
REMARK minimizedRMSD -1
REMARK  0 active torsions:
REMARK  status: ('A' for Active; 'I' for Inactive)
ROOT
ATOM      1  O1  BZF d   1       0.034   0.440   0.714  0.00  0.00    -0.204 OA
ATOM      2  C2  BZF d   1       1.358   0.066   0.844  0.00  0.00     0.174 A 
ATOM      3  C3  BZF d   1       1.859   0.482   2.025  0.00  0.00    -0.012 A 
ATOM      4  C3A BZF d   1       0.755   1.078   2.713  0.00  0.00    -0.107 A 
ATOM      5  C4  BZF d   1       0.617   1.661   3.940  0.00  0.00     0.055 A 
ATOM      6  C5  BZF d   1      -0.578   2.210   4.281  0.00  0.00    -0.016 A 
ATOM      7  C6  BZF d   1      -1.654   2.199   3.417  0.00  0.00     0.022 A 
ATOM      8  C7  BZF d   1      -1.568   1.628   2.191  0.00  0.00     0.029 A 
ATOM      9  C7A BZF d   1      -0.371   1.043   1.857  0.00  0.00     0.058 A 
ENDROOT
TORSDOF 0
ENDMDL
