MODEL 1
REMARK minimizedAffinity 2.32887411
REMARK minimizedRMSD -1
REMARK  1 active torsions:
REMARK  status: ('A' for Active; 'I' for Inactive)
REMARK    1  A    between atoms: C1_2  and  C2_3 
ROOT
ATOM      1  C2  UNL d   1       0.264  -0.390  -0.045  0.00  0.00    -0.073 A 
ATOM      2  C3  UNL d   1       1.089  -0.952   0.935  0.00  0.00    -0.002 A 
ATOM      3  C4  UNL d   1       2.454  -0.664   0.958  0.00  0.00     0.004 A 
ATOM      4  C5  UNL d   1       3.007   0.193   0.007  0.00  0.00    -0.004 A 
ATOM      5  C6  UNL d   1       2.197   0.775  -0.974  0.00  0.00    -0.075 A 
ATOM      6  C7  UNL d   1       2.776   1.698  -2.006  0.00  0.00     0.076 C 
ATOM      7  C8  UNL d   1       0.827   0.479  -0.992  0.00  0.00     0.001 A 
ENDROOT
BRANCH   1   8
ATOM      8  C1  UNL d   1      -1.212  -0.693  -0.070  0.00  0.00     0.053 C 
ATOM      9  C   UNL d   1      -2.038   0.450   0.498  0.00  0.00     0.018 C 
ENDBRANCH   1   8
TORSDOF 1
ENDMDL
