MODEL 1
REMARK minimizedAffinity -2.11381912
REMARK minimizedRMSD -1
REMARK  1 active torsions:
REMARK  status: ('A' for Active; 'I' for Inactive)
REMARK    1  A    between atoms: C1_2  and  C2_3 
ROOT
ATOM      1  C2  UNL d   1      -4.885   4.053  -0.457  0.00  0.00    -0.073 A 
ATOM      2  C3  UNL d   1      -5.998   3.210  -0.364  0.00  0.00    -0.002 A 
ATOM      3  C4  UNL d   1      -6.000   1.972  -1.007  0.00  0.00     0.004 A 
ATOM      4  C5  UNL d   1      -4.888   1.561  -1.742  0.00  0.00    -0.004 A 
ATOM      5  C6  UNL d   1      -3.761   2.385  -1.837  0.00  0.00    -0.075 A 
ATOM      6  C7  UNL d   1      -2.558   1.959  -2.625  0.00  0.00     0.076 C 
ATOM      7  C8  UNL d   1      -3.768   3.628  -1.190  0.00  0.00     0.001 A 
ENDROOT
BRANCH   1   8
ATOM      8  C1  UNL d   1      -4.876   5.389   0.242  0.00  0.00     0.053 C 
ATOM      9  C   UNL d   1      -3.482   5.990   0.304  0.00  0.00     0.018 C 
ENDBRANCH   1   8
TORSDOF 1
ENDMDL
