MODEL 1
REMARK minimizedAffinity -2.6151638
REMARK minimizedRMSD -1
REMARK  1 active torsions:
REMARK  status: ('A' for Active; 'I' for Inactive)
REMARK    1  A    between atoms: C1_2  and  C2_3 
ROOT
ATOM      1  C2  UNL d   1      -1.752  -0.408   3.843  0.00  0.00    -0.073 A 
ATOM      2  C3  UNL d   1      -0.834   0.623   4.070  0.00  0.00    -0.002 A 
ATOM      3  C4  UNL d   1      -0.607   1.594   3.094  0.00  0.00     0.004 A 
ATOM      4  C5  UNL d   1      -1.300   1.548   1.884  0.00  0.00    -0.004 A 
ATOM      5  C6  UNL d   1      -2.231   0.532   1.642  0.00  0.00    -0.075 A 
ATOM      6  C7  UNL d   1      -2.982   0.467   0.346  0.00  0.00     0.076 C 
ATOM      7  C8  UNL d   1      -2.451  -0.441   2.627  0.00  0.00     0.001 A 
ENDROOT
BRANCH   1   8
ATOM      8  C1  UNL d   1      -2.005  -1.454   4.897  0.00  0.00     0.053 C 
ATOM      9  C   UNL d   1      -0.712  -2.064   5.416  0.00  0.00     0.018 C 
ENDBRANCH   1   8
TORSDOF 1
ENDMDL
