MODEL 1
REMARK minimizedAffinity -0.233812958
REMARK minimizedRMSD -1
REMARK  1 active torsions:
REMARK  status: ('A' for Active; 'I' for Inactive)
REMARK    1  A    between atoms: C1_2  and  C2_3 
ROOT
ATOM      1  C2  UNL d   1       0.942  -3.027  -2.195  0.00  0.00    -0.073 A 
ATOM      2  C3  UNL d   1       1.215  -2.217  -3.303  0.00  0.00    -0.002 A 
ATOM      3  C4  UNL d   1       0.653  -2.511  -4.546  0.00  0.00     0.004 A 
ATOM      4  C5  UNL d   1      -0.190  -3.612  -4.693  0.00  0.00    -0.004 A 
ATOM      5  C6  UNL d   1      -0.485  -4.426  -3.595  0.00  0.00    -0.075 A 
ATOM      6  C7  UNL d   1      -1.389  -5.616  -3.737  0.00  0.00     0.076 C 
ATOM      7  C8  UNL d   1       0.085  -4.126  -2.350  0.00  0.00     0.001 A 
ENDROOT
BRANCH   1   8
ATOM      8  C1  UNL d   1       1.541  -2.710  -0.849  0.00  0.00     0.053 C 
ATOM      9  C   UNL d   1       1.915  -1.242  -0.723  0.00  0.00     0.018 C 
ENDBRANCH   1   8
TORSDOF 1
ENDMDL
