MODEL 1
REMARK minimizedAffinity 2.76394033
REMARK minimizedRMSD -1
REMARK  1 active torsions:
REMARK  status: ('A' for Active; 'I' for Inactive)
REMARK    1  A    between atoms: C1_2  and  C2_3 
ROOT
ATOM      1  C2  UNL d   1      -3.395   0.784   0.320  0.00  0.00    -0.073 A 
ATOM      2  C3  UNL d   1      -2.949   1.297   1.544  0.00  0.00    -0.002 A 
ATOM      3  C4  UNL d   1      -2.225   0.492   2.424  0.00  0.00     0.004 A 
ATOM      4  C5  UNL d   1      -1.933  -0.830   2.088  0.00  0.00    -0.004 A 
ATOM      5  C6  UNL d   1      -2.359  -1.357   0.865  0.00  0.00    -0.075 A 
ATOM      6  C7  UNL d   1      -2.055  -2.778   0.490  0.00  0.00     0.076 C 
ATOM      7  C8  UNL d   1      -3.088  -0.544  -0.012  0.00  0.00     0.001 A 
ENDROOT
BRANCH   1   8
ATOM      8  C1  UNL d   1      -4.171   1.651  -0.636  0.00  0.00     0.053 C 
ATOM      9  C   UNL d   1      -5.425   0.957  -1.144  0.00  0.00     0.018 C 
ENDBRANCH   1   8
TORSDOF 1
ENDMDL
