MODEL 1
REMARK minimizedAffinity 7.15159702
REMARK minimizedRMSD -1
REMARK  0 active torsions:
REMARK  status: ('A' for Active; 'I' for Inactive)
ROOT
ATOM      1  C   UNL d   1       4.566  -0.835  -0.817  0.00  0.00     0.023 A 
ATOM      2  C1  UNL d   1       4.648  -1.030   0.562  0.00  0.00     0.003 A 
ATOM      3  C2  UNL d   1       3.501  -0.930   1.352  0.00  0.00     0.048 A 
ATOM      4  C3  UNL d   1       2.275  -0.636   0.756  0.00  0.00     0.023 A 
ATOM      5  C4  UNL d   1       2.188  -0.441  -0.624  0.00  0.00     0.048 A 
ATOM      6  C5  UNL d   1       3.338  -0.541  -1.409  0.00  0.00     0.003 A 
ATOM      7  I   UNL d   1       0.566  -0.487   1.929  0.00  0.00    -0.146 I 
ENDROOT
TORSDOF 0
ENDMDL
