MODEL 1
REMARK minimizedAffinity 4.53033829
REMARK minimizedRMSD -1
REMARK  0 active torsions:
REMARK  status: ('A' for Active; 'I' for Inactive)
ROOT
ATOM      1  C   UNL d   1       2.848  -0.434   0.574  0.00  0.00     0.023 A 
ATOM      2  C1  UNL d   1       1.620  -0.167  -0.031  0.00  0.00     0.003 A 
ATOM      3  C2  UNL d   1       0.525   0.213   0.747  0.00  0.00     0.048 A 
ATOM      4  C3  UNL d   1       0.665   0.325   2.130  0.00  0.00     0.023 A 
ATOM      5  C4  UNL d   1       1.892   0.060   2.740  0.00  0.00     0.048 A 
ATOM      6  C5  UNL d   1       2.984  -0.321   1.957  0.00  0.00     0.003 A 
ATOM      7  I   UNL d   1      -0.964   0.891   3.291  0.00  0.00    -0.146 I 
ENDROOT
TORSDOF 0
ENDMDL
