MODEL 1
REMARK minimizedAffinity 12.8183098
REMARK minimizedRMSD -1
REMARK  0 active torsions:
REMARK  status: ('A' for Active; 'I' for Inactive)
ROOT
ATOM      1  C   UNL d   1       1.446  -1.326   3.414  0.00  0.00     0.023 A 
ATOM      2  C1  UNL d   1       1.906  -0.079   3.838  0.00  0.00     0.003 A 
ATOM      3  C2  UNL d   1       1.262   1.085   3.416  0.00  0.00     0.048 A 
ATOM      4  C3  UNL d   1       0.157   0.996   2.569  0.00  0.00     0.023 A 
ATOM      5  C4  UNL d   1      -0.307  -0.249   2.143  0.00  0.00     0.048 A 
ATOM      6  C5  UNL d   1       0.341  -1.411   2.568  0.00  0.00     0.003 A 
ATOM      7  I   UNL d   1      -0.804   2.728   1.939  0.00  0.00    -0.146 I 
ENDROOT
TORSDOF 0
ENDMDL
