MODEL 1
REMARK minimizedAffinity 8.25404549
REMARK minimizedRMSD -1
REMARK  0 active torsions:
REMARK  status: ('A' for Active; 'I' for Inactive)
ROOT
ATOM      1  C   UNL d   1      -1.058   1.400   3.704  0.00  0.00     0.023 A 
ATOM      2  C1  UNL d   1      -1.293   0.190   3.052  0.00  0.00     0.003 A 
ATOM      3  C2  UNL d   1      -0.308  -0.366   2.233  0.00  0.00     0.048 A 
ATOM      4  C3  UNL d   1       0.910   0.293   2.071  0.00  0.00     0.023 A 
ATOM      5  C4  UNL d   1       1.150   1.504   2.722  0.00  0.00     0.048 A 
ATOM      6  C5  UNL d   1       0.162   2.056   3.540  0.00  0.00     0.003 A 
ATOM      7  I   UNL d   1       2.377  -0.533   0.853  0.00  0.00    -0.146 I 
ENDROOT
TORSDOF 0
ENDMDL
