MODEL 1
REMARK minimizedAffinity 8.0077076
REMARK minimizedRMSD -1
REMARK  0 active torsions:
REMARK  status: ('A' for Active; 'I' for Inactive)
ROOT
ATOM      1  C   UNL d   1       3.478   0.064  -1.116  0.00  0.00     0.023 A 
ATOM      2  C1  UNL d   1       2.250   0.696  -0.920  0.00  0.00     0.003 A 
ATOM      3  C2  UNL d   1       1.613   0.617   0.320  0.00  0.00     0.048 A 
ATOM      4  C3  UNL d   1       2.210  -0.095   1.360  0.00  0.00     0.023 A 
ATOM      5  C4  UNL d   1       3.439  -0.729   1.168  0.00  0.00     0.048 A 
ATOM      6  C5  UNL d   1       4.071  -0.648  -0.073  0.00  0.00     0.003 A 
ATOM      7  I   UNL d   1       1.263  -0.215   3.206  0.00  0.00    -0.146 I 
ENDROOT
TORSDOF 0
ENDMDL
