MODEL 1
REMARK minimizedAffinity 6.87331343
REMARK minimizedRMSD -1
REMARK  0 active torsions:
REMARK  status: ('A' for Active; 'I' for Inactive)
ROOT
ATOM      1  C   UNL d   1       2.724   1.538  -1.296  0.00  0.00     0.023 A 
ATOM      2  C1  UNL d   1       2.255   2.538  -0.443  0.00  0.00     0.003 A 
ATOM      3  C2  UNL d   1       1.528   2.199   0.700  0.00  0.00     0.048 A 
ATOM      4  C3  UNL d   1       1.274   0.857   0.984  0.00  0.00     0.023 A 
ATOM      5  C4  UNL d   1       1.741  -0.146   0.135  0.00  0.00     0.048 A 
ATOM      6  C5  UNL d   1       2.467   0.198  -1.007  0.00  0.00     0.003 A 
ATOM      7  I   UNL d   1       0.192   0.350   2.685  0.00  0.00    -0.146 I 
ENDROOT
TORSDOF 0
ENDMDL
