MODEL 1
REMARK minimizedAffinity 4.30901051
REMARK minimizedRMSD -1
REMARK  0 active torsions:
REMARK  status: ('A' for Active; 'I' for Inactive)
ROOT
ATOM      1  C4' PXY d   1      -4.256   2.290   4.239  0.00  0.00     0.077 C 
ATOM      2  C1' PXY d   1       0.441   1.440   0.980  0.00  0.00     0.077 C 
ATOM      3  C1  PXY d   1      -0.796   1.652   1.830  0.00  0.00    -0.082 A 
ATOM      4  C2  PXY d   1      -1.135   2.877   2.198  0.00  0.00     0.003 A 
ATOM      5  C3  PXY d   1      -2.232   3.083   2.994  0.00  0.00     0.003 A 
ATOM      6  C4  PXY d   1      -3.021   2.030   3.373  0.00  0.00    -0.082 A 
ATOM      7  C5  PXY d   1      -2.688   0.778   2.993  0.00  0.00     0.003 A 
ATOM      8  C6  PXY d   1      -1.547   0.586   2.219  0.00  0.00     0.003 A 
ENDROOT
TORSDOF 0
ENDMDL
