MODEL 1
REMARK minimizedAffinity -6.79731321
REMARK minimizedRMSD -1
REMARK  0 active torsions:
REMARK  status: ('A' for Active; 'I' for Inactive)
ROOT
ATOM      1  C4' PXY d   1      -4.038   1.618   3.805  0.00  0.00     0.077 C 
ATOM      2  C1' PXY d   1       0.383  -0.275   0.599  0.00  0.00     0.077 C 
ATOM      3  C1  PXY d   1      -0.784   0.212   1.434  0.00  0.00    -0.082 A 
ATOM      4  C2  PXY d   1      -0.800   1.462   1.870  0.00  0.00     0.003 A 
ATOM      5  C3  PXY d   1      -1.832   1.910   2.653  0.00  0.00     0.003 A 
ATOM      6  C4  PXY d   1      -2.885   1.086   2.950  0.00  0.00    -0.082 A 
ATOM      7  C5  PXY d   1      -2.881  -0.187   2.501  0.00  0.00     0.003 A 
ATOM      8  C6  PXY d   1      -1.804  -0.635   1.741  0.00  0.00     0.003 A 
ENDROOT
TORSDOF 0
ENDMDL
