MODEL 1
REMARK minimizedAffinity -2.48793817
REMARK minimizedRMSD -1
REMARK  0 active torsions:
REMARK  status: ('A' for Active; 'I' for Inactive)
ROOT
ATOM      1  C4' PXY d   1      -4.115   0.771   3.474  0.00  0.00     0.077 C 
ATOM      2  C1' PXY d   1       1.176   0.682   1.146  0.00  0.00     0.077 C 
ATOM      3  C1  PXY d   1      -0.214   0.693   1.753  0.00  0.00    -0.082 A 
ATOM      4  C2  PXY d   1      -0.839   1.845   1.935  0.00  0.00     0.003 A 
ATOM      5  C3  PXY d   1      -2.082   1.875   2.512  0.00  0.00     0.003 A 
ATOM      6  C4  PXY d   1      -2.715   0.711   2.856  0.00  0.00    -0.082 A 
ATOM      7  C5  PXY d   1      -2.088  -0.469   2.663  0.00  0.00     0.003 A 
ATOM      8  C6  PXY d   1      -0.809  -0.476   2.115  0.00  0.00     0.003 A 
ENDROOT
TORSDOF 0
ENDMDL
