MODEL 1
REMARK minimizedAffinity -1.34764481
REMARK minimizedRMSD -1
REMARK  0 active torsions:
REMARK  status: ('A' for Active; 'I' for Inactive)
ROOT
ATOM      1  C4' PXY d   1       1.064   0.649   0.411  0.00  0.00     0.077 C 
ATOM      2  C1' PXY d   1      -3.743   1.820   3.400  0.00  0.00     0.077 C 
ATOM      3  C1  PXY d   1      -2.482   1.501   2.621  0.00  0.00    -0.082 A 
ATOM      4  C2  PXY d   1      -1.719   2.488   2.179  0.00  0.00     0.003 A 
ATOM      5  C3  PXY d   1      -0.592   2.218   1.446  0.00  0.00     0.003 A 
ATOM      6  C4  PXY d   1      -0.214   0.924   1.209  0.00  0.00    -0.082 A 
ATOM      7  C5  PXY d   1      -0.981  -0.089   1.666  0.00  0.00     0.003 A 
ATOM      8  C6  PXY d   1      -2.143   0.207   2.372  0.00  0.00     0.003 A 
ENDROOT
TORSDOF 0
ENDMDL
