MODEL 1
REMARK minimizedAffinity -4.1811924
REMARK minimizedRMSD -1
REMARK  0 active torsions:
REMARK  status: ('A' for Active; 'I' for Inactive)
ROOT
ATOM      1  C4' PXY d   1       1.000   0.333   0.356  0.00  0.00     0.077 C 
ATOM      2  C1' PXY d   1      -3.478   1.936   3.641  0.00  0.00     0.077 C 
ATOM      3  C1  PXY d   1      -2.304   1.504   2.785  0.00  0.00    -0.082 A 
ATOM      4  C2  PXY d   1      -1.473   2.416   2.306  0.00  0.00     0.003 A 
ATOM      5  C3  PXY d   1      -0.424   2.045   1.504  0.00  0.00     0.003 A 
ATOM      6  C4  PXY d   1      -0.193   0.723   1.233  0.00  0.00    -0.082 A 
ATOM      7  C5  PXY d   1      -1.030  -0.214   1.726  0.00  0.00     0.003 A 
ATOM      8  C6  PXY d   1      -2.113   0.187   2.504  0.00  0.00     0.003 A 
ENDROOT
TORSDOF 0
ENDMDL
