MODEL 1
REMARK minimizedAffinity -0.910539091
REMARK minimizedRMSD -1
REMARK  0 active torsions:
REMARK  status: ('A' for Active; 'I' for Inactive)
ROOT
ATOM      1  C4' PXY d   1       1.173   0.559   0.146  0.00  0.00     0.077 C 
ATOM      2  C1' PXY d   1      -3.183   1.989   3.668  0.00  0.00     0.077 C 
ATOM      3  C1  PXY d   1      -2.039   1.602   2.751  0.00  0.00    -0.082 A 
ATOM      4  C2  PXY d   1      -1.342   2.547   2.141  0.00  0.00     0.003 A 
ATOM      5  C3  PXY d   1      -0.325   2.214   1.283  0.00  0.00     0.003 A 
ATOM      6  C4  PXY d   1       0.016   0.903   1.089  0.00  0.00    -0.082 A 
ATOM      7  C5  PXY d   1      -0.684  -0.067   1.716  0.00  0.00     0.003 A 
ATOM      8  C6  PXY d   1      -1.739   0.290   2.550  0.00  0.00     0.003 A 
ENDROOT
TORSDOF 0
ENDMDL
