MODEL 1
REMARK minimizedAffinity -5.43737364
REMARK minimizedRMSD -1
REMARK  0 active torsions:
REMARK  status: ('A' for Active; 'I' for Inactive)
ROOT
ATOM      1  C4' PXY d   1       0.693   2.262   0.357  0.00  0.00     0.077 C 
ATOM      2  C1' PXY d   1      -3.650   1.760   4.139  0.00  0.00     0.077 C 
ATOM      3  C1  PXY d   1      -2.505   1.881   3.152  0.00  0.00    -0.082 A 
ATOM      4  C2  PXY d   1      -2.234   3.055   2.606  0.00  0.00     0.003 A 
ATOM      5  C3  PXY d   1      -1.223   3.176   1.688  0.00  0.00     0.003 A 
ATOM      6  C4  PXY d   1      -0.448   2.095   1.365  0.00  0.00    -0.082 A 
ATOM      7  C5  PXY d   1      -0.711   0.895   1.926  0.00  0.00     0.003 A 
ATOM      8  C6  PXY d   1      -1.768   0.785   2.824  0.00  0.00     0.003 A 
ENDROOT
TORSDOF 0
ENDMDL
