MODEL 1
REMARK minimizedAffinity -2.93631697
REMARK minimizedRMSD -1
REMARK  0 active torsions:
REMARK  status: ('A' for Active; 'I' for Inactive)
ROOT
ATOM      1  C4' PXY d   1      -4.346   1.660   3.721  0.00  0.00     0.077 C 
ATOM      2  C1' PXY d   1       0.731   1.176   0.999  0.00  0.00     0.077 C 
ATOM      3  C1  PXY d   1      -0.605   1.294   1.705  0.00  0.00    -0.082 A 
ATOM      4  C2  PXY d   1      -0.930   2.426   2.307  0.00  0.00     0.003 A 
ATOM      5  C3  PXY d   1      -2.120   2.539   2.978  0.00  0.00     0.003 A 
ATOM      6  C4  PXY d   1      -3.011   1.499   2.987  0.00  0.00    -0.082 A 
ATOM      7  C5  PXY d   1      -2.692   0.344   2.366  0.00  0.00     0.003 A 
ATOM      8  C6  PXY d   1      -1.461   0.236   1.726  0.00  0.00     0.003 A 
ENDROOT
TORSDOF 0
ENDMDL
