MODEL 1
REMARK minimizedAffinity -3.7044673
REMARK minimizedRMSD -1
REMARK  0 active torsions:
REMARK  status: ('A' for Active; 'I' for Inactive)
ROOT
ATOM      1  C4' PXY d   1       2.761  -0.491   0.640  0.00  0.00     0.077 C 
ATOM      2  C1' PXY d   1      -1.824   2.583   2.354  0.00  0.00     0.077 C 
ATOM      3  C1  PXY d   1      -0.622   1.783   1.893  0.00  0.00    -0.082 A 
ATOM      4  C2  PXY d   1      -0.358   0.615   2.457  0.00  0.00     0.003 A 
ATOM      5  C3  PXY d   1       0.743  -0.107   2.074  0.00  0.00     0.003 A 
ATOM      6  C4  PXY d   1       1.553   0.346   1.067  0.00  0.00    -0.082 A 
ATOM      7  C5  PXY d   1       1.284   1.532   0.480  0.00  0.00     0.003 A 
ATOM      8  C6  PXY d   1       0.185   2.269   0.911  0.00  0.00     0.003 A 
ENDROOT
TORSDOF 0
ENDMDL
