MODEL 1
REMARK minimizedAffinity 2.79540014
REMARK minimizedRMSD -1
REMARK  0 active torsions:
REMARK  status: ('A' for Active; 'I' for Inactive)
ROOT
ATOM      1  C4' PXY d   1      -2.120   2.387   3.000  0.00  0.00     0.077 C 
ATOM      2  C1' PXY d   1       2.036  -0.513   0.219  0.00  0.00     0.077 C 
ATOM      3  C1  PXY d   1       0.938   0.237   0.948  0.00  0.00    -0.082 A 
ATOM      4  C2  PXY d   1       0.917   1.559   0.915  0.00  0.00     0.003 A 
ATOM      5  C3  PXY d   1      -0.050   2.255   1.595  0.00  0.00     0.003 A 
ATOM      6  C4  PXY d   1      -1.036   1.588   2.272  0.00  0.00    -0.082 A 
ATOM      7  C5  PXY d   1      -1.027   0.239   2.301  0.00  0.00     0.003 A 
ATOM      8  C6  PXY d   1      -0.013  -0.448   1.639  0.00  0.00     0.003 A 
ENDROOT
TORSDOF 0
ENDMDL
