MODEL 1
REMARK minimizedAffinity -1.34499991
REMARK minimizedRMSD -1
REMARK  0 active torsions:
REMARK  status: ('A' for Active; 'I' for Inactive)
ROOT
ATOM      1  C4' PXY d   1      -3.881   2.376   3.953  0.00  0.00     0.077 C 
ATOM      2  C1' PXY d   1       0.600   0.768   0.674  0.00  0.00     0.077 C 
ATOM      3  C1  PXY d   1      -0.568   1.199   1.540  0.00  0.00    -0.082 A 
ATOM      4  C2  PXY d   1      -1.549   0.346   1.787  0.00  0.00     0.003 A 
ATOM      5  C3  PXY d   1      -2.628   0.729   2.541  0.00  0.00     0.003 A 
ATOM      6  C4  PXY d   1      -2.678   1.981   3.092  0.00  0.00    -0.082 A 
ATOM      7  C5  PXY d   1      -1.676   2.854   2.854  0.00  0.00     0.003 A 
ATOM      8  C6  PXY d   1      -0.609   2.459   2.052  0.00  0.00     0.003 A 
ENDROOT
TORSDOF 0
ENDMDL
