MODEL 1
REMARK minimizedAffinity -5.84997749
REMARK minimizedRMSD -1
REMARK  0 active torsions:
REMARK  status: ('A' for Active; 'I' for Inactive)
ROOT
ATOM      1  C4' PXY d   1       1.345   0.046   0.287  0.00  0.00     0.077 C 
ATOM      2  C1' PXY d   1      -3.646   1.291   2.923  0.00  0.00     0.077 C 
ATOM      3  C1  PXY d   1      -2.337   0.977   2.227  0.00  0.00    -0.082 A 
ATOM      4  C2  PXY d   1      -2.042  -0.277   1.924  0.00  0.00     0.003 A 
ATOM      5  C3  PXY d   1      -0.848  -0.583   1.323  0.00  0.00     0.003 A 
ATOM      6  C4  PXY d   1       0.030   0.411   0.981  0.00  0.00    -0.082 A 
ATOM      7  C5  PXY d   1      -0.268   1.693   1.278  0.00  0.00     0.003 A 
ATOM      8  C6  PXY d   1      -1.467   1.979   1.925  0.00  0.00     0.003 A 
ENDROOT
TORSDOF 0
ENDMDL
