MODEL 1
REMARK minimizedAffinity -3.30757618
REMARK minimizedRMSD -1
REMARK  0 active torsions:
REMARK  status: ('A' for Active; 'I' for Inactive)
ROOT
ATOM      1  C4' PXY d   1       0.976   0.724   0.323  0.00  0.00     0.077 C 
ATOM      2  C1' PXY d   1      -3.427   1.942   3.865  0.00  0.00     0.077 C 
ATOM      3  C1  PXY d   1      -2.272   1.610   2.941  0.00  0.00    -0.082 A 
ATOM      4  C2  PXY d   1      -1.484   2.579   2.505  0.00  0.00     0.003 A 
ATOM      5  C3  PXY d   1      -0.454   2.301   1.643  0.00  0.00     0.003 A 
ATOM      6  C4  PXY d   1      -0.196   1.011   1.265  0.00  0.00    -0.082 A 
ATOM      7  C5  PXY d   1      -0.990   0.015   1.714  0.00  0.00     0.003 A 
ATOM      8  C6  PXY d   1      -2.055   0.323   2.555  0.00  0.00     0.003 A 
ENDROOT
TORSDOF 0
ENDMDL
