MODEL 1
REMARK minimizedAffinity -3.6870656
REMARK minimizedRMSD -1
REMARK  0 active torsions:
REMARK  status: ('A' for Active; 'I' for Inactive)
ROOT
ATOM      1  C4' PXY d   1      -3.009  -0.140   2.607  0.00  0.00     0.077 C 
ATOM      2  C1' PXY d   1       1.992   2.153   0.832  0.00  0.00     0.077 C 
ATOM      3  C1  PXY d   1       0.678   1.547   1.285  0.00  0.00    -0.082 A 
ATOM      4  C2  PXY d   1       0.042   2.066   2.323  0.00  0.00     0.003 A 
ATOM      5  C3  PXY d   1      -1.130   1.510   2.766  0.00  0.00     0.003 A 
ATOM      6  C4  PXY d   1      -1.685   0.445   2.108  0.00  0.00    -0.082 A 
ATOM      7  C5  PXY d   1      -1.047  -0.083   1.043  0.00  0.00     0.003 A 
ATOM      8  C6  PXY d   1       0.163   0.469   0.633  0.00  0.00     0.003 A 
ENDROOT
TORSDOF 0
ENDMDL
