MODEL 1
REMARK minimizedAffinity -3.22121239
REMARK minimizedRMSD -1
REMARK  0 active torsions:
REMARK  status: ('A' for Active; 'I' for Inactive)
ROOT
ATOM      1  C4' PXY d   1       1.266  -4.529  -3.572  0.00  0.00     0.077 C 
ATOM      2  C1' PXY d   1      -3.704  -2.215  -1.737  0.00  0.00     0.077 C 
ATOM      3  C1  PXY d   1      -2.397  -2.824  -2.206  0.00  0.00    -0.082 A 
ATOM      4  C2  PXY d   1      -1.929  -2.523  -3.407  0.00  0.00     0.003 A 
ATOM      5  C3  PXY d   1      -0.765  -3.090  -3.859  0.00  0.00     0.003 A 
ATOM      6  C4  PXY d   1      -0.045  -3.931  -3.053  0.00  0.00    -0.082 A 
ATOM      7  C5  PXY d   1      -0.510  -4.234  -1.823  0.00  0.00     0.003 A 
ATOM      8  C6  PXY d   1      -1.715  -3.681  -1.398  0.00  0.00     0.003 A 
ENDROOT
TORSDOF 0
ENDMDL
