MODEL 1
REMARK minimizedAffinity -4.46132278
REMARK minimizedRMSD -1
REMARK  0 active torsions:
REMARK  status: ('A' for Active; 'I' for Inactive)
ROOT
ATOM      1  C4' PXY d   1      -3.959   1.918   3.541  0.00  0.00     0.077 C 
ATOM      2  C1' PXY d   1       0.731   1.365   0.206  0.00  0.00     0.077 C 
ATOM      3  C1  PXY d   1      -0.503   1.499   1.076  0.00  0.00    -0.082 A 
ATOM      4  C2  PXY d   1      -0.922   2.701   1.438  0.00  0.00     0.003 A 
ATOM      5  C3  PXY d   1      -2.017   2.838   2.251  0.00  0.00     0.003 A 
ATOM      6  C4  PXY d   1      -2.723   1.736   2.655  0.00  0.00    -0.082 A 
ATOM      7  C5  PXY d   1      -2.309   0.507   2.281  0.00  0.00     0.003 A 
ATOM      8  C6  PXY d   1      -1.170   0.387   1.489  0.00  0.00     0.003 A 
ENDROOT
TORSDOF 0
ENDMDL
