MODEL 1
REMARK minimizedAffinity -1.24321783
REMARK minimizedRMSD -1
REMARK  0 active torsions:
REMARK  status: ('A' for Active; 'I' for Inactive)
ROOT
ATOM      1  C4' PXY d   1       2.143   3.448   0.885  0.00  0.00     0.077 C 
ATOM      2  C1' PXY d   1      -1.946  -0.565   1.650  0.00  0.00     0.077 C 
ATOM      3  C1  PXY d   1      -0.882   0.496   1.449  0.00  0.00    -0.082 A 
ATOM      4  C2  PXY d   1       0.279   0.166   0.908  0.00  0.00     0.003 A 
ATOM      5  C3  PXY d   1       1.263   1.107   0.749  0.00  0.00     0.003 A 
ATOM      6  C4  PXY d   1       1.037   2.411   1.098  0.00  0.00    -0.082 A 
ATOM      7  C5  PXY d   1      -0.149   2.759   1.641  0.00  0.00     0.003 A 
ATOM      8  C6  PXY d   1      -1.120   1.780   1.833  0.00  0.00     0.003 A 
ENDROOT
TORSDOF 0
ENDMDL
