MODEL 1
REMARK minimizedAffinity -2.15189409
REMARK minimizedRMSD -1
REMARK  0 active torsions:
REMARK  status: ('A' for Active; 'I' for Inactive)
ROOT
ATOM      1  C4' PXY d   1      -3.419   2.302   4.270  0.00  0.00     0.077 C 
ATOM      2  C1' PXY d   1       0.265  -0.265   0.630  0.00  0.00     0.077 C 
ATOM      3  C1  PXY d   1      -0.693   0.418   1.586  0.00  0.00    -0.082 A 
ATOM      4  C2  PXY d   1      -1.620  -0.295   2.204  0.00  0.00     0.003 A 
ATOM      5  C3  PXY d   1      -2.515   0.311   3.048  0.00  0.00     0.003 A 
ATOM      6  C4  PXY d   1      -2.425   1.654   3.303  0.00  0.00    -0.082 A 
ATOM      7  C5  PXY d   1      -1.475   2.387   2.685  0.00  0.00     0.003 A 
ATOM      8  C6  PXY d   1      -0.603   1.759   1.800  0.00  0.00     0.003 A 
ENDROOT
TORSDOF 0
ENDMDL
