MODEL 1
REMARK minimizedAffinity -0.973392785
REMARK minimizedRMSD -1
REMARK  0 active torsions:
REMARK  status: ('A' for Active; 'I' for Inactive)
ROOT
ATOM      1  C4' PXY d   1      -3.718   1.780   3.982  0.00  0.00     0.077 C 
ATOM      2  C1' PXY d   1       0.527   1.974   0.063  0.00  0.00     0.077 C 
ATOM      3  C1  PXY d   1      -0.588   1.910   1.088  0.00  0.00    -0.082 A 
ATOM      4  C2  PXY d   1      -1.289   2.999   1.361  0.00  0.00     0.003 A 
ATOM      5  C3  PXY d   1      -2.279   2.967   2.310  0.00  0.00     0.003 A 
ATOM      6  C4  PXY d   1      -2.590   1.795   2.946  0.00  0.00    -0.082 A 
ATOM      7  C5  PXY d   1      -1.887   0.678   2.666  0.00  0.00     0.003 A 
ATOM      8  C6  PXY d   1      -0.858   0.741   1.730  0.00  0.00     0.003 A 
ENDROOT
TORSDOF 0
ENDMDL
