MODEL 1
REMARK minimizedAffinity 4.72033596
REMARK minimizedRMSD -1
REMARK  0 active torsions:
REMARK  status: ('A' for Active; 'I' for Inactive)
ROOT
ATOM      1  C1  DEN d   1      -0.391  -0.255   3.331  0.00  0.00     0.130 A 
ATOM      2  C2  DEN d   1       0.889   0.109   3.930  0.00  0.00    -0.031 A 
ATOM      3  C3  DEN d   1       1.941  -0.077   2.911  0.00  0.00     0.027 A 
ATOM      4  C4  DEN d   1       1.711  -0.887   0.472  0.00  0.00     0.027 A 
ATOM      5  C5  DEN d   1       0.824  -1.325  -0.486  0.00  0.00    -0.003 A 
ATOM      6  C6  DEN d   1      -0.514  -1.469  -0.231  0.00  0.00     0.001 A 
ATOM      7  C7  DEN d   1      -1.011  -1.129   0.999  0.00  0.00     0.017 A 
ATOM      8  C8  DEN d   1      -0.122  -0.693   1.973  0.00  0.00    -0.094 A 
ATOM      9  C9  DEN d   1       1.225  -0.542   1.692  0.00  0.00    -0.072 A 
ENDROOT
TORSDOF 0
ENDMDL
