MODEL 1
REMARK minimizedAffinity 6.24597311
REMARK minimizedRMSD -1
REMARK  0 active torsions:
REMARK  status: ('A' for Active; 'I' for Inactive)
ROOT
ATOM      1  C1  DEN d   1       2.685   0.099   0.899  0.00  0.00     0.130 A 
ATOM      2  C2  DEN d   1       3.882  -0.604   0.445  0.00  0.00    -0.031 A 
ATOM      3  C3  DEN d   1       3.469  -1.928  -0.063  0.00  0.00     0.027 A 
ATOM      4  C4  DEN d   1       1.105  -2.950  -0.195  0.00  0.00     0.027 A 
ATOM      5  C5  DEN d   1      -0.228  -2.735   0.080  0.00  0.00    -0.003 A 
ATOM      6  C6  DEN d   1      -0.675  -1.585   0.674  0.00  0.00     0.001 A 
ATOM      7  C7  DEN d   1       0.213  -0.585   0.971  0.00  0.00     0.017 A 
ATOM      8  C8  DEN d   1       1.559  -0.797   0.703  0.00  0.00    -0.094 A 
ATOM      9  C9  DEN d   1       1.990  -1.962   0.091  0.00  0.00    -0.072 A 
ENDROOT
TORSDOF 0
ENDMDL
