MODEL 1
REMARK minimizedAffinity 5.85365725
REMARK minimizedRMSD -1
REMARK  0 active torsions:
REMARK  status: ('A' for Active; 'I' for Inactive)
ROOT
ATOM      1  C1  DEN d   1       2.690  -2.644   0.280  0.00  0.00     0.130 A 
ATOM      2  C2  DEN d   1       2.091  -3.665  -0.575  0.00  0.00    -0.031 A 
ATOM      3  C3  DEN d   1       0.651  -3.366  -0.702  0.00  0.00     0.027 A 
ATOM      4  C4  DEN d   1      -0.702  -1.429   0.332  0.00  0.00     0.027 A 
ATOM      5  C5  DEN d   1      -0.631  -0.317   1.141  0.00  0.00    -0.003 A 
ATOM      6  C6  DEN d   1       0.536   0.075   1.742  0.00  0.00     0.001 A 
ATOM      7  C7  DEN d   1       1.689  -0.625   1.507  0.00  0.00     0.017 A 
ATOM      8  C8  DEN d   1       1.624  -1.752   0.699  0.00  0.00    -0.094 A 
ATOM      9  C9  DEN d   1       0.437  -2.125   0.090  0.00  0.00    -0.072 A 
ENDROOT
TORSDOF 0
ENDMDL
