MODEL 1
REMARK minimizedAffinity 2.81085849
REMARK minimizedRMSD -1
REMARK  0 active torsions:
REMARK  status: ('A' for Active; 'I' for Inactive)
ROOT
ATOM      1  C1  DEN d   1      -0.761  -0.301   1.620  0.00  0.00     0.130 A 
ATOM      2  C2  DEN d   1      -1.974  -1.112   1.555  0.00  0.00    -0.031 A 
ATOM      3  C3  DEN d   1      -1.628  -2.402   0.925  0.00  0.00     0.027 A 
ATOM      4  C4  DEN d   1       0.657  -3.221   0.053  0.00  0.00     0.027 A 
ATOM      5  C5  DEN d   1       1.980  -2.879  -0.120  0.00  0.00    -0.003 A 
ATOM      6  C6  DEN d   1       2.471  -1.653   0.241  0.00  0.00     0.001 A 
ATOM      7  C7  DEN d   1       1.642  -0.738   0.835  0.00  0.00     0.017 A 
ATOM      8  C8  DEN d   1       0.305  -1.072   1.006  0.00  0.00    -0.094 A 
ATOM      9  C9  DEN d   1      -0.169  -2.322   0.646  0.00  0.00    -0.072 A 
ENDROOT
TORSDOF 0
ENDMDL
