MODEL 1
REMARK minimizedAffinity -2.92053699
REMARK minimizedRMSD -1
REMARK  0 active torsions:
REMARK  status: ('A' for Active; 'I' for Inactive)
ROOT
ATOM      1  C1  DEN d   1      -0.961  -2.905   0.014  0.00  0.00     0.130 A 
ATOM      2  C2  DEN d   1      -1.632  -1.680   0.439  0.00  0.00    -0.031 A 
ATOM      3  C3  DEN d   1      -0.596  -0.674   0.746  0.00  0.00     0.027 A 
ATOM      4  C4  DEN d   1       1.970  -0.892   0.601  0.00  0.00     0.027 A 
ATOM      5  C5  DEN d   1       3.009  -1.746   0.301  0.00  0.00    -0.003 A 
ATOM      6  C6  DEN d   1       2.801  -3.045  -0.079  0.00  0.00     0.001 A 
ATOM      7  C7  DEN d   1       1.521  -3.515  -0.214  0.00  0.00     0.017 A 
ATOM      8  C8  DEN d   1       0.469  -2.663   0.094  0.00  0.00    -0.094 A 
ATOM      9  C9  DEN d   1       0.700  -1.350   0.465  0.00  0.00    -0.072 A 
ENDROOT
TORSDOF 0
ENDMDL
