MODEL 1
REMARK minimizedAffinity 0.0512201972
REMARK minimizedRMSD -1
REMARK  0 active torsions:
REMARK  status: ('A' for Active; 'I' for Inactive)
ROOT
ATOM      1  C1  DEN d   1       0.145  -0.155   1.282  0.00  0.00     0.130 A 
ATOM      2  C2  DEN d   1       1.553   0.169   1.496  0.00  0.00    -0.031 A 
ATOM      3  C3  DEN d   1       2.364  -0.932   0.938  0.00  0.00     0.027 A 
ATOM      4  C4  DEN d   1       1.581  -3.091  -0.235  0.00  0.00     0.027 A 
ATOM      5  C5  DEN d   1       0.479  -3.813  -0.638  0.00  0.00    -0.003 A 
ATOM      6  C6  DEN d   1      -0.801  -3.387  -0.402  0.00  0.00     0.001 A 
ATOM      7  C7  DEN d   1      -1.011  -2.183   0.217  0.00  0.00     0.017 A 
ATOM      8  C8  DEN d   1       0.094  -1.452   0.633  0.00  0.00    -0.094 A 
ATOM      9  C9  DEN d   1       1.380  -1.895   0.373  0.00  0.00    -0.072 A 
ENDROOT
TORSDOF 0
ENDMDL
