MODEL 1
REMARK minimizedAffinity 4.59073305
REMARK minimizedRMSD -1
REMARK  0 active torsions:
REMARK  status: ('A' for Active; 'I' for Inactive)
ROOT
ATOM      1  C1  DEN d   1       1.883  -3.253   0.297  0.00  0.00     0.130 A 
ATOM      2  C2  DEN d   1       0.883  -4.121  -0.320  0.00  0.00    -0.031 A 
ATOM      3  C3  DEN d   1      -0.417  -3.423  -0.275  0.00  0.00     0.027 A 
ATOM      4  C4  DEN d   1      -0.976  -1.093   0.680  0.00  0.00     0.027 A 
ATOM      5  C5  DEN d   1      -0.458   0.013   1.317  0.00  0.00    -0.003 A 
ATOM      6  C6  DEN d   1       0.859   0.093   1.686  0.00  0.00     0.001 A 
ATOM      7  C7  DEN d   1       1.713  -0.934   1.380  0.00  0.00     0.017 A 
ATOM      8  C8  DEN d   1       1.196  -2.055   0.745  0.00  0.00    -0.094 A 
ATOM      9  C9  DEN d   1      -0.135  -2.112   0.369  0.00  0.00    -0.072 A 
ENDROOT
TORSDOF 0
ENDMDL
