MODEL 1
REMARK minimizedAffinity -0.291597694
REMARK minimizedRMSD -1
REMARK  0 active torsions:
REMARK  status: ('A' for Active; 'I' for Inactive)
ROOT
ATOM      1  C1  DEN d   1      -2.751   0.293   0.276  0.00  0.00     0.130 A 
ATOM      2  C2  DEN d   1      -3.078   1.381   1.194  0.00  0.00    -0.031 A 
ATOM      3  C3  DEN d   1      -1.946   1.543   2.129  0.00  0.00     0.027 A 
ATOM      4  C4  DEN d   1       0.269   0.227   2.241  0.00  0.00     0.027 A 
ATOM      5  C5  DEN d   1       0.995  -0.799   1.677  0.00  0.00    -0.003 A 
ATOM      6  C6  DEN d   1       0.513  -1.548   0.637  0.00  0.00     0.001 A 
ATOM      7  C7  DEN d   1      -0.712  -1.254   0.098  0.00  0.00     0.017 A 
ATOM      8  C8  DEN d   1      -1.453  -0.226   0.667  0.00  0.00    -0.094 A 
ATOM      9  C9  DEN d   1      -0.943   0.528   1.710  0.00  0.00    -0.072 A 
ENDROOT
TORSDOF 0
ENDMDL
