MODEL 1
REMARK minimizedAffinity 4.40405989
REMARK minimizedRMSD -1
REMARK  0 active torsions:
REMARK  status: ('A' for Active; 'I' for Inactive)
ROOT
ATOM      1  C1  DEN d   1      -1.098   0.898   2.115  0.00  0.00     0.130 A 
ATOM      2  C2  DEN d   1      -2.392   0.657   1.482  0.00  0.00    -0.031 A 
ATOM      3  C3  DEN d   1      -2.213  -0.396   0.463  0.00  0.00     0.027 A 
ATOM      4  C4  DEN d   1      -0.070  -1.674  -0.190  0.00  0.00     0.027 A 
ATOM      5  C5  DEN d   1       1.278  -1.808   0.061  0.00  0.00    -0.003 A 
ATOM      6  C6  DEN d   1       1.930  -1.033   0.983  0.00  0.00     0.001 A 
ATOM      7  C7  DEN d   1       1.225  -0.118   1.720  0.00  0.00     0.017 A 
ATOM      8  C8  DEN d   1      -0.133   0.028   1.467  0.00  0.00    -0.094 A 
ATOM      9  C9  DEN d   1      -0.776  -0.774   0.540  0.00  0.00    -0.072 A 
ENDROOT
TORSDOF 0
ENDMDL
