MODEL 1
REMARK minimizedAffinity 2.855479
REMARK minimizedRMSD -1
REMARK  0 active torsions:
REMARK  status: ('A' for Active; 'I' for Inactive)
ROOT
ATOM      1  C1  DEN d   1       0.198  -1.830   3.139  0.00  0.00     0.130 A 
ATOM      2  C2  DEN d   1       1.104  -0.811   3.661  0.00  0.00    -0.031 A 
ATOM      3  C3  DEN d   1       1.852  -0.239   2.524  0.00  0.00     0.027 A 
ATOM      4  C4  DEN d   1       1.693  -0.826   0.017  0.00  0.00     0.027 A 
ATOM      5  C5  DEN d   1       1.074  -1.636  -0.909  0.00  0.00    -0.003 A 
ATOM      6  C6  DEN d   1       0.153  -2.584  -0.550  0.00  0.00     0.001 A 
ATOM      7  C7  DEN d   1      -0.210  -2.714   0.765  0.00  0.00     0.017 A 
ATOM      8  C8  DEN d   1       0.415  -1.905   1.705  0.00  0.00    -0.094 A 
ATOM      9  C9  DEN d   1       1.335  -0.945   1.321  0.00  0.00    -0.072 A 
ENDROOT
TORSDOF 0
ENDMDL
