MODEL 1
REMARK minimizedAffinity 6.01902294
REMARK minimizedRMSD -1
REMARK  0 active torsions:
REMARK  status: ('A' for Active; 'I' for Inactive)
ROOT
ATOM      1  C1  DEN d   1       1.013  -3.693  -0.220  0.00  0.00     0.130 A 
ATOM      2  C2  DEN d   1       2.380  -3.456  -0.673  0.00  0.00    -0.031 A 
ATOM      3  C3  DEN d   1       2.686  -2.025  -0.472  0.00  0.00     0.027 A 
ATOM      4  C4  DEN d   1       1.185  -0.166   0.498  0.00  0.00     0.027 A 
ATOM      5  C5  DEN d   1      -0.062   0.118   1.009  0.00  0.00    -0.003 A 
ATOM      6  C6  DEN d   1      -1.042  -0.834   1.115  0.00  0.00     0.001 A 
ATOM      7  C7  DEN d   1      -0.775  -2.126   0.744  0.00  0.00     0.017 A 
ATOM      8  C8  DEN d   1       0.477  -2.418   0.221  0.00  0.00    -0.094 A 
ATOM      9  C9  DEN d   1       1.458  -1.444   0.134  0.00  0.00    -0.072 A 
ENDROOT
TORSDOF 0
ENDMDL
