MODEL 1
REMARK minimizedAffinity 1.94119895
REMARK minimizedRMSD -1
REMARK  3 active torsions:
REMARK  status: ('A' for Active; 'I' for Inactive)
REMARK    1  A    between atoms: C3'_2  and  C2'_3 
REMARK    2  A    between atoms: C2'_3  and  C1'_4 
REMARK    3  A    between atoms: C1'_4  and  C1_5 
ROOT
ATOM      1  C1  N4B d   1       0.134  -3.356   0.789  0.00  0.00    -0.075 A 
ATOM      2  C2  N4B d   1      -0.354  -2.295  -0.004  0.00  0.00     0.002 A 
ATOM      3  C3  N4B d   1      -0.307  -2.384  -1.374  0.00  0.00     0.002 A 
ATOM      4  C4  N4B d   1       0.239  -3.511  -1.970  0.00  0.00    -0.004 A 
ATOM      5  C5  N4B d   1       0.684  -4.543  -1.196  0.00  0.00     0.002 A 
ATOM      6  C6  N4B d   1       0.639  -4.469   0.182  0.00  0.00     0.002 A 
ENDROOT
BRANCH   1   7
ATOM      7  C1' N4B d   1       0.182  -3.268   2.290  0.00  0.00     0.057 C 
BRANCH   7   8
ATOM      8  C2' N4B d   1      -1.092  -2.597   2.794  0.00  0.00     0.009 C 
BRANCH   8   9
ATOM      9  C3' N4B d   1      -0.794  -1.357   3.619  0.00  0.00     0.004 C 
ATOM     10  C4' N4B d   1      -1.493  -1.360   4.946  0.00  0.00     0.003 C 
ENDBRANCH   8   9
ENDBRANCH   7   8
ENDBRANCH   1   7
TORSDOF 3
ENDMDL
