MODEL 1
REMARK minimizedAffinity 6.92802858
REMARK minimizedRMSD -1
REMARK  3 active torsions:
REMARK  status: ('A' for Active; 'I' for Inactive)
REMARK    1  A    between atoms: C3'_2  and  C2'_3 
REMARK    2  A    between atoms: C2'_3  and  C1'_4 
REMARK    3  A    between atoms: C1'_4  and  C1_5 
ROOT
ATOM      1  C1  N4B d   1       1.025  -1.078  -1.543  0.00  0.00    -0.075 A 
ATOM      2  C2  N4B d   1       2.289  -0.718  -1.028  0.00  0.00     0.002 A 
ATOM      3  C3  N4B d   1       2.699   0.592  -1.067  0.00  0.00     0.002 A 
ATOM      4  C4  N4B d   1       1.872   1.552  -1.632  0.00  0.00    -0.004 A 
ATOM      5  C5  N4B d   1       0.642   1.200  -2.105  0.00  0.00     0.002 A 
ATOM      6  C6  N4B d   1       0.216  -0.112  -2.068  0.00  0.00     0.002 A 
ENDROOT
BRANCH   1   7
ATOM      7  C1' N4B d   1       0.570  -2.511  -1.600  0.00  0.00     0.057 C 
BRANCH   7   8
ATOM      8  C2' N4B d   1      -0.751  -2.647  -0.849  0.00  0.00     0.009 C 
BRANCH   8   9
ATOM      9  C3' N4B d   1      -0.668  -3.676   0.265  0.00  0.00     0.004 C 
ATOM     10  C4' N4B d   1      -0.785  -3.066   1.630  0.00  0.00     0.003 C 
ENDBRANCH   8   9
ENDBRANCH   7   8
ENDBRANCH   1   7
TORSDOF 3
ENDMDL
