MODEL 1
REMARK minimizedAffinity 2.17219663
REMARK minimizedRMSD -1
REMARK  3 active torsions:
REMARK  status: ('A' for Active; 'I' for Inactive)
REMARK    1  A    between atoms: C3'_2  and  C2'_3 
REMARK    2  A    between atoms: C2'_3  and  C1'_4 
REMARK    3  A    between atoms: C1'_4  and  C1_5 
ROOT
ATOM      1  C1  N4B d   1       0.661  -1.151  -1.532  0.00  0.00    -0.075 A 
ATOM      2  C2  N4B d   1       0.232  -1.623  -0.273  0.00  0.00     0.002 A 
ATOM      3  C3  N4B d   1      -0.257  -2.901  -0.148  0.00  0.00     0.002 A 
ATOM      4  C4  N4B d   1      -0.344  -3.714  -1.268  0.00  0.00    -0.004 A 
ATOM      5  C5  N4B d   1       0.096  -3.259  -2.477  0.00  0.00     0.002 A 
ATOM      6  C6  N4B d   1       0.594  -1.979  -2.616  0.00  0.00     0.002 A 
ENDROOT
BRANCH   1   7
ATOM      7  C1' N4B d   1       1.124   0.266  -1.734  0.00  0.00     0.057 C 
BRANCH   7   8
ATOM      8  C2' N4B d   1       1.272   0.942  -0.375  0.00  0.00     0.009 C 
BRANCH   8   9
ATOM      9  C3' N4B d   1       2.727   1.205  -0.027  0.00  0.00     0.004 C 
ATOM     10  C4' N4B d   1       3.387   0.031   0.633  0.00  0.00     0.003 C 
ENDBRANCH   8   9
ENDBRANCH   7   8
ENDBRANCH   1   7
TORSDOF 3
ENDMDL
