MODEL 1
REMARK minimizedAffinity 7.04963112
REMARK minimizedRMSD -1
REMARK  3 active torsions:
REMARK  status: ('A' for Active; 'I' for Inactive)
REMARK    1  A    between atoms: C3'_2  and  C2'_3 
REMARK    2  A    between atoms: C2'_3  and  C1'_4 
REMARK    3  A    between atoms: C1'_4  and  C1_5 
ROOT
ATOM      1  C1  N4B d   1       1.227  -0.810  -1.886  0.00  0.00    -0.075 A 
ATOM      2  C2  N4B d   1       0.417  -1.722  -1.174  0.00  0.00     0.002 A 
ATOM      3  C3  N4B d   1       0.075  -2.925  -1.741  0.00  0.00     0.002 A 
ATOM      4  C4  N4B d   1       0.514  -3.229  -3.021  0.00  0.00    -0.004 A 
ATOM      5  C5  N4B d   1       1.317  -2.354  -3.692  0.00  0.00     0.002 A 
ATOM      6  C6  N4B d   1       1.672  -1.143  -3.133  0.00  0.00     0.002 A 
ENDROOT
BRANCH   1   7
ATOM      7  C1' N4B d   1       1.555   0.553  -1.342  0.00  0.00     0.057 C 
BRANCH   7   8
ATOM      8  C2' N4B d   1       3.066   0.763  -1.397  0.00  0.00     0.009 C 
BRANCH   8   9
ATOM      9  C3' N4B d   1       3.795  -0.081  -0.366  0.00  0.00     0.004 C 
ATOM     10  C4' N4B d   1       4.717  -1.088  -0.987  0.00  0.00     0.003 C 
ENDBRANCH   8   9
ENDBRANCH   7   8
ENDBRANCH   1   7
TORSDOF 3
ENDMDL
