MODEL 1
REMARK minimizedAffinity -3.7460568
REMARK minimizedRMSD -1
REMARK  0 active torsions:
REMARK  status: ('A' for Active; 'I' for Inactive)
ROOT
ATOM      1  C   UNL d   1      -6.000   3.383  -1.856  0.00  0.00     0.020 A 
ATOM      2  C1  UNL d   1      -5.145   2.307  -2.091  0.00  0.00     0.020 A 
ATOM      3  C2  UNL d   1      -4.231   2.359  -3.145  0.00  0.00     0.034 A 
ATOM      4  C3  UNL d   1      -4.168   3.489  -3.967  0.00  0.00     0.017 A 
ATOM      5  C4  UNL d   1      -5.026   4.569  -3.730  0.00  0.00     0.017 A 
ATOM      6  C5  UNL d   1      -5.940   4.512  -2.674  0.00  0.00     0.034 A 
ATOM      7 Cl   UNL d   1      -5.008   5.998  -4.702  0.00  0.00    -0.070 Cl
ATOM      8 Cl1  UNL d   1      -3.012   3.486  -5.252  0.00  0.00    -0.070 Cl
ENDROOT
TORSDOF 0
ENDMDL
