MODEL 1
REMARK minimizedAffinity 8.0023489
REMARK minimizedRMSD -1
REMARK  0 active torsions:
REMARK  status: ('A' for Active; 'I' for Inactive)
ROOT
ATOM      1  C   UNL d   1       5.605   4.136  -0.668  0.00  0.00     0.020 A 
ATOM      2  C1  UNL d   1       6.000   5.452  -0.431  0.00  0.00     0.020 A 
ATOM      3  C2  UNL d   1       5.870   5.999   0.848  0.00  0.00     0.034 A 
ATOM      4  C3  UNL d   1       5.345   5.231   1.893  0.00  0.00     0.017 A 
ATOM      5  C4  UNL d   1       4.949   3.910   1.653  0.00  0.00     0.017 A 
ATOM      6  C5  UNL d   1       5.081   3.367   0.371  0.00  0.00     0.034 A 
ATOM      7 Cl   UNL d   1       4.292   2.900   2.892  0.00  0.00    -0.070 Cl
ATOM      8 Cl1  UNL d   1       5.214   5.972   3.448  0.00  0.00    -0.070 Cl
ENDROOT
TORSDOF 0
ENDMDL
