MODEL 1
REMARK minimizedAffinity 16.0896378
REMARK minimizedRMSD -1
REMARK  0 active torsions:
REMARK  status: ('A' for Active; 'I' for Inactive)
ROOT
ATOM      1  C   UNL d   1       1.485  -2.926   0.803  0.00  0.00     0.020 A 
ATOM      2  C1  UNL d   1       0.314  -3.589   1.168  0.00  0.00     0.020 A 
ATOM      3  C2  UNL d   1      -0.837  -2.858   1.469  0.00  0.00     0.034 A 
ATOM      4  C3  UNL d   1      -0.820  -1.460   1.405  0.00  0.00     0.017 A 
ATOM      5  C4  UNL d   1       0.356  -0.795   1.038  0.00  0.00     0.017 A 
ATOM      6  C5  UNL d   1       1.506  -1.532   0.738  0.00  0.00     0.034 A 
ATOM      7 Cl   UNL d   1       0.455   0.927   0.937  0.00  0.00    -0.070 Cl
ATOM      8 Cl1  UNL d   1      -2.280  -0.620   1.789  0.00  0.00    -0.070 Cl
ENDROOT
TORSDOF 0
ENDMDL
