MODEL 1
REMARK minimizedAffinity -2.56519532
REMARK minimizedRMSD -1
REMARK  0 active torsions:
REMARK  status: ('A' for Active; 'I' for Inactive)
ROOT
ATOM      1  C   UNL d   1      -6.000   4.374  -2.344  0.00  0.00     0.020 A 
ATOM      2  C1  UNL d   1      -5.511   5.668  -2.524  0.00  0.00     0.020 A 
ATOM      3  C2  UNL d   1      -4.759   5.978  -3.659  0.00  0.00     0.034 A 
ATOM      4  C3  UNL d   1      -4.493   4.994  -4.618  0.00  0.00     0.017 A 
ATOM      5  C4  UNL d   1      -4.984   3.696  -4.436  0.00  0.00     0.017 A 
ATOM      6  C5  UNL d   1      -5.737   3.391  -3.298  0.00  0.00     0.034 A 
ATOM      7 Cl   UNL d   1      -4.698   2.428  -5.575  0.00  0.00    -0.070 Cl
ATOM      8 Cl1  UNL d   1      -3.557   5.447  -5.998  0.00  0.00    -0.070 Cl
ENDROOT
TORSDOF 0
ENDMDL
