MODEL 1
REMARK minimizedAffinity 0.616381705
REMARK minimizedRMSD -1
REMARK  0 active torsions:
REMARK  status: ('A' for Active; 'I' for Inactive)
ROOT
ATOM      1  C   UNL d   1      -4.887   5.834  -2.410  0.00  0.00     0.020 A 
ATOM      2  C1  UNL d   1      -5.870   4.845  -2.442  0.00  0.00     0.020 A 
ATOM      3  C2  UNL d   1      -5.991   4.017  -3.560  0.00  0.00     0.034 A 
ATOM      4  C3  UNL d   1      -5.128   4.175  -4.650  0.00  0.00     0.017 A 
ATOM      5  C4  UNL d   1      -4.142   5.167  -4.617  0.00  0.00     0.017 A 
ATOM      6  C5  UNL d   1      -4.025   5.994  -3.496  0.00  0.00     0.034 A 
ATOM      7 Cl   UNL d   1      -3.040   5.423  -5.924  0.00  0.00    -0.070 Cl
ATOM      8 Cl1  UNL d   1      -5.335   3.115  -5.999  0.00  0.00    -0.070 Cl
ENDROOT
TORSDOF 0
ENDMDL
