MODEL 1
REMARK minimizedAffinity 12.1860399
REMARK minimizedRMSD -1
REMARK  0 active torsions:
REMARK  status: ('A' for Active; 'I' for Inactive)
ROOT
ATOM      1  C   UNL d   1      -5.255  -3.190  -2.625  0.00  0.00     0.020 A 
ATOM      2  C1  UNL d   1      -5.551  -3.468  -1.292  0.00  0.00     0.020 A 
ATOM      3  C2  UNL d   1      -4.738  -4.338  -0.563  0.00  0.00     0.034 A 
ATOM      4  C3  UNL d   1      -3.624  -4.933  -1.167  0.00  0.00     0.017 A 
ATOM      5  C4  UNL d   1      -3.327  -4.653  -2.505  0.00  0.00     0.017 A 
ATOM      6  C5  UNL d   1      -4.145  -3.781  -3.231  0.00  0.00     0.034 A 
ATOM      7 Cl   UNL d   1      -1.970  -5.348  -3.319  0.00  0.00    -0.070 Cl
ATOM      8 Cl1  UNL d   1      -2.662  -5.999  -0.205  0.00  0.00    -0.070 Cl
ENDROOT
TORSDOF 0
ENDMDL
