MODEL 1
REMARK minimizedAffinity 3.31430507
REMARK minimizedRMSD -1
REMARK  0 active torsions:
REMARK  status: ('A' for Active; 'I' for Inactive)
ROOT
ATOM      1  C   UNL d   1      -1.674  -3.027  -1.250  0.00  0.00     0.020 A 
ATOM      2  C1  UNL d   1      -3.007  -3.048  -0.844  0.00  0.00     0.020 A 
ATOM      3  C2  UNL d   1      -3.429  -2.235   0.210  0.00  0.00     0.034 A 
ATOM      4  C3  UNL d   1      -2.516  -1.397   0.862  0.00  0.00     0.017 A 
ATOM      5  C4  UNL d   1      -1.178  -1.377   0.453  0.00  0.00     0.017 A 
ATOM      6  C5  UNL d   1      -0.761  -2.193  -0.603  0.00  0.00     0.034 A 
ATOM      7 Cl   UNL d   1       0.007  -0.370   1.209  0.00  0.00    -0.070 Cl
ATOM      8 Cl1  UNL d   1      -3.107  -0.418   2.157  0.00  0.00    -0.070 Cl
ENDROOT
TORSDOF 0
ENDMDL
