MODEL 1
REMARK minimizedAffinity -1.72892511
REMARK minimizedRMSD -1
REMARK  0 active torsions:
REMARK  status: ('A' for Active; 'I' for Inactive)
ROOT
ATOM      1  C   UNL d   1       5.898   0.293  -4.359  0.00  0.00     0.020 A 
ATOM      2  C1  UNL d   1       5.434   0.169  -3.050  0.00  0.00     0.020 A 
ATOM      3  C2  UNL d   1       4.317   0.896  -2.633  0.00  0.00     0.034 A 
ATOM      4  C3  UNL d   1       3.660   1.751  -3.526  0.00  0.00     0.017 A 
ATOM      5  C4  UNL d   1       4.127   1.875  -4.840  0.00  0.00     0.017 A 
ATOM      6  C5  UNL d   1       5.246   1.145  -5.252  0.00  0.00     0.034 A 
ATOM      7 Cl   UNL d   1       3.369   2.910  -5.999  0.00  0.00    -0.070 Cl
ATOM      8 Cl1  UNL d   1       2.285   2.620  -2.943  0.00  0.00    -0.070 Cl
ENDROOT
TORSDOF 0
ENDMDL
