MODEL 1
REMARK minimizedAffinity 4.93969822
REMARK minimizedRMSD -1
REMARK  0 active torsions:
REMARK  status: ('A' for Active; 'I' for Inactive)
ROOT
ATOM      1  C   UNL d   1       5.975   4.619  -5.877  0.00  0.00     0.020 A 
ATOM      2  C1  UNL d   1       5.234   5.797  -5.963  0.00  0.00     0.020 A 
ATOM      3  C2  UNL d   1       3.839   5.743  -6.000  0.00  0.00     0.034 A 
ATOM      4  C3  UNL d   1       3.181   4.509  -5.950  0.00  0.00     0.017 A 
ATOM      5  C4  UNL d   1       3.926   3.327  -5.864  0.00  0.00     0.017 A 
ATOM      6  C5  UNL d   1       5.322   3.387  -5.827  0.00  0.00     0.034 A 
ATOM      7 Cl   UNL d   1       3.185   1.767  -5.799  0.00  0.00    -0.070 Cl
ATOM      8 Cl1  UNL d   1       1.454   4.516  -6.000  0.00  0.00    -0.070 Cl
ENDROOT
TORSDOF 0
ENDMDL
