MODEL 1
REMARK minimizedAffinity 15.7256727
REMARK minimizedRMSD -1
REMARK  0 active torsions:
REMARK  status: ('A' for Active; 'I' for Inactive)
ROOT
ATOM      1  C   UNL d   1      -3.735  -5.828  -0.746  0.00  0.00     0.020 A 
ATOM      2  C1  UNL d   1      -4.229  -4.569  -0.406  0.00  0.00     0.020 A 
ATOM      3  C2  UNL d   1      -4.014  -3.482  -1.255  0.00  0.00     0.034 A 
ATOM      4  C3  UNL d   1      -3.302  -3.651  -2.448  0.00  0.00     0.017 A 
ATOM      5  C4  UNL d   1      -2.806  -4.914  -2.788  0.00  0.00     0.017 A 
ATOM      6  C5  UNL d   1      -3.025  -6.000  -1.935  0.00  0.00     0.034 A 
ATOM      7 Cl   UNL d   1      -1.918  -5.201  -4.243  0.00  0.00    -0.070 Cl
ATOM      8 Cl1  UNL d   1      -3.072  -2.262  -3.450  0.00  0.00    -0.070 Cl
ENDROOT
TORSDOF 0
ENDMDL
