MODEL 1
REMARK minimizedAffinity 7.00816536
REMARK minimizedRMSD -1
REMARK  0 active torsions:
REMARK  status: ('A' for Active; 'I' for Inactive)
ROOT
ATOM      1  C   UNL d   1      -4.756   5.970  -5.996  0.00  0.00     0.020 A 
ATOM      2  C1  UNL d   1      -5.973   5.639  -5.403  0.00  0.00     0.020 A 
ATOM      3  C2  UNL d   1      -5.998   5.107  -4.112  0.00  0.00     0.034 A 
ATOM      4  C3  UNL d   1      -4.804   4.905  -3.410  0.00  0.00     0.017 A 
ATOM      5  C4  UNL d   1      -3.583   5.239  -4.007  0.00  0.00     0.017 A 
ATOM      6  C5  UNL d   1      -3.563   5.771  -5.300  0.00  0.00     0.034 A 
ATOM      7 Cl   UNL d   1      -2.068   5.018  -3.204  0.00  0.00    -0.070 Cl
ATOM      8 Cl1  UNL d   1      -4.910   4.245  -1.817  0.00  0.00    -0.070 Cl
ENDROOT
TORSDOF 0
ENDMDL
