MODEL 1
REMARK minimizedAffinity 11.1892786
REMARK minimizedRMSD -1
REMARK  0 active torsions:
REMARK  status: ('A' for Active; 'I' for Inactive)
ROOT
ATOM      1  C   UNL d   1      -1.736   5.294  -4.980  0.00  0.00     0.020 A 
ATOM      2  C1  UNL d   1      -0.764   5.999  -5.687  0.00  0.00     0.020 A 
ATOM      3  C2  UNL d   1       0.456   5.392  -5.992  0.00  0.00     0.034 A 
ATOM      4  C3  UNL d   1       0.707   4.075  -5.589  0.00  0.00     0.017 A 
ATOM      5  C4  UNL d   1      -0.270   3.368  -4.879  0.00  0.00     0.017 A 
ATOM      6  C5  UNL d   1      -1.490   3.981  -4.576  0.00  0.00     0.034 A 
ATOM      7 Cl   UNL d   1      -0.034   1.740  -4.348  0.00  0.00    -0.070 Cl
ATOM      8 Cl1  UNL d   1       2.237   3.387  -6.000  0.00  0.00    -0.070 Cl
ENDROOT
TORSDOF 0
ENDMDL
