MODEL 1
REMARK minimizedAffinity 12.7657614
REMARK minimizedRMSD -1
REMARK  0 active torsions:
REMARK  status: ('A' for Active; 'I' for Inactive)
ROOT
ATOM      1  C   UNL d   1       5.644   5.395   2.335  0.00  0.00     0.020 A 
ATOM      2  C1  UNL d   1       5.394   4.040   2.549  0.00  0.00     0.020 A 
ATOM      3  C2  UNL d   1       4.835   3.264   1.530  0.00  0.00     0.034 A 
ATOM      4  C3  UNL d   1       4.525   3.843   0.294  0.00  0.00     0.017 A 
ATOM      5  C4  UNL d   1       4.777   5.203   0.081  0.00  0.00     0.017 A 
ATOM      6  C5  UNL d   1       5.336   5.975   1.104  0.00  0.00     0.034 A 
ATOM      7 Cl   UNL d   1       4.421   5.987  -1.418  0.00  0.00    -0.070 Cl
ATOM      8 Cl1  UNL d   1       3.837   2.824  -0.920  0.00  0.00    -0.070 Cl
ENDROOT
TORSDOF 0
ENDMDL
