MODEL 1
REMARK minimizedAffinity 6.64963865
REMARK minimizedRMSD -1
REMARK  0 active torsions:
REMARK  status: ('A' for Active; 'I' for Inactive)
ROOT
ATOM      1  C   UNL d   1      -6.000   5.930  -2.224  0.00  0.00     0.020 A 
ATOM      2  C1  UNL d   1      -5.488   5.784  -3.512  0.00  0.00     0.020 A 
ATOM      3  C2  UNL d   1      -4.975   4.552  -3.925  0.00  0.00     0.034 A 
ATOM      4  C3  UNL d   1      -4.973   3.462  -3.047  0.00  0.00     0.017 A 
ATOM      5  C4  UNL d   1      -5.487   3.609  -1.754  0.00  0.00     0.017 A 
ATOM      6  C5  UNL d   1      -6.000   4.845  -1.347  0.00  0.00     0.034 A 
ATOM      7 Cl   UNL d   1      -5.519   2.309  -0.616  0.00  0.00    -0.070 Cl
ATOM      8 Cl1  UNL d   1      -4.323   1.968  -3.624  0.00  0.00    -0.070 Cl
ENDROOT
TORSDOF 0
ENDMDL
