MODEL 1
REMARK minimizedAffinity 14.6758251
REMARK minimizedRMSD -1
REMARK  0 active torsions:
REMARK  status: ('A' for Active; 'I' for Inactive)
ROOT
ATOM      1  C   UNL d   1      -2.283  -4.060   0.354  0.00  0.00     0.020 A 
ATOM      2  C1  UNL d   1      -2.313  -3.534   1.645  0.00  0.00     0.020 A 
ATOM      3  C2  UNL d   1      -2.422  -2.155   1.835  0.00  0.00     0.034 A 
ATOM      4  C3  UNL d   1      -2.501  -1.297   0.733  0.00  0.00     0.017 A 
ATOM      5  C4  UNL d   1      -2.471  -1.825  -0.563  0.00  0.00     0.017 A 
ATOM      6  C5  UNL d   1      -2.362  -3.207  -0.748  0.00  0.00     0.034 A 
ATOM      7 Cl   UNL d   1      -2.565  -0.829  -1.973  0.00  0.00    -0.070 Cl
ATOM      8 Cl1  UNL d   1      -2.635   0.398   1.042  0.00  0.00    -0.070 Cl
ENDROOT
TORSDOF 0
ENDMDL
