MODEL 1
REMARK minimizedAffinity 6.44042492
REMARK minimizedRMSD -1
REMARK  0 active torsions:
REMARK  status: ('A' for Active; 'I' for Inactive)
ROOT
ATOM      1  C   UNL d   1      -2.060   0.165   2.282  0.00  0.00     0.020 A 
ATOM      2  C1  UNL d   1      -1.741  -1.182   2.454  0.00  0.00     0.020 A 
ATOM      3  C2  UNL d   1      -0.658  -1.737   1.769  0.00  0.00     0.034 A 
ATOM      4  C3  UNL d   1       0.110  -0.945   0.908  0.00  0.00     0.017 A 
ATOM      5  C4  UNL d   1      -0.210   0.407   0.736  0.00  0.00     0.017 A 
ATOM      6  C5  UNL d   1      -1.295   0.957   1.425  0.00  0.00     0.034 A 
ATOM      7 Cl   UNL d   1       0.692   1.447  -0.309  0.00  0.00    -0.070 Cl
ATOM      8 Cl1  UNL d   1       1.436  -1.697   0.094  0.00  0.00    -0.070 Cl
ENDROOT
TORSDOF 0
ENDMDL
