MODEL 1
REMARK minimizedAffinity 8.02326298
REMARK minimizedRMSD -1
REMARK  0 active torsions:
REMARK  status: ('A' for Active; 'I' for Inactive)
ROOT
ATOM      1  C   UNL d   1       1.127  -0.285   0.521  0.00  0.00     0.020 A 
ATOM      2  C1  UNL d   1       2.053  -1.254   0.907  0.00  0.00     0.020 A 
ATOM      3  C2  UNL d   1       2.734  -1.994  -0.062  0.00  0.00     0.034 A 
ATOM      4  C3  UNL d   1       2.490  -1.767  -1.421  0.00  0.00     0.017 A 
ATOM      5  C4  UNL d   1       1.560  -0.794  -1.808  0.00  0.00     0.017 A 
ATOM      6  C5  UNL d   1       0.882  -0.056  -0.833  0.00  0.00     0.034 A 
ATOM      7 Cl   UNL d   1       1.206  -0.457  -3.465  0.00  0.00    -0.070 Cl
ATOM      8 Cl1  UNL d   1       3.368  -2.719  -2.565  0.00  0.00    -0.070 Cl
ENDROOT
TORSDOF 0
ENDMDL
