MODEL 1
REMARK minimizedAffinity 7.75606871
REMARK minimizedRMSD -1
REMARK  0 active torsions:
REMARK  status: ('A' for Active; 'I' for Inactive)
ROOT
ATOM      1  C   UNL d   1      -1.792   3.779  -5.378  0.00  0.00     0.020 A 
ATOM      2  C1  UNL d   1      -1.817   5.169  -5.485  0.00  0.00     0.020 A 
ATOM      3  C2  UNL d   1      -3.033   5.835  -5.653  0.00  0.00     0.034 A 
ATOM      4  C3  UNL d   1      -4.229   5.111  -5.714  0.00  0.00     0.017 A 
ATOM      5  C4  UNL d   1      -4.203   3.716  -5.606  0.00  0.00     0.017 A 
ATOM      6  C5  UNL d   1      -2.983   3.054  -5.438  0.00  0.00     0.034 A 
ATOM      7 Cl   UNL d   1      -5.638   2.754  -5.672  0.00  0.00    -0.070 Cl
ATOM      8 Cl1  UNL d   1      -5.696   6.000  -5.923  0.00  0.00    -0.070 Cl
ENDROOT
TORSDOF 0
ENDMDL
