MODEL 1
REMARK minimizedAffinity -0.69892025
REMARK minimizedRMSD -1
REMARK  0 active torsions:
REMARK  status: ('A' for Active; 'I' for Inactive)
ROOT
ATOM      1  C2' OXE d   1       3.157  -3.200   4.982  0.00  0.00     0.078 C 
ATOM      2  C1' OXE d   1       0.868  -4.364   3.850  0.00  0.00     0.078 C 
ATOM      3  C1  OXE d   1       1.433  -3.134   3.185  0.00  0.00    -0.078 A 
ATOM      4  C2  OXE d   1       2.526  -2.544   3.773  0.00  0.00    -0.078 A 
ATOM      5  C3  OXE d   1       3.120  -1.439   3.171  0.00  0.00     0.003 A 
ATOM      6  C4  OXE d   1       2.524  -0.832   2.058  0.00  0.00    -0.002 A 
ATOM      7  C5  OXE d   1       1.388  -1.394   1.467  0.00  0.00    -0.002 A 
ATOM      8  C6  OXE d   1       0.856  -2.566   1.992  0.00  0.00     0.003 A 
ENDROOT
TORSDOF 0
ENDMDL
