MODEL 1
REMARK minimizedAffinity 9.10979557
REMARK minimizedRMSD -1
REMARK  0 active torsions:
REMARK  status: ('A' for Active; 'I' for Inactive)
ROOT
ATOM      1  C2' OXE d   1       1.960  -3.389   4.502  0.00  0.00     0.078 C 
ATOM      2  C1' OXE d   1       2.952  -0.765   4.388  0.00  0.00     0.078 C 
ATOM      3  C1  OXE d   1       3.870  -1.843   4.907  0.00  0.00    -0.078 A 
ATOM      4  C2  OXE d   1       3.361  -3.115   5.003  0.00  0.00    -0.078 A 
ATOM      5  C3  OXE d   1       4.184  -4.157   5.424  0.00  0.00     0.003 A 
ATOM      6  C4  OXE d   1       5.476  -3.894   5.896  0.00  0.00    -0.002 A 
ATOM      7  C5  OXE d   1       6.000  -2.598   5.844  0.00  0.00    -0.002 A 
ATOM      8  C6  OXE d   1       5.227  -1.570   5.314  0.00  0.00     0.003 A 
ENDROOT
TORSDOF 0
ENDMDL
