MODEL 1
REMARK minimizedAffinity 12.5682659
REMARK minimizedRMSD -1
REMARK  0 active torsions:
REMARK  status: ('A' for Active; 'I' for Inactive)
ROOT
ATOM      1  C2' OXE d   1      -2.481   1.624   0.277  0.00  0.00     0.078 C 
ATOM      2  C1' OXE d   1      -4.464   2.208  -1.622  0.00  0.00     0.078 C 
ATOM      3  C1  OXE d   1      -4.515   2.939  -0.304  0.00  0.00    -0.078 A 
ATOM      4  C2  OXE d   1      -3.568   2.614   0.637  0.00  0.00    -0.078 A 
ATOM      5  C3  OXE d   1      -3.537   3.298   1.849  0.00  0.00     0.003 A 
ATOM      6  C4  OXE d   1      -4.552   4.205   2.177  0.00  0.00    -0.002 A 
ATOM      7  C5  OXE d   1      -5.549   4.521   1.248  0.00  0.00    -0.002 A 
ATOM      8  C6  OXE d   1      -5.520   3.931  -0.010  0.00  0.00     0.003 A 
ENDROOT
TORSDOF 0
ENDMDL
