MODEL 1
REMARK minimizedAffinity 14.7893448
REMARK minimizedRMSD -1
REMARK  0 active torsions:
REMARK  status: ('A' for Active; 'I' for Inactive)
ROOT
ATOM      1  C2' OXE d   1       2.247  -1.488   3.103  0.00  0.00     0.078 C 
ATOM      2  C1' OXE d   1       1.943  -2.291   5.776  0.00  0.00     0.078 C 
ATOM      3  C1  OXE d   1       3.341  -2.242   5.210  0.00  0.00    -0.078 A 
ATOM      4  C2  OXE d   1       3.476  -1.892   3.888  0.00  0.00    -0.078 A 
ATOM      5  C3  OXE d   1       4.747  -1.778   3.332  0.00  0.00     0.003 A 
ATOM      6  C4  OXE d   1       5.877  -2.163   4.062  0.00  0.00    -0.002 A 
ATOM      7  C5  OXE d   1       5.759  -2.560   5.398  0.00  0.00    -0.002 A 
ATOM      8  C6  OXE d   1       4.505  -2.564   5.999  0.00  0.00     0.003 A 
ENDROOT
TORSDOF 0
ENDMDL
