MODEL 1
REMARK minimizedAffinity -1.5381999
REMARK minimizedRMSD -1
REMARK  0 active torsions:
REMARK  status: ('A' for Active; 'I' for Inactive)
ROOT
ATOM      1  C2' OXE d   1       5.924  -2.587   5.970  0.00  0.00     0.078 C 
ATOM      2  C1' OXE d   1       5.999  -2.003   3.225  0.00  0.00     0.078 C 
ATOM      3  C1  OXE d   1       4.675  -1.877   3.935  0.00  0.00    -0.078 A 
ATOM      4  C2  OXE d   1       4.637  -2.210   5.268  0.00  0.00    -0.078 A 
ATOM      5  C3  OXE d   1       3.453  -2.060   5.983  0.00  0.00     0.003 A 
ATOM      6  C4  OXE d   1       2.265  -1.720   5.324  0.00  0.00    -0.002 A 
ATOM      7  C5  OXE d   1       2.273  -1.415   3.959  0.00  0.00    -0.002 A 
ATOM      8  C6  OXE d   1       3.475  -1.448   3.260  0.00  0.00     0.003 A 
ENDROOT
TORSDOF 0
ENDMDL
