MODEL 1
REMARK minimizedAffinity -0.0387696438
REMARK minimizedRMSD -1
REMARK  0 active torsions:
REMARK  status: ('A' for Active; 'I' for Inactive)
ROOT
ATOM      1  C2' OXE d   1       5.996  -2.541   3.728  0.00  0.00     0.078 C 
ATOM      2  C1' OXE d   1       4.357  -3.259   5.891  0.00  0.00     0.078 C 
ATOM      3  C1  OXE d   1       3.727  -2.493   4.754  0.00  0.00    -0.078 A 
ATOM      4  C2  OXE d   1       4.547  -2.106   3.722  0.00  0.00    -0.078 A 
ATOM      5  C3  OXE d   1       4.006  -1.445   2.623  0.00  0.00     0.003 A 
ATOM      6  C4  OXE d   1       2.666  -1.037   2.630  0.00  0.00    -0.002 A 
ATOM      7  C5  OXE d   1       1.823  -1.387   3.690  0.00  0.00    -0.002 A 
ATOM      8  C6  OXE d   1       2.327  -2.150   4.738  0.00  0.00     0.003 A 
ENDROOT
TORSDOF 0
ENDMDL
