MODEL 1
REMARK minimizedAffinity 2.72940564
REMARK minimizedRMSD -1
REMARK  0 active torsions:
REMARK  status: ('A' for Active; 'I' for Inactive)
ROOT
ATOM      1  C2' OXE d   1       1.978   0.455   1.743  0.00  0.00     0.078 C 
ATOM      2  C1' OXE d   1       4.111   1.443   0.207  0.00  0.00     0.078 C 
ATOM      3  C1  OXE d   1       2.828   2.236   0.223  0.00  0.00    -0.078 A 
ATOM      4  C2  OXE d   1       1.775   1.721   0.939  0.00  0.00    -0.078 A 
ATOM      5  C3  OXE d   1       0.587   2.441   1.032  0.00  0.00     0.003 A 
ATOM      6  C4  OXE d   1       0.404   3.606   0.278  0.00  0.00    -0.002 A 
ATOM      7  C5  OXE d   1       1.450   4.127  -0.490  0.00  0.00    -0.002 A 
ATOM      8  C6  OXE d   1       2.680   3.479  -0.494  0.00  0.00     0.003 A 
ENDROOT
TORSDOF 0
ENDMDL
