MODEL 1
REMARK minimizedAffinity 8.17365837
REMARK minimizedRMSD -1
REMARK  0 active torsions:
REMARK  status: ('A' for Active; 'I' for Inactive)
ROOT
ATOM      1  C2' OXE d   1       1.084  -0.757   1.875  0.00  0.00     0.078 C 
ATOM      2  C1' OXE d   1       3.630   0.397   2.140  0.00  0.00     0.078 C 
ATOM      3  C1  OXE d   1       3.295  -0.779   3.023  0.00  0.00    -0.078 A 
ATOM      4  C2  OXE d   1       2.031  -1.308   2.920  0.00  0.00    -0.078 A 
ATOM      5  C3  OXE d   1       1.689  -2.428   3.672  0.00  0.00     0.003 A 
ATOM      6  C4  OXE d   1       2.567  -2.925   4.643  0.00  0.00    -0.002 A 
ATOM      7  C5  OXE d   1       3.845  -2.375   4.792  0.00  0.00    -0.002 A 
ATOM      8  C6  OXE d   1       4.239  -1.332   3.963  0.00  0.00     0.003 A 
ENDROOT
TORSDOF 0
ENDMDL
