MODEL 1
REMARK minimizedAffinity 2.04808593
REMARK minimizedRMSD -1
REMARK  0 active torsions:
REMARK  status: ('A' for Active; 'I' for Inactive)
ROOT
ATOM      1  C2' OXE d   1       5.999  -1.874   3.346  0.00  0.00     0.078 C 
ATOM      2  C1' OXE d   1       5.231  -2.802   5.882  0.00  0.00     0.078 C 
ATOM      3  C1  OXE d   1       4.148  -2.303   4.958  0.00  0.00    -0.078 A 
ATOM      4  C2  OXE d   1       4.538  -1.807   3.737  0.00  0.00    -0.078 A 
ATOM      5  C3  OXE d   1       3.575  -1.384   2.826  0.00  0.00     0.003 A 
ATOM      6  C4  OXE d   1       2.227  -1.316   3.199  0.00  0.00    -0.002 A 
ATOM      7  C5  OXE d   1       1.813  -1.779   4.452  0.00  0.00    -0.002 A 
ATOM      8  C6  OXE d   1       2.754  -2.314   5.326  0.00  0.00     0.003 A 
ENDROOT
TORSDOF 0
ENDMDL
