MODEL 1
REMARK minimizedAffinity 0.617974341
REMARK minimizedRMSD -1
REMARK  0 active torsions:
REMARK  status: ('A' for Active; 'I' for Inactive)
ROOT
ATOM      1  C2' OXE d   1       4.512  -3.386   6.000  0.00  0.00     0.078 C 
ATOM      2  C1' OXE d   1       5.944  -1.846   4.140  0.00  0.00     0.078 C 
ATOM      3  C1  OXE d   1       4.438  -1.817   4.067  0.00  0.00    -0.078 A 
ATOM      4  C2  OXE d   1       3.746  -2.610   4.951  0.00  0.00    -0.078 A 
ATOM      5  C3  OXE d   1       2.355  -2.578   4.962  0.00  0.00     0.003 A 
ATOM      6  C4  OXE d   1       1.654  -1.865   3.982  0.00  0.00    -0.002 A 
ATOM      7  C5  OXE d   1       2.340  -1.082   3.047  0.00  0.00    -0.002 A 
ATOM      8  C6  OXE d   1       3.727  -1.013   3.103  0.00  0.00     0.003 A 
ENDROOT
TORSDOF 0
ENDMDL
