MODEL 1
REMARK minimizedAffinity 6.3814497
REMARK minimizedRMSD -1
REMARK  0 active torsions:
REMARK  status: ('A' for Active; 'I' for Inactive)
ROOT
ATOM      1  C2' OXE d   1      -5.990  -0.654  -2.657  0.00  0.00     0.078 C 
ATOM      2  C1' OXE d   1      -5.551  -1.045  -5.402  0.00  0.00     0.078 C 
ATOM      3  C1  OXE d   1      -5.672   0.374  -4.904  0.00  0.00    -0.078 A 
ATOM      4  C2  OXE d   1      -5.933   0.554  -3.567  0.00  0.00    -0.078 A 
ATOM      5  C3  OXE d   1      -6.000   1.843  -3.045  0.00  0.00     0.003 A 
ATOM      6  C4  OXE d   1      -5.956   2.955  -3.896  0.00  0.00    -0.002 A 
ATOM      7  C5  OXE d   1      -5.731   2.792  -5.266  0.00  0.00    -0.002 A 
ATOM      8  C6  OXE d   1      -5.544   1.512  -5.779  0.00  0.00     0.003 A 
ENDROOT
TORSDOF 0
ENDMDL
