MODEL 1
REMARK minimizedAffinity 1.81897032
REMARK minimizedRMSD -1
REMARK  0 active torsions:
REMARK  status: ('A' for Active; 'I' for Inactive)
ROOT
ATOM      1  C   UNL d   1      -0.337   1.363   3.067  0.00  0.00     0.023 A 
ATOM      2  C1  UNL d   1      -1.515   1.378   2.321  0.00  0.00     0.003 A 
ATOM      3  C2  UNL d   1      -1.499   0.990   0.979  0.00  0.00     0.048 A 
ATOM      4  C3  UNL d   1      -0.300   0.588   0.391  0.00  0.00     0.023 A 
ATOM      5  C4  UNL d   1       0.881   0.571   1.134  0.00  0.00     0.048 A 
ATOM      6  C5  UNL d   1       0.860   0.960   2.474  0.00  0.00     0.003 A 
ATOM      7  I   UNL d   1      -0.273   0.011  -1.606  0.00  0.00    -0.146 I 
ENDROOT
TORSDOF 0
ENDMDL
