MODEL 1
REMARK minimizedAffinity 8.29097557
REMARK minimizedRMSD -1
REMARK  0 active torsions:
REMARK  status: ('A' for Active; 'I' for Inactive)
ROOT
ATOM      1  C   UNL d   1      -1.378  -1.141  -2.438  0.00  0.00     0.023 A 
ATOM      2  C1  UNL d   1      -0.730   0.094  -2.446  0.00  0.00     0.003 A 
ATOM      3  C2  UNL d   1      -0.171   0.599  -1.270  0.00  0.00     0.048 A 
ATOM      4  C3  UNL d   1      -0.265  -0.138  -0.089  0.00  0.00     0.023 A 
ATOM      5  C4  UNL d   1      -0.912  -1.374  -0.077  0.00  0.00     0.048 A 
ATOM      6  C5  UNL d   1      -1.469  -1.874  -1.255  0.00  0.00     0.003 A 
ATOM      7  I   UNL d   1       0.566   0.611   1.663  0.00  0.00    -0.146 I 
ENDROOT
TORSDOF 0
ENDMDL
