MODEL 1
REMARK minimizedAffinity 1.51927733
REMARK minimizedRMSD -1
REMARK  0 active torsions:
REMARK  status: ('A' for Active; 'I' for Inactive)
ROOT
ATOM      1  C   UNL d   1      -0.735  -0.560   2.799  0.00  0.00     0.023 A 
ATOM      2  C1  UNL d   1      -1.283   0.426   1.978  0.00  0.00     0.003 A 
ATOM      3  C2  UNL d   1      -0.495   1.044   1.005  0.00  0.00     0.048 A 
ATOM      4  C3  UNL d   1       0.840   0.669   0.856  0.00  0.00     0.023 A 
ATOM      5  C4  UNL d   1       1.392  -0.318   1.675  0.00  0.00     0.048 A 
ATOM      6  C5  UNL d   1       0.601  -0.931   2.647  0.00  0.00     0.003 A 
ATOM      7  I   UNL d   1       2.015   1.586  -0.592  0.00  0.00    -0.146 I 
ENDROOT
TORSDOF 0
ENDMDL
