MODEL 1
REMARK minimizedAffinity -1.08795989
REMARK minimizedRMSD -1
REMARK  0 active torsions:
REMARK  status: ('A' for Active; 'I' for Inactive)
ROOT
ATOM      1  C   UNL d   1       5.937  -1.622   3.907  0.00  0.00     0.023 A 
ATOM      2  C1  UNL d   1       5.741  -2.755   3.118  0.00  0.00     0.003 A 
ATOM      3  C2  UNL d   1       5.606  -4.010   3.716  0.00  0.00     0.048 A 
ATOM      4  C3  UNL d   1       5.668  -4.124   5.104  0.00  0.00     0.023 A 
ATOM      5  C4  UNL d   1       5.863  -2.992   5.898  0.00  0.00     0.048 A 
ATOM      6  C5  UNL d   1       5.998  -1.740   5.296  0.00  0.00     0.003 A 
ATOM      7  I   UNL d   1       5.468  -5.990   5.997  0.00  0.00    -0.146 I 
ENDROOT
TORSDOF 0
ENDMDL
