MODEL 1
REMARK minimizedAffinity -2.60617995
REMARK minimizedRMSD -1
REMARK  0 active torsions:
REMARK  status: ('A' for Active; 'I' for Inactive)
ROOT
ATOM      1  C   UNL d   1       5.982  -1.940   3.570  0.00  0.00     0.023 A 
ATOM      2  C1  UNL d   1       5.963  -1.931   4.965  0.00  0.00     0.003 A 
ATOM      3  C2  UNL d   1       5.381  -2.991   5.663  0.00  0.00     0.048 A 
ATOM      4  C3  UNL d   1       4.820  -4.057   4.960  0.00  0.00     0.023 A 
ATOM      5  C4  UNL d   1       4.837  -4.071   3.565  0.00  0.00     0.048 A 
ATOM      6  C5  UNL d   1       5.420  -3.008   2.871  0.00  0.00     0.003 A 
ATOM      7  I   UNL d   1       3.953  -5.636   5.998  0.00  0.00    -0.146 I 
ENDROOT
TORSDOF 0
ENDMDL
