MODEL 1
REMARK minimizedAffinity 2.36356783
REMARK minimizedRMSD -1
REMARK  0 active torsions:
REMARK  status: ('A' for Active; 'I' for Inactive)
ROOT
ATOM      1  C   UNL d   1       5.898   0.813   2.556  0.00  0.00     0.023 A 
ATOM      2  C1  UNL d   1       6.000   1.553   1.377  0.00  0.00     0.003 A 
ATOM      3  C2  UNL d   1       4.854   1.851   0.637  0.00  0.00     0.048 A 
ATOM      4  C3  UNL d   1       3.609   1.408   1.081  0.00  0.00     0.023 A 
ATOM      5  C4  UNL d   1       3.502   0.669   2.260  0.00  0.00     0.048 A 
ATOM      6  C5  UNL d   1       4.650   0.372   2.997  0.00  0.00     0.003 A 
ATOM      7  I   UNL d   1       1.902   1.851  -0.019  0.00  0.00    -0.146 I 
ENDROOT
TORSDOF 0
ENDMDL
