MODEL 1
REMARK minimizedAffinity -1.16928136
REMARK minimizedRMSD -1
REMARK  0 active torsions:
REMARK  status: ('A' for Active; 'I' for Inactive)
ROOT
ATOM      1  C   UNL d   1       4.876  -4.032   5.113  0.00  0.00     0.023 A 
ATOM      2  C1  UNL d   1       5.165  -2.995   6.000  0.00  0.00     0.003 A 
ATOM      3  C2  UNL d   1       5.488  -1.727   5.512  0.00  0.00     0.048 A 
ATOM      4  C3  UNL d   1       5.519  -1.503   4.136  0.00  0.00     0.023 A 
ATOM      5  C4  UNL d   1       5.230  -2.538   3.245  0.00  0.00     0.048 A 
ATOM      6  C5  UNL d   1       4.909  -3.804   3.737  0.00  0.00     0.003 A 
ATOM      7  I   UNL d   1       6.000   0.383   3.407  0.00  0.00    -0.146 I 
ENDROOT
TORSDOF 0
ENDMDL
