MODEL 1
REMARK minimizedAffinity 3.18379426
REMARK minimizedRMSD -1
REMARK  0 active torsions:
REMARK  status: ('A' for Active; 'I' for Inactive)
ROOT
ATOM      1  C   UNL d   1       5.053  -4.549   3.625  0.00  0.00     0.023 A 
ATOM      2  C1  UNL d   1       5.182  -4.556   5.014  0.00  0.00     0.003 A 
ATOM      3  C2  UNL d   1       5.455  -3.369   5.697  0.00  0.00     0.048 A 
ATOM      4  C3  UNL d   1       5.595  -2.178   4.985  0.00  0.00     0.023 A 
ATOM      5  C4  UNL d   1       5.465  -2.166   3.596  0.00  0.00     0.048 A 
ATOM      6  C5  UNL d   1       5.194  -3.355   2.917  0.00  0.00     0.003 A 
ATOM      7  I   UNL d   1       6.000  -0.410   6.000  0.00  0.00    -0.146 I 
ENDROOT
TORSDOF 0
ENDMDL
