MODEL 1
REMARK minimizedAffinity 2.29139495
REMARK minimizedRMSD -1
REMARK  0 active torsions:
REMARK  status: ('A' for Active; 'I' for Inactive)
ROOT
ATOM      1  C   UNL d   1       3.987   1.107  -4.967  0.00  0.00     0.023 A 
ATOM      2  C1  UNL d   1       3.862  -0.112  -4.300  0.00  0.00     0.003 A 
ATOM      3  C2  UNL d   1       2.998  -0.228  -3.210  0.00  0.00     0.048 A 
ATOM      4  C3  UNL d   1       2.261   0.879  -2.791  0.00  0.00     0.023 A 
ATOM      5  C4  UNL d   1       2.382   2.101  -3.456  0.00  0.00     0.048 A 
ATOM      6  C5  UNL d   1       3.247   2.212  -4.545  0.00  0.00     0.003 A 
ATOM      7  I   UNL d   1       0.974   0.709  -1.168  0.00  0.00    -0.146 I 
ENDROOT
TORSDOF 0
ENDMDL
