MODEL 1
REMARK minimizedAffinity 12.3164167
REMARK minimizedRMSD -1
REMARK  0 active torsions:
REMARK  status: ('A' for Active; 'I' for Inactive)
ROOT
ATOM      1  C   UNL d   1      -2.290   5.857   5.989  0.00  0.00     0.023 A 
ATOM      2  C1  UNL d   1      -1.717   4.586   5.973  0.00  0.00     0.003 A 
ATOM      3  C2  UNL d   1      -2.532   3.452   5.967  0.00  0.00     0.048 A 
ATOM      4  C3  UNL d   1      -3.919   3.597   5.976  0.00  0.00     0.023 A 
ATOM      5  C4  UNL d   1      -4.496   4.867   5.991  0.00  0.00     0.048 A 
ATOM      6  C5  UNL d   1      -3.678   5.998   5.998  0.00  0.00     0.003 A 
ATOM      7  I   UNL d   1      -5.134   1.910   5.966  0.00  0.00    -0.146 I 
ENDROOT
TORSDOF 0
ENDMDL
