MODEL 1
REMARK minimizedAffinity 6.24965048
REMARK minimizedRMSD -1
REMARK  0 active torsions:
REMARK  status: ('A' for Active; 'I' for Inactive)
ROOT
ATOM      1  C   UNL d   1      -6.000   0.813   2.481  0.00  0.00     0.023 A 
ATOM      2  C1  UNL d   1      -5.196   1.925   2.228  0.00  0.00     0.003 A 
ATOM      3  C2  UNL d   1      -3.872   1.752   1.819  0.00  0.00     0.048 A 
ATOM      4  C3  UNL d   1      -3.359   0.465   1.665  0.00  0.00     0.023 A 
ATOM      5  C4  UNL d   1      -4.159  -0.650   1.916  0.00  0.00     0.048 A 
ATOM      6  C5  UNL d   1      -5.482  -0.473   2.326  0.00  0.00     0.003 A 
ATOM      7  I   UNL d   1      -1.388   0.205   1.056  0.00  0.00    -0.146 I 
ENDROOT
TORSDOF 0
ENDMDL
