MODEL 1
REMARK minimizedAffinity 9.2055645
REMARK minimizedRMSD -1
REMARK  0 active torsions:
REMARK  status: ('A' for Active; 'I' for Inactive)
ROOT
ATOM      1  C   UNL d   1      -1.273   0.990   0.893  0.00  0.00     0.023 A 
ATOM      2  C1  UNL d   1      -1.540  -0.376   0.803  0.00  0.00     0.003 A 
ATOM      3  C2  UNL d   1      -2.744  -0.887   1.292  0.00  0.00     0.048 A 
ATOM      4  C3  UNL d   1      -3.677  -0.025   1.868  0.00  0.00     0.023 A 
ATOM      5  C4  UNL d   1      -3.415   1.343   1.959  0.00  0.00     0.048 A 
ATOM      6  C5  UNL d   1      -2.209   1.848   1.470  0.00  0.00     0.003 A 
ATOM      7  I   UNL d   1      -5.471  -0.783   2.597  0.00  0.00    -0.146 I 
ENDROOT
TORSDOF 0
ENDMDL
