MODEL 1
REMARK minimizedAffinity 8.44572639
REMARK minimizedRMSD -1
REMARK  0 active torsions:
REMARK  status: ('A' for Active; 'I' for Inactive)
ROOT
ATOM      1  C   UNL d   1       4.806  -0.681  -3.686  0.00  0.00     0.023 A 
ATOM      2  C1  UNL d   1       4.880  -1.050  -5.029  0.00  0.00     0.003 A 
ATOM      3  C2  UNL d   1       3.738  -1.501  -5.694  0.00  0.00     0.048 A 
ATOM      4  C3  UNL d   1       2.525  -1.579  -5.011  0.00  0.00     0.023 A 
ATOM      5  C4  UNL d   1       2.446  -1.210  -3.667  0.00  0.00     0.048 A 
ATOM      6  C5  UNL d   1       3.590  -0.761  -3.006  0.00  0.00     0.003 A 
ATOM      7  I   UNL d   1       0.824  -2.250  -5.999  0.00  0.00    -0.146 I 
ENDROOT
TORSDOF 0
ENDMDL
