MODEL 1
REMARK minimizedAffinity 14.2754898
REMARK minimizedRMSD -1
REMARK  1 active torsions:
REMARK  status: ('A' for Active; 'I' for Inactive)
REMARK    1  A    between atoms: C1_2  and  C2_3 
ROOT
ATOM      1  C2  UNL d   1       3.661   2.618  -1.211  0.00  0.00    -0.073 A 
ATOM      2  C3  UNL d   1       4.734   2.264  -2.037  0.00  0.00    -0.002 A 
ATOM      3  C4  UNL d   1       5.892   3.042  -2.061  0.00  0.00     0.004 A 
ATOM      4  C5  UNL d   1       5.992   4.176  -1.255  0.00  0.00    -0.004 A 
ATOM      5  C6  UNL d   1       4.936   4.539  -0.414  0.00  0.00    -0.075 A 
ATOM      6  C7  UNL d   1       5.027   5.757   0.458  0.00  0.00     0.076 C 
ATOM      7  C8  UNL d   1       3.775   3.754  -0.398  0.00  0.00     0.001 A 
ENDROOT
BRANCH   1   8
ATOM      8  C1  UNL d   1       2.411   1.777  -1.177  0.00  0.00     0.053 C 
ATOM      9  C   UNL d   1       2.592   0.457  -1.910  0.00  0.00     0.018 C 
ENDBRANCH   1   8
TORSDOF 1
ENDMDL
