MODEL 1
REMARK minimizedAffinity 10.859807
REMARK minimizedRMSD -1
REMARK  1 active torsions:
REMARK  status: ('A' for Active; 'I' for Inactive)
REMARK    1  A    between atoms: C1_2  and  C2_3 
ROOT
ATOM      1  C2  UNL d   1      -1.291  -2.591  -0.191  0.00  0.00    -0.073 A 
ATOM      2  C3  UNL d   1      -2.178  -2.420   0.877  0.00  0.00    -0.002 A 
ATOM      3  C4  UNL d   1      -3.174  -1.444   0.817  0.00  0.00     0.004 A 
ATOM      4  C5  UNL d   1      -3.296  -0.635  -0.312  0.00  0.00    -0.004 A 
ATOM      5  C6  UNL d   1      -2.426  -0.798  -1.395  0.00  0.00    -0.075 A 
ATOM      6  C7  UNL d   1      -2.543   0.066  -2.616  0.00  0.00     0.076 C 
ATOM      7  C8  UNL d   1      -1.427  -1.779  -1.326  0.00  0.00     0.001 A 
ENDROOT
BRANCH   1   8
ATOM      8  C1  UNL d   1      -0.218  -3.648  -0.134  0.00  0.00     0.053 C 
ATOM      9  C   UNL d   1      -0.691  -4.900   0.588  0.00  0.00     0.018 C 
ENDBRANCH   1   8
TORSDOF 1
ENDMDL
