MODEL 1
REMARK minimizedAffinity 18.9499893
REMARK minimizedRMSD -1
REMARK  1 active torsions:
REMARK  status: ('A' for Active; 'I' for Inactive)
REMARK    1  A    between atoms: C1_2  and  C2_3 
ROOT
ATOM      1  C2  UNL d   1      -3.462  -2.535   1.217  0.00  0.00    -0.073 A 
ATOM      2  C3  UNL d   1      -2.881  -1.425   0.593  0.00  0.00    -0.002 A 
ATOM      3  C4  UNL d   1      -1.621  -1.528   0.003  0.00  0.00     0.004 A 
ATOM      4  C5  UNL d   1      -0.933  -2.741   0.024  0.00  0.00    -0.004 A 
ATOM      5  C6  UNL d   1      -1.501  -3.864   0.633  0.00  0.00    -0.075 A 
ATOM      6  C7  UNL d   1      -0.773  -5.175   0.666  0.00  0.00     0.076 C 
ATOM      7  C8  UNL d   1      -2.766  -3.752   1.226  0.00  0.00     0.001 A 
ENDROOT
BRANCH   1   8
ATOM      8  C1  UNL d   1      -4.825  -2.431   1.851  0.00  0.00     0.053 C 
ATOM      9  C   UNL d   1      -5.928  -2.882   0.907  0.00  0.00     0.018 C 
ENDBRANCH   1   8
TORSDOF 1
ENDMDL
