MODEL 1
REMARK minimizedAffinity 9.61488056
REMARK minimizedRMSD -1
REMARK  1 active torsions:
REMARK  status: ('A' for Active; 'I' for Inactive)
REMARK    1  A    between atoms: C1_2  and  C2_3 
ROOT
ATOM      1  C2  UNL d   1      -0.698  -3.241  -0.325  0.00  0.00    -0.073 A 
ATOM      2  C3  UNL d   1      -0.609  -3.962  -1.521  0.00  0.00    -0.002 A 
ATOM      3  C4  UNL d   1      -0.355  -5.334  -1.500  0.00  0.00     0.004 A 
ATOM      4  C5  UNL d   1      -0.196  -6.000  -0.285  0.00  0.00    -0.004 A 
ATOM      5  C6  UNL d   1      -0.293  -5.299   0.922  0.00  0.00    -0.075 A 
ATOM      6  C7  UNL d   1      -0.122  -6.000   2.237  0.00  0.00     0.076 C 
ATOM      7  C8  UNL d   1      -0.546  -3.921   0.892  0.00  0.00     0.001 A 
ENDROOT
BRANCH   1   8
ATOM      8  C1  UNL d   1      -0.979  -1.761  -0.343  0.00  0.00     0.053 C 
ATOM      9  C   UNL d   1      -2.254  -1.413   0.407  0.00  0.00     0.018 C 
ENDBRANCH   1   8
TORSDOF 1
ENDMDL
