MODEL 1
REMARK minimizedAffinity 10.9814692
REMARK minimizedRMSD -1
REMARK  1 active torsions:
REMARK  status: ('A' for Active; 'I' for Inactive)
REMARK    1  A    between atoms: C1_2  and  C2_3 
ROOT
ATOM      1  C2  UNL d   1      -1.223  -0.771  -2.415  0.00  0.00    -0.073 A 
ATOM      2  C3  UNL d   1      -2.209   0.185  -2.684  0.00  0.00    -0.002 A 
ATOM      3  C4  UNL d   1      -3.362   0.248  -1.900  0.00  0.00     0.004 A 
ATOM      4  C5  UNL d   1      -3.537  -0.638  -0.837  0.00  0.00    -0.004 A 
ATOM      5  C6  UNL d   1      -2.557  -1.592  -0.545  0.00  0.00    -0.075 A 
ATOM      6  C7  UNL d   1      -2.732  -2.554   0.594  0.00  0.00     0.076 C 
ATOM      7  C8  UNL d   1      -1.404  -1.651  -1.338  0.00  0.00     0.001 A 
ENDROOT
BRANCH   1   8
ATOM      8  C1  UNL d   1       0.027  -0.839  -3.255  0.00  0.00     0.053 C 
ATOM      9  C   UNL d   1       1.153  -0.002  -2.669  0.00  0.00     0.018 C 
ENDBRANCH   1   8
TORSDOF 1
ENDMDL
