MODEL 1
REMARK minimizedAffinity 11.333003
REMARK minimizedRMSD -1
REMARK  1 active torsions:
REMARK  status: ('A' for Active; 'I' for Inactive)
REMARK    1  A    between atoms: C1_2  and  C2_3 
ROOT
ATOM      1  C2  UNL d   1      -2.553   1.751  -4.015  0.00  0.00    -0.073 A 
ATOM      2  C3  UNL d   1      -3.431   2.315  -4.947  0.00  0.00    -0.002 A 
ATOM      3  C4  UNL d   1      -2.953   3.180  -5.932  0.00  0.00     0.004 A 
ATOM      4  C5  UNL d   1      -1.594   3.484  -6.000  0.00  0.00    -0.004 A 
ATOM      5  C6  UNL d   1      -0.699   2.921  -5.085  0.00  0.00    -0.075 A 
ATOM      6  C7  UNL d   1       0.767   3.240  -5.143  0.00  0.00     0.076 C 
ATOM      7  C8  UNL d   1      -1.187   2.056  -4.097  0.00  0.00     0.001 A 
ENDROOT
BRANCH   1   8
ATOM      8  C1  UNL d   1      -3.064   0.812  -2.953  0.00  0.00     0.053 C 
ATOM      9  C   UNL d   1      -2.320  -0.515  -2.960  0.00  0.00     0.018 C 
ENDBRANCH   1   8
TORSDOF 1
ENDMDL
