MODEL 1
REMARK minimizedAffinity 16.3753414
REMARK minimizedRMSD -1
REMARK  1 active torsions:
REMARK  status: ('A' for Active; 'I' for Inactive)
REMARK    1  A    between atoms: C1_2  and  C2_3 
ROOT
ATOM      1  C2  UNL d   1       2.746   2.159  -0.575  0.00  0.00    -0.073 A 
ATOM      2  C3  UNL d   1       2.726   0.782  -0.323  0.00  0.00    -0.002 A 
ATOM      3  C4  UNL d   1       2.049  -0.082  -1.185  0.00  0.00     0.004 A 
ATOM      4  C5  UNL d   1       1.392   0.419  -2.308  0.00  0.00    -0.004 A 
ATOM      5  C6  UNL d   1       1.410   1.790  -2.583  0.00  0.00    -0.075 A 
ATOM      6  C7  UNL d   1       0.707   2.345  -3.786  0.00  0.00     0.076 C 
ATOM      7  C8  UNL d   1       2.090   2.652  -1.712  0.00  0.00     0.001 A 
ENDROOT
BRANCH   1   8
ATOM      8  C1  UNL d   1       3.481   3.095   0.349  0.00  0.00     0.053 C 
ATOM      9  C   UNL d   1       4.323   4.104  -0.415  0.00  0.00     0.018 C 
ENDBRANCH   1   8
TORSDOF 1
ENDMDL
