MODEL 1
REMARK minimizedAffinity 10.427042
REMARK minimizedRMSD -1
REMARK  1 active torsions:
REMARK  status: ('A' for Active; 'I' for Inactive)
REMARK    1  A    between atoms: C1_2  and  C2_3 
ROOT
ATOM      1  C2  UNL d   1      -3.477   4.421  -5.522  0.00  0.00    -0.073 A 
ATOM      2  C3  UNL d   1      -3.718   3.373  -4.627  0.00  0.00    -0.002 A 
ATOM      3  C4  UNL d   1      -2.667   2.568  -4.185  0.00  0.00     0.004 A 
ATOM      4  C5  UNL d   1      -1.366   2.806  -4.627  0.00  0.00    -0.004 A 
ATOM      5  C6  UNL d   1      -1.103   3.856  -5.513  0.00  0.00    -0.075 A 
ATOM      6  C7  UNL d   1       0.290   4.125  -6.000  0.00  0.00     0.076 C 
ATOM      7  C8  UNL d   1      -2.164   4.659  -5.954  0.00  0.00     0.001 A 
ENDROOT
BRANCH   1   8
ATOM      8  C1  UNL d   1      -4.607   5.297  -5.997  0.00  0.00     0.053 C 
ATOM      9  C   UNL d   1      -5.900   5.015  -5.249  0.00  0.00     0.018 C 
ENDBRANCH   1   8
TORSDOF 1
ENDMDL
