MODEL 1
REMARK minimizedAffinity 13.8682384
REMARK minimizedRMSD -1
REMARK  1 active torsions:
REMARK  status: ('A' for Active; 'I' for Inactive)
REMARK    1  A    between atoms: C1_2  and  C2_3 
ROOT
ATOM      1  C2  UNL d   1      -3.415  -0.987   5.564  0.00  0.00    -0.073 A 
ATOM      2  C3  UNL d   1      -3.941  -2.240   5.230  0.00  0.00    -0.002 A 
ATOM      3  C4  UNL d   1      -3.096  -3.277   4.832  0.00  0.00     0.004 A 
ATOM      4  C5  UNL d   1      -1.717  -3.074   4.771  0.00  0.00    -0.004 A 
ATOM      5  C6  UNL d   1      -1.171  -1.832   5.112  0.00  0.00    -0.075 A 
ATOM      6  C7  UNL d   1       0.309  -1.597   5.050  0.00  0.00     0.076 C 
ATOM      7  C8  UNL d   1      -2.027  -0.795   5.508  0.00  0.00     0.001 A 
ENDROOT
BRANCH   1   8
ATOM      8  C1  UNL d   1      -4.324   0.133   6.000  0.00  0.00     0.053 C 
ATOM      9  C   UNL d   1      -3.640   1.488   5.912  0.00  0.00     0.018 C 
ENDBRANCH   1   8
TORSDOF 1
ENDMDL
