MODEL 1
REMARK minimizedAffinity 13.2915449
REMARK minimizedRMSD -1
REMARK  1 active torsions:
REMARK  status: ('A' for Active; 'I' for Inactive)
REMARK    1  A    between atoms: C1_2  and  C2_3 
ROOT
ATOM      1  C2  UNL d   1      -3.107  -1.510   5.258  0.00  0.00    -0.073 A 
ATOM      2  C3  UNL d   1      -4.465  -1.788   5.445  0.00  0.00    -0.002 A 
ATOM      3  C4  UNL d   1      -5.347  -0.772   5.817  0.00  0.00     0.004 A 
ATOM      4  C5  UNL d   1      -4.882   0.530   5.999  0.00  0.00    -0.004 A 
ATOM      5  C6  UNL d   1      -3.530   0.829   5.806  0.00  0.00    -0.075 A 
ATOM      6  C7  UNL d   1      -3.013   2.225   6.000  0.00  0.00     0.076 C 
ATOM      7  C8  UNL d   1      -2.650  -0.196   5.434  0.00  0.00     0.001 A 
ENDROOT
BRANCH   1   8
ATOM      8  C1  UNL d   1      -2.152  -2.602   4.849  0.00  0.00     0.053 C 
ATOM      9  C   UNL d   1      -2.847  -3.704   4.066  0.00  0.00     0.018 C 
ENDBRANCH   1   8
TORSDOF 1
ENDMDL
