MODEL 1
REMARK minimizedAffinity 5.71619749
REMARK minimizedRMSD -1
REMARK  0 active torsions:
REMARK  status: ('A' for Active; 'I' for Inactive)
ROOT
ATOM      1  C1  BNZ d   1      -3.367   1.872   4.218  0.00  0.00     0.000 A 
ATOM      2  C2  BNZ d   1      -4.458   1.095   4.505  0.00  0.00     0.000 A 
ATOM      3  C3  BNZ d   1      -4.869   0.120   3.640  0.00  0.00     0.000 A 
ATOM      4  C4  BNZ d   1      -4.216  -0.050   2.473  0.00  0.00     0.000 A 
ATOM      5  C5  BNZ d   1      -3.120   0.732   2.165  0.00  0.00     0.000 A 
ATOM      6  C6  BNZ d   1      -2.685   1.686   3.055  0.00  0.00     0.000 A 
ENDROOT
TORSDOF 0
ENDMDL
