MODEL 1
REMARK minimizedAffinity 9.58696079
REMARK minimizedRMSD -1
REMARK  0 active torsions:
REMARK  status: ('A' for Active; 'I' for Inactive)
ROOT
ATOM      1  C1  BNZ d   1      -2.625  -2.624  -4.904  0.00  0.00     0.000 A 
ATOM      2  C2  BNZ d   1      -3.450  -2.629  -5.998  0.00  0.00     0.000 A 
ATOM      3  C3  BNZ d   1      -4.605  -3.360  -6.000  0.00  0.00     0.000 A 
ATOM      4  C4  BNZ d   1      -4.914  -4.115  -4.926  0.00  0.00     0.000 A 
ATOM      5  C5  BNZ d   1      -4.088  -4.127  -3.819  0.00  0.00     0.000 A 
ATOM      6  C6  BNZ d   1      -2.946  -3.360  -3.805  0.00  0.00     0.000 A 
ENDROOT
TORSDOF 0
ENDMDL
