MODEL 1
REMARK minimizedAffinity -2.32425952
REMARK minimizedRMSD -1
REMARK  0 active torsions:
REMARK  status: ('A' for Active; 'I' for Inactive)
ROOT
ATOM      1  C1  BNZ d   1      -4.834  -4.907  -4.866  0.00  0.00     0.000 A 
ATOM      2  C2  BNZ d   1      -4.275  -4.380  -5.999  0.00  0.00     0.000 A 
ATOM      3  C3  BNZ d   1      -2.986  -3.924  -5.996  0.00  0.00     0.000 A 
ATOM      4  C4  BNZ d   1      -2.273  -3.958  -4.852  0.00  0.00     0.000 A 
ATOM      5  C5  BNZ d   1      -2.827  -4.478  -3.699  0.00  0.00     0.000 A 
ATOM      6  C6  BNZ d   1      -4.111  -4.972  -3.716  0.00  0.00     0.000 A 
ENDROOT
TORSDOF 0
ENDMDL
