MODEL 1
REMARK minimizedAffinity 4.37779617
REMARK minimizedRMSD -1
REMARK  0 active torsions:
REMARK  status: ('A' for Active; 'I' for Inactive)
ROOT
ATOM      1  C1  BNZ d   1      -2.389  -1.258  -3.393  0.00  0.00     0.000 A 
ATOM      2  C2  BNZ d   1      -2.077  -2.544  -3.745  0.00  0.00     0.000 A 
ATOM      3  C3  BNZ d   1      -0.801  -3.017  -3.610  0.00  0.00     0.000 A 
ATOM      4  C4  BNZ d   1       0.167  -2.192  -3.162  0.00  0.00     0.000 A 
ATOM      5  C5  BNZ d   1      -0.130  -0.890  -2.812  0.00  0.00     0.000 A 
ATOM      6  C6  BNZ d   1      -1.423  -0.430  -2.912  0.00  0.00     0.000 A 
ENDROOT
TORSDOF 0
ENDMDL
