MODEL 1
REMARK minimizedAffinity 8.88472843
REMARK minimizedRMSD -1
REMARK  0 active torsions:
REMARK  status: ('A' for Active; 'I' for Inactive)
ROOT
ATOM      1  C1  BNZ d   1      -0.498  -4.165  -3.512  0.00  0.00     0.000 A 
ATOM      2  C2  BNZ d   1      -1.102  -3.345  -4.427  0.00  0.00     0.000 A 
ATOM      3  C3  BNZ d   1      -2.459  -3.176  -4.428  0.00  0.00     0.000 A 
ATOM      4  C4  BNZ d   1      -3.212  -3.858  -3.541  0.00  0.00     0.000 A 
ATOM      5  C5  BNZ d   1      -2.618  -4.697  -2.619  0.00  0.00     0.000 A 
ATOM      6  C6  BNZ d   1      -1.249  -4.834  -2.596  0.00  0.00     0.000 A 
ENDROOT
TORSDOF 0
ENDMDL
