MODEL 1
REMARK minimizedAffinity 5.21514606
REMARK minimizedRMSD -1
REMARK  0 active torsions:
REMARK  status: ('A' for Active; 'I' for Inactive)
ROOT
ATOM      1  C1  BNZ d   1      -1.538   0.445   2.530  0.00  0.00     0.000 A 
ATOM      2  C2  BNZ d   1      -1.726  -0.863   2.889  0.00  0.00     0.000 A 
ATOM      3  C3  BNZ d   1      -2.896  -1.269   3.466  0.00  0.00     0.000 A 
ATOM      4  C4  BNZ d   1      -3.860  -0.361   3.720  0.00  0.00     0.000 A 
ATOM      5  C5  BNZ d   1      -3.682   0.964   3.373  0.00  0.00     0.000 A 
ATOM      6  C6  BNZ d   1      -2.518   1.362   2.757  0.00  0.00     0.000 A 
ENDROOT
TORSDOF 0
ENDMDL
