MODEL 1
REMARK minimizedAffinity 10.477231
REMARK minimizedRMSD -1
REMARK  0 active torsions:
REMARK  status: ('A' for Active; 'I' for Inactive)
ROOT
ATOM      1  C1  BNZ d   1       3.408   1.900  -1.197  0.00  0.00     0.000 A 
ATOM      2  C2  BNZ d   1       2.658   0.972  -1.870  0.00  0.00     0.000 A 
ATOM      3  C3  BNZ d   1       2.522  -0.300  -1.389  0.00  0.00     0.000 A 
ATOM      4  C4  BNZ d   1       3.169  -0.655  -0.260  0.00  0.00     0.000 A 
ATOM      5  C5  BNZ d   1       3.936   0.266   0.425  0.00  0.00     0.000 A 
ATOM      6  C6  BNZ d   1       4.039   1.557  -0.041  0.00  0.00     0.000 A 
ENDROOT
TORSDOF 0
ENDMDL
