MODEL 1
REMARK minimizedAffinity 8.23818016
REMARK minimizedRMSD -1
REMARK  0 active torsions:
REMARK  status: ('A' for Active; 'I' for Inactive)
ROOT
ATOM      1  C1  BNZ d   1       2.647  -3.666  -1.128  0.00  0.00     0.000 A 
ATOM      2  C2  BNZ d   1       1.692  -3.680  -2.109  0.00  0.00     0.000 A 
ATOM      3  C3  BNZ d   1       1.322  -4.851  -2.710  0.00  0.00     0.000 A 
ATOM      4  C4  BNZ d   1       1.937  -5.999  -2.358  0.00  0.00     0.000 A 
ATOM      5  C5  BNZ d   1       2.909  -6.000  -1.377  0.00  0.00     0.000 A 
ATOM      6  C6  BNZ d   1       3.250  -4.825  -0.747  0.00  0.00     0.000 A 
ENDROOT
TORSDOF 0
ENDMDL
