MODEL 1
REMARK minimizedAffinity 3.2995975
REMARK minimizedRMSD -1
REMARK  0 active torsions:
REMARK  status: ('A' for Active; 'I' for Inactive)
ROOT
ATOM      1  C1  BNZ d   1      -1.973   4.125  -5.040  0.00  0.00     0.000 A 
ATOM      2  C2  BNZ d   1      -1.129   3.590  -4.103  0.00  0.00     0.000 A 
ATOM      3  C3  BNZ d   1      -0.813   2.260  -4.124  0.00  0.00     0.000 A 
ATOM      4  C4  BNZ d   1      -1.373   1.461  -5.055  0.00  0.00     0.000 A 
ATOM      5  C5  BNZ d   1      -2.233   1.983  -6.000  0.00  0.00     0.000 A 
ATOM      6  C6  BNZ d   1      -2.518   3.330  -6.000  0.00  0.00     0.000 A 
ENDROOT
TORSDOF 0
ENDMDL
