MODEL 1
REMARK minimizedAffinity 1.11235404
REMARK minimizedRMSD -1
REMARK  0 active torsions:
REMARK  status: ('A' for Active; 'I' for Inactive)
ROOT
ATOM      1  C1  BNZ d   1      -4.496  -5.670  -5.503  0.00  0.00     0.000 A 
ATOM      2  C2  BNZ d   1      -3.622  -4.760  -4.972  0.00  0.00     0.000 A 
ATOM      3  C3  BNZ d   1      -3.939  -3.431  -4.923  0.00  0.00     0.000 A 
ATOM      4  C4  BNZ d   1      -5.111  -3.010  -5.440  0.00  0.00     0.000 A 
ATOM      5  C5  BNZ d   1      -5.999  -3.914  -5.987  0.00  0.00     0.000 A 
ATOM      6  C6  BNZ d   1      -5.693  -5.256  -6.000  0.00  0.00     0.000 A 
ENDROOT
TORSDOF 0
ENDMDL
