MODEL 1
REMARK minimizedAffinity 4.87717342
REMARK minimizedRMSD -1
REMARK  0 active torsions:
REMARK  status: ('A' for Active; 'I' for Inactive)
ROOT
ATOM      1  C1  BNZ d   1      -0.517   0.631   2.648  0.00  0.00     0.000 A 
ATOM      2  C2  BNZ d   1      -1.621   1.427   2.492  0.00  0.00     0.000 A 
ATOM      3  C3  BNZ d   1      -2.877   0.886   2.479  0.00  0.00     0.000 A 
ATOM      4  C4  BNZ d   1      -3.024  -0.450   2.581  0.00  0.00     0.000 A 
ATOM      5  C5  BNZ d   1      -1.921  -1.266   2.729  0.00  0.00     0.000 A 
ATOM      6  C6  BNZ d   1      -0.661  -0.715   2.781  0.00  0.00     0.000 A 
ENDROOT
TORSDOF 0
ENDMDL
