MODEL 1
REMARK minimizedAffinity -1.0797261
REMARK minimizedRMSD -1
REMARK  0 active torsions:
REMARK  status: ('A' for Active; 'I' for Inactive)
ROOT
ATOM      1  C1  BNZ d   1      -1.706  -4.122  -4.595  0.00  0.00     0.000 A 
ATOM      2  C2  BNZ d   1      -2.667  -3.898  -5.545  0.00  0.00     0.000 A 
ATOM      3  C3  BNZ d   1      -3.969  -4.248  -5.319  0.00  0.00     0.000 A 
ATOM      4  C4  BNZ d   1      -4.301  -4.856  -4.162  0.00  0.00     0.000 A 
ATOM      5  C5  BNZ d   1      -3.342  -5.097  -3.199  0.00  0.00     0.000 A 
ATOM      6  C6  BNZ d   1      -2.039  -4.708  -3.414  0.00  0.00     0.000 A 
ENDROOT
TORSDOF 0
ENDMDL
