MODEL 1
REMARK minimizedAffinity -1.53999221
REMARK minimizedRMSD -1
REMARK  0 active torsions:
REMARK  status: ('A' for Active; 'I' for Inactive)
ROOT
ATOM      1  C1  BNZ d   1      -3.757  -4.470  -3.815  0.00  0.00     0.000 A 
ATOM      2  C2  BNZ d   1      -2.589  -4.732  -3.149  0.00  0.00     0.000 A 
ATOM      3  C3  BNZ d   1      -1.379  -4.498  -3.739  0.00  0.00     0.000 A 
ATOM      4  C4  BNZ d   1      -1.336  -4.041  -5.007  0.00  0.00     0.000 A 
ATOM      5  C5  BNZ d   1      -2.504  -3.780  -5.696  0.00  0.00     0.000 A 
ATOM      6  C6  BNZ d   1      -3.721  -3.980  -5.085  0.00  0.00     0.000 A 
ENDROOT
TORSDOF 0
ENDMDL
