MODEL 1
REMARK minimizedAffinity 4.08811331
REMARK minimizedRMSD -1
REMARK  0 active torsions:
REMARK  status: ('A' for Active; 'I' for Inactive)
ROOT
ATOM      1  C1  BNZ d   1      -2.072  -5.068  -2.617  0.00  0.00     0.000 A 
ATOM      2  C2  BNZ d   1      -1.255  -4.034  -2.990  0.00  0.00     0.000 A 
ATOM      3  C3  BNZ d   1      -1.750  -2.967  -3.685  0.00  0.00     0.000 A 
ATOM      4  C4  BNZ d   1      -3.050  -2.953  -4.042  0.00  0.00     0.000 A 
ATOM      5  C5  BNZ d   1      -3.885  -3.992  -3.682  0.00  0.00     0.000 A 
ATOM      6  C6  BNZ d   1      -3.392  -5.047  -2.948  0.00  0.00     0.000 A 
ENDROOT
TORSDOF 0
ENDMDL
