MODEL 1
REMARK minimizedAffinity 12.986928
REMARK minimizedRMSD -1
REMARK  0 active torsions:
REMARK  status: ('A' for Active; 'I' for Inactive)
ROOT
ATOM      1  C1  BNZ d   1      -2.564   0.930   2.644  0.00  0.00     0.000 A 
ATOM      2  C2  BNZ d   1      -2.774   0.334   3.859  0.00  0.00     0.000 A 
ATOM      3  C3  BNZ d   1      -3.682  -0.679   3.994  0.00  0.00     0.000 A 
ATOM      4  C4  BNZ d   1      -4.405  -1.068   2.924  0.00  0.00     0.000 A 
ATOM      5  C5  BNZ d   1      -4.211  -0.471   1.695  0.00  0.00     0.000 A 
ATOM      6  C6  BNZ d   1      -3.269   0.522   1.554  0.00  0.00     0.000 A 
ENDROOT
TORSDOF 0
ENDMDL
