MODEL 1
REMARK minimizedAffinity 2.00831294
REMARK minimizedRMSD -1
REMARK  0 active torsions:
REMARK  status: ('A' for Active; 'I' for Inactive)
ROOT
ATOM      1  C1  BNZ d   1      -0.668  -4.474  -3.364  0.00  0.00     0.000 A 
ATOM      2  C2  BNZ d   1      -1.230  -3.668  -4.318  0.00  0.00     0.000 A 
ATOM      3  C3  BNZ d   1      -2.585  -3.620  -4.484  0.00  0.00     0.000 A 
ATOM      4  C4  BNZ d   1      -3.375  -4.407  -3.725  0.00  0.00     0.000 A 
ATOM      5  C5  BNZ d   1      -2.823  -5.232  -2.765  0.00  0.00     0.000 A 
ATOM      6  C6  BNZ d   1      -1.460  -5.248  -2.574  0.00  0.00     0.000 A 
ENDROOT
TORSDOF 0
ENDMDL
