MODEL 1
REMARK minimizedAffinity 6.57224989
REMARK minimizedRMSD -1
REMARK  0 active torsions:
REMARK  status: ('A' for Active; 'I' for Inactive)
ROOT
ATOM      1  C1  BNZ d   1       0.365   0.627   6.000  0.00  0.00     0.000 A 
ATOM      2  C2  BNZ d   1       0.721   0.012   4.829  0.00  0.00     0.000 A 
ATOM      3  C3  BNZ d   1       0.707   0.696   3.646  0.00  0.00     0.000 A 
ATOM      4  C4  BNZ d   1       0.299   1.981   3.628  0.00  0.00     0.000 A 
ATOM      5  C5  BNZ d   1      -0.073   2.613   4.798  0.00  0.00     0.000 A 
ATOM      6  C6  BNZ d   1      -0.020   1.933   5.993  0.00  0.00     0.000 A 
ENDROOT
TORSDOF 0
ENDMDL
