MODEL 1
REMARK minimizedAffinity -0.751200378
REMARK minimizedRMSD -1
REMARK  0 active torsions:
REMARK  status: ('A' for Active; 'I' for Inactive)
ROOT
ATOM      1  C1  BNZ d   1       1.481  -3.987  -2.493  0.00  0.00     0.000 A 
ATOM      2  C2  BNZ d   1       1.293  -2.827  -1.789  0.00  0.00     0.000 A 
ATOM      3  C3  BNZ d   1       2.258  -2.360  -0.940  0.00  0.00     0.000 A 
ATOM      4  C4  BNZ d   1       3.390  -3.072  -0.767  0.00  0.00     0.000 A 
ATOM      5  C5  BNZ d   1       3.590  -4.248  -1.463  0.00  0.00     0.000 A 
ATOM      6  C6  BNZ d   1       2.633  -4.695  -2.345  0.00  0.00     0.000 A 
ENDROOT
TORSDOF 0
ENDMDL
