MODEL 1
REMARK minimizedAffinity 17.8365688
REMARK minimizedRMSD -1
REMARK  0 active torsions:
REMARK  status: ('A' for Active; 'I' for Inactive)
ROOT
ATOM      1  C   UNL d   1       4.863  -3.805  -4.895  0.00  0.00     0.023 A 
ATOM      2  C1  UNL d   1       5.338  -3.220  -3.722  0.00  0.00     0.003 A 
ATOM      3  C2  UNL d   1       4.897  -1.949  -3.346  0.00  0.00     0.048 A 
ATOM      4  C3  UNL d   1       3.981  -1.270  -4.148  0.00  0.00     0.023 A 
ATOM      5  C4  UNL d   1       3.502  -1.853  -5.322  0.00  0.00     0.048 A 
ATOM      6  C5  UNL d   1       3.946  -3.123  -5.695  0.00  0.00     0.003 A 
ATOM      7  I   UNL d   1       3.323   0.621  -3.590  0.00  0.00    -0.146 I 
ENDROOT
TORSDOF 0
ENDMDL
