MODEL 1
REMARK minimizedAffinity 3.59349537
REMARK minimizedRMSD -1
REMARK  0 active torsions:
REMARK  status: ('A' for Active; 'I' for Inactive)
ROOT
ATOM      1  C   UNL d   1       2.409  -1.183  -4.304  0.00  0.00     0.023 A 
ATOM      2  C1  UNL d   1       2.214  -1.932  -5.464  0.00  0.00     0.003 A 
ATOM      3  C2  UNL d   1       3.204  -2.814  -5.902  0.00  0.00     0.048 A 
ATOM      4  C3  UNL d   1       4.386  -2.944  -5.173  0.00  0.00     0.023 A 
ATOM      5  C4  UNL d   1       4.584  -2.197  -4.011  0.00  0.00     0.048 A 
ATOM      6  C5  UNL d   1       3.592  -1.315  -3.578  0.00  0.00     0.003 A 
ATOM      7  I   UNL d   1       5.860  -4.257  -5.822  0.00  0.00    -0.146 I 
ENDROOT
TORSDOF 0
ENDMDL
