MODEL 1
REMARK minimizedAffinity 7.44213104
REMARK minimizedRMSD -1
REMARK  0 active torsions:
REMARK  status: ('A' for Active; 'I' for Inactive)
ROOT
ATOM      1  C   UNL d   1      -4.320  -2.160   1.325  0.00  0.00     0.023 A 
ATOM      2  C1  UNL d   1      -3.327  -1.990   2.289  0.00  0.00     0.003 A 
ATOM      3  C2  UNL d   1      -3.663  -1.544   3.568  0.00  0.00     0.048 A 
ATOM      4  C3  UNL d   1      -4.995  -1.271   3.878  0.00  0.00     0.023 A 
ATOM      5  C4  UNL d   1      -5.993  -1.441   2.917  0.00  0.00     0.048 A 
ATOM      6  C5  UNL d   1      -5.652  -1.886   1.638  0.00  0.00     0.003 A 
ATOM      7  I   UNL d   1      -5.498  -0.607   5.782  0.00  0.00    -0.146 I 
ENDROOT
TORSDOF 0
ENDMDL
