MODEL 1
REMARK minimizedAffinity 4.07044506
REMARK minimizedRMSD -1
REMARK  0 active torsions:
REMARK  status: ('A' for Active; 'I' for Inactive)
ROOT
ATOM      1  C   UNL d   1      -2.062  -2.236   2.250  0.00  0.00     0.023 A 
ATOM      2  C1  UNL d   1      -0.899  -2.168   3.018  0.00  0.00     0.003 A 
ATOM      3  C2  UNL d   1      -0.014  -3.248   3.044  0.00  0.00     0.048 A 
ATOM      4  C3  UNL d   1      -0.297  -4.391   2.297  0.00  0.00     0.023 A 
ATOM      5  C4  UNL d   1      -1.458  -4.463   1.526  0.00  0.00     0.048 A 
ATOM      6  C5  UNL d   1      -2.341  -3.381   1.505  0.00  0.00     0.003 A 
ATOM      7  I   UNL d   1       1.019  -5.999   2.333  0.00  0.00    -0.146 I 
ENDROOT
TORSDOF 0
ENDMDL
