MODEL 1
REMARK minimizedAffinity 9.40132427
REMARK minimizedRMSD -1
REMARK  0 active torsions:
REMARK  status: ('A' for Active; 'I' for Inactive)
ROOT
ATOM      1  C   UNL d   1      -1.972  -5.991   3.505  0.00  0.00     0.023 A 
ATOM      2  C1  UNL d   1      -0.596  -5.814   3.358  0.00  0.00     0.003 A 
ATOM      3  C2  UNL d   1      -0.045  -5.645   2.086  0.00  0.00     0.048 A 
ATOM      4  C3  UNL d   1      -0.876  -5.654   0.966  0.00  0.00     0.023 A 
ATOM      5  C4  UNL d   1      -2.253  -5.830   1.109  0.00  0.00     0.048 A 
ATOM      6  C5  UNL d   1      -2.799  -6.000   2.382  0.00  0.00     0.003 A 
ATOM      7  I   UNL d   1      -0.058  -5.402  -0.929  0.00  0.00    -0.146 I 
ENDROOT
TORSDOF 0
ENDMDL
