MODEL 1
REMARK minimizedAffinity 1.34422028
REMARK minimizedRMSD -1
REMARK  0 active torsions:
REMARK  status: ('A' for Active; 'I' for Inactive)
ROOT
ATOM      1  C   UNL d   1      -2.585  -2.133  -2.472  0.00  0.00     0.023 A 
ATOM      2  C1  UNL d   1      -1.902  -2.583  -1.341  0.00  0.00     0.003 A 
ATOM      3  C2  UNL d   1      -1.020  -1.732  -0.673  0.00  0.00     0.048 A 
ATOM      4  C3  UNL d   1      -0.826  -0.432  -1.140  0.00  0.00     0.023 A 
ATOM      5  C4  UNL d   1      -1.507   0.022  -2.270  0.00  0.00     0.048 A 
ATOM      6  C5  UNL d   1      -2.388  -0.832  -2.935  0.00  0.00     0.003 A 
ATOM      7  I   UNL d   1       0.487   0.836  -0.146  0.00  0.00    -0.146 I 
ENDROOT
TORSDOF 0
ENDMDL
