MODEL 1
REMARK minimizedAffinity -0.900612652
REMARK minimizedRMSD -1
REMARK  0 active torsions:
REMARK  status: ('A' for Active; 'I' for Inactive)
ROOT
ATOM      1  C   UNL d   1      -5.213  -5.996   0.771  0.00  0.00     0.023 A 
ATOM      2  C1  UNL d   1      -5.145  -5.992   2.164  0.00  0.00     0.003 A 
ATOM      3  C2  UNL d   1      -3.904  -5.993   2.804  0.00  0.00     0.048 A 
ATOM      4  C3  UNL d   1      -2.735  -5.997   2.044  0.00  0.00     0.023 A 
ATOM      5  C4  UNL d   1      -2.798  -6.000   0.650  0.00  0.00     0.048 A 
ATOM      6  C5  UNL d   1      -4.041  -6.000   0.014  0.00  0.00     0.003 A 
ATOM      7  I   UNL d   1      -0.886  -5.998   2.994  0.00  0.00    -0.146 I 
ENDROOT
TORSDOF 0
ENDMDL
