MODEL 1
REMARK minimizedAffinity 6.61827707
REMARK minimizedRMSD -1
REMARK  0 active torsions:
REMARK  status: ('A' for Active; 'I' for Inactive)
ROOT
ATOM      1  C   UNL d   1      -4.361  -2.117   1.317  0.00  0.00     0.023 A 
ATOM      2  C1  UNL d   1      -5.666  -2.162   1.808  0.00  0.00     0.003 A 
ATOM      3  C2  UNL d   1      -5.917  -1.879   3.152  0.00  0.00     0.048 A 
ATOM      4  C3  UNL d   1      -4.859  -1.549   3.999  0.00  0.00     0.023 A 
ATOM      5  C4  UNL d   1      -3.552  -1.501   3.511  0.00  0.00     0.048 A 
ATOM      6  C5  UNL d   1      -3.306  -1.787   2.167  0.00  0.00     0.003 A 
ATOM      7  I   UNL d   1      -5.231  -1.126   6.000  0.00  0.00    -0.146 I 
ENDROOT
TORSDOF 0
ENDMDL
