MODEL 1
REMARK minimizedAffinity 5.68898439
REMARK minimizedRMSD -1
REMARK  0 active torsions:
REMARK  status: ('A' for Active; 'I' for Inactive)
ROOT
ATOM      1  C   UNL d   1      -1.862  -2.636  -2.431  0.00  0.00     0.023 A 
ATOM      2  C1  UNL d   1      -0.622  -2.138  -2.830  0.00  0.00     0.003 A 
ATOM      3  C2  UNL d   1       0.020  -1.163  -2.063  0.00  0.00     0.048 A 
ATOM      4  C3  UNL d   1      -0.583  -0.693  -0.897  0.00  0.00     0.023 A 
ATOM      5  C4  UNL d   1      -1.824  -1.189  -0.494  0.00  0.00     0.048 A 
ATOM      6  C5  UNL d   1      -2.462  -2.162  -1.264  0.00  0.00     0.003 A 
ATOM      7  I   UNL d   1       0.370   0.757   0.246  0.00  0.00    -0.146 I 
ENDROOT
TORSDOF 0
ENDMDL
