MODEL 1
REMARK minimizedAffinity 4.00629997
REMARK minimizedRMSD -1
REMARK  0 active torsions:
REMARK  status: ('A' for Active; 'I' for Inactive)
ROOT
ATOM      1  C   UNL d   1      -2.170  -2.412  -0.189  0.00  0.00     0.023 A 
ATOM      2  C1  UNL d   1      -2.080  -2.112   1.170  0.00  0.00     0.003 A 
ATOM      3  C2  UNL d   1      -1.216  -1.107   1.608  0.00  0.00     0.048 A 
ATOM      4  C3  UNL d   1      -0.445  -0.406   0.682  0.00  0.00     0.023 A 
ATOM      5  C4  UNL d   1      -0.532  -0.702  -0.679  0.00  0.00     0.048 A 
ATOM      6  C5  UNL d   1      -1.397  -1.708  -1.113  0.00  0.00     0.003 A 
ATOM      7  I   UNL d   1       0.843   1.091   1.333  0.00  0.00    -0.146 I 
ENDROOT
TORSDOF 0
ENDMDL
