MODEL 1
REMARK minimizedAffinity 3.62080073
REMARK minimizedRMSD -1
REMARK  0 active torsions:
REMARK  status: ('A' for Active; 'I' for Inactive)
ROOT
ATOM      1  C   UNL d   1       0.427   1.096   1.179  0.00  0.00     0.023 A 
ATOM      2  C1  UNL d   1       0.228   1.003  -0.198  0.00  0.00     0.003 A 
ATOM      3  C2  UNL d   1      -0.503  -0.061  -0.729  0.00  0.00     0.048 A 
ATOM      4  C3  UNL d   1      -1.033  -1.029   0.123  0.00  0.00     0.023 A 
ATOM      5  C4  UNL d   1      -0.837  -0.940   1.503  0.00  0.00     0.048 A 
ATOM      6  C5  UNL d   1      -0.104   0.126   2.029  0.00  0.00     0.003 A 
ATOM      7  I   UNL d   1      -2.122  -2.614  -0.664  0.00  0.00    -0.146 I 
ENDROOT
TORSDOF 0
ENDMDL
