MODEL 1
REMARK minimizedAffinity 5.39080667
REMARK minimizedRMSD -1
REMARK  0 active torsions:
REMARK  status: ('A' for Active; 'I' for Inactive)
ROOT
ATOM      1  C   UNL d   1      -2.698  -2.059  -1.985  0.00  0.00     0.023 A 
ATOM      2  C1  UNL d   1      -2.349  -0.805  -2.487  0.00  0.00     0.003 A 
ATOM      3  C2  UNL d   1      -1.351  -0.055  -1.861  0.00  0.00     0.048 A 
ATOM      4  C3  UNL d   1      -0.705  -0.565  -0.736  0.00  0.00     0.023 A 
ATOM      5  C4  UNL d   1      -1.051  -1.820  -0.231  0.00  0.00     0.048 A 
ATOM      6  C5  UNL d   1      -2.050  -2.566  -0.859  0.00  0.00     0.003 A 
ATOM      7  I   UNL d   1       0.781   0.549   0.197  0.00  0.00    -0.146 I 
ENDROOT
TORSDOF 0
ENDMDL
