MODEL 1
REMARK minimizedAffinity 13.0346756
REMARK minimizedRMSD -1
REMARK  0 active torsions:
REMARK  status: ('A' for Active; 'I' for Inactive)
ROOT
ATOM      1  C   UNL d   1       2.327  -5.994   5.321  0.00  0.00     0.023 A 
ATOM      2  C1  UNL d   1       1.051  -5.989   5.884  0.00  0.00     0.003 A 
ATOM      3  C2  UNL d   1      -0.077  -5.988   5.061  0.00  0.00     0.048 A 
ATOM      4  C3  UNL d   1       0.078  -5.994   3.676  0.00  0.00     0.023 A 
ATOM      5  C4  UNL d   1       1.352  -5.999   3.107  0.00  0.00     0.048 A 
ATOM      6  C5  UNL d   1       2.478  -5.999   3.934  0.00  0.00     0.003 A 
ATOM      7  I   UNL d   1      -1.600  -5.993   2.449  0.00  0.00    -0.146 I 
ENDROOT
TORSDOF 0
ENDMDL
