MODEL 1
REMARK minimizedAffinity 3.35001349
REMARK minimizedRMSD -1
REMARK  0 active torsions:
REMARK  status: ('A' for Active; 'I' for Inactive)
ROOT
ATOM      1  C   UNL d   1      -2.960  -2.120  -2.289  0.00  0.00     0.023 A 
ATOM      2  C1  UNL d   1      -2.635  -0.863  -2.799  0.00  0.00     0.003 A 
ATOM      3  C2  UNL d   1      -1.686  -0.069  -2.151  0.00  0.00     0.048 A 
ATOM      4  C3  UNL d   1      -1.066  -0.538  -0.994  0.00  0.00     0.023 A 
ATOM      5  C4  UNL d   1      -1.388  -1.796  -0.480  0.00  0.00     0.048 A 
ATOM      6  C5  UNL d   1      -2.337  -2.586  -1.131  0.00  0.00     0.003 A 
ATOM      7  I   UNL d   1       0.346   0.641  -0.028  0.00  0.00    -0.146 I 
ENDROOT
TORSDOF 0
ENDMDL
