MODEL 1
REMARK minimizedAffinity 1.4980756
REMARK minimizedRMSD -1
REMARK  0 active torsions:
REMARK  status: ('A' for Active; 'I' for Inactive)
ROOT
ATOM      1  C   UNL d   1       5.081  -0.838   3.246  0.00  0.00     0.023 A 
ATOM      2  C1  UNL d   1       4.671  -2.060   2.711  0.00  0.00     0.003 A 
ATOM      3  C2  UNL d   1       4.919  -3.246   3.405  0.00  0.00     0.048 A 
ATOM      4  C3  UNL d   1       5.575  -3.203   4.635  0.00  0.00     0.023 A 
ATOM      5  C4  UNL d   1       5.986  -1.983   5.174  0.00  0.00     0.048 A 
ATOM      6  C5  UNL d   1       5.737  -0.800   4.476  0.00  0.00     0.003 A 
ATOM      7  I   UNL d   1       5.945  -4.966   5.670  0.00  0.00    -0.146 I 
ENDROOT
TORSDOF 0
ENDMDL
