MODEL 1
REMARK minimizedAffinity 6.75035763
REMARK minimizedRMSD -1
REMARK  0 active torsions:
REMARK  status: ('A' for Active; 'I' for Inactive)
ROOT
ATOM      1  C   UNL d   1      -0.527  -5.989   4.054  0.00  0.00     0.023 A 
ATOM      2  C1  UNL d   1       0.586  -5.987   3.213  0.00  0.00     0.003 A 
ATOM      3  C2  UNL d   1       1.873  -5.989   3.755  0.00  0.00     0.048 A 
ATOM      4  C3  UNL d   1       2.039  -5.995   5.140  0.00  0.00     0.023 A 
ATOM      5  C4  UNL d   1       0.929  -5.999   5.985  0.00  0.00     0.048 A 
ATOM      6  C5  UNL d   1      -0.356  -5.995   5.439  0.00  0.00     0.003 A 
ATOM      7  I   UNL d   1       3.954  -6.000   5.949  0.00  0.00    -0.146 I 
ENDROOT
TORSDOF 0
ENDMDL
