MODEL 1
REMARK minimizedAffinity 10.7497683
REMARK minimizedRMSD -1
REMARK  0 active torsions:
REMARK  status: ('A' for Active; 'I' for Inactive)
ROOT
ATOM      1  C   UNL d   1      -2.341  -3.244   0.840  0.00  0.00     0.023 A 
ATOM      2  C1  UNL d   1      -1.962  -2.636   2.037  0.00  0.00     0.003 A 
ATOM      3  C2  UNL d   1      -2.902  -1.932   2.792  0.00  0.00     0.048 A 
ATOM      4  C3  UNL d   1      -4.220  -1.842   2.346  0.00  0.00     0.023 A 
ATOM      5  C4  UNL d   1      -4.604  -2.450   1.150  0.00  0.00     0.048 A 
ATOM      6  C5  UNL d   1      -3.660  -3.151   0.397  0.00  0.00     0.003 A 
ATOM      7  I   UNL d   1      -5.621  -0.795   3.469  0.00  0.00    -0.146 I 
ENDROOT
TORSDOF 0
ENDMDL
