MODEL 1
REMARK minimizedAffinity -6.00726986
REMARK minimizedRMSD -1
REMARK  0 active torsions:
REMARK  status: ('A' for Active; 'I' for Inactive)
ROOT
ATOM      1  C1  DEN d   1      -2.138  -0.681   1.383  0.00  0.00     0.130 A 
ATOM      2  C2  DEN d   1      -1.726  -0.946   2.759  0.00  0.00    -0.031 A 
ATOM      3  C3  DEN d   1      -0.262  -0.773   2.838  0.00  0.00     0.027 A 
ATOM      4  C4  DEN d   1       1.398  -0.119   0.975  0.00  0.00     0.027 A 
ATOM      5  C5  DEN d   1       1.519   0.196  -0.361  0.00  0.00    -0.003 A 
ATOM      6  C6  DEN d   1       0.444   0.206  -1.209  0.00  0.00     0.001 A 
ATOM      7  C7  DEN d   1      -0.808  -0.059  -0.721  0.00  0.00     0.017 A 
ATOM      8  C8  DEN d   1      -0.938  -0.384   0.623  0.00  0.00    -0.094 A 
ATOM      9  C9  DEN d   1       0.160  -0.377   1.467  0.00  0.00    -0.072 A 
ENDROOT
TORSDOF 0
ENDMDL
