MODEL 1
REMARK minimizedAffinity -4.52895784
REMARK minimizedRMSD -1
REMARK  0 active torsions:
REMARK  status: ('A' for Active; 'I' for Inactive)
ROOT
ATOM      1  C1  DEN d   1       1.611  -2.142  -2.596  0.00  0.00     0.130 A 
ATOM      2  C2  DEN d   1       1.572  -1.579  -3.942  0.00  0.00    -0.031 A 
ATOM      3  C3  DEN d   1       0.807  -0.316  -3.887  0.00  0.00     0.027 A 
ATOM      4  C4  DEN d   1      -0.308   0.817  -1.856  0.00  0.00     0.027 A 
ATOM      5  C5  DEN d   1      -0.553   0.709  -0.505  0.00  0.00    -0.003 A 
ATOM      6  C6  DEN d   1      -0.127  -0.365   0.231  0.00  0.00     0.001 A 
ATOM      7  C7  DEN d   1       0.607  -1.352  -0.371  0.00  0.00     0.017 A 
ATOM      8  C8  DEN d   1       0.852  -1.254  -1.734  0.00  0.00    -0.094 A 
ATOM      9  C9  DEN d   1       0.423  -0.155  -2.458  0.00  0.00    -0.072 A 
ENDROOT
TORSDOF 0
ENDMDL
