MODEL 1
REMARK minimizedAffinity -1.32513726
REMARK minimizedRMSD -1
REMARK  0 active torsions:
REMARK  status: ('A' for Active; 'I' for Inactive)
ROOT
ATOM      1  C1  DEN d   1       1.338  -0.114   1.670  0.00  0.00     0.130 A 
ATOM      2  C2  DEN d   1       0.413   0.291   2.725  0.00  0.00    -0.031 A 
ATOM      3  C3  DEN d   1      -0.873   0.646   2.092  0.00  0.00     0.027 A 
ATOM      4  C4  DEN d   1      -1.519   0.603  -0.405  0.00  0.00     0.027 A 
ATOM      5  C5  DEN d   1      -1.064   0.340  -1.678  0.00  0.00    -0.003 A 
ATOM      6  C6  DEN d   1       0.224  -0.057  -1.925  0.00  0.00     0.001 A 
ATOM      7  C7  DEN d   1       1.088  -0.246  -0.880  0.00  0.00     0.017 A 
ATOM      8  C8  DEN d   1       0.639   0.024   0.406  0.00  0.00    -0.094 A 
ATOM      9  C9  DEN d   1      -0.670   0.412   0.637  0.00  0.00    -0.072 A 
ENDROOT
TORSDOF 0
ENDMDL
