MODEL 1
REMARK minimizedAffinity -3.24648428
REMARK minimizedRMSD -1
REMARK  0 active torsions:
REMARK  status: ('A' for Active; 'I' for Inactive)
ROOT
ATOM      1  C1  DEN d   1      -0.844  -0.372  -0.592  0.00  0.00     0.130 A 
ATOM      2  C2  DEN d   1      -0.140   0.707   0.095  0.00  0.00    -0.031 A 
ATOM      3  C3  DEN d   1       1.061   1.044  -0.695  0.00  0.00     0.027 A 
ATOM      4  C4  DEN d   1       1.892   0.009  -2.907  0.00  0.00     0.027 A 
ATOM      5  C5  DEN d   1       1.634  -0.945  -3.866  0.00  0.00    -0.003 A 
ATOM      6  C6  DEN d   1       0.559  -1.790  -3.785  0.00  0.00     0.001 A 
ATOM      7  C7  DEN d   1      -0.323  -1.668  -2.744  0.00  0.00     0.017 A 
ATOM      8  C8  DEN d   1      -0.065  -0.714  -1.769  0.00  0.00    -0.094 A 
ATOM      9  C9  DEN d   1       1.020   0.139  -1.875  0.00  0.00    -0.072 A 
ENDROOT
TORSDOF 0
ENDMDL
