MODEL 1
REMARK minimizedAffinity -2.80868506
REMARK minimizedRMSD -1
REMARK  0 active torsions:
REMARK  status: ('A' for Active; 'I' for Inactive)
ROOT
ATOM      1  C1  DEN d   1      -1.013   1.086  -1.009  0.00  0.00     0.130 A 
ATOM      2  C2  DEN d   1      -0.063   0.773  -2.072  0.00  0.00    -0.031 A 
ATOM      3  C3  DEN d   1       1.126   0.153  -1.453  0.00  0.00     0.027 A 
ATOM      4  C4  DEN d   1       1.582  -0.355   1.034  0.00  0.00     0.027 A 
ATOM      5  C5  DEN d   1       1.074  -0.258   2.311  0.00  0.00    -0.003 A 
ATOM      6  C6  DEN d   1      -0.140   0.319   2.572  0.00  0.00     0.001 A 
ATOM      7  C7  DEN d   1      -0.909   0.781   1.536  0.00  0.00     0.017 A 
ATOM      8  C8  DEN d   1      -0.400   0.695   0.247  0.00  0.00    -0.094 A 
ATOM      9  C9  DEN d   1       0.825   0.097   0.002  0.00  0.00    -0.072 A 
ENDROOT
TORSDOF 0
ENDMDL
