MODEL 1
REMARK minimizedAffinity -6.98650408
REMARK minimizedRMSD -1
REMARK  0 active torsions:
REMARK  status: ('A' for Active; 'I' for Inactive)
ROOT
ATOM      1  C1  DEN d   1      -2.267  -0.439   1.961  0.00  0.00     0.130 A 
ATOM      2  C2  DEN d   1      -1.311  -0.431   3.065  0.00  0.00    -0.031 A 
ATOM      3  C3  DEN d   1       0.027  -0.145   2.510  0.00  0.00     0.027 A 
ATOM      4  C4  DEN d   1       0.707   0.291   0.060  0.00  0.00     0.027 A 
ATOM      5  C5  DEN d   1       0.246   0.376  -1.235  0.00  0.00    -0.003 A 
ATOM      6  C6  DEN d   1      -1.069   0.164  -1.557  0.00  0.00     0.001 A 
ATOM      7  C7  DEN d   1      -1.977  -0.100  -0.566  0.00  0.00     0.017 A 
ATOM      8  C8  DEN d   1      -1.518  -0.195   0.741  0.00  0.00    -0.094 A 
ATOM      9  C9  DEN d   1      -0.187   0.035   1.048  0.00  0.00    -0.072 A 
ENDROOT
TORSDOF 0
ENDMDL
