MODEL 1
REMARK minimizedAffinity -2.44069242
REMARK minimizedRMSD -1
REMARK  0 active torsions:
REMARK  status: ('A' for Active; 'I' for Inactive)
ROOT
ATOM      1  C1  DEN d   1       0.430   0.371  -0.796  0.00  0.00     0.130 A 
ATOM      2  C2  DEN d   1       1.703   0.443  -0.085  0.00  0.00    -0.031 A 
ATOM      3  C3  DEN d   1       1.414   0.534   1.360  0.00  0.00     0.027 A 
ATOM      4  C4  DEN d   1      -0.870   0.566   2.559  0.00  0.00     0.027 A 
ATOM      5  C5  DEN d   1      -2.234   0.539   2.376  0.00  0.00    -0.003 A 
ATOM      6  C6  DEN d   1      -2.803   0.488   1.130  0.00  0.00     0.001 A 
ATOM      7  C7  DEN d   1      -2.002   0.418   0.021  0.00  0.00     0.017 A 
ATOM      8  C8  DEN d   1      -0.625   0.453   0.198  0.00  0.00    -0.094 A 
ATOM      9  C9  DEN d   1      -0.070   0.491   1.466  0.00  0.00    -0.072 A 
ENDROOT
TORSDOF 0
ENDMDL
