MODEL 1
REMARK minimizedAffinity -0.36326772
REMARK minimizedRMSD -1
REMARK  0 active torsions:
REMARK  status: ('A' for Active; 'I' for Inactive)
ROOT
ATOM      1  C1  DEN d   1       1.768   0.279   1.314  0.00  0.00     0.130 A 
ATOM      2  C2  DEN d   1       1.119   0.318   2.622  0.00  0.00    -0.031 A 
ATOM      3  C3  DEN d   1      -0.342   0.322   2.406  0.00  0.00     0.027 A 
ATOM      4  C4  DEN d   1      -1.655   0.270   0.187  0.00  0.00     0.027 A 
ATOM      5  C5  DEN d   1      -1.540   0.245  -1.185  0.00  0.00    -0.003 A 
ATOM      6  C6  DEN d   1      -0.324   0.264  -1.816  0.00  0.00     0.001 A 
ATOM      7  C7  DEN d   1       0.827   0.263  -1.073  0.00  0.00     0.017 A 
ATOM      8  C8  DEN d   1       0.718   0.296   0.311  0.00  0.00    -0.094 A 
ATOM      9  C9  DEN d   1      -0.520   0.264   0.930  0.00  0.00    -0.072 A 
ENDROOT
TORSDOF 0
ENDMDL
