MODEL 1
REMARK minimizedAffinity -3.68387103
REMARK minimizedRMSD -1
REMARK  0 active torsions:
REMARK  status: ('A' for Active; 'I' for Inactive)
ROOT
ATOM      1  C1  DEN d   1      -0.311  -2.318  -3.128  0.00  0.00     0.130 A 
ATOM      2  C2  DEN d   1       0.962  -2.228  -3.839  0.00  0.00    -0.031 A 
ATOM      3  C3  DEN d   1       1.710  -1.079  -3.290  0.00  0.00     0.027 A 
ATOM      4  C4  DEN d   1       1.028   0.556  -1.416  0.00  0.00     0.027 A 
ATOM      5  C5  DEN d   1       0.034   0.888  -0.522  0.00  0.00    -0.003 A 
ATOM      6  C6  DEN d   1      -1.150   0.201  -0.458  0.00  0.00     0.001 A 
ATOM      7  C7  DEN d   1      -1.350  -0.882  -1.273  0.00  0.00     0.017 A 
ATOM      8  C8  DEN d   1      -0.355  -1.218  -2.182  0.00  0.00    -0.094 A 
ATOM      9  C9  DEN d   1       0.839  -0.518  -2.222  0.00  0.00    -0.072 A 
ENDROOT
TORSDOF 0
ENDMDL
