MODEL 1
REMARK minimizedAffinity 0.435070336
REMARK minimizedRMSD -1
REMARK  0 active torsions:
REMARK  status: ('A' for Active; 'I' for Inactive)
ROOT
ATOM      1  C1  DEN d   1       1.990  -0.156   1.318  0.00  0.00     0.130 A 
ATOM      2  C2  DEN d   1       1.151   0.018   2.500  0.00  0.00    -0.031 A 
ATOM      3  C3  DEN d   1      -0.231   0.271   2.046  0.00  0.00     0.027 A 
ATOM      4  C4  DEN d   1      -1.149   0.403  -0.361  0.00  0.00     0.027 A 
ATOM      5  C5  DEN d   1      -0.815   0.333  -1.695  0.00  0.00    -0.003 A 
ATOM      6  C6  DEN d   1       0.473   0.130  -2.116  0.00  0.00     0.001 A 
ATOM      7  C7  DEN d   1       1.467  -0.055  -1.192  0.00  0.00     0.017 A 
ATOM      8  C8  DEN d   1       1.139   0.022   0.155  0.00  0.00    -0.094 A 
ATOM      9  C9  DEN d   1      -0.170   0.216   0.560  0.00  0.00    -0.072 A 
ENDROOT
TORSDOF 0
ENDMDL
