MODEL 1
REMARK minimizedAffinity -5.48475266
REMARK minimizedRMSD -1
REMARK  0 active torsions:
REMARK  status: ('A' for Active; 'I' for Inactive)
ROOT
ATOM      1  C1  DEN d   1      -0.695   0.394  -0.977  0.00  0.00     0.130 A 
ATOM      2  C2  DEN d   1       0.759   0.478  -1.077  0.00  0.00    -0.031 A 
ATOM      3  C3  DEN d   1       1.323   0.244   0.267  0.00  0.00     0.027 A 
ATOM      4  C4  DEN d   1       0.093  -0.242   2.481  0.00  0.00     0.027 A 
ATOM      5  C5  DEN d   1      -1.144  -0.399   3.067  0.00  0.00    -0.003 A 
ATOM      6  C6  DEN d   1      -2.309  -0.270   2.359  0.00  0.00     0.001 A 
ATOM      7  C7  DEN d   1      -2.261  -0.020   1.013  0.00  0.00     0.017 A 
ATOM      8  C8  DEN d   1      -1.018   0.147   0.416  0.00  0.00    -0.094 A 
ATOM      9  C9  DEN d   1       0.149   0.000   1.147  0.00  0.00    -0.072 A 
ENDROOT
TORSDOF 0
ENDMDL
