MODEL 1
REMARK minimizedAffinity -5.19389772
REMARK minimizedRMSD -1
REMARK  0 active torsions:
REMARK  status: ('A' for Active; 'I' for Inactive)
ROOT
ATOM      1  C1  DEN d   1      -1.902   0.781   2.329  0.00  0.00     0.130 A 
ATOM      2  C2  DEN d   1      -2.956   0.969   1.336  0.00  0.00    -0.031 A 
ATOM      3  C3  DEN d   1      -2.341   0.877  -0.004  0.00  0.00     0.027 A 
ATOM      4  C4  DEN d   1       0.125   0.459  -0.633  0.00  0.00     0.027 A 
ATOM      5  C5  DEN d   1       1.391   0.251  -0.133  0.00  0.00    -0.003 A 
ATOM      6  C6  DEN d   1       1.652   0.238   1.211  0.00  0.00     0.001 A 
ATOM      7  C7  DEN d   1       0.624   0.393   2.104  0.00  0.00     0.017 A 
ATOM      8  C8  DEN d   1      -0.654   0.611   1.607  0.00  0.00    -0.094 A 
ATOM      9  C9  DEN d   1      -0.899   0.608   0.244  0.00  0.00    -0.072 A 
ENDROOT
TORSDOF 0
ENDMDL
