MODEL 1
REMARK minimizedAffinity -4.06510544
REMARK minimizedRMSD -1
REMARK  0 active torsions:
REMARK  status: ('A' for Active; 'I' for Inactive)
ROOT
ATOM      1  C1  DEN d   1      -0.026   0.570  -1.067  0.00  0.00     0.130 A 
ATOM      2  C2  DEN d   1       1.368   0.296  -0.730  0.00  0.00    -0.031 A 
ATOM      3  C3  DEN d   1       1.462   0.152   0.737  0.00  0.00     0.027 A 
ATOM      4  C4  DEN d   1      -0.406   0.320   2.508  0.00  0.00     0.027 A 
ATOM      5  C5  DEN d   1      -1.749   0.550   2.703  0.00  0.00    -0.003 A 
ATOM      6  C6  DEN d   1      -2.600   0.834   1.668  0.00  0.00     0.001 A 
ATOM      7  C7  DEN d   1      -2.124   0.851   0.383  0.00  0.00     0.017 A 
ATOM      8  C8  DEN d   1      -0.768   0.627   0.179  0.00  0.00    -0.094 A 
ATOM      9  C9  DEN d   1       0.073   0.330   1.238  0.00  0.00    -0.072 A 
ENDROOT
TORSDOF 0
ENDMDL
