MODEL 1
REMARK minimizedAffinity -0.524797916
REMARK minimizedRMSD -1
REMARK  0 active torsions:
REMARK  status: ('A' for Active; 'I' for Inactive)
ROOT
ATOM      1  C1  DEN d   1       1.306   0.698  -0.694  0.00  0.00     0.130 A 
ATOM      2  C2  DEN d   1       0.026   0.622   0.005  0.00  0.00    -0.031 A 
ATOM      3  C3  DEN d   1      -0.836  -0.331  -0.723  0.00  0.00     0.027 A 
ATOM      4  C4  DEN d   1      -0.313  -1.695  -2.848  0.00  0.00     0.027 A 
ATOM      5  C5  DEN d   1       0.640  -1.956  -3.808  0.00  0.00    -0.003 A 
ATOM      6  C6  DEN d   1       1.858  -1.331  -3.817  0.00  0.00     0.001 A 
ATOM      7  C7  DEN d   1       2.174  -0.446  -2.820  0.00  0.00     0.017 A 
ATOM      8  C8  DEN d   1       1.216  -0.172  -1.853  0.00  0.00    -0.094 A 
ATOM      9  C9  DEN d   1      -0.005  -0.824  -1.855  0.00  0.00    -0.072 A 
ENDROOT
TORSDOF 0
ENDMDL
