MODEL 1
REMARK minimizedAffinity -5.82547283
REMARK minimizedRMSD -1
REMARK  0 active torsions:
REMARK  status: ('A' for Active; 'I' for Inactive)
ROOT
ATOM      1  C1  DEN d   1      -2.613   0.633   3.164  0.00  0.00     0.130 A 
ATOM      2  C2  DEN d   1      -3.783   0.824   2.311  0.00  0.00    -0.031 A 
ATOM      3  C3  DEN d   1      -3.336   0.780   0.905  0.00  0.00     0.027 A 
ATOM      4  C4  DEN d   1      -0.958   0.430  -0.032  0.00  0.00     0.027 A 
ATOM      5  C5  DEN d   1       0.363   0.236   0.305  0.00  0.00    -0.003 A 
ATOM      6  C6  DEN d   1       0.787   0.194   1.607  0.00  0.00     0.001 A 
ATOM      7  C7  DEN d   1      -0.127   0.304   2.621  0.00  0.00     0.017 A 
ATOM      8  C8  DEN d   1      -1.460   0.508   2.290  0.00  0.00    -0.094 A 
ATOM      9  C9  DEN d   1      -1.870   0.535   0.968  0.00  0.00    -0.072 A 
ENDROOT
TORSDOF 0
ENDMDL
