MODEL 1
REMARK minimizedAffinity 12.2747679
REMARK minimizedRMSD -1
REMARK  0 active torsions:
REMARK  status: ('A' for Active; 'I' for Inactive)
ROOT
ATOM      1  C4' PXY d   1      -5.999  -4.141   5.824  0.00  0.00     0.077 C 
ATOM      2  C1' PXY d   1      -4.018   0.464   2.945  0.00  0.00     0.077 C 
ATOM      3  C1  PXY d   1      -4.549  -0.743   3.693  0.00  0.00    -0.082 A 
ATOM      4  C2  PXY d   1      -4.076  -1.028   4.895  0.00  0.00     0.003 A 
ATOM      5  C3  PXY d   1      -4.521  -2.134   5.572  0.00  0.00     0.003 A 
ATOM      6  C4  PXY d   1      -5.500  -2.927   5.036  0.00  0.00    -0.082 A 
ATOM      7  C5  PXY d   1      -5.996  -2.637   3.814  0.00  0.00     0.003 A 
ATOM      8  C6  PXY d   1      -5.500  -1.533   3.126  0.00  0.00     0.003 A 
ENDROOT
TORSDOF 0
ENDMDL
