MODEL 1
REMARK minimizedAffinity 7.67024183
REMARK minimizedRMSD -1
REMARK  0 active torsions:
REMARK  status: ('A' for Active; 'I' for Inactive)
ROOT
ATOM      1  C4' PXY d   1      -5.667  -0.505   0.843  0.00  0.00     0.077 C 
ATOM      2  C1' PXY d   1      -5.784  -3.566   5.746  0.00  0.00     0.077 C 
ATOM      3  C1  PXY d   1      -5.751  -2.774   4.454  0.00  0.00    -0.082 A 
ATOM      4  C2  PXY d   1      -5.491  -1.477   4.487  0.00  0.00     0.003 A 
ATOM      5  C3  PXY d   1      -5.489  -0.740   3.331  0.00  0.00     0.003 A 
ATOM      6  C4  PXY d   1      -5.702  -1.346   2.123  0.00  0.00    -0.082 A 
ATOM      7  C5  PXY d   1      -5.957  -2.671   2.078  0.00  0.00     0.003 A 
ATOM      8  C6  PXY d   1      -5.996  -3.394   3.267  0.00  0.00     0.003 A 
ENDROOT
TORSDOF 0
ENDMDL
