MODEL 1
REMARK minimizedAffinity 3.19138622
REMARK minimizedRMSD -1
REMARK  0 active torsions:
REMARK  status: ('A' for Active; 'I' for Inactive)
ROOT
ATOM      1  C4' PXY d   1       0.516  -3.878  -0.268  0.00  0.00     0.077 C 
ATOM      2  C1' PXY d   1      -1.601   1.367  -1.460  0.00  0.00     0.077 C 
ATOM      3  C1  PXY d   1      -1.058  -0.014  -1.148  0.00  0.00    -0.082 A 
ATOM      4  C2  PXY d   1       0.099  -0.134  -0.518  0.00  0.00     0.003 A 
ATOM      5  C3  PXY d   1       0.621  -1.375  -0.256  0.00  0.00     0.003 A 
ATOM      6  C4  PXY d   1      -0.075  -2.504  -0.596  0.00  0.00    -0.082 A 
ATOM      7  C5  PXY d   1      -1.262  -2.390  -1.229  0.00  0.00     0.003 A 
ATOM      8  C6  PXY d   1      -1.754  -1.121  -1.522  0.00  0.00     0.003 A 
ENDROOT
TORSDOF 0
ENDMDL
