MODEL 1
REMARK minimizedAffinity -2.31710196
REMARK minimizedRMSD -1
REMARK  0 active torsions:
REMARK  status: ('A' for Active; 'I' for Inactive)
ROOT
ATOM      1  C4' PXY d   1       2.443   3.126   3.523  0.00  0.00     0.077 C 
ATOM      2  C1' PXY d   1       1.239   5.856  -1.429  0.00  0.00     0.077 C 
ATOM      3  C1  PXY d   1       1.542   5.138  -0.128  0.00  0.00    -0.082 A 
ATOM      4  C2  PXY d   1       2.667   5.400   0.517  0.00  0.00     0.003 A 
ATOM      5  C3  PXY d   1       2.972   4.736   1.677  0.00  0.00     0.003 A 
ATOM      6  C4  PXY d   1       2.091   3.834   2.211  0.00  0.00    -0.082 A 
ATOM      7  C5  PXY d   1       0.936   3.569   1.565  0.00  0.00     0.003 A 
ATOM      8  C6  PXY d   1       0.665   4.223   0.366  0.00  0.00     0.003 A 
ENDROOT
TORSDOF 0
ENDMDL
