MODEL 1
REMARK minimizedAffinity 2.60791135
REMARK minimizedRMSD -1
REMARK  0 active torsions:
REMARK  status: ('A' for Active; 'I' for Inactive)
ROOT
ATOM      1  C   UNL d   1       4.972  -2.605   0.843  0.00  0.00     0.078 C 
ATOM      2  C1  UNL d   1       3.475  -2.641   0.777  0.00  0.00    -0.077 A 
ATOM      3  C2  UNL d   1       2.793  -3.839   0.529  0.00  0.00    -0.001 A 
ATOM      4  C3  UNL d   1       1.399  -3.857   0.461  0.00  0.00     0.003 A 
ATOM      5  C4  UNL d   1       0.675  -2.679   0.639  0.00  0.00    -0.005 A 
ATOM      6  C5  UNL d   1       1.344  -1.482   0.884  0.00  0.00     0.003 A 
ATOM      7  C6  UNL d   1       2.738  -1.463   0.952  0.00  0.00    -0.001 A 
ENDROOT
TORSDOF 0
ENDMDL
