MODEL 1
REMARK minimizedAffinity 8.21455765
REMARK minimizedRMSD -1
REMARK  0 active torsions:
REMARK  status: ('A' for Active; 'I' for Inactive)
ROOT
ATOM      1  C   UNL d   1      -3.118   0.845  -2.261  0.00  0.00     0.078 C 
ATOM      2  C1  UNL d   1      -4.121  -0.051  -2.923  0.00  0.00    -0.077 A 
ATOM      3  C2  UNL d   1      -5.058   0.460  -3.829  0.00  0.00    -0.001 A 
ATOM      4  C3  UNL d   1      -5.992  -0.385  -4.430  0.00  0.00     0.003 A 
ATOM      5  C4  UNL d   1      -6.000  -1.746  -4.131  0.00  0.00    -0.005 A 
ATOM      6  C5  UNL d   1      -5.073  -2.263  -3.228  0.00  0.00     0.003 A 
ATOM      7  C6  UNL d   1      -4.138  -1.420  -2.626  0.00  0.00    -0.001 A 
ENDROOT
TORSDOF 0
ENDMDL
