MODEL 1
REMARK minimizedAffinity 9.73377323
REMARK minimizedRMSD -1
REMARK  0 active torsions:
REMARK  status: ('A' for Active; 'I' for Inactive)
ROOT
ATOM      1  C   UNL d   1       2.259  -4.437   0.105  0.00  0.00     0.078 C 
ATOM      2  C1  UNL d   1       1.858  -3.215   0.876  0.00  0.00    -0.077 A 
ATOM      3  C2  UNL d   1       2.821  -2.344   1.400  0.00  0.00    -0.001 A 
ATOM      4  C3  UNL d   1       2.434  -1.216   2.124  0.00  0.00     0.003 A 
ATOM      5  C4  UNL d   1       1.082  -0.948   2.332  0.00  0.00    -0.005 A 
ATOM      6  C5  UNL d   1       0.116  -1.811   1.817  0.00  0.00     0.003 A 
ATOM      7  C6  UNL d   1       0.502  -2.940   1.093  0.00  0.00    -0.001 A 
ENDROOT
TORSDOF 0
ENDMDL
