MODEL 1
REMARK minimizedAffinity 9.33414268
REMARK minimizedRMSD -1
REMARK  0 active torsions:
REMARK  status: ('A' for Active; 'I' for Inactive)
ROOT
ATOM      1  C   UNL d   1      -3.910   5.148  -4.103  0.00  0.00     0.078 C 
ATOM      2  C1  UNL d   1      -3.811   3.690  -3.766  0.00  0.00    -0.077 A 
ATOM      3  C2  UNL d   1      -4.611   2.743  -4.418  0.00  0.00    -0.001 A 
ATOM      4  C3  UNL d   1      -4.515   1.391  -4.087  0.00  0.00     0.003 A 
ATOM      5  C4  UNL d   1      -3.622   0.973  -3.103  0.00  0.00    -0.005 A 
ATOM      6  C5  UNL d   1      -2.823   1.908  -2.448  0.00  0.00     0.003 A 
ATOM      7  C6  UNL d   1      -2.918   3.261  -2.777  0.00  0.00    -0.001 A 
ENDROOT
TORSDOF 0
ENDMDL
