MODEL 1
REMARK minimizedAffinity -0.850601971
REMARK minimizedRMSD -1
REMARK  0 active torsions:
REMARK  status: ('A' for Active; 'I' for Inactive)
ROOT
ATOM      1  C   UNL d   1      -1.874   2.154  -4.841  0.00  0.00     0.078 C 
ATOM      2  C1  UNL d   1      -2.952   3.113  -5.250  0.00  0.00    -0.077 A 
ATOM      3  C2  UNL d   1      -2.725   4.495  -5.250  0.00  0.00    -0.001 A 
ATOM      4  C3  UNL d   1      -3.741   5.377  -5.623  0.00  0.00     0.003 A 
ATOM      5  C4  UNL d   1      -4.990   4.887  -5.999  0.00  0.00    -0.005 A 
ATOM      6  C5  UNL d   1      -5.225   3.513  -6.000  0.00  0.00     0.003 A 
ATOM      7  C6  UNL d   1      -4.211   2.630  -5.626  0.00  0.00    -0.001 A 
ENDROOT
TORSDOF 0
ENDMDL
