MODEL 1
REMARK minimizedAffinity 5.266716
REMARK minimizedRMSD -1
REMARK  0 active torsions:
REMARK  status: ('A' for Active; 'I' for Inactive)
ROOT
ATOM      1  C   UNL d   1      -1.458  -1.871   2.676  0.00  0.00     0.078 C 
ATOM      2  C1  UNL d   1      -0.046  -1.573   2.270  0.00  0.00    -0.077 A 
ATOM      3  C2  UNL d   1       0.452  -1.993   1.030  0.00  0.00    -0.001 A 
ATOM      4  C3  UNL d   1       1.771  -1.716   0.669  0.00  0.00     0.003 A 
ATOM      5  C4  UNL d   1       2.605  -1.020   1.542  0.00  0.00    -0.005 A 
ATOM      6  C5  UNL d   1       2.119  -0.600   2.778  0.00  0.00     0.003 A 
ATOM      7  C6  UNL d   1       0.800  -0.875   3.141  0.00  0.00    -0.001 A 
ENDROOT
TORSDOF 0
ENDMDL
