MODEL 1
REMARK minimizedAffinity 10.9214478
REMARK minimizedRMSD -1
REMARK  0 active torsions:
REMARK  status: ('A' for Active; 'I' for Inactive)
ROOT
ATOM      1  C   UNL d   1       3.723  -4.742   0.188  0.00  0.00     0.078 C 
ATOM      2  C1  UNL d   1       3.007  -3.522   0.687  0.00  0.00    -0.077 A 
ATOM      3  C2  UNL d   1       3.689  -2.527   1.399  0.00  0.00    -0.001 A 
ATOM      4  C3  UNL d   1       3.008  -1.402   1.866  0.00  0.00     0.003 A 
ATOM      5  C4  UNL d   1       1.642  -1.261   1.628  0.00  0.00    -0.005 A 
ATOM      6  C5  UNL d   1       0.955  -2.247   0.922  0.00  0.00     0.003 A 
ATOM      7  C6  UNL d   1       1.634  -3.373   0.454  0.00  0.00    -0.001 A 
ENDROOT
TORSDOF 0
ENDMDL
