MODEL 1
REMARK minimizedAffinity 5.3223443
REMARK minimizedRMSD -1
REMARK  0 active torsions:
REMARK  status: ('A' for Active; 'I' for Inactive)
ROOT
ATOM      1  C   UNL d   1       1.869  -5.850   5.865  0.00  0.00     0.078 C 
ATOM      2  C1  UNL d   1       3.219  -5.198   5.914  0.00  0.00    -0.077 A 
ATOM      3  C2  UNL d   1       3.347  -3.804   5.899  0.00  0.00    -0.001 A 
ATOM      4  C3  UNL d   1       4.610  -3.210   5.935  0.00  0.00     0.003 A 
ATOM      5  C4  UNL d   1       5.754  -4.003   5.986  0.00  0.00    -0.005 A 
ATOM      6  C5  UNL d   1       5.637  -5.392   6.000  0.00  0.00     0.003 A 
ATOM      7  C6  UNL d   1       4.375  -5.987   5.963  0.00  0.00    -0.001 A 
ENDROOT
TORSDOF 0
ENDMDL
