MODEL 1
REMARK minimizedAffinity 7.64036846
REMARK minimizedRMSD -1
REMARK  2 active torsions:
REMARK  status: ('A' for Active; 'I' for Inactive)
REMARK    1  A    between atoms: C1_2  and  C2_3 
REMARK    2  A    between atoms: C2_3  and  C3_4 
ROOT
ATOM      1  C3  UNL d   1       1.519  -1.431   1.600  0.00  0.00    -0.075 A 
ATOM      2  C4  UNL d   1       0.174  -1.532   1.984  0.00  0.00     0.002 A 
ATOM      3  C5  UNL d   1      -0.320  -0.768   3.041  0.00  0.00     0.002 A 
ATOM      4  C6  UNL d   1       0.525   0.097   3.734  0.00  0.00    -0.004 A 
ATOM      5  C7  UNL d   1       1.867   0.193   3.372  0.00  0.00     0.002 A 
ATOM      6  C8  UNL d   1       2.363  -0.567   2.311  0.00  0.00     0.002 A 
ENDROOT
BRANCH   1   7
ATOM      7  C2  UNL d   1       2.053  -2.233   0.437  0.00  0.00     0.056 C 
BRANCH   7   8
ATOM      8  C1  UNL d   1       2.189  -1.433  -0.863  0.00  0.00     0.007 C 
ATOM      9  C   UNL d   1       0.848  -1.046  -1.472  0.00  0.00     0.009 C 
ENDBRANCH   7   8
ENDBRANCH   1   7
TORSDOF 2
ENDMDL
