MODEL 1
REMARK minimizedAffinity -1.53998137
REMARK minimizedRMSD -1
REMARK  2 active torsions:
REMARK  status: ('A' for Active; 'I' for Inactive)
REMARK    1  A    between atoms: C1_2  and  C2_3 
REMARK    2  A    between atoms: C2_3  and  C3_4 
ROOT
ATOM      1  C3  UNL d   1      -0.069  -0.769   1.149  0.00  0.00    -0.075 A 
ATOM      2  C4  UNL d   1       0.056  -1.488   2.347  0.00  0.00     0.002 A 
ATOM      3  C5  UNL d   1       1.217  -1.390   3.114  0.00  0.00     0.002 A 
ATOM      4  C6  UNL d   1       2.270  -0.583   2.690  0.00  0.00    -0.004 A 
ATOM      5  C7  UNL d   1       2.163   0.123   1.493  0.00  0.00     0.002 A 
ATOM      6  C8  UNL d   1       1.001   0.031   0.726  0.00  0.00     0.002 A 
ENDROOT
BRANCH   1   7
ATOM      7  C2  UNL d   1      -1.335  -0.848   0.330  0.00  0.00     0.056 C 
BRANCH   7   8
ATOM      8  C1  UNL d   1      -2.620  -0.686   1.149  0.00  0.00     0.007 C 
ATOM      9  C   UNL d   1      -3.740  -1.614   0.698  0.00  0.00     0.009 C 
ENDBRANCH   7   8
ENDBRANCH   1   7
TORSDOF 2
ENDMDL
