MODEL 1
REMARK minimizedAffinity 0.343248546
REMARK minimizedRMSD -1
REMARK  2 active torsions:
REMARK  status: ('A' for Active; 'I' for Inactive)
REMARK    1  A    between atoms: C1_2  and  C2_3 
REMARK    2  A    between atoms: C2_3  and  C3_4 
ROOT
ATOM      1  C3  UNL d   1       0.190  -0.746   1.299  0.00  0.00    -0.075 A 
ATOM      2  C4  UNL d   1      -1.016  -0.145   0.908  0.00  0.00     0.002 A 
ATOM      3  C5  UNL d   1      -1.204   0.275  -0.409  0.00  0.00     0.002 A 
ATOM      4  C6  UNL d   1      -0.188   0.110  -1.348  0.00  0.00    -0.004 A 
ATOM      5  C7  UNL d   1       1.020  -0.470  -0.967  0.00  0.00     0.002 A 
ATOM      6  C8  UNL d   1       1.209  -0.896   0.349  0.00  0.00     0.002 A 
ENDROOT
BRANCH   1   7
ATOM      7  C2  UNL d   1       0.389  -1.230   2.715  0.00  0.00     0.056 C 
BRANCH   7   8
ATOM      8  C1  UNL d   1       0.125  -2.727   2.906  0.00  0.00     0.007 C 
ATOM      9  C   UNL d   1      -1.337  -3.049   3.183  0.00  0.00     0.009 C 
ENDBRANCH   7   8
ENDBRANCH   1   7
TORSDOF 2
ENDMDL
