MODEL 1
REMARK minimizedAffinity 3.41399503
REMARK minimizedRMSD -1
REMARK  2 active torsions:
REMARK  status: ('A' for Active; 'I' for Inactive)
REMARK    1  A    between atoms: C1_2  and  C2_3 
REMARK    2  A    between atoms: C2_3  and  C3_4 
ROOT
ATOM      1  C3  UNL d   1      -0.499  -1.439   2.113  0.00  0.00    -0.075 A 
ATOM      2  C4  UNL d   1      -0.467  -0.267   2.883  0.00  0.00     0.002 A 
ATOM      3  C5  UNL d   1      -1.506   0.660   2.806  0.00  0.00     0.002 A 
ATOM      4  C6  UNL d   1      -2.585   0.433   1.954  0.00  0.00    -0.004 A 
ATOM      5  C7  UNL d   1      -2.620  -0.720   1.172  0.00  0.00     0.002 A 
ATOM      6  C8  UNL d   1      -1.583  -1.652   1.250  0.00  0.00     0.002 A 
ENDROOT
BRANCH   1   7
ATOM      7  C2  UNL d   1       0.609  -2.461   2.214  0.00  0.00     0.056 C 
BRANCH   7   8
ATOM      8  C1  UNL d   1       1.573  -2.453   1.023  0.00  0.00     0.007 C 
ATOM      9  C   UNL d   1       2.081  -3.841   0.654  0.00  0.00     0.009 C 
ENDBRANCH   7   8
ENDBRANCH   1   7
TORSDOF 2
ENDMDL
