MODEL 1
REMARK minimizedAffinity 0.0967376307
REMARK minimizedRMSD -1
REMARK  2 active torsions:
REMARK  status: ('A' for Active; 'I' for Inactive)
REMARK    1  A    between atoms: C1_2  and  C2_3 
REMARK    2  A    between atoms: C2_3  and  C3_4 
ROOT
ATOM      1  C3  UNL d   1      -0.565  -0.863   0.659  0.00  0.00    -0.075 A 
ATOM      2  C4  UNL d   1      -0.364  -1.478   1.903  0.00  0.00     0.002 A 
ATOM      3  C5  UNL d   1       0.731  -1.133   2.695  0.00  0.00     0.002 A 
ATOM      4  C6  UNL d   1       1.644  -0.179   2.250  0.00  0.00    -0.004 A 
ATOM      5  C7  UNL d   1       1.464   0.426   1.008  0.00  0.00     0.002 A 
ATOM      6  C8  UNL d   1       0.366   0.086   0.216  0.00  0.00     0.002 A 
ENDROOT
BRANCH   1   7
ATOM      7  C2  UNL d   1      -1.764  -1.210  -0.190  0.00  0.00     0.056 C 
BRANCH   7   8
ATOM      8  C1  UNL d   1      -2.580  -2.395   0.338  0.00  0.00     0.007 C 
ATOM      9  C   UNL d   1      -4.059  -2.076   0.510  0.00  0.00     0.009 C 
ENDBRANCH   7   8
ENDBRANCH   1   7
TORSDOF 2
ENDMDL
