MODEL 1
REMARK minimizedAffinity -5.37123966
REMARK minimizedRMSD -1
REMARK  0 active torsions:
REMARK  status: ('A' for Active; 'I' for Inactive)
ROOT
ATOM      1  C4' PXY d   1       1.857   0.027  -2.260  0.00  0.00     0.077 C 
ATOM      2  C1' PXY d   1      -1.471   0.786   2.406  0.00  0.00     0.077 C 
ATOM      3  C1  PXY d   1      -0.607   0.580   1.177  0.00  0.00    -0.082 A 
ATOM      4  C2  PXY d   1       0.705   0.719   1.269  0.00  0.00     0.003 A 
ATOM      5  C3  PXY d   1       1.498   0.567   0.160  0.00  0.00     0.003 A 
ATOM      6  C4  PXY d   1       0.947   0.217  -1.043  0.00  0.00    -0.082 A 
ATOM      7  C5  PXY d   1      -0.390   0.062  -1.142  0.00  0.00     0.003 A 
ATOM      8  C6  PXY d   1      -1.182   0.261  -0.015  0.00  0.00     0.003 A 
ENDROOT
TORSDOF 0
ENDMDL
