MODEL 1
REMARK minimizedAffinity -3.93676734
REMARK minimizedRMSD -1
REMARK  0 active torsions:
REMARK  status: ('A' for Active; 'I' for Inactive)
ROOT
ATOM      1  C4' PXY d   1       1.167   0.428  -2.375  0.00  0.00     0.077 C 
ATOM      2  C1' PXY d   1      -1.651  -0.045   2.649  0.00  0.00     0.077 C 
ATOM      3  C1  PXY d   1      -0.901   0.079   1.338  0.00  0.00    -0.082 A 
ATOM      4  C2  PXY d   1      -1.510   0.593   0.282  0.00  0.00     0.003 A 
ATOM      5  C3  PXY d   1      -0.856   0.683  -0.920  0.00  0.00     0.003 A 
ATOM      6  C4  PXY d   1       0.452   0.292  -1.029  0.00  0.00    -0.082 A 
ATOM      7  C5  PXY d   1       1.083  -0.223   0.047  0.00  0.00     0.003 A 
ATOM      8  C6  PXY d   1       0.389  -0.344   1.247  0.00  0.00     0.003 A 
ENDROOT
TORSDOF 0
ENDMDL
