MODEL 1
REMARK minimizedAffinity -2.34509087
REMARK minimizedRMSD -1
REMARK  0 active torsions:
REMARK  status: ('A' for Active; 'I' for Inactive)
ROOT
ATOM      1  C4' PXY d   1       2.352  -0.595   1.852  0.00  0.00     0.077 C 
ATOM      2  C1' PXY d   1      -3.005  -0.446  -0.314  0.00  0.00     0.077 C 
ATOM      3  C1  PXY d   1      -1.603  -0.475   0.262  0.00  0.00    -0.082 A 
ATOM      4  C2  PXY d   1      -0.614  -0.991  -0.450  0.00  0.00     0.003 A 
ATOM      5  C3  PXY d   1       0.654  -1.054   0.068  0.00  0.00     0.003 A 
ATOM      6  C4  PXY d   1       0.922  -0.536   1.307  0.00  0.00    -0.082 A 
ATOM      7  C5  PXY d   1      -0.079   0.001   2.035  0.00  0.00     0.003 A 
ATOM      8  C6  PXY d   1      -1.367   0.019   1.507  0.00  0.00     0.003 A 
ENDROOT
TORSDOF 0
ENDMDL
