MODEL 1
REMARK minimizedAffinity -4.84162569
REMARK minimizedRMSD -1
REMARK  0 active torsions:
REMARK  status: ('A' for Active; 'I' for Inactive)
ROOT
ATOM      1  C4' PXY d   1       1.581   1.005  -3.151  0.00  0.00     0.077 C 
ATOM      2  C1' PXY d   1      -1.887   0.040   1.372  0.00  0.00     0.077 C 
ATOM      3  C1  PXY d   1      -0.969   0.285   0.191  0.00  0.00    -0.082 A 
ATOM      4  C2  PXY d   1      -1.050   1.425  -0.476  0.00  0.00     0.003 A 
ATOM      5  C3  PXY d   1      -0.250   1.649  -1.566  0.00  0.00     0.003 A 
ATOM      6  C4  PXY d   1       0.680   0.719  -1.946  0.00  0.00    -0.082 A 
ATOM      7  C5  PXY d   1       0.777  -0.442  -1.265  0.00  0.00     0.003 A 
ATOM      8  C6  PXY d   1      -0.074  -0.668  -0.186  0.00  0.00     0.003 A 
ENDROOT
TORSDOF 0
ENDMDL
