MODEL 1
REMARK minimizedAffinity -0.354853511
REMARK minimizedRMSD -1
REMARK  0 active torsions:
REMARK  status: ('A' for Active; 'I' for Inactive)
ROOT
ATOM      1  C4' PXY d   1       0.009  -0.692  -1.469  0.00  0.00     0.077 C 
ATOM      2  C1' PXY d   1       0.376  -0.594   4.299  0.00  0.00     0.077 C 
ATOM      3  C1  PXY d   1       0.293  -0.617   2.786  0.00  0.00    -0.082 A 
ATOM      4  C2  PXY d   1      -0.866  -0.383   2.191  0.00  0.00     0.003 A 
ATOM      5  C3  PXY d   1      -0.966  -0.432   0.824  0.00  0.00     0.003 A 
ATOM      6  C4  PXY d   1       0.142  -0.670   0.057  0.00  0.00    -0.082 A 
ATOM      7  C5  PXY d   1       1.330  -0.899   0.656  0.00  0.00     0.003 A 
ATOM      8  C6  PXY d   1       1.402  -0.886   2.045  0.00  0.00     0.003 A 
ENDROOT
TORSDOF 0
ENDMDL
