MODEL 1
REMARK minimizedAffinity -4.02956295
REMARK minimizedRMSD -1
REMARK  0 active torsions:
REMARK  status: ('A' for Active; 'I' for Inactive)
ROOT
ATOM      1  C4' PXY d   1       1.127  -0.058  -3.351  0.00  0.00     0.077 C 
ATOM      2  C1' PXY d   1      -1.500   0.314   1.785  0.00  0.00     0.077 C 
ATOM      3  C1  PXY d   1      -0.803   0.207   0.443  0.00  0.00    -0.082 A 
ATOM      4  C2  PXY d   1      -0.827   1.235  -0.390  0.00  0.00     0.003 A 
ATOM      5  C3  PXY d   1      -0.229   1.144  -1.621  0.00  0.00     0.003 A 
ATOM      6  C4  PXY d   1       0.445   0.008  -1.981  0.00  0.00    -0.082 A 
ATOM      7  C5  PXY d   1       0.483  -1.041  -1.132  0.00  0.00     0.003 A 
ATOM      8  C6  PXY d   1      -0.165  -0.943   0.095  0.00  0.00     0.003 A 
ENDROOT
TORSDOF 0
ENDMDL
