MODEL 1
REMARK minimizedAffinity -4.11205626
REMARK minimizedRMSD -1
REMARK  0 active torsions:
REMARK  status: ('A' for Active; 'I' for Inactive)
ROOT
ATOM      1  C4' PXY d   1       0.659   0.645  -3.551  0.00  0.00     0.077 C 
ATOM      2  C1' PXY d   1      -1.416   0.298   1.833  0.00  0.00     0.077 C 
ATOM      3  C1  PXY d   1      -0.864   0.378   0.423  0.00  0.00    -0.082 A 
ATOM      4  C2  PXY d   1      -0.874   1.536  -0.218  0.00  0.00     0.003 A 
ATOM      5  C3  PXY d   1      -0.408   1.620  -1.505  0.00  0.00     0.003 A 
ATOM      6  C4  PXY d   1       0.121   0.519  -2.123  0.00  0.00    -0.082 A 
ATOM      7  C5  PXY d   1       0.145  -0.663  -1.472  0.00  0.00     0.003 A 
ATOM      8  C6  PXY d   1      -0.371  -0.736  -0.181  0.00  0.00     0.003 A 
ENDROOT
TORSDOF 0
ENDMDL
