MODEL 1
REMARK minimizedAffinity -1.9222039
REMARK minimizedRMSD -1
REMARK  0 active torsions:
REMARK  status: ('A' for Active; 'I' for Inactive)
ROOT
ATOM      1  C4' PXY d   1       0.776  -1.121  -2.032  0.00  0.00     0.077 C 
ATOM      2  C1' PXY d   1      -1.530   0.602   2.981  0.00  0.00     0.077 C 
ATOM      3  C1  PXY d   1      -0.914   0.152   1.671  0.00  0.00    -0.082 A 
ATOM      4  C2  PXY d   1      -1.621   0.227   0.556  0.00  0.00     0.003 A 
ATOM      5  C3  PXY d   1      -1.090  -0.205  -0.632  0.00  0.00     0.003 A 
ATOM      6  C4  PXY d   1       0.197  -0.670  -0.688  0.00  0.00    -0.082 A 
ATOM      7  C5  PXY d   1       0.929  -0.739   0.444  0.00  0.00     0.003 A 
ATOM      8  C6  PXY d   1       0.357  -0.334   1.647  0.00  0.00     0.003 A 
ENDROOT
TORSDOF 0
ENDMDL
