MODEL 1
REMARK minimizedAffinity -1.40557885
REMARK minimizedRMSD -1
REMARK  0 active torsions:
REMARK  status: ('A' for Active; 'I' for Inactive)
ROOT
ATOM      1  C4' PXY d   1       1.514   0.367  -4.036  0.00  0.00     0.077 C 
ATOM      2  C1' PXY d   1      -0.356   0.049   1.425  0.00  0.00     0.077 C 
ATOM      3  C1  PXY d   1       0.130   0.144  -0.008  0.00  0.00    -0.082 A 
ATOM      4  C2  PXY d   1       0.342  -0.962  -0.702  0.00  0.00     0.003 A 
ATOM      5  C3  PXY d   1       0.812  -0.895  -1.988  0.00  0.00     0.003 A 
ATOM      6  C4  PXY d   1       1.015   0.318  -2.589  0.00  0.00    -0.082 A 
ATOM      7  C5  PXY d   1       0.790   1.452  -1.892  0.00  0.00     0.003 A 
ATOM      8  C6  PXY d   1       0.353   1.362  -0.573  0.00  0.00     0.003 A 
ENDROOT
TORSDOF 0
ENDMDL
