MODEL 1
REMARK minimizedAffinity -2.38387346
REMARK minimizedRMSD -1
REMARK  2 active torsions:
REMARK  status: ('A' for Active; 'I' for Inactive)
REMARK    1  A    between atoms: C1_2  and  C2_3 
REMARK    2  A    between atoms: C2_3  and  C3_4 
ROOT
ATOM      1  C3  UNL d   1       3.487   0.515  -1.469  0.00  0.00    -0.075 A 
ATOM      2  C4  UNL d   1       4.745   1.067  -1.188  0.00  0.00     0.002 A 
ATOM      3  C5  UNL d   1       5.773   1.005  -2.130  0.00  0.00     0.002 A 
ATOM      4  C6  UNL d   1       5.559   0.381  -3.358  0.00  0.00    -0.004 A 
ATOM      5  C7  UNL d   1       4.319  -0.186  -3.641  0.00  0.00     0.002 A 
ATOM      6  C8  UNL d   1       3.288  -0.121  -2.702  0.00  0.00     0.002 A 
ENDROOT
BRANCH   1   7
ATOM      7  C2  UNL d   1       2.362   0.605  -0.466  0.00  0.00     0.056 C 
BRANCH   7   8
ATOM      8  C1  UNL d   1       0.975   0.337  -1.058  0.00  0.00     0.007 C 
ATOM      9  C   UNL d   1       0.067   1.559  -1.038  0.00  0.00     0.009 C 
ENDBRANCH   7   8
ENDBRANCH   1   7
TORSDOF 2
ENDMDL
