MODEL 1
REMARK minimizedAffinity 2.68045354
REMARK minimizedRMSD -1
REMARK  2 active torsions:
REMARK  status: ('A' for Active; 'I' for Inactive)
REMARK    1  A    between atoms: C1_2  and  C2_3 
REMARK    2  A    between atoms: C2_3  and  C3_4 
ROOT
ATOM      1  C3  UNL d   1      -0.024   1.218  -0.536  0.00  0.00    -0.075 A 
ATOM      2  C4  UNL d   1       0.420   2.420   0.033  0.00  0.00     0.002 A 
ATOM      3  C5  UNL d   1      -0.495   3.383   0.461  0.00  0.00     0.002 A 
ATOM      4  C6  UNL d   1      -1.862   3.161   0.316  0.00  0.00    -0.004 A 
ATOM      5  C7  UNL d   1      -2.315   1.977  -0.263  0.00  0.00     0.002 A 
ATOM      6  C8  UNL d   1      -1.402   1.011  -0.688  0.00  0.00     0.002 A 
ENDROOT
BRANCH   1   7
ATOM      7  C2  UNL d   1       0.960   0.160  -0.973  0.00  0.00     0.056 C 
BRANCH   7   8
ATOM      8  C1  UNL d   1       2.426   0.596  -0.883  0.00  0.00     0.007 C 
ATOM      9  C   UNL d   1       3.092   0.195   0.426  0.00  0.00     0.009 C 
ENDBRANCH   7   8
ENDBRANCH   1   7
TORSDOF 2
ENDMDL
