MODEL 1
REMARK minimizedAffinity 5.73620415
REMARK minimizedRMSD -1
REMARK  2 active torsions:
REMARK  status: ('A' for Active; 'I' for Inactive)
REMARK    1  A    between atoms: C1_2  and  C2_3 
REMARK    2  A    between atoms: C2_3  and  C3_4 
ROOT
ATOM      1  C3  UNL d   1       1.441   1.367   0.239  0.00  0.00    -0.075 A 
ATOM      2  C4  UNL d   1       0.680   2.532   0.066  0.00  0.00     0.002 A 
ATOM      3  C5  UNL d   1      -0.345   2.574  -0.880  0.00  0.00     0.002 A 
ATOM      4  C6  UNL d   1      -0.615   1.459  -1.669  0.00  0.00    -0.004 A 
ATOM      5  C7  UNL d   1       0.145   0.301  -1.517  0.00  0.00     0.002 A 
ATOM      6  C8  UNL d   1       1.168   0.254  -0.568  0.00  0.00     0.002 A 
ENDROOT
BRANCH   1   7
ATOM      7  C2  UNL d   1       2.532   1.305   1.281  0.00  0.00     0.056 C 
BRANCH   7   8
ATOM      8  C1  UNL d   1       3.914   1.714   0.762  0.00  0.00     0.007 C 
ATOM      9  C   UNL d   1       4.448   2.984   1.411  0.00  0.00     0.009 C 
ENDBRANCH   7   8
ENDBRANCH   1   7
TORSDOF 2
ENDMDL
