MODEL 1
REMARK minimizedAffinity 3.20752311
REMARK minimizedRMSD -1
REMARK  2 active torsions:
REMARK  status: ('A' for Active; 'I' for Inactive)
REMARK    1  A    between atoms: C1_2  and  C2_3 
REMARK    2  A    between atoms: C2_3  and  C3_4 
ROOT
ATOM      1  C3  UNL d   1       3.367   0.748  -1.105  0.00  0.00    -0.075 A 
ATOM      2  C4  UNL d   1       3.837   0.761   0.216  0.00  0.00     0.002 A 
ATOM      3  C5  UNL d   1       3.001   0.388   1.269  0.00  0.00     0.002 A 
ATOM      4  C6  UNL d   1       1.685   0.008   1.016  0.00  0.00    -0.004 A 
ATOM      5  C7  UNL d   1       1.202   0.007  -0.290  0.00  0.00     0.002 A 
ATOM      6  C8  UNL d   1       2.038   0.376  -1.347  0.00  0.00     0.002 A 
ENDROOT
BRANCH   1   7
ATOM      7  C2  UNL d   1       4.275   1.122  -2.252  0.00  0.00     0.056 C 
BRANCH   7   8
ATOM      8  C1  UNL d   1       5.543   1.870  -1.826  0.00  0.00     0.007 C 
ATOM      9  C   UNL d   1       6.000   2.906  -2.844  0.00  0.00     0.009 C 
ENDBRANCH   7   8
ENDBRANCH   1   7
TORSDOF 2
ENDMDL
