MODEL 1
REMARK minimizedAffinity 2.99521065
REMARK minimizedRMSD -1
REMARK  2 active torsions:
REMARK  status: ('A' for Active; 'I' for Inactive)
REMARK    1  A    between atoms: C1_2  and  C2_3 
REMARK    2  A    between atoms: C2_3  and  C3_4 
ROOT
ATOM      1  C3  UNL d   1       4.910   2.024  -1.916  0.00  0.00    -0.075 A 
ATOM      2  C4  UNL d   1       5.314   2.252  -0.592  0.00  0.00     0.002 A 
ATOM      3  C5  UNL d   1       4.687   1.590   0.464  0.00  0.00     0.002 A 
ATOM      4  C6  UNL d   1       3.644   0.701   0.212  0.00  0.00    -0.004 A 
ATOM      5  C7  UNL d   1       3.223   0.480  -1.098  0.00  0.00     0.002 A 
ATOM      6  C8  UNL d   1       3.852   1.138  -2.157  0.00  0.00     0.002 A 
ENDROOT
BRANCH   1   7
ATOM      7  C2  UNL d   1       5.604   2.715  -3.065  0.00  0.00     0.056 C 
BRANCH   7   8
ATOM      8  C1  UNL d   1       6.000   4.166  -2.773  0.00  0.00     0.007 C 
ATOM      9  C   UNL d   1       5.247   5.177  -3.628  0.00  0.00     0.009 C 
ENDBRANCH   7   8
ENDBRANCH   1   7
TORSDOF 2
ENDMDL
