MODEL 1
REMARK minimizedAffinity 11.499259
REMARK minimizedRMSD -1
REMARK  0 active torsions:
REMARK  status: ('A' for Active; 'I' for Inactive)
ROOT
ATOM      1  C2' OXE d   1       2.085   2.098   2.527  0.00  0.00     0.078 C 
ATOM      2  C1' OXE d   1      -0.419   2.266   1.269  0.00  0.00     0.078 C 
ATOM      3  C1  OXE d   1       0.265   0.922   1.297  0.00  0.00    -0.078 A 
ATOM      4  C2  OXE d   1       1.511   0.859   1.874  0.00  0.00    -0.078 A 
ATOM      5  C3  OXE d   1       2.162  -0.367   1.976  0.00  0.00     0.003 A 
ATOM      6  C4  OXE d   1       1.628  -1.506   1.360  0.00  0.00    -0.002 A 
ATOM      7  C5  OXE d   1       0.379  -1.455   0.733  0.00  0.00    -0.002 A 
ATOM      8  C6  OXE d   1      -0.333  -0.261   0.730  0.00  0.00     0.003 A 
ENDROOT
TORSDOF 0
ENDMDL
