MODEL 1
REMARK minimizedAffinity 11.1827183
REMARK minimizedRMSD -1
REMARK  0 active torsions:
REMARK  status: ('A' for Active; 'I' for Inactive)
ROOT
ATOM      1  C2' OXE d   1       1.898  -5.940   0.518  0.00  0.00     0.078 C 
ATOM      2  C1' OXE d   1      -0.350  -5.874  -1.162  0.00  0.00     0.078 C 
ATOM      3  C1  OXE d   1       1.012  -5.919  -1.810  0.00  0.00    -0.078 A 
ATOM      4  C2  OXE d   1       2.107  -5.904  -0.980  0.00  0.00    -0.078 A 
ATOM      5  C3  OXE d   1       3.385  -5.999  -1.524  0.00  0.00     0.003 A 
ATOM      6  C4  OXE d   1       3.570  -5.955  -2.911  0.00  0.00    -0.002 A 
ATOM      7  C5  OXE d   1       2.469  -5.930  -3.774  0.00  0.00    -0.002 A 
ATOM      8  C6  OXE d   1       1.185  -5.955  -3.241  0.00  0.00     0.003 A 
ENDROOT
TORSDOF 0
ENDMDL
