MODEL 1
REMARK minimizedAffinity 18.2481918
REMARK minimizedRMSD -1
REMARK  0 active torsions:
REMARK  status: ('A' for Active; 'I' for Inactive)
ROOT
ATOM      1  C2' OXE d   1       2.292   0.623  -5.198  0.00  0.00     0.078 C 
ATOM      2  C1' OXE d   1       2.572  -1.429  -3.303  0.00  0.00     0.078 C 
ATOM      3  C1  OXE d   1       3.741  -1.148  -4.214  0.00  0.00    -0.078 A 
ATOM      4  C2  OXE d   1       3.578  -0.173  -5.169  0.00  0.00    -0.078 A 
ATOM      5  C3  OXE d   1       4.644   0.163  -5.999  0.00  0.00     0.003 A 
ATOM      6  C4  OXE d   1       5.827  -0.584  -5.972  0.00  0.00    -0.002 A 
ATOM      7  C5  OXE d   1       6.000  -1.607  -5.033  0.00  0.00    -0.002 A 
ATOM      8  C6  OXE d   1       4.984  -1.873  -4.121  0.00  0.00     0.003 A 
ENDROOT
TORSDOF 0
ENDMDL
