MODEL 1
REMARK minimizedAffinity 6.50392342
REMARK minimizedRMSD -1
REMARK  0 active torsions:
REMARK  status: ('A' for Active; 'I' for Inactive)
ROOT
ATOM      1  C2' OXE d   1      -3.547  -0.124  -4.254  0.00  0.00     0.078 C 
ATOM      2  C1' OXE d   1      -4.472   2.405  -5.048  0.00  0.00     0.078 C 
ATOM      3  C1  OXE d   1      -3.864   2.278  -3.674  0.00  0.00    -0.078 A 
ATOM      4  C2  OXE d   1      -3.457   1.027  -3.275  0.00  0.00    -0.078 A 
ATOM      5  C3  OXE d   1      -2.840   0.865  -2.038  0.00  0.00     0.003 A 
ATOM      6  C4  OXE d   1      -2.770   1.933  -1.135  0.00  0.00    -0.002 A 
ATOM      7  C5  OXE d   1      -3.216   3.206  -1.506  0.00  0.00    -0.002 A 
ATOM      8  C6  OXE d   1      -3.725   3.404  -2.784  0.00  0.00     0.003 A 
ENDROOT
TORSDOF 0
ENDMDL
