MODEL 1
REMARK minimizedAffinity 12.0274696
REMARK minimizedRMSD -1
REMARK  0 active torsions:
REMARK  status: ('A' for Active; 'I' for Inactive)
ROOT
ATOM      1  C2' OXE d   1       3.103  -1.560  -3.565  0.00  0.00     0.078 C 
ATOM      2  C1' OXE d   1       4.901  -2.981  -5.186  0.00  0.00     0.078 C 
ATOM      3  C1  OXE d   1       4.982  -1.475  -5.198  0.00  0.00    -0.078 A 
ATOM      4  C2  OXE d   1       4.068  -0.786  -4.438  0.00  0.00    -0.078 A 
ATOM      5  C3  OXE d   1       4.134   0.602  -4.370  0.00  0.00     0.003 A 
ATOM      6  C4  OXE d   1       5.023   1.311  -5.188  0.00  0.00    -0.002 A 
ATOM      7  C5  OXE d   1       5.936   0.630  -6.000  0.00  0.00    -0.002 A 
ATOM      8  C6  OXE d   1       5.958  -0.760  -5.984  0.00  0.00     0.003 A 
ENDROOT
TORSDOF 0
ENDMDL
