MODEL 1
REMARK minimizedAffinity 2.39054585
REMARK minimizedRMSD -1
REMARK  0 active torsions:
REMARK  status: ('A' for Active; 'I' for Inactive)
ROOT
ATOM      1  C2' OXE d   1      -5.974  -3.830  -6.000  0.00  0.00     0.078 C 
ATOM      2  C1' OXE d   1      -4.178  -5.987  -6.000  0.00  0.00     0.078 C 
ATOM      3  C1  OXE d   1      -4.442  -5.291  -4.688  0.00  0.00    -0.078 A 
ATOM      4  C2  OXE d   1      -5.286  -4.208  -4.706  0.00  0.00    -0.078 A 
ATOM      5  C3  OXE d   1      -5.606  -3.563  -3.514  0.00  0.00     0.003 A 
ATOM      6  C4  OXE d   1      -4.958  -3.912  -2.323  0.00  0.00    -0.002 A 
ATOM      7  C5  OXE d   1      -4.064  -4.988  -2.291  0.00  0.00    -0.002 A 
ATOM      8  C6  OXE d   1      -3.828  -5.713  -3.453  0.00  0.00     0.003 A 
ENDROOT
TORSDOF 0
ENDMDL
