MODEL 1
REMARK minimizedAffinity 13.3045664
REMARK minimizedRMSD -1
REMARK  0 active torsions:
REMARK  status: ('A' for Active; 'I' for Inactive)
ROOT
ATOM      1  C2' OXE d   1       2.291  -5.122   2.175  0.00  0.00     0.078 C 
ATOM      2  C1' OXE d   1       1.128  -4.183  -0.201  0.00  0.00     0.078 C 
ATOM      3  C1  OXE d   1       1.325  -3.197   0.923  0.00  0.00    -0.078 A 
ATOM      4  C2  OXE d   1       1.852  -3.675   2.098  0.00  0.00    -0.078 A 
ATOM      5  C3  OXE d   1       2.105  -2.797   3.148  0.00  0.00     0.003 A 
ATOM      6  C4  OXE d   1       1.687  -1.463   3.073  0.00  0.00    -0.002 A 
ATOM      7  C5  OXE d   1       1.111  -0.965   1.899  0.00  0.00    -0.002 A 
ATOM      8  C6  OXE d   1       0.963  -1.806   0.803  0.00  0.00     0.003 A 
ENDROOT
TORSDOF 0
ENDMDL
