MODEL 1
REMARK minimizedAffinity 4.45965481
REMARK minimizedRMSD -1
REMARK  0 active torsions:
REMARK  status: ('A' for Active; 'I' for Inactive)
ROOT
ATOM      1  C2' OXE d   1       3.554   0.948  -5.786  0.00  0.00     0.078 C 
ATOM      2  C1' OXE d   1       5.809  -0.721  -5.671  0.00  0.00     0.078 C 
ATOM      3  C1  OXE d   1       4.533  -1.217  -5.037  0.00  0.00    -0.078 A 
ATOM      4  C2  OXE d   1       3.448  -0.375  -5.057  0.00  0.00    -0.078 A 
ATOM      5  C3  OXE d   1       2.231  -0.805  -4.536  0.00  0.00     0.003 A 
ATOM      6  C4  OXE d   1       2.144  -2.025  -3.854  0.00  0.00    -0.002 A 
ATOM      7  C5  OXE d   1       3.248  -2.881  -3.788  0.00  0.00    -0.002 A 
ATOM      8  C6  OXE d   1       4.436  -2.512  -4.410  0.00  0.00     0.003 A 
ENDROOT
TORSDOF 0
ENDMDL
