MODEL 1
REMARK minimizedAffinity 7.46919155
REMARK minimizedRMSD -1
REMARK  0 active torsions:
REMARK  status: ('A' for Active; 'I' for Inactive)
ROOT
ATOM      1  C2' OXE d   1       1.559  -4.371  -1.693  0.00  0.00     0.078 C 
ATOM      2  C1' OXE d   1       1.912  -1.603  -2.003  0.00  0.00     0.078 C 
ATOM      3  C1  OXE d   1       1.591  -2.122  -0.623  0.00  0.00    -0.078 A 
ATOM      4  C2  OXE d   1       1.374  -3.472  -0.490  0.00  0.00    -0.078 A 
ATOM      5  C3  OXE d   1       1.129  -4.010   0.770  0.00  0.00     0.003 A 
ATOM      6  C4  OXE d   1       0.950  -3.170   1.877  0.00  0.00    -0.002 A 
ATOM      7  C5  OXE d   1       1.128  -1.788   1.755  0.00  0.00    -0.002 A 
ATOM      8  C6  OXE d   1       1.490  -1.253   0.523  0.00  0.00     0.003 A 
ENDROOT
TORSDOF 0
ENDMDL
