MODEL 1
REMARK minimizedAffinity 4.72360182
REMARK minimizedRMSD -1
REMARK  0 active torsions:
REMARK  status: ('A' for Active; 'I' for Inactive)
ROOT
ATOM      1  C2' OXE d   1      -3.868  -5.676  -3.656  0.00  0.00     0.078 C 
ATOM      2  C1' OXE d   1      -5.379  -6.000  -6.000  0.00  0.00     0.078 C 
ATOM      3  C1  OXE d   1      -5.328  -4.626  -5.380  0.00  0.00    -0.078 A 
ATOM      4  C2  OXE d   1      -4.624  -4.487  -4.207  0.00  0.00    -0.078 A 
ATOM      5  C3  OXE d   1      -4.500  -3.230  -3.623  0.00  0.00     0.003 A 
ATOM      6  C4  OXE d   1      -5.211  -2.137  -4.134  0.00  0.00    -0.002 A 
ATOM      7  C5  OXE d   1      -5.966  -2.266  -5.305  0.00  0.00    -0.002 A 
ATOM      8  C6  OXE d   1      -6.000  -3.491  -5.962  0.00  0.00     0.003 A 
ENDROOT
TORSDOF 0
ENDMDL
