MODEL 1
REMARK minimizedAffinity 13.111104
REMARK minimizedRMSD -1
REMARK  0 active torsions:
REMARK  status: ('A' for Active; 'I' for Inactive)
ROOT
ATOM      1  C2' OXE d   1       0.015  -0.337   1.244  0.00  0.00     0.078 C 
ATOM      2  C1' OXE d   1       2.694   0.450   0.954  0.00  0.00     0.078 C 
ATOM      3  C1  OXE d   1       2.374  -0.582   2.007  0.00  0.00    -0.078 A 
ATOM      4  C2  OXE d   1       1.054  -0.926   2.174  0.00  0.00    -0.078 A 
ATOM      5  C3  OXE d   1       0.710  -1.913   3.093  0.00  0.00     0.003 A 
ATOM      6  C4  OXE d   1       1.676  -2.446   3.956  0.00  0.00    -0.002 A 
ATOM      7  C5  OXE d   1       3.020  -2.079   3.830  0.00  0.00    -0.002 A 
ATOM      8  C6  OXE d   1       3.391  -1.182   2.834  0.00  0.00     0.003 A 
ENDROOT
TORSDOF 0
ENDMDL
