MODEL 1
REMARK minimizedAffinity 9.47365475
REMARK minimizedRMSD -1
REMARK  0 active torsions:
REMARK  status: ('A' for Active; 'I' for Inactive)
ROOT
ATOM      1  C2' OXE d   1      -5.627   4.126  -0.376  0.00  0.00     0.078 C 
ATOM      2  C1' OXE d   1      -3.257   2.637  -0.157  0.00  0.00     0.078 C 
ATOM      3  C1  OXE d   1      -4.063   2.495  -1.424  0.00  0.00    -0.078 A 
ATOM      4  C2  OXE d   1      -5.245   3.191  -1.503  0.00  0.00    -0.078 A 
ATOM      5  C3  OXE d   1      -5.999   3.137  -2.671  0.00  0.00     0.003 A 
ATOM      6  C4  OXE d   1      -5.644   2.262  -3.705  0.00  0.00    -0.002 A 
ATOM      7  C5  OXE d   1      -4.465   1.514  -3.628  0.00  0.00    -0.002 A 
ATOM      8  C6  OXE d   1      -3.642   1.651  -2.515  0.00  0.00     0.003 A 
ENDROOT
TORSDOF 0
ENDMDL
