MODEL 1
REMARK minimizedAffinity 5.13363409
REMARK minimizedRMSD -1
REMARK  0 active torsions:
REMARK  status: ('A' for Active; 'I' for Inactive)
ROOT
ATOM      1  C2' OXE d   1       5.944  -5.393  -5.038  0.00  0.00     0.078 C 
ATOM      2  C1' OXE d   1       4.288  -4.467  -2.969  0.00  0.00     0.078 C 
ATOM      3  C1  OXE d   1       4.744  -3.470  -4.004  0.00  0.00    -0.078 A 
ATOM      4  C2  OXE d   1       5.592  -3.922  -4.987  0.00  0.00    -0.078 A 
ATOM      5  C3  OXE d   1       6.000  -3.056  -5.997  0.00  0.00     0.003 A 
ATOM      6  C4  OXE d   1       5.678  -1.694  -5.937  0.00  0.00    -0.002 A 
ATOM      7  C5  OXE d   1       4.848  -1.205  -4.923  0.00  0.00    -0.002 A 
ATOM      8  C6  OXE d   1       4.339  -2.086  -3.975  0.00  0.00     0.003 A 
ENDROOT
TORSDOF 0
ENDMDL
