MODEL 1
REMARK minimizedAffinity 5.10271835
REMARK minimizedRMSD -1
REMARK  0 active torsions:
REMARK  status: ('A' for Active; 'I' for Inactive)
ROOT
ATOM      1  C2' OXE d   1       2.483  -1.215  -2.989  0.00  0.00     0.078 C 
ATOM      2  C1' OXE d   1       4.787   0.381  -2.835  0.00  0.00     0.078 C 
ATOM      3  C1  OXE d   1       4.834  -0.839  -3.721  0.00  0.00    -0.078 A 
ATOM      4  C2  OXE d   1       3.718  -1.640  -3.754  0.00  0.00    -0.078 A 
ATOM      5  C3  OXE d   1       3.690  -2.747  -4.597  0.00  0.00     0.003 A 
ATOM      6  C4  OXE d   1       4.840  -3.138  -5.293  0.00  0.00    -0.002 A 
ATOM      7  C5  OXE d   1       6.000  -2.358  -5.242  0.00  0.00    -0.002 A 
ATOM      8  C6  OXE d   1       6.000  -1.185  -4.496  0.00  0.00     0.003 A 
ENDROOT
TORSDOF 0
ENDMDL
