MODEL 1
REMARK minimizedAffinity 7.82574892
REMARK minimizedRMSD -1
REMARK  0 active torsions:
REMARK  status: ('A' for Active; 'I' for Inactive)
ROOT
ATOM      1  C2' OXE d   1      -4.350  -2.274  -3.619  0.00  0.00     0.078 C 
ATOM      2  C1' OXE d   1      -5.836  -2.198  -5.999  0.00  0.00     0.078 C 
ATOM      3  C1  OXE d   1      -5.533  -3.549  -5.402  0.00  0.00    -0.078 A 
ATOM      4  C2  OXE d   1      -4.766  -3.579  -4.263  0.00  0.00    -0.078 A 
ATOM      5  C3  OXE d   1      -4.503  -4.796  -3.641  0.00  0.00     0.003 A 
ATOM      6  C4  OXE d   1      -4.882  -5.999  -4.248  0.00  0.00    -0.002 A 
ATOM      7  C5  OXE d   1      -5.630  -5.993  -5.430  0.00  0.00    -0.002 A 
ATOM      8  C6  OXE d   1      -6.000  -4.778  -5.996  0.00  0.00     0.003 A 
ENDROOT
TORSDOF 0
ENDMDL
