MODEL 1
REMARK minimizedAffinity 13.2679281
REMARK minimizedRMSD -1
REMARK  0 active torsions:
REMARK  status: ('A' for Active; 'I' for Inactive)
ROOT
ATOM      1  C2' OXE d   1       3.184  -1.985   1.557  0.00  0.00     0.078 C 
ATOM      2  C1' OXE d   1       0.994  -1.301   3.176  0.00  0.00     0.078 C 
ATOM      3  C1  OXE d   1       1.848  -0.180   2.637  0.00  0.00    -0.078 A 
ATOM      4  C2  OXE d   1       2.944  -0.526   1.885  0.00  0.00    -0.078 A 
ATOM      5  C3  OXE d   1       3.734   0.470   1.318  0.00  0.00     0.003 A 
ATOM      6  C4  OXE d   1       3.511   1.816   1.634  0.00  0.00    -0.002 A 
ATOM      7  C5  OXE d   1       2.423   2.188   2.431  0.00  0.00    -0.002 A 
ATOM      8  C6  OXE d   1       1.559   1.207   2.905  0.00  0.00     0.003 A 
ENDROOT
TORSDOF 0
ENDMDL
