MODEL 1
REMARK minimizedAffinity -2.29777193
REMARK minimizedRMSD -1
REMARK  1 active torsions:
REMARK  status: ('A' for Active; 'I' for Inactive)
REMARK    1  A    between atoms: C1_2  and  C2_3 
ROOT
ATOM      1  C2  UNL d   1      -1.201   0.382  -1.173  0.00  0.00    -0.073 A 
ATOM      2  C3  UNL d   1      -0.475   1.575  -1.073  0.00  0.00    -0.002 A 
ATOM      3  C4  UNL d   1       0.520   1.715  -0.104  0.00  0.00     0.004 A 
ATOM      4  C5  UNL d   1       0.804   0.664   0.768  0.00  0.00    -0.004 A 
ATOM      5  C6  UNL d   1       0.098  -0.540   0.675  0.00  0.00    -0.075 A 
ATOM      6  C7  UNL d   1       0.389  -1.679   1.607  0.00  0.00     0.076 C 
ATOM      7  C8  UNL d   1      -0.902  -0.672  -0.298  0.00  0.00     0.001 A 
ENDROOT
BRANCH   1   8
ATOM      8  C1  UNL d   1      -2.271   0.224  -2.222  0.00  0.00     0.053 C 
ATOM      9  C   UNL d   1      -2.111  -1.067  -3.009  0.00  0.00     0.018 C 
ENDBRANCH   1   8
TORSDOF 1
ENDMDL
