MODEL 1
REMARK minimizedAffinity -4.50780249
REMARK minimizedRMSD -1
REMARK  1 active torsions:
REMARK  status: ('A' for Active; 'I' for Inactive)
REMARK    1  A    between atoms: C1_2  and  C2_3 
ROOT
ATOM      1  C2  UNL d   1       0.231   0.595  -0.861  0.00  0.00    -0.073 A 
ATOM      2  C3  UNL d   1      -0.844   0.448   0.023  0.00  0.00    -0.002 A 
ATOM      3  C4  UNL d   1      -2.105   0.089  -0.455  0.00  0.00     0.004 A 
ATOM      4  C5  UNL d   1      -2.303  -0.133  -1.817  0.00  0.00    -0.004 A 
ATOM      5  C6  UNL d   1      -1.239  -0.003  -2.715  0.00  0.00    -0.075 A 
ATOM      6  C7  UNL d   1      -1.435  -0.237  -4.184  0.00  0.00     0.076 C 
ATOM      7  C8  UNL d   1       0.024   0.360  -2.228  0.00  0.00     0.001 A 
ENDROOT
BRANCH   1   8
ATOM      8  C1  UNL d   1       1.596   0.976  -0.350  0.00  0.00     0.053 C 
ATOM      9  C   UNL d   1       1.870   0.398   1.030  0.00  0.00     0.018 C 
ENDBRANCH   1   8
TORSDOF 1
ENDMDL
