MODEL 1
REMARK minimizedAffinity -1.96481049
REMARK minimizedRMSD -1
REMARK  1 active torsions:
REMARK  status: ('A' for Active; 'I' for Inactive)
REMARK    1  A    between atoms: C1_2  and  C2_3 
ROOT
ATOM      1  C2  UNL d   1      -1.179  -0.351  -0.719  0.00  0.00    -0.073 A 
ATOM      2  C3  UNL d   1      -1.604  -1.387   0.120  0.00  0.00    -0.002 A 
ATOM      3  C4  UNL d   1      -0.687  -2.062   0.927  0.00  0.00     0.004 A 
ATOM      4  C5  UNL d   1       0.661  -1.703   0.908  0.00  0.00    -0.004 A 
ATOM      5  C6  UNL d   1       1.103  -0.663   0.085  0.00  0.00    -0.075 A 
ATOM      6  C7  UNL d   1       2.550  -0.267   0.051  0.00  0.00     0.076 C 
ATOM      7  C8  UNL d   1       0.176   0.008  -0.724  0.00  0.00     0.001 A 
ENDROOT
BRANCH   1   8
ATOM      8  C1  UNL d   1      -2.167   0.385  -1.587  0.00  0.00     0.053 C 
ATOM      9  C   UNL d   1      -2.533  -0.407  -2.832  0.00  0.00     0.018 C 
ENDBRANCH   1   8
TORSDOF 1
ENDMDL
