MODEL 1
REMARK minimizedAffinity -1.74527037
REMARK minimizedRMSD -1
REMARK  1 active torsions:
REMARK  status: ('A' for Active; 'I' for Inactive)
REMARK    1  A    between atoms: C1_2  and  C2_3 
ROOT
ATOM      1  C2  UNL d   1      -1.658  -0.023  -1.152  0.00  0.00    -0.073 A 
ATOM      2  C3  UNL d   1      -2.094  -0.976  -0.224  0.00  0.00    -0.002 A 
ATOM      3  C4  UNL d   1      -1.273  -1.348   0.841  0.00  0.00     0.004 A 
ATOM      4  C5  UNL d   1      -0.014  -0.768   0.994  0.00  0.00    -0.004 A 
ATOM      5  C6  UNL d   1       0.434   0.195   0.084  0.00  0.00    -0.075 A 
ATOM      6  C7  UNL d   1       1.786   0.828   0.233  0.00  0.00     0.076 C 
ATOM      7  C8  UNL d   1      -0.395   0.562  -0.985  0.00  0.00     0.001 A 
ENDROOT
BRANCH   1   8
ATOM      8  C1  UNL d   1      -2.544   0.387  -2.301  0.00  0.00     0.053 C 
ATOM      9  C   UNL d   1      -1.931   0.034  -3.647  0.00  0.00     0.018 C 
ENDBRANCH   1   8
TORSDOF 1
ENDMDL
