MODEL 1
REMARK minimizedAffinity -3.56553268
REMARK minimizedRMSD -1
REMARK  1 active torsions:
REMARK  status: ('A' for Active; 'I' for Inactive)
REMARK    1  A    between atoms: C1_2  and  C2_3 
ROOT
ATOM      1  C2  UNL d   1       0.561  -0.886   1.268  0.00  0.00    -0.073 A 
ATOM      2  C3  UNL d   1       1.570   0.081   1.196  0.00  0.00    -0.002 A 
ATOM      3  C4  UNL d   1       1.423   1.193   0.366  0.00  0.00     0.004 A 
ATOM      4  C5  UNL d   1       0.265   1.354  -0.394  0.00  0.00    -0.004 A 
ATOM      5  C6  UNL d   1      -0.760   0.404  -0.327  0.00  0.00    -0.075 A 
ATOM      6  C7  UNL d   1      -2.011   0.560  -1.140  0.00  0.00     0.076 C 
ATOM      7  C8  UNL d   1      -0.604  -0.711   0.507  0.00  0.00     0.001 A 
ENDROOT
BRANCH   1   8
ATOM      8  C1  UNL d   1       0.713  -2.085   2.168  0.00  0.00     0.053 C 
ATOM      9  C   UNL d   1       1.909  -1.952   3.098  0.00  0.00     0.018 C 
ENDBRANCH   1   8
TORSDOF 1
ENDMDL
