MODEL 1
REMARK minimizedAffinity -4.69365311
REMARK minimizedRMSD -1
REMARK  1 active torsions:
REMARK  status: ('A' for Active; 'I' for Inactive)
REMARK    1  A    between atoms: C1_2  and  C2_3 
ROOT
ATOM      1  C2  UNL d   1      -1.305  -0.143  -1.168  0.00  0.00    -0.073 A 
ATOM      2  C3  UNL d   1      -1.658  -1.329  -1.821  0.00  0.00    -0.002 A 
ATOM      3  C4  UNL d   1      -2.440  -1.291  -2.977  0.00  0.00     0.004 A 
ATOM      4  C5  UNL d   1      -2.869  -0.069  -3.494  0.00  0.00    -0.004 A 
ATOM      5  C6  UNL d   1      -2.516   1.128  -2.862  0.00  0.00    -0.075 A 
ATOM      6  C7  UNL d   1      -2.972   2.451  -3.404  0.00  0.00     0.076 C 
ATOM      7  C8  UNL d   1      -1.734   1.081  -1.700  0.00  0.00     0.001 A 
ENDROOT
BRANCH   1   8
ATOM      8  C1  UNL d   1      -0.456  -0.179   0.077  0.00  0.00     0.053 C 
ATOM      9  C   UNL d   1       0.675   0.836   0.025  0.00  0.00     0.018 C 
ENDBRANCH   1   8
TORSDOF 1
ENDMDL
