MODEL 1
REMARK minimizedAffinity -2.87836313
REMARK minimizedRMSD -1
REMARK  1 active torsions:
REMARK  status: ('A' for Active; 'I' for Inactive)
REMARK    1  A    between atoms: C1_2  and  C2_3 
ROOT
ATOM      1  C2  UNL d   1      -1.434  -0.036  -0.954  0.00  0.00    -0.073 A 
ATOM      2  C3  UNL d   1      -1.422  -1.080  -1.886  0.00  0.00    -0.002 A 
ATOM      3  C4  UNL d   1      -2.152  -0.976  -3.071  0.00  0.00     0.004 A 
ATOM      4  C5  UNL d   1      -2.894   0.174  -3.340  0.00  0.00    -0.004 A 
ATOM      5  C6  UNL d   1      -2.909   1.233  -2.427  0.00  0.00    -0.075 A 
ATOM      6  C7  UNL d   1      -3.703   2.476  -2.700  0.00  0.00     0.076 C 
ATOM      7  C8  UNL d   1      -2.176   1.120  -1.238  0.00  0.00     0.001 A 
ENDROOT
BRANCH   1   8
ATOM      8  C1  UNL d   1      -0.643  -0.141   0.324  0.00  0.00     0.053 C 
ATOM      9  C   UNL d   1       0.341   1.007   0.481  0.00  0.00     0.018 C 
ENDBRANCH   1   8
TORSDOF 1
ENDMDL
