MODEL 1
REMARK minimizedAffinity -4.43297911
REMARK minimizedRMSD -1
REMARK  1 active torsions:
REMARK  status: ('A' for Active; 'I' for Inactive)
REMARK    1  A    between atoms: C1_2  and  C2_3 
ROOT
ATOM      1  C2  UNL d   1      -0.602   0.654  -0.238  0.00  0.00    -0.073 A 
ATOM      2  C3  UNL d   1       0.038   1.552  -1.100  0.00  0.00    -0.002 A 
ATOM      3  C4  UNL d   1       1.419   1.739  -1.023  0.00  0.00     0.004 A 
ATOM      4  C5  UNL d   1       2.173   1.027  -0.091  0.00  0.00    -0.004 A 
ATOM      5  C6  UNL d   1       1.553   0.117   0.771  0.00  0.00    -0.075 A 
ATOM      6  C7  UNL d   1       2.350  -0.655   1.781  0.00  0.00     0.076 C 
ATOM      7  C8  UNL d   1       0.166  -0.064   0.689  0.00  0.00     0.001 A 
ENDROOT
BRANCH   1   8
ATOM      8  C1  UNL d   1      -2.092   0.443  -0.322  0.00  0.00     0.053 C 
ATOM      9  C   UNL d   1      -2.552   0.180  -1.747  0.00  0.00     0.018 C 
ENDBRANCH   1   8
TORSDOF 1
ENDMDL
