MODEL 1
REMARK minimizedAffinity -3.33476877
REMARK minimizedRMSD -1
REMARK  1 active torsions:
REMARK  status: ('A' for Active; 'I' for Inactive)
REMARK    1  A    between atoms: C1_2  and  C2_3 
ROOT
ATOM      1  C2  UNL d   1      -2.021  -3.396  -0.711  0.00  0.00    -0.077 A 
ATOM      2  C3  UNL d   1      -1.855  -3.510  -2.098  0.00  0.00     0.002 A 
ATOM      3  C4  UNL d   1      -0.682  -3.063  -2.708  0.00  0.00     0.002 A 
ATOM      4  C5  UNL d   1       0.336  -2.503  -1.939  0.00  0.00    -0.004 A 
ATOM      5  C6  UNL d   1       0.179  -2.383  -0.559  0.00  0.00     0.002 A 
ATOM      6  C7  UNL d   1      -0.994  -2.828   0.053  0.00  0.00     0.002 A 
ENDROOT
BRANCH   1   7
ATOM      7  C1  UNL d   1      -3.266  -3.923  -0.045  0.00  0.00     0.055 C 
ATOM      8  C   UNL d   1      -4.214  -4.546  -1.058  0.00  0.00     0.019 C 
ENDBRANCH   1   7
TORSDOF 1
ENDMDL
