MODEL 1
REMARK minimizedAffinity -3.643538
REMARK minimizedRMSD -1
REMARK  1 active torsions:
REMARK  status: ('A' for Active; 'I' for Inactive)
REMARK    1  A    between atoms: C1_2  and  C2_3 
ROOT
ATOM      1  C2  UNL d   1      -0.374  -1.343  -0.776  0.00  0.00    -0.077 A 
ATOM      2  C3  UNL d   1       0.583  -2.354  -0.944  0.00  0.00     0.002 A 
ATOM      3  C4  UNL d   1       0.367  -3.387  -1.859  0.00  0.00     0.002 A 
ATOM      4  C5  UNL d   1      -0.803  -3.416  -2.615  0.00  0.00    -0.004 A 
ATOM      5  C6  UNL d   1      -1.762  -2.417  -2.453  0.00  0.00     0.002 A 
ATOM      6  C7  UNL d   1      -1.548  -1.385  -1.539  0.00  0.00     0.002 A 
ENDROOT
BRANCH   1   7
ATOM      7  C1  UNL d   1      -0.120  -0.202   0.174  0.00  0.00     0.055 C 
ATOM      8  C   UNL d   1      -1.394   0.585   0.446  0.00  0.00     0.019 C 
ENDBRANCH   1   7
TORSDOF 1
ENDMDL
