MODEL 1
REMARK minimizedAffinity -4.71247387
REMARK minimizedRMSD -1
REMARK  1 active torsions:
REMARK  status: ('A' for Active; 'I' for Inactive)
REMARK    1  A    between atoms: C1_2  and  C2_3 
ROOT
ATOM      1  C2  UNL d   1      -0.868  -1.084   0.021  0.00  0.00    -0.077 A 
ATOM      2  C3  UNL d   1       0.172  -0.424   0.691  0.00  0.00     0.002 A 
ATOM      3  C4  UNL d   1       0.060   0.931   1.007  0.00  0.00     0.002 A 
ATOM      4  C5  UNL d   1      -1.090   1.636   0.660  0.00  0.00    -0.004 A 
ATOM      5  C6  UNL d   1      -2.129   0.990  -0.008  0.00  0.00     0.002 A 
ATOM      6  C7  UNL d   1      -2.019  -0.365  -0.326  0.00  0.00     0.002 A 
ENDROOT
BRANCH   1   7
ATOM      7  C1  UNL d   1      -0.770  -2.558  -0.277  0.00  0.00     0.055 C 
ATOM      8  C   UNL d   1      -1.516  -2.915  -1.554  0.00  0.00     0.019 C 
ENDBRANCH   1   7
TORSDOF 1
ENDMDL
