MODEL 1
REMARK minimizedAffinity -1.41460633
REMARK minimizedRMSD -1
REMARK  1 active torsions:
REMARK  status: ('A' for Active; 'I' for Inactive)
REMARK    1  A    between atoms: C1_2  and  C2_3 
ROOT
ATOM      1  C2  UNL d   1      -0.397  -1.419  -0.426  0.00  0.00    -0.077 A 
ATOM      2  C3  UNL d   1       0.503  -1.465  -1.500  0.00  0.00     0.002 A 
ATOM      3  C4  UNL d   1       0.395  -2.464  -2.470  0.00  0.00     0.002 A 
ATOM      4  C5  UNL d   1      -0.614  -3.421  -2.378  0.00  0.00    -0.004 A 
ATOM      5  C6  UNL d   1      -1.513  -3.385  -1.312  0.00  0.00     0.002 A 
ATOM      6  C7  UNL d   1      -1.406  -2.388  -0.341  0.00  0.00     0.002 A 
ENDROOT
BRANCH   1   7
ATOM      7  C1  UNL d   1      -0.313  -0.314   0.594  0.00  0.00     0.055 C 
ATOM      8  C   UNL d   1      -1.471   0.662   0.450  0.00  0.00     0.019 C 
ENDBRANCH   1   7
TORSDOF 1
ENDMDL
