MODEL 1
REMARK minimizedAffinity -5.16616774
REMARK minimizedRMSD -1
REMARK  1 active torsions:
REMARK  status: ('A' for Active; 'I' for Inactive)
REMARK    1  A    between atoms: C1_2  and  C2_3 
ROOT
ATOM      1  C2  UNL d   1       1.123   0.588   0.345  0.00  0.00    -0.077 A 
ATOM      2  C3  UNL d   1       0.922   1.972   0.253  0.00  0.00     0.002 A 
ATOM      3  C4  UNL d   1      -0.367   2.505   0.317  0.00  0.00     0.002 A 
ATOM      4  C5  UNL d   1      -1.464   1.661   0.478  0.00  0.00    -0.004 A 
ATOM      5  C6  UNL d   1      -1.275   0.283   0.568  0.00  0.00     0.002 A 
ATOM      6  C7  UNL d   1       0.013  -0.252   0.503  0.00  0.00     0.002 A 
ENDROOT
BRANCH   1   7
ATOM      7  C1  UNL d   1       2.516   0.016   0.326  0.00  0.00     0.055 C 
ATOM      8  C   UNL d   1       3.558   1.103   0.104  0.00  0.00     0.019 C 
ENDBRANCH   1   7
TORSDOF 1
ENDMDL
