MODEL 1
REMARK minimizedAffinity -2.01557016
REMARK minimizedRMSD -1
REMARK  1 active torsions:
REMARK  status: ('A' for Active; 'I' for Inactive)
REMARK    1  A    between atoms: C1_2  and  C2_3 
ROOT
ATOM      1  C2  UNL d   1      -0.018  -0.407   0.284  0.00  0.00    -0.077 A 
ATOM      2  C3  UNL d   1       1.206   0.274   0.349  0.00  0.00     0.002 A 
ATOM      3  C4  UNL d   1       1.235   1.667   0.438  0.00  0.00     0.002 A 
ATOM      4  C5  UNL d   1       0.045   2.391   0.466  0.00  0.00    -0.004 A 
ATOM      5  C6  UNL d   1      -1.178   1.723   0.400  0.00  0.00     0.002 A 
ATOM      6  C7  UNL d   1      -1.209   0.331   0.310  0.00  0.00     0.002 A 
ENDROOT
BRANCH   1   7
ATOM      7  C1  UNL d   1      -0.053  -1.912   0.238  0.00  0.00     0.055 C 
ATOM      8  C   UNL d   1      -0.816  -2.411  -0.980  0.00  0.00     0.019 C 
ENDBRANCH   1   7
TORSDOF 1
ENDMDL
