MODEL 1
REMARK minimizedAffinity -4.4798584
REMARK minimizedRMSD -1
REMARK  1 active torsions:
REMARK  status: ('A' for Active; 'I' for Inactive)
REMARK    1  A    between atoms: C1_2  and  C2_3 
ROOT
ATOM      1  C2  UNL d   1      -0.038  -0.066   0.662  0.00  0.00    -0.077 A 
ATOM      2  C3  UNL d   1       0.527   1.196   0.431  0.00  0.00     0.002 A 
ATOM      3  C4  UNL d   1      -0.215   2.355   0.664  0.00  0.00     0.002 A 
ATOM      4  C5  UNL d   1      -1.524   2.264   1.133  0.00  0.00    -0.004 A 
ATOM      5  C6  UNL d   1      -2.096   1.013   1.363  0.00  0.00     0.002 A 
ATOM      6  C7  UNL d   1      -1.356  -0.147   1.129  0.00  0.00     0.002 A 
ENDROOT
BRANCH   1   7
ATOM      7  C1  UNL d   1       0.778  -1.316   0.458  0.00  0.00     0.055 C 
ATOM      8  C   UNL d   1       2.231  -1.101   0.857  0.00  0.00     0.019 C 
ENDBRANCH   1   7
TORSDOF 1
ENDMDL
