MODEL 1
REMARK minimizedAffinity -0.614191771
REMARK minimizedRMSD -1
REMARK  1 active torsions:
REMARK  status: ('A' for Active; 'I' for Inactive)
REMARK    1  A    between atoms: C1_2  and  C2_3 
ROOT
ATOM      1  C2  UNL d   1       1.336   1.025   0.783  0.00  0.00    -0.077 A 
ATOM      2  C3  UNL d   1       0.924  -0.250   0.370  0.00  0.00     0.002 A 
ATOM      3  C4  UNL d   1      -0.414  -0.491   0.052  0.00  0.00     0.002 A 
ATOM      4  C5  UNL d   1      -1.349   0.538   0.140  0.00  0.00    -0.004 A 
ATOM      5  C6  UNL d   1      -0.949   1.809   0.552  0.00  0.00     0.002 A 
ATOM      6  C7  UNL d   1       0.388   2.051   0.871  0.00  0.00     0.002 A 
ENDROOT
BRANCH   1   7
ATOM      7  C1  UNL d   1       2.788   1.299   1.078  0.00  0.00     0.055 C 
ATOM      8  C   UNL d   1       2.970   2.651   1.753  0.00  0.00     0.019 C 
ENDBRANCH   1   7
TORSDOF 1
ENDMDL
