MODEL 1
REMARK minimizedAffinity -4.89719248
REMARK minimizedRMSD -1
REMARK  1 active torsions:
REMARK  status: ('A' for Active; 'I' for Inactive)
REMARK    1  A    between atoms: C1_2  and  C2_3 
ROOT
ATOM      1  C2  UNL d   1      -0.101  -1.256  -0.893  0.00  0.00    -0.077 A 
ATOM      2  C3  UNL d   1       0.718  -1.202  -2.030  0.00  0.00     0.002 A 
ATOM      3  C4  UNL d   1       0.476  -2.047  -3.115  0.00  0.00     0.002 A 
ATOM      4  C5  UNL d   1      -0.586  -2.949  -3.075  0.00  0.00    -0.004 A 
ATOM      5  C6  UNL d   1      -1.404  -3.011  -1.948  0.00  0.00     0.002 A 
ATOM      6  C7  UNL d   1      -1.163  -2.168  -0.862  0.00  0.00     0.002 A 
ENDROOT
BRANCH   1   7
ATOM      7  C1  UNL d   1       0.128  -0.312   0.258  0.00  0.00     0.055 C 
ATOM      8  C   UNL d   1      -1.146   0.436   0.623  0.00  0.00     0.019 C 
ENDBRANCH   1   7
TORSDOF 1
ENDMDL
