MODEL 1
REMARK minimizedAffinity -5.09894896
REMARK minimizedRMSD -1
REMARK  1 active torsions:
REMARK  status: ('A' for Active; 'I' for Inactive)
REMARK    1  A    between atoms: C1_2  and  C2_3 
ROOT
ATOM      1  C2  UNL d   1      -0.325  -1.077  -0.855  0.00  0.00    -0.077 A 
ATOM      2  C3  UNL d   1      -0.227  -0.793  -2.224  0.00  0.00     0.002 A 
ATOM      3  C4  UNL d   1      -0.501  -1.781  -3.172  0.00  0.00     0.002 A 
ATOM      4  C5  UNL d   1      -0.879  -3.058  -2.761  0.00  0.00    -0.004 A 
ATOM      5  C6  UNL d   1      -0.977  -3.351  -1.401  0.00  0.00     0.002 A 
ATOM      6  C7  UNL d   1      -0.702  -2.365  -0.452  0.00  0.00     0.002 A 
ENDROOT
BRANCH   1   7
ATOM      7  C1  UNL d   1      -0.077   0.000   0.168  0.00  0.00     0.055 C 
ATOM      8  C   UNL d   1      -1.341   0.801   0.446  0.00  0.00     0.019 C 
ENDBRANCH   1   7
TORSDOF 1
ENDMDL
