MODEL 1
REMARK minimizedAffinity -1.57661128
REMARK minimizedRMSD -1
REMARK  1 active torsions:
REMARK  status: ('A' for Active; 'I' for Inactive)
REMARK    1  A    between atoms: C1_2  and  C2_3 
ROOT
ATOM      1  C2  UNL d   1      -0.297  -0.029   0.163  0.00  0.00    -0.077 A 
ATOM      2  C3  UNL d   1      -1.644   0.291   0.384  0.00  0.00     0.002 A 
ATOM      3  C4  UNL d   1      -2.045   1.624   0.491  0.00  0.00     0.002 A 
ATOM      4  C5  UNL d   1      -1.107   2.647   0.374  0.00  0.00    -0.004 A 
ATOM      5  C6  UNL d   1       0.235   2.339   0.156  0.00  0.00     0.002 A 
ATOM      6  C7  UNL d   1       0.638   1.007   0.051  0.00  0.00     0.002 A 
ENDROOT
BRANCH   1   7
ATOM      7  C1  UNL d   1       0.130  -1.464  -0.001  0.00  0.00     0.055 C 
ATOM      8  C   UNL d   1      -0.175  -1.975  -1.402  0.00  0.00     0.019 C 
ENDBRANCH   1   7
TORSDOF 1
ENDMDL
