MODEL 1
REMARK minimizedAffinity 10.1552076
REMARK minimizedRMSD -1
REMARK  1 active torsions:
REMARK  status: ('A' for Active; 'I' for Inactive)
REMARK    1  A    between atoms: N_2  and  C1_3 
ROOT
ATOM      1  C1  UNL d   1      -1.969  -1.701   3.348  0.00  0.00     0.143 A 
ATOM      2  C2  UNL d   1      -1.309  -1.480   4.562  0.00  0.00    -0.057 A 
ATOM      3  C3  UNL d   1      -0.002  -0.981   4.597  0.00  0.00     0.033 A 
ATOM      4  C4  UNL d   1       0.682  -0.720   3.414  0.00  0.00    -0.042 A 
ATOM      5  C5  UNL d   1       0.056  -0.957   2.196  0.00  0.00     0.033 A 
ATOM      6  C6  UNL d   1      -1.253  -1.449   2.167  0.00  0.00    -0.057 A 
ENDROOT
BRANCH   1   7
ATOM      7  N   UNL d   1      -3.232  -2.289   3.245  0.00  0.00    -0.732 N 
ATOM      8  C   UNL d   1      -3.731  -2.744   1.965  0.00  0.00     0.284 C 
ATOM      9  H3  UNL d   1      -3.430  -2.921   4.017  0.00  0.00     0.395 HD
ENDBRANCH   1   7
TORSDOF 1
ENDMDL
