MODEL 1
REMARK minimizedAffinity 4.11421394
REMARK minimizedRMSD -1
REMARK  1 active torsions:
REMARK  status: ('A' for Active; 'I' for Inactive)
REMARK    1  A    between atoms: N_2  and  C1_3 
ROOT
ATOM      1  C1  UNL d   1       1.174  -2.991   1.993  0.00  0.00     0.143 A 
ATOM      2  C2  UNL d   1       1.005  -1.614   1.812  0.00  0.00    -0.057 A 
ATOM      3  C3  UNL d   1       0.301  -0.841   2.742  0.00  0.00     0.033 A 
ATOM      4  C4  UNL d   1      -0.273  -1.438   3.860  0.00  0.00    -0.042 A 
ATOM      5  C5  UNL d   1      -0.139  -2.809   4.047  0.00  0.00     0.033 A 
ATOM      6  C6  UNL d   1       0.571  -3.575   3.118  0.00  0.00    -0.057 A 
ENDROOT
BRANCH   1   7
ATOM      7  N   UNL d   1       1.779  -3.830   1.054  0.00  0.00    -0.732 N 
ATOM      8  C   UNL d   1       1.799  -3.474  -0.349  0.00  0.00     0.284 C 
ATOM      9  H3  UNL d   1       2.651  -4.229   1.394  0.00  0.00     0.395 HD
ENDBRANCH   1   7
TORSDOF 1
ENDMDL
