MODEL 1
REMARK minimizedAffinity 3.62568545
REMARK minimizedRMSD -1
REMARK  1 active torsions:
REMARK  status: ('A' for Active; 'I' for Inactive)
REMARK    1  A    between atoms: N_2  and  C1_3 
ROOT
ATOM      1  C1  UNL d   1      -2.130  -2.303   2.099  0.00  0.00     0.143 A 
ATOM      2  C2  UNL d   1      -0.968  -1.909   1.427  0.00  0.00    -0.057 A 
ATOM      3  C3  UNL d   1       0.029  -1.169   2.073  0.00  0.00     0.033 A 
ATOM      4  C4  UNL d   1      -0.132  -0.784   3.400  0.00  0.00    -0.042 A 
ATOM      5  C5  UNL d   1      -1.290  -1.143   4.081  0.00  0.00     0.033 A 
ATOM      6  C6  UNL d   1      -2.279  -1.888   3.432  0.00  0.00    -0.057 A 
ENDROOT
BRANCH   1   7
ATOM      7  N   UNL d   1      -3.202  -2.954   1.483  0.00  0.00    -0.732 N 
ATOM      8  C   UNL d   1      -3.145  -3.303   0.080  0.00  0.00     0.284 C 
ATOM      9  H3  UNL d   1      -3.610  -3.675   2.075  0.00  0.00     0.395 HD
ENDBRANCH   1   7
TORSDOF 1
ENDMDL
