MODEL 1
REMARK minimizedAffinity 14.5190554
REMARK minimizedRMSD -1
REMARK  1 active torsions:
REMARK  status: ('A' for Active; 'I' for Inactive)
REMARK    1  A    between atoms: N_2  and  C1_3 
ROOT
ATOM      1  C1  UNL d   1       0.713  -4.652   2.303  0.00  0.00     0.143 A 
ATOM      2  C2  UNL d   1       1.131  -4.495   0.977  0.00  0.00    -0.057 A 
ATOM      3  C3  UNL d   1       0.969  -3.278   0.304  0.00  0.00     0.033 A 
ATOM      4  C4  UNL d   1       0.357  -2.201   0.938  0.00  0.00    -0.042 A 
ATOM      5  C5  UNL d   1      -0.089  -2.343   2.247  0.00  0.00     0.033 A 
ATOM      6  C6  UNL d   1       0.081  -3.559   2.916  0.00  0.00    -0.057 A 
ENDROOT
BRANCH   1   7
ATOM      7  N   UNL d   1       0.756  -5.866   2.993  0.00  0.00    -0.732 N 
ATOM      8  C   UNL d   1       1.518  -5.990   4.218  0.00  0.00     0.284 C 
ATOM      9  H3  UNL d   1      -0.148  -6.332   3.016  0.00  0.00     0.395 HD
ENDBRANCH   1   7
TORSDOF 1
ENDMDL
