MODEL 1
REMARK minimizedAffinity 15.1348906
REMARK minimizedRMSD -1
REMARK  1 active torsions:
REMARK  status: ('A' for Active; 'I' for Inactive)
REMARK    1  A    between atoms: N_2  and  C1_3 
ROOT
ATOM      1  C1  UNL d   1       1.583   1.750   0.269  0.00  0.00     0.143 A 
ATOM      2  C2  UNL d   1       0.892   0.552   0.481  0.00  0.00    -0.057 A 
ATOM      3  C3  UNL d   1       1.504  -0.539   1.110  0.00  0.00     0.033 A 
ATOM      4  C4  UNL d   1       2.833  -0.460   1.514  0.00  0.00    -0.042 A 
ATOM      5  C5  UNL d   1       3.547   0.712   1.292  0.00  0.00     0.033 A 
ATOM      6  C6  UNL d   1       2.928   1.800   0.669  0.00  0.00    -0.057 A 
ENDROOT
BRANCH   1   7
ATOM      7  N   UNL d   1       1.061   2.835  -0.438  0.00  0.00    -0.732 N 
ATOM      8  C   UNL d   1       0.459   2.645  -1.741  0.00  0.00     0.284 C 
ATOM      9  H3  UNL d   1       0.558   3.484   0.162  0.00  0.00     0.395 HD
ENDBRANCH   1   7
TORSDOF 1
ENDMDL
