MODEL 1
REMARK minimizedAffinity 10.2546415
REMARK minimizedRMSD -1
REMARK  1 active torsions:
REMARK  status: ('A' for Active; 'I' for Inactive)
REMARK    1  A    between atoms: N_2  and  C1_3 
ROOT
ATOM      1  C1  UNL d   1      -0.084   2.757  -1.111  0.00  0.00     0.143 A 
ATOM      2  C2  UNL d   1       0.840   1.953  -0.433  0.00  0.00    -0.057 A 
ATOM      3  C3  UNL d   1       1.796   2.511   0.424  0.00  0.00     0.033 A 
ATOM      4  C4  UNL d   1       1.865   3.890   0.596  0.00  0.00    -0.042 A 
ATOM      5  C5  UNL d   1       0.974   4.709  -0.087  0.00  0.00     0.033 A 
ATOM      6  C6  UNL d   1       0.016   4.146  -0.936  0.00  0.00    -0.057 A 
ENDROOT
BRANCH   1   7
ATOM      7  N   UNL d   1      -0.995   2.271  -2.052  0.00  0.00    -0.732 N 
ATOM      8  C   UNL d   1      -1.585   3.156  -3.033  0.00  0.00     0.284 C 
ATOM      9  H3  UNL d   1      -0.724   1.362  -2.421  0.00  0.00     0.395 HD
ENDBRANCH   1   7
TORSDOF 1
ENDMDL
