MODEL 1
REMARK minimizedAffinity 8.95183468
REMARK minimizedRMSD -1
REMARK  1 active torsions:
REMARK  status: ('A' for Active; 'I' for Inactive)
REMARK    1  A    between atoms: N_2  and  C1_3 
ROOT
ATOM      1  C1  UNL d   1      -4.062  -4.825   3.941  0.00  0.00     0.143 A 
ATOM      2  C2  UNL d   1      -4.912  -5.922   4.115  0.00  0.00    -0.057 A 
ATOM      3  C3  UNL d   1      -5.882  -5.936   5.125  0.00  0.00     0.033 A 
ATOM      4  C4  UNL d   1      -5.999  -4.860   5.999  0.00  0.00    -0.042 A 
ATOM      5  C5  UNL d   1      -5.148  -3.770   5.860  0.00  0.00     0.033 A 
ATOM      6  C6  UNL d   1      -4.186  -3.759   4.846  0.00  0.00    -0.057 A 
ENDROOT
BRANCH   1   7
ATOM      7  N   UNL d   1      -3.012  -4.793   3.019  0.00  0.00    -0.732 N 
ATOM      8  C   UNL d   1      -2.283  -5.999   2.689  0.00  0.00     0.284 C 
ATOM      9  H3  UNL d   1      -3.217  -4.199   2.218  0.00  0.00     0.395 HD
ENDBRANCH   1   7
TORSDOF 1
ENDMDL
