MODEL 1
REMARK minimizedAffinity 11.9873438
REMARK minimizedRMSD -1
REMARK  1 active torsions:
REMARK  status: ('A' for Active; 'I' for Inactive)
REMARK    1  A    between atoms: N_2  and  C1_3 
ROOT
ATOM      1  C1  UNL d   1       0.266  -3.301   1.769  0.00  0.00     0.143 A 
ATOM      2  C2  UNL d   1      -0.985  -3.094   2.361  0.00  0.00    -0.057 A 
ATOM      3  C3  UNL d   1      -1.468  -1.803   2.603  0.00  0.00     0.033 A 
ATOM      4  C4  UNL d   1      -0.694  -0.692   2.283  0.00  0.00    -0.042 A 
ATOM      5  C5  UNL d   1       0.563  -0.875   1.718  0.00  0.00     0.033 A 
ATOM      6  C6  UNL d   1       1.037  -2.167   1.472  0.00  0.00    -0.057 A 
ENDROOT
BRANCH   1   7
ATOM      7  N   UNL d   1       0.844  -4.561   1.593  0.00  0.00    -0.732 N 
ATOM      8  C   UNL d   1       0.658  -5.602   2.581  0.00  0.00     0.284 C 
ATOM      9  H3  UNL d   1       0.783  -4.885   0.631  0.00  0.00     0.395 HD
ENDBRANCH   1   7
TORSDOF 1
ENDMDL
