MODEL 1
REMARK minimizedAffinity 10.1491756
REMARK minimizedRMSD -1
REMARK  1 active torsions:
REMARK  status: ('A' for Active; 'I' for Inactive)
REMARK    1  A    between atoms: N_2  and  C1_3 
ROOT
ATOM      1  C1  UNL d   1      -1.293  -1.965   2.504  0.00  0.00     0.143 A 
ATOM      2  C2  UNL d   1      -0.627  -1.999   1.274  0.00  0.00    -0.057 A 
ATOM      3  C3  UNL d   1       0.529  -1.241   1.053  0.00  0.00     0.033 A 
ATOM      4  C4  UNL d   1       1.025  -0.410   2.052  0.00  0.00    -0.042 A 
ATOM      5  C5  UNL d   1       0.365  -0.341   3.274  0.00  0.00     0.033 A 
ATOM      6  C6  UNL d   1      -0.785  -1.106   3.491  0.00  0.00    -0.057 A 
ENDROOT
BRANCH   1   7
ATOM      7  N   UNL d   1      -2.502  -2.620   2.753  0.00  0.00    -0.732 N 
ATOM      8  C   UNL d   1      -3.463  -2.823   1.690  0.00  0.00     0.284 C 
ATOM      9  H3  UNL d   1      -2.391  -3.420   3.371  0.00  0.00     0.395 HD
ENDBRANCH   1   7
TORSDOF 1
ENDMDL
