MODEL 1
REMARK minimizedAffinity 14.6399326
REMARK minimizedRMSD -1
REMARK  1 active torsions:
REMARK  status: ('A' for Active; 'I' for Inactive)
REMARK    1  A    between atoms: N_2  and  C1_3 
ROOT
ATOM      1  C1  UNL d   1       4.274   0.427  -0.450  0.00  0.00     0.143 A 
ATOM      2  C2  UNL d   1       4.116  -0.948  -0.657  0.00  0.00    -0.057 A 
ATOM      3  C3  UNL d   1       4.612  -1.570  -1.808  0.00  0.00     0.033 A 
ATOM      4  C4  UNL d   1       5.252  -0.822  -2.791  0.00  0.00    -0.042 A 
ATOM      5  C5  UNL d   1       5.398   0.550  -2.618  0.00  0.00     0.033 A 
ATOM      6  C6  UNL d   1       4.907   1.165  -1.463  0.00  0.00    -0.057 A 
ENDROOT
BRANCH   1   7
ATOM      7  N   UNL d   1       3.717   1.121   0.627  0.00  0.00    -0.732 N 
ATOM      8  C   UNL d   1       2.941   0.424   1.630  0.00  0.00     0.284 C 
ATOM      9  H3  UNL d   1       4.348   1.824   1.004  0.00  0.00     0.395 HD
ENDBRANCH   1   7
TORSDOF 1
ENDMDL
