MODEL 1
REMARK minimizedAffinity 15.2815514
REMARK minimizedRMSD -1
REMARK  1 active torsions:
REMARK  status: ('A' for Active; 'I' for Inactive)
REMARK    1  A    between atoms: N_2  and  C1_3 
ROOT
ATOM      1  C1  UNL d   1       1.740  -0.394   2.193  0.00  0.00     0.143 A 
ATOM      2  C2  UNL d   1       0.606  -0.222   2.994  0.00  0.00    -0.057 A 
ATOM      3  C3  UNL d   1      -0.455  -1.135   2.956  0.00  0.00     0.033 A 
ATOM      4  C4  UNL d   1      -0.413  -2.223   2.090  0.00  0.00    -0.042 A 
ATOM      5  C5  UNL d   1       0.693  -2.400   1.267  0.00  0.00     0.033 A 
ATOM      6  C6  UNL d   1       1.752  -1.489   1.314  0.00  0.00    -0.057 A 
ENDROOT
BRANCH   1   7
ATOM      7  N   UNL d   1       2.784   0.532   2.114  0.00  0.00    -0.732 N 
ATOM      8  C   UNL d   1       2.968   1.336   0.925  0.00  0.00     0.284 C 
ATOM      9  H3  UNL d   1       2.919   1.040   2.984  0.00  0.00     0.395 HD
ENDBRANCH   1   7
TORSDOF 1
ENDMDL
