MODEL 1
REMARK minimizedAffinity 4.88067865
REMARK minimizedRMSD -1
REMARK  1 active torsions:
REMARK  status: ('A' for Active; 'I' for Inactive)
REMARK    1  A    between atoms: N_2  and  C1_3 
ROOT
ATOM      1  C1  UNL d   1       2.369  -4.452  -6.000  0.00  0.00     0.143 A 
ATOM      2  C2  UNL d   1       2.923  -3.167  -5.975  0.00  0.00    -0.057 A 
ATOM      3  C3  UNL d   1       4.309  -2.974  -5.989  0.00  0.00     0.033 A 
ATOM      4  C4  UNL d   1       5.170  -4.067  -5.999  0.00  0.00    -0.042 A 
ATOM      5  C5  UNL d   1       4.642  -5.353  -5.999  0.00  0.00     0.033 A 
ATOM      6  C6  UNL d   1       3.256  -5.540  -5.991  0.00  0.00    -0.057 A 
ENDROOT
BRANCH   1   7
ATOM      7  N   UNL d   1       1.001  -4.712  -5.888  0.00  0.00    -0.732 N 
ATOM      8  C   UNL d   1       0.506  -5.648  -4.901  0.00  0.00     0.284 C 
ATOM      9  H3  UNL d   1       0.437  -3.870  -5.982  0.00  0.00     0.395 HD
ENDBRANCH   1   7
TORSDOF 1
ENDMDL
