MODEL 1
REMARK minimizedAffinity 9.13365841
REMARK minimizedRMSD -1
REMARK  1 active torsions:
REMARK  status: ('A' for Active; 'I' for Inactive)
REMARK    1  A    between atoms: N_2  and  C1_3 
ROOT
ATOM      1  C1  UNL d   1      -3.145   3.365  -3.356  0.00  0.00     0.143 A 
ATOM      2  C2  UNL d   1      -2.431   3.877  -4.445  0.00  0.00    -0.057 A 
ATOM      3  C3  UNL d   1      -1.909   5.176  -4.425  0.00  0.00     0.033 A 
ATOM      4  C4  UNL d   1      -2.119   6.000  -3.324  0.00  0.00    -0.042 A 
ATOM      5  C5  UNL d   1      -2.847   5.521  -2.241  0.00  0.00     0.033 A 
ATOM      6  C6  UNL d   1      -3.360   4.220  -2.264  0.00  0.00    -0.057 A 
ENDROOT
BRANCH   1   7
ATOM      7  N   UNL d   1      -3.773   2.117  -3.355  0.00  0.00    -0.732 N 
ATOM      8  C   UNL d   1      -5.216   2.018  -3.312  0.00  0.00     0.284 C 
ATOM      9  H3  UNL d   1      -3.330   1.459  -3.991  0.00  0.00     0.395 HD
ENDBRANCH   1   7
TORSDOF 1
ENDMDL
