MODEL 1
REMARK minimizedAffinity 1.76741946
REMARK minimizedRMSD -1
REMARK  1 active torsions:
REMARK  status: ('A' for Active; 'I' for Inactive)
REMARK    1  A    between atoms: N_2  and  C1_3 
ROOT
ATOM      1  C1  UNL d   1      -4.061  -4.701   0.781  0.00  0.00     0.143 A 
ATOM      2  C2  UNL d   1      -4.478  -5.738   1.622  0.00  0.00    -0.057 A 
ATOM      3  C3  UNL d   1      -4.538  -5.568   3.010  0.00  0.00     0.033 A 
ATOM      4  C4  UNL d   1      -4.153  -4.362   3.586  0.00  0.00    -0.042 A 
ATOM      5  C5  UNL d   1      -3.711  -3.325   2.772  0.00  0.00     0.033 A 
ATOM      6  C6  UNL d   1      -3.659  -3.499   1.386  0.00  0.00    -0.057 A 
ENDROOT
BRANCH   1   7
ATOM      7  N   UNL d   1      -3.886  -4.840  -0.598  0.00  0.00    -0.732 N 
ATOM      8  C   UNL d   1      -4.690  -5.778  -1.352  0.00  0.00     0.284 C 
ATOM      9  H3  UNL d   1      -3.743  -3.947  -1.064  0.00  0.00     0.395 HD
ENDBRANCH   1   7
TORSDOF 1
ENDMDL
