MODEL 1
REMARK minimizedAffinity -1.98822284
REMARK minimizedRMSD -1
REMARK  1 active torsions:
REMARK  status: ('A' for Active; 'I' for Inactive)
REMARK    1  A    between atoms: N_2  and  C1_3 
ROOT
ATOM      1  C1  UNL d   1      -5.290  -5.349  -0.320  0.00  0.00     0.143 A 
ATOM      2  C2  UNL d   1      -4.125  -5.999   0.104  0.00  0.00    -0.057 A 
ATOM      3  C3  UNL d   1      -3.710  -5.948   1.440  0.00  0.00     0.033 A 
ATOM      4  C4  UNL d   1      -4.440  -5.220   2.374  0.00  0.00    -0.042 A 
ATOM      5  C5  UNL d   1      -5.587  -4.546   1.971  0.00  0.00     0.033 A 
ATOM      6  C6  UNL d   1      -6.000  -4.606   0.636  0.00  0.00    -0.057 A 
ENDROOT
BRANCH   1   7
ATOM      7  N   UNL d   1      -5.701  -5.280  -1.653  0.00  0.00    -0.732 N 
ATOM      8  C   UNL d   1      -4.979  -5.993  -2.685  0.00  0.00     0.284 C 
ATOM      9  H3  UNL d   1      -6.713  -5.321  -1.750  0.00  0.00     0.395 HD
ENDBRANCH   1   7
TORSDOF 1
ENDMDL
