MODEL 1
REMARK minimizedAffinity 7.98109627
REMARK minimizedRMSD -1
REMARK  1 active torsions:
REMARK  status: ('A' for Active; 'I' for Inactive)
REMARK    1  A    between atoms: C1_2  and  C2_3 
ROOT
ATOM      1  C2  UNL d   1      -5.850  -3.071  -3.992  0.00  0.00    -0.081 A 
ATOM      2  C3  UNL d   1      -6.000  -1.767  -3.505  0.00  0.00     0.006 A 
ATOM      3  C4  UNL d   1      -5.803  -1.490  -2.150  0.00  0.00     0.002 A 
ATOM      4  C5  UNL d   1      -5.445  -2.510  -1.262  0.00  0.00    -0.080 A 
ATOM      5  C6  UNL d   1      -5.200  -2.221   0.189  0.00  0.00     0.076 C 
ATOM      6  C7  UNL d   1      -5.312  -3.816  -1.745  0.00  0.00     0.002 A 
ATOM      7  C8  UNL d   1      -5.509  -4.093  -3.100  0.00  0.00     0.006 A 
ENDROOT
BRANCH   1   8
ATOM      8  C1  UNL d   1      -5.998  -3.361  -5.464  0.00  0.00     0.054 C 
ATOM      9  C   UNL d   1      -4.800  -4.131  -6.000  0.00  0.00     0.018 C 
ENDBRANCH   1   8
TORSDOF 1
ENDMDL
