MODEL 1
REMARK minimizedAffinity 2.5931139
REMARK minimizedRMSD -1
REMARK  1 active torsions:
REMARK  status: ('A' for Active; 'I' for Inactive)
REMARK    1  A    between atoms: C1_2  and  C2_3 
ROOT
ATOM      1  C2  UNL d   1      -2.777   1.482   1.879  0.00  0.00    -0.081 A 
ATOM      2  C3  UNL d   1      -2.539   2.812   2.249  0.00  0.00     0.006 A 
ATOM      3  C4  UNL d   1      -3.576   3.746   2.239  0.00  0.00     0.002 A 
ATOM      4  C5  UNL d   1      -4.870   3.367   1.867  0.00  0.00    -0.080 A 
ATOM      5  C6  UNL d   1      -6.000   4.353   1.881  0.00  0.00     0.076 C 
ATOM      6  C7  UNL d   1      -5.105   2.043   1.480  0.00  0.00     0.002 A 
ATOM      7  C8  UNL d   1      -4.068   1.108   1.489  0.00  0.00     0.006 A 
ENDROOT
BRANCH   1   8
ATOM      8  C1  UNL d   1      -1.674   0.457   1.950  0.00  0.00     0.054 C 
ATOM      9  C   UNL d   1      -1.840  -0.450   3.161  0.00  0.00     0.018 C 
ENDBRANCH   1   8
TORSDOF 1
ENDMDL
