MODEL 1
REMARK minimizedAffinity 9.8744278
REMARK minimizedRMSD -1
REMARK  1 active torsions:
REMARK  status: ('A' for Active; 'I' for Inactive)
REMARK    1  A    between atoms: C1_2  and  C2_3 
ROOT
ATOM      1  C2  UNL d   1      -4.533   0.060   1.428  0.00  0.00    -0.081 A 
ATOM      2  C3  UNL d   1      -4.316   1.442   1.495  0.00  0.00     0.006 A 
ATOM      3  C4  UNL d   1      -3.026   1.949   1.668  0.00  0.00     0.002 A 
ATOM      4  C5  UNL d   1      -1.931   1.084   1.770  0.00  0.00    -0.080 A 
ATOM      5  C6  UNL d   1      -0.538   1.616   1.927  0.00  0.00     0.076 C 
ATOM      6  C7  UNL d   1      -2.150  -0.297   1.721  0.00  0.00     0.002 A 
ATOM      7  C8  UNL d   1      -3.440  -0.804   1.548  0.00  0.00     0.006 A 
ENDROOT
BRANCH   1   8
ATOM      8  C1  UNL d   1      -5.915  -0.487   1.176  0.00  0.00     0.054 C 
ATOM      9  C   UNL d   1      -5.855  -1.862   0.526  0.00  0.00     0.018 C 
ENDBRANCH   1   8
TORSDOF 1
ENDMDL
