MODEL 1
REMARK minimizedAffinity 7.37154722
REMARK minimizedRMSD -1
REMARK  1 active torsions:
REMARK  status: ('A' for Active; 'I' for Inactive)
REMARK    1  A    between atoms: C1_2  and  C2_3 
ROOT
ATOM      1  C2  UNL d   1      -5.436  -2.765  -4.597  0.00  0.00    -0.081 A 
ATOM      2  C3  UNL d   1      -4.955  -1.485  -4.296  0.00  0.00     0.006 A 
ATOM      3  C4  UNL d   1      -4.991  -1.006  -2.984  0.00  0.00     0.002 A 
ATOM      4  C5  UNL d   1      -5.501  -1.800  -1.952  0.00  0.00    -0.080 A 
ATOM      5  C6  UNL d   1      -5.518  -1.309  -0.535  0.00  0.00     0.076 C 
ATOM      6  C7  UNL d   1      -5.998  -3.072  -2.256  0.00  0.00     0.002 A 
ATOM      7  C8  UNL d   1      -5.963  -3.552  -3.567  0.00  0.00     0.006 A 
ENDROOT
BRANCH   1   8
ATOM      8  C1  UNL d   1      -5.339  -3.310  -6.000  0.00  0.00     0.054 C 
ATOM      9  C   UNL d   1      -4.899  -4.767  -5.998  0.00  0.00     0.018 C 
ENDBRANCH   1   8
TORSDOF 1
ENDMDL
