MODEL 1
REMARK minimizedAffinity 3.43420911
REMARK minimizedRMSD -1
REMARK  1 active torsions:
REMARK  status: ('A' for Active; 'I' for Inactive)
REMARK    1  A    between atoms: C1_2  and  C2_3 
ROOT
ATOM      1  C2  UNL d   1      -5.865  -2.978  -4.118  0.00  0.00    -0.081 A 
ATOM      2  C3  UNL d   1      -5.737  -1.633  -3.748  0.00  0.00     0.006 A 
ATOM      3  C4  UNL d   1      -5.616  -1.278  -2.402  0.00  0.00     0.002 A 
ATOM      4  C5  UNL d   1      -5.614  -2.260  -1.406  0.00  0.00    -0.080 A 
ATOM      5  C6  UNL d   1      -5.455  -1.894   0.040  0.00  0.00     0.076 C 
ATOM      6  C7  UNL d   1      -5.760  -3.602  -1.774  0.00  0.00     0.002 A 
ATOM      7  C8  UNL d   1      -5.881  -3.958  -3.119  0.00  0.00     0.006 A 
ENDROOT
BRANCH   1   8
ATOM      8  C1  UNL d   1      -5.931  -3.370  -5.572  0.00  0.00     0.054 C 
ATOM      9  C   UNL d   1      -4.681  -4.126  -5.998  0.00  0.00     0.018 C 
ENDBRANCH   1   8
TORSDOF 1
ENDMDL
