MODEL 1
REMARK minimizedAffinity 9.22231293
REMARK minimizedRMSD -1
REMARK  1 active torsions:
REMARK  status: ('A' for Active; 'I' for Inactive)
REMARK    1  A    between atoms: C1_2  and  C2_3 
ROOT
ATOM      1  C2  UNL d   1      -5.320  -2.151  -4.194  0.00  0.00    -0.081 A 
ATOM      2  C3  UNL d   1      -5.781  -3.382  -3.710  0.00  0.00     0.006 A 
ATOM      3  C4  UNL d   1      -5.990  -3.571  -2.342  0.00  0.00     0.002 A 
ATOM      4  C5  UNL d   1      -5.750  -2.531  -1.437  0.00  0.00    -0.080 A 
ATOM      5  C6  UNL d   1      -6.000  -2.711   0.031  0.00  0.00     0.076 C 
ATOM      6  C7  UNL d   1      -5.273  -1.308  -1.918  0.00  0.00     0.002 A 
ATOM      7  C8  UNL d   1      -5.063  -1.118  -3.286  0.00  0.00     0.006 A 
ENDROOT
BRANCH   1   8
ATOM      8  C1  UNL d   1      -5.155  -1.924  -5.675  0.00  0.00     0.054 C 
ATOM      9  C   UNL d   1      -3.773  -1.376  -6.000  0.00  0.00     0.018 C 
ENDBRANCH   1   8
TORSDOF 1
ENDMDL
