MODEL 1
REMARK minimizedAffinity 6.4654417
REMARK minimizedRMSD -1
REMARK  1 active torsions:
REMARK  status: ('A' for Active; 'I' for Inactive)
REMARK    1  A    between atoms: C1_2  and  C2_3 
ROOT
ATOM      1  C2  UNL d   1      -2.495  -1.282   0.088  0.00  0.00    -0.081 A 
ATOM      2  C3  UNL d   1      -1.903  -0.185  -0.548  0.00  0.00     0.006 A 
ATOM      3  C4  UNL d   1      -1.451   0.907   0.197  0.00  0.00     0.002 A 
ATOM      4  C5  UNL d   1      -1.576   0.916   1.590  0.00  0.00    -0.080 A 
ATOM      5  C6  UNL d   1      -1.067   2.068   2.404  0.00  0.00     0.076 C 
ATOM      6  C7  UNL d   1      -2.183  -0.173   2.225  0.00  0.00     0.002 A 
ATOM      7  C8  UNL d   1      -2.636  -1.264   1.480  0.00  0.00     0.006 A 
ENDROOT
BRANCH   1   8
ATOM      8  C1  UNL d   1      -2.925  -2.489  -0.706  0.00  0.00     0.054 C 
ATOM      9  C   UNL d   1      -1.934  -3.634  -0.553  0.00  0.00     0.018 C 
ENDBRANCH   1   8
TORSDOF 1
ENDMDL
