MODEL 1
REMARK minimizedAffinity 16.0115814
REMARK minimizedRMSD -1
REMARK  1 active torsions:
REMARK  status: ('A' for Active; 'I' for Inactive)
REMARK    1  A    between atoms: C1_2  and  C2_3 
ROOT
ATOM      1  C2  UNL d   1       1.002  -0.188  -3.750  0.00  0.00    -0.081 A 
ATOM      2  C3  UNL d   1       0.392   0.282  -4.919  0.00  0.00     0.006 A 
ATOM      3  C4  UNL d   1      -0.458  -0.545  -5.657  0.00  0.00     0.002 A 
ATOM      4  C5  UNL d   1      -0.719  -1.852  -5.234  0.00  0.00    -0.080 A 
ATOM      5  C6  UNL d   1      -1.654  -2.740  -6.000  0.00  0.00     0.076 C 
ATOM      6  C7  UNL d   1      -0.097  -2.328  -4.075  0.00  0.00     0.002 A 
ATOM      7  C8  UNL d   1       0.754  -1.502  -3.337  0.00  0.00     0.006 A 
ENDROOT
BRANCH   1   8
ATOM      8  C1  UNL d   1       1.868   0.722  -2.917  0.00  0.00     0.054 C 
ATOM      9  C   UNL d   1       1.052   1.442  -1.854  0.00  0.00     0.018 C 
ENDBRANCH   1   8
TORSDOF 1
ENDMDL
