MODEL 1
REMARK minimizedAffinity 11.0473557
REMARK minimizedRMSD -1
REMARK  1 active torsions:
REMARK  status: ('A' for Active; 'I' for Inactive)
REMARK    1  A    between atoms: C1_2  and  C2_3 
ROOT
ATOM      1  C2  UNL d   1       4.463   0.799  -4.510  0.00  0.00    -0.081 A 
ATOM      2  C3  UNL d   1       3.895   1.466  -5.602  0.00  0.00     0.006 A 
ATOM      3  C4  UNL d   1       4.379   2.715  -6.000  0.00  0.00     0.002 A 
ATOM      4  C5  UNL d   1       5.443   3.313  -5.318  0.00  0.00    -0.080 A 
ATOM      5  C6  UNL d   1       5.992   4.639  -5.753  0.00  0.00     0.076 C 
ATOM      6  C7  UNL d   1       6.000   2.655  -4.216  0.00  0.00     0.002 A 
ATOM      7  C8  UNL d   1       5.516   1.407  -3.817  0.00  0.00     0.006 A 
ENDROOT
BRANCH   1   8
ATOM      8  C1  UNL d   1       3.986  -0.576  -4.118  0.00  0.00     0.054 C 
ATOM      9  C   UNL d   1       2.507  -0.568  -3.760  0.00  0.00     0.018 C 
ENDBRANCH   1   8
TORSDOF 1
ENDMDL
