MODEL 1
REMARK minimizedAffinity 7.05127954
REMARK minimizedRMSD -1
REMARK  1 active torsions:
REMARK  status: ('A' for Active; 'I' for Inactive)
REMARK    1  A    between atoms: C1_2  and  C2_3 
ROOT
ATOM      1  C2  UNL d   1       1.748   0.071  -3.258  0.00  0.00    -0.081 A 
ATOM      2  C3  UNL d   1       1.858   1.204  -2.442  0.00  0.00     0.006 A 
ATOM      3  C4  UNL d   1       0.723   1.944  -2.102  0.00  0.00     0.002 A 
ATOM      4  C5  UNL d   1      -0.540   1.560  -2.565  0.00  0.00    -0.080 A 
ATOM      5  C6  UNL d   1      -1.770   2.328  -2.182  0.00  0.00     0.076 C 
ATOM      6  C7  UNL d   1      -0.648   0.438  -3.394  0.00  0.00     0.002 A 
ATOM      7  C8  UNL d   1       0.487  -0.302  -3.735  0.00  0.00     0.006 A 
ENDROOT
BRANCH   1   8
ATOM      8  C1  UNL d   1       2.961  -0.766  -3.573  0.00  0.00     0.054 C 
ATOM      9  C   UNL d   1       2.588  -1.995  -4.390  0.00  0.00     0.018 C 
ENDBRANCH   1   8
TORSDOF 1
ENDMDL
