MODEL 1
REMARK minimizedAffinity 3.51356769
REMARK minimizedRMSD -1
REMARK  1 active torsions:
REMARK  status: ('A' for Active; 'I' for Inactive)
REMARK    1  A    between atoms: C1_2  and  C2_3 
ROOT
ATOM      1  C2  UNL d   1       3.463   1.638   0.658  0.00  0.00    -0.081 A 
ATOM      2  C3  UNL d   1       2.908   0.836   1.662  0.00  0.00     0.006 A 
ATOM      3  C4  UNL d   1       3.723   0.017   2.447  0.00  0.00     0.002 A 
ATOM      4  C5  UNL d   1       5.107  -0.008   2.245  0.00  0.00    -0.080 A 
ATOM      5  C6  UNL d   1       5.997  -0.860   3.101  0.00  0.00     0.076 C 
ATOM      6  C7  UNL d   1       5.661   0.780   1.230  0.00  0.00     0.002 A 
ATOM      7  C8  UNL d   1       4.846   1.599   0.445  0.00  0.00     0.006 A 
ENDROOT
BRANCH   1   8
ATOM      8  C1  UNL d   1       2.594   2.571  -0.146  0.00  0.00     0.054 C 
ATOM      9  C   UNL d   1       2.244   1.972  -1.501  0.00  0.00     0.018 C 
ENDBRANCH   1   8
TORSDOF 1
ENDMDL
