MODEL 1
REMARK minimizedAffinity 9.82928658
REMARK minimizedRMSD -1
REMARK  1 active torsions:
REMARK  status: ('A' for Active; 'I' for Inactive)
REMARK    1  A    between atoms: C1_2  and  C2_3 
ROOT
ATOM      1  C2  UNL d   1      -3.744   0.361   2.654  0.00  0.00    -0.081 A 
ATOM      2  C3  UNL d   1      -2.831  -0.494   3.284  0.00  0.00     0.006 A 
ATOM      3  C4  UNL d   1      -1.464  -0.390   3.019  0.00  0.00     0.002 A 
ATOM      4  C5  UNL d   1      -0.985   0.575   2.127  0.00  0.00    -0.080 A 
ATOM      5  C6  UNL d   1       0.483   0.718   1.857  0.00  0.00     0.076 C 
ATOM      6  C7  UNL d   1      -1.898   1.418   1.484  0.00  0.00     0.002 A 
ATOM      7  C8  UNL d   1      -3.265   1.314   1.748  0.00  0.00     0.006 A 
ENDROOT
BRANCH   1   8
ATOM      8  C1  UNL d   1      -5.212   0.294   2.986  0.00  0.00     0.054 C 
ATOM      9  C   UNL d   1      -5.999  -0.392   1.879  0.00  0.00     0.018 C 
ENDBRANCH   1   8
TORSDOF 1
ENDMDL
