MODEL 1
REMARK minimizedAffinity -3.75780964
REMARK minimizedRMSD -1
REMARK  1 active torsions:
REMARK  status: ('A' for Active; 'I' for Inactive)
REMARK    1  A    between atoms: N_2  and  C1_3 
ROOT
ATOM      1  C1  UNL d   1       0.378  -0.186  -0.157  0.00  0.00     0.143 A 
ATOM      2  C2  UNL d   1       1.003  -0.104   1.092  0.00  0.00    -0.057 A 
ATOM      3  C3  UNL d   1       0.546   0.781   2.076  0.00  0.00     0.033 A 
ATOM      4  C4  UNL d   1      -0.531   1.623   1.817  0.00  0.00    -0.042 A 
ATOM      5  C5  UNL d   1      -1.151   1.576   0.573  0.00  0.00     0.033 A 
ATOM      6  C6  UNL d   1      -0.694   0.686  -0.402  0.00  0.00    -0.057 A 
ENDROOT
BRANCH   1   7
ATOM      7  N   UNL d   1       0.846  -0.975  -1.210  0.00  0.00    -0.732 N 
ATOM      8  C   UNL d   1       0.433  -2.357  -1.337  0.00  0.00     0.284 C 
ATOM      9  H3  UNL d   1       0.877  -0.468  -2.091  0.00  0.00     0.395 HD
ENDBRANCH   1   7
TORSDOF 1
ENDMDL
