MODEL 1
REMARK minimizedAffinity -3.79772162
REMARK minimizedRMSD -1
REMARK  1 active torsions:
REMARK  status: ('A' for Active; 'I' for Inactive)
REMARK    1  A    between atoms: N_2  and  C1_3 
ROOT
ATOM      1  C1  UNL d   1       0.272  -0.520   0.097  0.00  0.00     0.143 A 
ATOM      2  C2  UNL d   1       1.080  -0.590   1.237  0.00  0.00    -0.057 A 
ATOM      3  C3  UNL d   1       0.922   0.313   2.296  0.00  0.00     0.033 A 
ATOM      4  C4  UNL d   1      -0.030   1.324   2.219  0.00  0.00    -0.042 A 
ATOM      5  C5  UNL d   1      -0.827   1.429   1.085  0.00  0.00     0.033 A 
ATOM      6  C6  UNL d   1      -0.670   0.519   0.034  0.00  0.00    -0.057 A 
ENDROOT
BRANCH   1   7
ATOM      7  N   UNL d   1       0.446  -1.327  -1.030  0.00  0.00    -0.732 N 
ATOM      8  C   UNL d   1      -0.226  -2.604  -1.132  0.00  0.00     0.284 C 
ATOM      9  H3  UNL d   1       0.453  -0.790  -1.894  0.00  0.00     0.395 HD
ENDBRANCH   1   7
TORSDOF 1
ENDMDL
