MODEL 1
REMARK minimizedAffinity -2.76106572
REMARK minimizedRMSD -1
REMARK  1 active torsions:
REMARK  status: ('A' for Active; 'I' for Inactive)
REMARK    1  A    between atoms: N_2  and  C1_3 
ROOT
ATOM      1  C1  UNL d   1      -0.211   0.870   1.098  0.00  0.00     0.143 A 
ATOM      2  C2  UNL d   1       0.538  -0.157   1.684  0.00  0.00    -0.057 A 
ATOM      3  C3  UNL d   1       1.070  -1.197   0.913  0.00  0.00     0.033 A 
ATOM      4  C4  UNL d   1       0.839  -1.245  -0.458  0.00  0.00    -0.042 A 
ATOM      5  C5  UNL d   1       0.077  -0.248  -1.057  0.00  0.00     0.033 A 
ATOM      6  C6  UNL d   1      -0.447   0.792  -0.283  0.00  0.00    -0.057 A 
ENDROOT
BRANCH   1   7
ATOM      7  N   UNL d   1      -0.850   1.878   1.825  0.00  0.00    -0.732 N 
ATOM      8  C   UNL d   1      -2.252   2.164   1.612  0.00  0.00     0.284 C 
ATOM      9  H3  UNL d   1      -0.566   1.892   2.802  0.00  0.00     0.395 HD
ENDBRANCH   1   7
TORSDOF 1
ENDMDL
