MODEL 1
REMARK minimizedAffinity -3.51127791
REMARK minimizedRMSD -1
REMARK  1 active torsions:
REMARK  status: ('A' for Active; 'I' for Inactive)
REMARK    1  A    between atoms: N_2  and  C1_3 
ROOT
ATOM      1  C1  UNL d   1      -0.157   1.894   1.227  0.00  0.00     0.143 A 
ATOM      2  C2  UNL d   1       0.743   1.022   1.851  0.00  0.00    -0.057 A 
ATOM      3  C3  UNL d   1       0.946  -0.277   1.370  0.00  0.00     0.033 A 
ATOM      4  C4  UNL d   1       0.229  -0.739   0.271  0.00  0.00    -0.042 A 
ATOM      5  C5  UNL d   1      -0.688   0.102  -0.349  0.00  0.00     0.033 A 
ATOM      6  C6  UNL d   1      -0.882   1.400   0.131  0.00  0.00    -0.057 A 
ENDROOT
BRANCH   1   7
ATOM      7  N   UNL d   1      -0.475   3.163   1.716  0.00  0.00    -0.732 N 
ATOM      8  C   UNL d   1      -1.767   3.755   1.443  0.00  0.00     0.284 C 
ATOM      9  H3  UNL d   1      -0.144   3.307   2.667  0.00  0.00     0.395 HD
ENDBRANCH   1   7
TORSDOF 1
ENDMDL
