MODEL 1
REMARK minimizedAffinity -5.51338577
REMARK minimizedRMSD -1
REMARK  1 active torsions:
REMARK  status: ('A' for Active; 'I' for Inactive)
REMARK    1  A    between atoms: N_2  and  C1_3 
ROOT
ATOM      1  C1  UNL d   1       0.011   0.506   0.492  0.00  0.00     0.143 A 
ATOM      2  C2  UNL d   1      -0.182   0.769   1.853  0.00  0.00    -0.057 A 
ATOM      3  C3  UNL d   1      -0.725   1.984   2.288  0.00  0.00     0.033 A 
ATOM      4  C4  UNL d   1      -1.059   2.972   1.368  0.00  0.00    -0.042 A 
ATOM      5  C5  UNL d   1      -0.853   2.743   0.012  0.00  0.00     0.033 A 
ATOM      6  C6  UNL d   1      -0.316   1.524  -0.416  0.00  0.00    -0.057 A 
ENDROOT
BRANCH   1   7
ATOM      7  N   UNL d   1       0.638  -0.643   0.003  0.00  0.00    -0.732 N 
ATOM      8  C   UNL d   1       0.636  -0.937  -1.414  0.00  0.00     0.284 C 
ATOM      9  H3  UNL d   1       1.525  -0.828   0.466  0.00  0.00     0.395 HD
ENDBRANCH   1   7
TORSDOF 1
ENDMDL
