MODEL 1
REMARK minimizedAffinity -4.66340208
REMARK minimizedRMSD -1
REMARK  1 active torsions:
REMARK  status: ('A' for Active; 'I' for Inactive)
REMARK    1  A    between atoms: N_2  and  C1_3 
ROOT
ATOM      1  C1  UNL d   1       0.111  -0.157   0.256  0.00  0.00     0.143 A 
ATOM      2  C2  UNL d   1       0.696   0.103   1.500  0.00  0.00    -0.057 A 
ATOM      3  C3  UNL d   1       0.218   1.127   2.327  0.00  0.00     0.033 A 
ATOM      4  C4  UNL d   1      -0.839   1.929   1.910  0.00  0.00    -0.042 A 
ATOM      5  C5  UNL d   1      -1.420   1.705   0.667  0.00  0.00     0.033 A 
ATOM      6  C6  UNL d   1      -0.942   0.677  -0.151  0.00  0.00    -0.057 A 
ENDROOT
BRANCH   1   7
ATOM      7  N   UNL d   1       0.604  -1.096  -0.654  0.00  0.00    -0.732 N 
ATOM      8  C   UNL d   1      -0.187  -2.250  -1.024  0.00  0.00     0.284 C 
ATOM      9  H3  UNL d   1       1.095  -0.662  -1.432  0.00  0.00     0.395 HD
ENDBRANCH   1   7
TORSDOF 1
ENDMDL
