MODEL 1
REMARK minimizedAffinity 4.02055264
REMARK minimizedRMSD -1
REMARK  1 active torsions:
REMARK  status: ('A' for Active; 'I' for Inactive)
REMARK    1  A    between atoms: N_2  and  C1_3 
ROOT
ATOM      1  C1  UNL d   1      -2.258   2.539  -1.064  0.00  0.00     0.143 A 
ATOM      2  C2  UNL d   1      -2.103   1.192  -1.407  0.00  0.00    -0.057 A 
ATOM      3  C3  UNL d   1      -0.861   0.553  -1.299  0.00  0.00     0.033 A 
ATOM      4  C4  UNL d   1       0.257   1.262  -0.872  0.00  0.00    -0.042 A 
ATOM      5  C5  UNL d   1       0.131   2.609  -0.550  0.00  0.00     0.033 A 
ATOM      6  C6  UNL d   1      -1.113   3.239  -0.653  0.00  0.00    -0.057 A 
ENDROOT
BRANCH   1   7
ATOM      7  N   UNL d   1      -3.444   3.256  -1.243  0.00  0.00    -0.732 N 
ATOM      8  C   UNL d   1      -3.781   3.812  -2.536  0.00  0.00     0.284 C 
ATOM      9  H3  UNL d   1      -4.230   2.834  -0.754  0.00  0.00     0.395 HD
ENDBRANCH   1   7
TORSDOF 1
ENDMDL
