MODEL 1
REMARK minimizedAffinity -0.54237628
REMARK minimizedRMSD -1
REMARK  1 active torsions:
REMARK  status: ('A' for Active; 'I' for Inactive)
REMARK    1  A    between atoms: N_2  and  C1_3 
ROOT
ATOM      1  C1  UNL d   1       2.309  -0.510  -1.134  0.00  0.00     0.143 A 
ATOM      2  C2  UNL d   1       1.206  -0.877  -0.356  0.00  0.00    -0.057 A 
ATOM      3  C3  UNL d   1       0.525   0.063   0.427  0.00  0.00     0.033 A 
ATOM      4  C4  UNL d   1       0.955   1.385   0.469  0.00  0.00    -0.042 A 
ATOM      5  C5  UNL d   1       2.065   1.767  -0.277  0.00  0.00     0.033 A 
ATOM      6  C6  UNL d   1       2.736   0.825  -1.062  0.00  0.00    -0.057 A 
ENDROOT
BRANCH   1   7
ATOM      7  N   UNL d   1       3.087  -1.417  -1.857  0.00  0.00    -0.732 N 
ATOM      8  C   UNL d   1       4.263  -2.016  -1.263  0.00  0.00     0.284 C 
ATOM      9  H3  UNL d   1       2.523  -2.063  -2.404  0.00  0.00     0.395 HD
ENDBRANCH   1   7
TORSDOF 1
ENDMDL
