MODEL 1
REMARK minimizedAffinity 4.42871666
REMARK minimizedRMSD -1
REMARK  1 active torsions:
REMARK  status: ('A' for Active; 'I' for Inactive)
REMARK    1  A    between atoms: N_2  and  C1_3 
ROOT
ATOM      1  C1  UNL d   1       1.641  -0.030  -0.635  0.00  0.00     0.143 A 
ATOM      2  C2  UNL d   1       3.032  -0.176  -0.615  0.00  0.00    -0.057 A 
ATOM      3  C3  UNL d   1       3.731  -0.628  -1.741  0.00  0.00     0.033 A 
ATOM      4  C4  UNL d   1       3.045  -0.971  -2.901  0.00  0.00    -0.042 A 
ATOM      5  C5  UNL d   1       1.660  -0.858  -2.935  0.00  0.00     0.033 A 
ATOM      6  C6  UNL d   1       0.968  -0.399  -1.810  0.00  0.00    -0.057 A 
ENDROOT
BRANCH   1   7
ATOM      7  N   UNL d   1       0.880   0.321   0.483  0.00  0.00    -0.732 N 
ATOM      8  C   UNL d   1       1.161   1.538   1.214  0.00  0.00     0.284 C 
ATOM      9  H3  UNL d   1      -0.112   0.135   0.351  0.00  0.00     0.395 HD
ENDBRANCH   1   7
TORSDOF 1
ENDMDL
