MODEL 1
REMARK minimizedAffinity -1.01329744
REMARK minimizedRMSD -1
REMARK  1 active torsions:
REMARK  status: ('A' for Active; 'I' for Inactive)
REMARK    1  A    between atoms: N_2  and  C1_3 
ROOT
ATOM      1  C1  UNL d   1      -4.245   0.568  -6.000  0.00  0.00     0.143 A 
ATOM      2  C2  UNL d   1      -5.411   1.341  -5.973  0.00  0.00    -0.057 A 
ATOM      3  C3  UNL d   1      -5.354   2.740  -5.987  0.00  0.00     0.033 A 
ATOM      4  C4  UNL d   1      -4.126   3.393  -5.998  0.00  0.00    -0.042 A 
ATOM      5  C5  UNL d   1      -2.954   2.645  -5.999  0.00  0.00     0.033 A 
ATOM      6  C6  UNL d   1      -3.017   1.248  -5.992  0.00  0.00    -0.057 A 
ENDROOT
BRANCH   1   7
ATOM      7  N   UNL d   1      -4.233  -0.824  -5.889  0.00  0.00    -0.732 N 
ATOM      8  C   UNL d   1      -5.464  -1.581  -5.961  0.00  0.00     0.284 C 
ATOM      9  H3  UNL d   1      -3.455  -1.247  -6.390  0.00  0.00     0.395 HD
ENDBRANCH   1   7
TORSDOF 1
ENDMDL
