MODEL 1
REMARK minimizedAffinity 4.74872065
REMARK minimizedRMSD -1
REMARK  1 active torsions:
REMARK  status: ('A' for Active; 'I' for Inactive)
REMARK    1  A    between atoms: N_2  and  C1_3 
ROOT
ATOM      1  C1  UNL d   1      -2.555   2.135  -5.924  0.00  0.00     0.143 A 
ATOM      2  C2  UNL d   1      -2.184   3.483  -5.950  0.00  0.00    -0.057 A 
ATOM      3  C3  UNL d   1      -3.146   4.500  -5.973  0.00  0.00     0.033 A 
ATOM      4  C4  UNL d   1      -4.501   4.184  -6.000  0.00  0.00    -0.042 A 
ATOM      5  C5  UNL d   1      -4.892   2.850  -6.000  0.00  0.00     0.033 A 
ATOM      6  C6  UNL d   1      -3.926   1.839  -5.970  0.00  0.00    -0.057 A 
ENDROOT
BRANCH   1   7
ATOM      7  N   UNL d   1      -1.645   1.077  -6.000  0.00  0.00    -0.732 N 
ATOM      8  C   UNL d   1      -0.773   0.773  -4.886  0.00  0.00     0.284 C 
ATOM      9  H3  UNL d   1      -2.041   0.257  -6.454  0.00  0.00     0.395 HD
ENDBRANCH   1   7
TORSDOF 1
ENDMDL
