MODEL 1
REMARK minimizedAffinity -1.23072255
REMARK minimizedRMSD -1
REMARK  1 active torsions:
REMARK  status: ('A' for Active; 'I' for Inactive)
REMARK    1  A    between atoms: N_2  and  C1_3 
ROOT
ATOM      1  C1  UNL d   1      -3.588   2.236  -5.894  0.00  0.00     0.143 A 
ATOM      2  C2  UNL d   1      -2.455   1.415  -5.932  0.00  0.00    -0.057 A 
ATOM      3  C3  UNL d   1      -2.571   0.021  -5.999  0.00  0.00     0.033 A 
ATOM      4  C4  UNL d   1      -3.825  -0.580  -5.999  0.00  0.00    -0.042 A 
ATOM      5  C5  UNL d   1      -4.964   0.215  -5.936  0.00  0.00     0.033 A 
ATOM      6  C6  UNL d   1      -4.842   1.607  -5.877  0.00  0.00    -0.057 A 
ENDROOT
BRANCH   1   7
ATOM      7  N   UNL d   1      -3.538   3.622  -5.728  0.00  0.00    -0.732 N 
ATOM      8  C   UNL d   1      -4.702   4.439  -5.998  0.00  0.00     0.284 C 
ATOM      9  H3  UNL d   1      -3.022   3.895  -4.895  0.00  0.00     0.395 HD
ENDBRANCH   1   7
TORSDOF 1
ENDMDL
