MODEL 1
REMARK minimizedAffinity -0.529041409
REMARK minimizedRMSD -1
REMARK  1 active torsions:
REMARK  status: ('A' for Active; 'I' for Inactive)
REMARK    1  A    between atoms: N_2  and  C1_3 
ROOT
ATOM      1  C1  UNL d   1      -3.250   2.228  -5.978  0.00  0.00     0.143 A 
ATOM      2  C2  UNL d   1      -4.515   2.824  -5.974  0.00  0.00    -0.057 A 
ATOM      3  C3  UNL d   1      -4.662   4.217  -6.000  0.00  0.00     0.033 A 
ATOM      4  C4  UNL d   1      -3.541   5.040  -6.000  0.00  0.00    -0.042 A 
ATOM      5  C5  UNL d   1      -2.273   4.470  -5.978  0.00  0.00     0.033 A 
ATOM      6  C6  UNL d   1      -2.133   3.079  -5.960  0.00  0.00    -0.057 A 
ENDROOT
BRANCH   1   7
ATOM      7  N   UNL d   1      -3.038   0.853  -5.855  0.00  0.00    -0.732 N 
ATOM      8  C   UNL d   1      -4.106  -0.022  -5.420  0.00  0.00     0.284 C 
ATOM      9  H3  UNL d   1      -2.475   0.476  -6.615  0.00  0.00     0.395 HD
ENDBRANCH   1   7
TORSDOF 1
ENDMDL
