MODEL 1
REMARK minimizedAffinity -0.422212303
REMARK minimizedRMSD -1
REMARK  1 active torsions:
REMARK  status: ('A' for Active; 'I' for Inactive)
REMARK    1  A    between atoms: N_2  and  C1_3 
ROOT
ATOM      1  C1  UNL d   1      -2.952   0.573  -5.999  0.00  0.00     0.143 A 
ATOM      2  C2  UNL d   1      -4.250   1.096  -5.998  0.00  0.00    -0.057 A 
ATOM      3  C3  UNL d   1      -4.477   2.478  -5.997  0.00  0.00     0.033 A 
ATOM      4  C4  UNL d   1      -3.405   3.364  -5.969  0.00  0.00    -0.042 A 
ATOM      5  C5  UNL d   1      -2.107   2.867  -5.945  0.00  0.00     0.033 A 
ATOM      6  C6  UNL d   1      -1.887   1.486  -5.952  0.00  0.00    -0.057 A 
ENDROOT
BRANCH   1   7
ATOM      7  N   UNL d   1      -2.663  -0.790  -5.900  0.00  0.00    -0.732 N 
ATOM      8  C   UNL d   1      -3.720  -1.775  -5.970  0.00  0.00     0.284 C 
ATOM      9  H3  UNL d   1      -1.821  -1.046  -6.411  0.00  0.00     0.395 HD
ENDBRANCH   1   7
TORSDOF 1
ENDMDL
