MODEL 1
REMARK minimizedAffinity -0.716507137
REMARK minimizedRMSD -1
REMARK  1 active torsions:
REMARK  status: ('A' for Active; 'I' for Inactive)
REMARK    1  A    between atoms: N_2  and  C1_3 
ROOT
ATOM      1  C1  UNL d   1      -3.250   2.886  -6.000  0.00  0.00     0.143 A 
ATOM      2  C2  UNL d   1      -4.243   1.901  -5.966  0.00  0.00    -0.057 A 
ATOM      3  C3  UNL d   1      -5.602   2.238  -5.977  0.00  0.00     0.033 A 
ATOM      4  C4  UNL d   1      -5.993   3.573  -5.992  0.00  0.00    -0.042 A 
ATOM      5  C5  UNL d   1      -5.024   4.570  -6.000  0.00  0.00     0.033 A 
ATOM      6  C6  UNL d   1      -3.668   4.226  -5.996  0.00  0.00    -0.057 A 
ENDROOT
BRANCH   1   7
ATOM      7  N   UNL d   1      -1.884   2.618  -5.892  0.00  0.00    -0.732 N 
ATOM      8  C   UNL d   1      -1.417   1.432  -5.206  0.00  0.00     0.284 C 
ATOM      9  H3  UNL d   1      -1.378   2.828  -6.749  0.00  0.00     0.395 HD
ENDBRANCH   1   7
TORSDOF 1
ENDMDL
