MODEL 1
REMARK minimizedAffinity -1.69670475
REMARK minimizedRMSD -1
REMARK  1 active torsions:
REMARK  status: ('A' for Active; 'I' for Inactive)
REMARK    1  A    between atoms: N_2  and  C1_3 
ROOT
ATOM      1  C1  UNL d   1      -4.322   1.418  -5.901  0.00  0.00     0.143 A 
ATOM      2  C2  UNL d   1      -3.023   1.937  -5.905  0.00  0.00    -0.057 A 
ATOM      3  C3  UNL d   1      -2.794   3.319  -5.929  0.00  0.00     0.033 A 
ATOM      4  C4  UNL d   1      -3.863   4.206  -5.978  0.00  0.00    -0.042 A 
ATOM      5  C5  UNL d   1      -5.162   3.711  -6.000  0.00  0.00     0.033 A 
ATOM      6  C6  UNL d   1      -5.385   2.331  -5.969  0.00  0.00    -0.057 A 
ENDROOT
BRANCH   1   7
ATOM      7  N   UNL d   1      -4.614   0.054  -5.977  0.00  0.00    -0.732 N 
ATOM      8  C   UNL d   1      -4.185  -0.852  -4.933  0.00  0.00     0.284 C 
ATOM      9  H3  UNL d   1      -5.555  -0.123  -6.320  0.00  0.00     0.395 HD
ENDBRANCH   1   7
TORSDOF 1
ENDMDL
