MODEL 1
REMARK minimizedAffinity -2.03334618
REMARK minimizedRMSD -1
REMARK  1 active torsions:
REMARK  status: ('A' for Active; 'I' for Inactive)
REMARK    1  A    between atoms: N_2  and  C1_3 
ROOT
ATOM      1  C1  UNL d   1      -3.016   2.321  -5.997  0.00  0.00     0.143 A 
ATOM      2  C2  UNL d   1      -1.782   1.663  -5.991  0.00  0.00    -0.057 A 
ATOM      3  C3  UNL d   1      -1.703   0.265  -6.000  0.00  0.00     0.033 A 
ATOM      4  C4  UNL d   1      -2.863  -0.502  -5.985  0.00  0.00    -0.042 A 
ATOM      5  C5  UNL d   1      -4.101   0.130  -5.965  0.00  0.00     0.033 A 
ATOM      6  C6  UNL d   1      -4.173   1.526  -5.963  0.00  0.00    -0.057 A 
ENDROOT
BRANCH   1   7
ATOM      7  N   UNL d   1      -3.161   3.706  -5.889  0.00  0.00    -0.732 N 
ATOM      8  C   UNL d   1      -4.470   4.318  -5.955  0.00  0.00     0.284 C 
ATOM      9  H3  UNL d   1      -2.550   4.106  -5.180  0.00  0.00     0.395 HD
ENDBRANCH   1   7
TORSDOF 1
ENDMDL
