MODEL 1
REMARK minimizedAffinity -0.889265239
REMARK minimizedRMSD -1
REMARK  1 active torsions:
REMARK  status: ('A' for Active; 'I' for Inactive)
REMARK    1  A    between atoms: N_2  and  C1_3 
ROOT
ATOM      1  C1  UNL d   1      -3.223   0.743  -5.971  0.00  0.00     0.143 A 
ATOM      2  C2  UNL d   1      -4.613   0.905  -5.971  0.00  0.00    -0.057 A 
ATOM      3  C3  UNL d   1      -5.196   2.178  -6.000  0.00  0.00     0.033 A 
ATOM      4  C4  UNL d   1      -4.396   3.316  -5.999  0.00  0.00    -0.042 A 
ATOM      5  C5  UNL d   1      -3.013   3.180  -5.974  0.00  0.00     0.033 A 
ATOM      6  C6  UNL d   1      -2.437   1.906  -5.952  0.00  0.00    -0.057 A 
ENDROOT
BRANCH   1   7
ATOM      7  N   UNL d   1      -2.584  -0.492  -5.844  0.00  0.00    -0.732 N 
ATOM      8  C   UNL d   1      -3.340  -1.724  -5.915  0.00  0.00     0.284 C 
ATOM      9  H3  UNL d   1      -1.694  -0.521  -6.336  0.00  0.00     0.395 HD
ENDBRANCH   1   7
TORSDOF 1
ENDMDL
