MODEL 1
REMARK minimizedAffinity 6.54621363
REMARK minimizedRMSD -1
REMARK  1 active torsions:
REMARK  status: ('A' for Active; 'I' for Inactive)
REMARK    1  A    between atoms: C3_4  and  O_7 
ROOT
ATOM      1  C   UNL d   1      -2.897   4.091  -0.291  0.00  0.00    -0.033 A 
ATOM      2  C1  UNL d   1      -2.652   5.345  -0.856  0.00  0.00     0.039 A 
ATOM      3  C2  UNL d   1      -3.652   5.990  -1.587  0.00  0.00    -0.080 A 
ATOM      4  C3  UNL d   1      -4.890   5.374  -1.744  0.00  0.00     0.150 A 
ATOM      5  C4  UNL d   1      -5.142   4.127  -1.181  0.00  0.00    -0.007 A 
ATOM      6  C5  UNL d   1      -4.142   3.483  -0.453  0.00  0.00     0.039 A 
ENDROOT
BRANCH   4   7
ATOM      7  O   UNL d   1      -5.894   5.963  -2.453  0.00  0.00    -0.526 OA
ATOM      8  H5  UNL d   1      -5.567   6.806  -2.807  0.00  0.00     0.418 HD
ENDBRANCH   4   7
TORSDOF 1
ENDMDL
