MODEL 1
REMARK minimizedAffinity 1.61659706
REMARK minimizedRMSD -1
REMARK  1 active torsions:
REMARK  status: ('A' for Active; 'I' for Inactive)
REMARK    1  A    between atoms: C3_4  and  O_7 
ROOT
ATOM      1  C   UNL d   1       1.886  -1.505   5.477  0.00  0.00    -0.033 A 
ATOM      2  C1  UNL d   1       1.450  -0.194   5.673  0.00  0.00     0.039 A 
ATOM      3  C2  UNL d   1       0.727   0.461   4.674  0.00  0.00    -0.080 A 
ATOM      4  C3  UNL d   1       0.447  -0.207   3.484  0.00  0.00     0.150 A 
ATOM      5  C4  UNL d   1       0.876  -1.515   3.284  0.00  0.00    -0.007 A 
ATOM      6  C5  UNL d   1       1.598  -2.166   4.283  0.00  0.00     0.039 A 
ENDROOT
BRANCH   4   7
ATOM      7  O   UNL d   1      -0.250   0.392   2.478  0.00  0.00    -0.526 OA
ATOM      8  H5  UNL d   1      -0.456   1.303   2.746  0.00  0.00     0.418 HD
ENDBRANCH   4   7
TORSDOF 1
ENDMDL
