MODEL 1
REMARK minimizedAffinity 8.19323444
REMARK minimizedRMSD -1
REMARK  1 active torsions:
REMARK  status: ('A' for Active; 'I' for Inactive)
REMARK    1  A    between atoms: C3_4  and  O_7 
ROOT
ATOM      1  C   UNL d   1       1.152  -1.140   3.092  0.00  0.00    -0.033 A 
ATOM      2  C1  UNL d   1      -0.218  -1.170   2.824  0.00  0.00     0.039 A 
ATOM      3  C2  UNL d   1      -0.935   0.022   2.711  0.00  0.00    -0.080 A 
ATOM      4  C3  UNL d   1      -0.272   1.236   2.868  0.00  0.00     0.150 A 
ATOM      5  C4  UNL d   1       1.093   1.274   3.132  0.00  0.00    -0.007 A 
ATOM      6  C5  UNL d   1       1.808   0.082   3.245  0.00  0.00     0.039 A 
ENDROOT
BRANCH   4   7
ATOM      7  O   UNL d   1      -0.931   2.426   2.771  0.00  0.00    -0.526 OA
ATOM      8  H5  UNL d   1      -1.872   2.245   2.615  0.00  0.00     0.418 HD
ENDBRANCH   4   7
TORSDOF 1
ENDMDL
