MODEL 1
REMARK minimizedAffinity 9.97187138
REMARK minimizedRMSD -1
REMARK  1 active torsions:
REMARK  status: ('A' for Active; 'I' for Inactive)
REMARK    1  A    between atoms: C3_4  and  O_7 
ROOT
ATOM      1  C   UNL d   1       0.439   0.516   2.069  0.00  0.00    -0.033 A 
ATOM      2  C1  UNL d   1       1.111   0.756   3.270  0.00  0.00     0.039 A 
ATOM      3  C2  UNL d   1       1.839  -0.267   3.881  0.00  0.00    -0.080 A 
ATOM      4  C3  UNL d   1       1.888  -1.523   3.282  0.00  0.00     0.150 A 
ATOM      5  C4  UNL d   1       1.225  -1.768   2.084  0.00  0.00    -0.007 A 
ATOM      6  C5  UNL d   1       0.498  -0.746   1.476  0.00  0.00     0.039 A 
ENDROOT
BRANCH   4   7
ATOM      7  O   UNL d   1       2.582  -2.553   3.844  0.00  0.00    -0.526 OA
ATOM      8  H5  UNL d   1       2.965  -2.246   4.683  0.00  0.00     0.418 HD
ENDBRANCH   4   7
TORSDOF 1
ENDMDL
