MODEL 1
REMARK minimizedAffinity 8.94451046
REMARK minimizedRMSD -1
REMARK  1 active torsions:
REMARK  status: ('A' for Active; 'I' for Inactive)
REMARK    1  A    between atoms: C3_4  and  O_7 
ROOT
ATOM      1  C   UNL d   1       1.087  -4.733  -5.777  0.00  0.00    -0.033 A 
ATOM      2  C1  UNL d   1       0.432  -5.947  -5.557  0.00  0.00     0.039 A 
ATOM      3  C2  UNL d   1      -0.963  -6.000  -5.556  0.00  0.00    -0.080 A 
ATOM      4  C3  UNL d   1      -1.691  -4.834  -5.776  0.00  0.00     0.150 A 
ATOM      5  C4  UNL d   1      -1.046  -3.622  -6.000  0.00  0.00    -0.007 A 
ATOM      6  C5  UNL d   1       0.347  -3.571  -6.000  0.00  0.00     0.039 A 
ENDROOT
BRANCH   4   7
ATOM      7  O   UNL d   1      -3.054  -4.835  -5.779  0.00  0.00    -0.526 OA
ATOM      8  H5  UNL d   1      -3.362  -5.736  -5.583  0.00  0.00     0.418 HD
ENDBRANCH   4   7
TORSDOF 1
ENDMDL
