MODEL 1
REMARK minimizedAffinity 9.77027035
REMARK minimizedRMSD -1
REMARK  1 active torsions:
REMARK  status: ('A' for Active; 'I' for Inactive)
REMARK    1  A    between atoms: C3_4  and  O_7 
ROOT
ATOM      1  C   UNL d   1      -1.422  -1.774  -2.384  0.00  0.00    -0.033 A 
ATOM      2  C1  UNL d   1      -1.621  -1.013  -3.538  0.00  0.00     0.039 A 
ATOM      3  C2  UNL d   1      -0.531  -0.431  -4.188  0.00  0.00    -0.080 A 
ATOM      4  C3  UNL d   1       0.750  -0.618  -3.677  0.00  0.00     0.150 A 
ATOM      5  C4  UNL d   1       0.956  -1.379  -2.530  0.00  0.00    -0.007 A 
ATOM      6  C5  UNL d   1      -0.134  -1.958  -1.882  0.00  0.00     0.039 A 
ENDROOT
BRANCH   4   7
ATOM      7  O   UNL d   1       1.844  -0.066  -4.275  0.00  0.00    -0.526 OA
ATOM      8  H5  UNL d   1       1.547   0.456  -5.039  0.00  0.00     0.418 HD
ENDBRANCH   4   7
TORSDOF 1
ENDMDL
