MODEL 1
REMARK minimizedAffinity 12.1485662
REMARK minimizedRMSD -1
REMARK  1 active torsions:
REMARK  status: ('A' for Active; 'I' for Inactive)
REMARK    1  A    between atoms: C3_4  and  O_7 
ROOT
ATOM      1  C   UNL d   1      -1.216  -1.456  -3.673  0.00  0.00    -0.033 A 
ATOM      2  C1  UNL d   1      -0.650  -1.292  -4.938  0.00  0.00     0.039 A 
ATOM      3  C2  UNL d   1       0.636  -0.763  -5.067  0.00  0.00    -0.080 A 
ATOM      4  C3  UNL d   1       1.344  -0.402  -3.924  0.00  0.00     0.150 A 
ATOM      5  C4  UNL d   1       0.788  -0.566  -2.660  0.00  0.00    -0.007 A 
ATOM      6  C5  UNL d   1      -0.496  -1.094  -2.533  0.00  0.00     0.039 A 
ENDROOT
BRANCH   4   7
ATOM      7  O   UNL d   1       2.600   0.123  -4.000  0.00  0.00    -0.526 OA
ATOM      8  H5  UNL d   1       2.843   0.205  -4.938  0.00  0.00     0.418 HD
ENDBRANCH   4   7
TORSDOF 1
ENDMDL
