MODEL 1
REMARK minimizedAffinity 14.5379477
REMARK minimizedRMSD -1
REMARK  1 active torsions:
REMARK  status: ('A' for Active; 'I' for Inactive)
REMARK    1  A    between atoms: C3_4  and  O_7 
ROOT
ATOM      1  C   UNL d   1       5.991   2.340  -5.982  0.00  0.00    -0.033 A 
ATOM      2  C1  UNL d   1       5.931   0.945  -5.973  0.00  0.00     0.039 A 
ATOM      3  C2  UNL d   1       4.694   0.297  -5.973  0.00  0.00    -0.080 A 
ATOM      4  C3  UNL d   1       3.526   1.055  -5.983  0.00  0.00     0.150 A 
ATOM      5  C4  UNL d   1       3.578   2.445  -5.996  0.00  0.00    -0.007 A 
ATOM      6  C5  UNL d   1       4.814   3.090  -5.995  0.00  0.00     0.039 A 
ENDROOT
BRANCH   4   7
ATOM      7  O   UNL d   1       2.296   0.468  -5.979  0.00  0.00    -0.526 OA
ATOM      8  H5  UNL d   1       2.415  -0.496  -5.941  0.00  0.00     0.418 HD
ENDBRANCH   4   7
TORSDOF 1
ENDMDL
