MODEL 1
REMARK minimizedAffinity -3.17734241
REMARK minimizedRMSD -1
REMARK  0 active torsions:
REMARK  status: ('A' for Active; 'I' for Inactive)
ROOT
ATOM      1  C   UNL d   1      -0.765   1.126   0.018  0.00  0.00     0.020 A 
ATOM      2  C1  UNL d   1      -1.320   0.192   0.891  0.00  0.00     0.020 A 
ATOM      3  C2  UNL d   1      -0.618  -0.973   1.207  0.00  0.00     0.034 A 
ATOM      4  C3  UNL d   1       0.644  -1.207   0.648  0.00  0.00     0.017 A 
ATOM      5  C4  UNL d   1       1.201  -0.269  -0.228  0.00  0.00     0.017 A 
ATOM      6  C5  UNL d   1       0.493   0.896  -0.541  0.00  0.00     0.034 A 
ATOM      7 Cl   UNL d   1       2.753  -0.488  -0.957  0.00  0.00    -0.070 Cl
ATOM      8 Cl1  UNL d   1       1.457  -2.669   1.083  0.00  0.00    -0.070 Cl
ENDROOT
TORSDOF 0
ENDMDL
