MODEL 1
REMARK minimizedAffinity -2.63606906
REMARK minimizedRMSD -1
REMARK  0 active torsions:
REMARK  status: ('A' for Active; 'I' for Inactive)
ROOT
ATOM      1  C   UNL d   1       1.000  -2.816   1.185  0.00  0.00     0.020 A 
ATOM      2  C1  UNL d   1      -0.326  -2.559   1.529  0.00  0.00     0.020 A 
ATOM      3  C2  UNL d   1      -0.897  -1.320   1.233  0.00  0.00     0.034 A 
ATOM      4  C3  UNL d   1      -0.142  -0.333   0.590  0.00  0.00     0.017 A 
ATOM      5  C4  UNL d   1       1.190  -0.592   0.244  0.00  0.00     0.017 A 
ATOM      6  C5  UNL d   1       1.756  -1.834   0.544  0.00  0.00     0.034 A 
ATOM      7 Cl   UNL d   1       2.185   0.577  -0.551  0.00  0.00    -0.070 Cl
ATOM      8 Cl1  UNL d   1      -0.912   1.177   0.253  0.00  0.00    -0.070 Cl
ENDROOT
TORSDOF 0
ENDMDL
