MODEL 1
REMARK minimizedAffinity -3.99800944
REMARK minimizedRMSD -1
REMARK  0 active torsions:
REMARK  status: ('A' for Active; 'I' for Inactive)
ROOT
ATOM      1  C   UNL d   1       1.110   3.031   0.016  0.00  0.00     0.020 A 
ATOM      2  C1  UNL d   1       0.506   3.696  -1.051  0.00  0.00     0.020 A 
ATOM      3  C2  UNL d   1      -0.514   3.074  -1.773  0.00  0.00     0.034 A 
ATOM      4  C3  UNL d   1      -0.935   1.784  -1.429  0.00  0.00     0.017 A 
ATOM      5  C4  UNL d   1      -0.328   1.118  -0.358  0.00  0.00     0.017 A 
ATOM      6  C5  UNL d   1       0.693   1.745   0.362  0.00  0.00     0.034 A 
ATOM      7 Cl   UNL d   1      -0.793  -0.475   0.126  0.00  0.00    -0.070 Cl
ATOM      8 Cl1  UNL d   1      -2.202   1.075  -2.365  0.00  0.00    -0.070 Cl
ENDROOT
TORSDOF 0
ENDMDL
