MODEL 1
REMARK minimizedAffinity -1.76469266
REMARK minimizedRMSD -1
REMARK  0 active torsions:
REMARK  status: ('A' for Active; 'I' for Inactive)
ROOT
ATOM      1  C   UNL d   1       0.534   0.743  -0.905  0.00  0.00     0.020 A 
ATOM      2  C1  UNL d   1      -0.665   1.162  -0.330  0.00  0.00     0.020 A 
ATOM      3  C2  UNL d   1      -1.294   0.368   0.630  0.00  0.00     0.034 A 
ATOM      4  C3  UNL d   1      -0.724  -0.850   1.019  0.00  0.00     0.017 A 
ATOM      5  C4  UNL d   1       0.479  -1.270   0.441  0.00  0.00     0.017 A 
ATOM      6  C5  UNL d   1       1.105  -0.470  -0.520  0.00  0.00     0.034 A 
ATOM      7 Cl   UNL d   1       1.243  -2.761   0.870  0.00  0.00    -0.070 Cl
ATOM      8 Cl1  UNL d   1      -1.557  -1.782   2.212  0.00  0.00    -0.070 Cl
ENDROOT
TORSDOF 0
ENDMDL
