MODEL 1
REMARK minimizedAffinity -4.11444807
REMARK minimizedRMSD -1
REMARK  0 active torsions:
REMARK  status: ('A' for Active; 'I' for Inactive)
ROOT
ATOM      1  C   UNL d   1       2.357  -1.868   0.007  0.00  0.00     0.020 A 
ATOM      2  C1  UNL d   1       1.492  -2.591   0.827  0.00  0.00     0.020 A 
ATOM      3  C2  UNL d   1       0.386  -1.962   1.401  0.00  0.00     0.034 A 
ATOM      4  C3  UNL d   1       0.141  -0.606   1.156  0.00  0.00     0.017 A 
ATOM      5  C4  UNL d   1       1.010   0.119   0.332  0.00  0.00     0.017 A 
ATOM      6  C5  UNL d   1       2.117  -0.516  -0.240  0.00  0.00     0.034 A 
ATOM      7 Cl   UNL d   1       0.774   1.795  -0.017  0.00  0.00    -0.070 Cl
ATOM      8 Cl1  UNL d   1      -1.247   0.107   1.898  0.00  0.00    -0.070 Cl
ENDROOT
TORSDOF 0
ENDMDL
