MODEL 1
REMARK minimizedAffinity -4.56873703
REMARK minimizedRMSD -1
REMARK  0 active torsions:
REMARK  status: ('A' for Active; 'I' for Inactive)
ROOT
ATOM      1  C   UNL d   1       1.875  -2.243   0.396  0.00  0.00     0.020 A 
ATOM      2  C1  UNL d   1       0.972  -2.940   1.198  0.00  0.00     0.020 A 
ATOM      3  C2  UNL d   1      -0.229  -2.341   1.581  0.00  0.00     0.034 A 
ATOM      4  C3  UNL d   1      -0.532  -1.040   1.162  0.00  0.00     0.017 A 
ATOM      5  C4  UNL d   1       0.375  -0.341   0.357  0.00  0.00     0.017 A 
ATOM      6  C5  UNL d   1       1.577  -0.946  -0.024  0.00  0.00     0.034 A 
ATOM      7 Cl   UNL d   1       0.072   1.267  -0.200  0.00  0.00    -0.070 Cl
ATOM      8 Cl1  UNL d   1      -2.036  -0.360   1.673  0.00  0.00    -0.070 Cl
ENDROOT
TORSDOF 0
ENDMDL
