MODEL 1
REMARK minimizedAffinity -2.21404934
REMARK minimizedRMSD -1
REMARK  0 active torsions:
REMARK  status: ('A' for Active; 'I' for Inactive)
ROOT
ATOM      1  C   UNL d   1       1.609  -2.612   0.720  0.00  0.00     0.020 A 
ATOM      2  C1  UNL d   1       2.037  -1.582  -0.117  0.00  0.00     0.020 A 
ATOM      3  C2  UNL d   1       1.225  -0.464  -0.319  0.00  0.00     0.034 A 
ATOM      4  C3  UNL d   1      -0.018  -0.373   0.317  0.00  0.00     0.017 A 
ATOM      5  C4  UNL d   1      -0.447  -1.407   1.157  0.00  0.00     0.017 A 
ATOM      6  C5  UNL d   1       0.370  -2.525   1.356  0.00  0.00     0.034 A 
ATOM      7 Cl   UNL d   1      -1.968  -1.366   1.977  0.00  0.00    -0.070 Cl
ATOM      8 Cl1  UNL d   1      -0.970   1.039   0.023  0.00  0.00    -0.070 Cl
ENDROOT
TORSDOF 0
ENDMDL
