MODEL 1
REMARK minimizedAffinity -0.819627702
REMARK minimizedRMSD -1
REMARK  0 active torsions:
REMARK  status: ('A' for Active; 'I' for Inactive)
ROOT
ATOM      1  C   UNL d   1       1.047   0.074   0.125  0.00  0.00     0.020 A 
ATOM      2  C1  UNL d   1      -0.224   0.620   0.295  0.00  0.00     0.020 A 
ATOM      3  C2  UNL d   1      -0.374   1.997   0.475  0.00  0.00     0.034 A 
ATOM      4  C3  UNL d   1       0.749   2.832   0.486  0.00  0.00     0.017 A 
ATOM      5  C4  UNL d   1       2.025   2.283   0.315  0.00  0.00     0.017 A 
ATOM      6  C5  UNL d   1       2.169   0.904   0.135  0.00  0.00     0.034 A 
ATOM      7 Cl   UNL d   1       3.458   3.249   0.317  0.00  0.00    -0.070 Cl
ATOM      8 Cl1  UNL d   1       0.490   4.525   0.713  0.00  0.00    -0.070 Cl
ENDROOT
TORSDOF 0
ENDMDL
