MODEL 1
REMARK minimizedAffinity -1.8274883
REMARK minimizedRMSD -1
REMARK  0 active torsions:
REMARK  status: ('A' for Active; 'I' for Inactive)
ROOT
ATOM      1  C   UNL d   1       1.862   4.020   0.258  0.00  0.00     0.020 A 
ATOM      2  C1  UNL d   1       3.126   3.447   0.124  0.00  0.00     0.020 A 
ATOM      3  C2  UNL d   1       3.264   2.058   0.110  0.00  0.00     0.034 A 
ATOM      4  C3  UNL d   1       2.137   1.237   0.229  0.00  0.00     0.017 A 
ATOM      5  C4  UNL d   1       0.869   1.813   0.364  0.00  0.00     0.017 A 
ATOM      6  C5  UNL d   1       0.736   3.205   0.378  0.00  0.00     0.034 A 
ATOM      7 Cl   UNL d   1      -0.568   0.865   0.516  0.00  0.00    -0.070 Cl
ATOM      8 Cl1  UNL d   1       2.382  -0.474   0.203  0.00  0.00    -0.070 Cl
ENDROOT
TORSDOF 0
ENDMDL
