MODEL 1
REMARK minimizedAffinity -2.8964107
REMARK minimizedRMSD -1
REMARK  0 active torsions:
REMARK  status: ('A' for Active; 'I' for Inactive)
ROOT
ATOM      1  C   UNL d   1       1.004  -2.742   0.775  0.00  0.00     0.020 A 
ATOM      2  C1  UNL d   1       2.247  -2.142   0.979  0.00  0.00     0.020 A 
ATOM      3  C2  UNL d   1       2.386  -0.760   0.838  0.00  0.00     0.034 A 
ATOM      4  C3  UNL d   1       1.282   0.027   0.493  0.00  0.00     0.017 A 
ATOM      5  C4  UNL d   1       0.035  -0.575   0.289  0.00  0.00     0.017 A 
ATOM      6  C5  UNL d   1      -0.099  -1.960   0.431  0.00  0.00     0.034 A 
ATOM      7 Cl   UNL d   1      -1.373   0.331  -0.139  0.00  0.00    -0.070 Cl
ATOM      8 Cl1  UNL d   1       1.527   1.731   0.337  0.00  0.00    -0.070 Cl
ENDROOT
TORSDOF 0
ENDMDL
