MODEL 1
REMARK minimizedAffinity -1.16067088
REMARK minimizedRMSD -1
REMARK  0 active torsions:
REMARK  status: ('A' for Active; 'I' for Inactive)
ROOT
ATOM      1  C   UNL d   1      -0.016   0.800  -0.365  0.00  0.00     0.020 A 
ATOM      2  C1  UNL d   1       1.215   0.262  -0.737  0.00  0.00     0.020 A 
ATOM      3  C2  UNL d   1       1.591  -1.003  -0.278  0.00  0.00     0.034 A 
ATOM      4  C3  UNL d   1       0.736  -1.733   0.555  0.00  0.00     0.017 A 
ATOM      5  C4  UNL d   1      -0.500  -1.191   0.928  0.00  0.00     0.017 A 
ATOM      6  C5  UNL d   1      -0.871   0.075   0.466  0.00  0.00     0.034 A 
ATOM      7 Cl   UNL d   1      -1.609  -2.032   1.953  0.00  0.00    -0.070 Cl
ATOM      8 Cl1  UNL d   1       1.265  -3.290   1.084  0.00  0.00    -0.070 Cl
ENDROOT
TORSDOF 0
ENDMDL
