MODEL 1
REMARK minimizedAffinity -2.44321036
REMARK minimizedRMSD -1
REMARK  0 active torsions:
REMARK  status: ('A' for Active; 'I' for Inactive)
ROOT
ATOM      1  C   UNL d   1      -1.414   0.426   0.302  0.00  0.00     0.020 A 
ATOM      2  C1  UNL d   1      -1.725  -0.744   0.994  0.00  0.00     0.020 A 
ATOM      3  C2  UNL d   1      -0.754  -1.733   1.164  0.00  0.00     0.034 A 
ATOM      4  C3  UNL d   1       0.532  -1.555   0.643  0.00  0.00     0.017 A 
ATOM      5  C4  UNL d   1       0.843  -0.380  -0.051  0.00  0.00     0.017 A 
ATOM      6  C5  UNL d   1      -0.132   0.607  -0.219  0.00  0.00     0.034 A 
ATOM      7 Cl   UNL d   1       2.409  -0.088  -0.724  0.00  0.00    -0.070 Cl
ATOM      8 Cl1  UNL d   1       1.683  -2.820   0.892  0.00  0.00    -0.070 Cl
ENDROOT
TORSDOF 0
ENDMDL
