MODEL 1
REMARK minimizedAffinity -2.94155884
REMARK minimizedRMSD -1
REMARK  0 active torsions:
REMARK  status: ('A' for Active; 'I' for Inactive)
ROOT
ATOM      1  C   UNL d   1       1.481   3.959  -0.008  0.00  0.00     0.020 A 
ATOM      2  C1  UNL d   1       2.705   3.292   0.037  0.00  0.00     0.020 A 
ATOM      3  C2  UNL d   1       2.747   1.901  -0.080  0.00  0.00     0.034 A 
ATOM      4  C3  UNL d   1       1.563   1.173  -0.243  0.00  0.00     0.017 A 
ATOM      5  C4  UNL d   1       0.335   1.843  -0.288  0.00  0.00     0.017 A 
ATOM      6  C5  UNL d   1       0.299   3.236  -0.170  0.00  0.00     0.034 A 
ATOM      7 Cl   UNL d   1      -1.168   1.013  -0.486  0.00  0.00    -0.070 Cl
ATOM      8 Cl1  UNL d   1       1.689  -0.545  -0.381  0.00  0.00    -0.070 Cl
ENDROOT
TORSDOF 0
ENDMDL
