MODEL 1
REMARK minimizedAffinity -3.20159864
REMARK minimizedRMSD -1
REMARK  0 active torsions:
REMARK  status: ('A' for Active; 'I' for Inactive)
ROOT
ATOM      1  C   UNL d   1       1.856  -2.123   0.603  0.00  0.00     0.020 A 
ATOM      2  C1  UNL d   1       0.499  -2.356   0.379  0.00  0.00     0.020 A 
ATOM      3  C2  UNL d   1      -0.322  -1.321  -0.072  0.00  0.00     0.034 A 
ATOM      4  C3  UNL d   1       0.212  -0.048  -0.301  0.00  0.00     0.017 A 
ATOM      5  C4  UNL d   1       1.573   0.186  -0.076  0.00  0.00     0.017 A 
ATOM      6  C5  UNL d   1       2.391  -0.854   0.376  0.00  0.00     0.034 A 
ATOM      7 Cl   UNL d   1       2.304   1.730  -0.336  0.00  0.00    -0.070 Cl
ATOM      8 Cl1  UNL d   1      -0.862   1.186  -0.859  0.00  0.00    -0.070 Cl
ENDROOT
TORSDOF 0
ENDMDL
