MODEL 1
REMARK minimizedAffinity -4.28774977
REMARK minimizedRMSD -1
REMARK  0 active torsions:
REMARK  status: ('A' for Active; 'I' for Inactive)
ROOT
ATOM      1  C   UNL d   1      -0.328   0.057   0.239  0.00  0.00     0.020 A 
ATOM      2  C1  UNL d   1       0.996  -0.280  -0.036  0.00  0.00     0.020 A 
ATOM      3  C2  UNL d   1       1.970   0.719  -0.110  0.00  0.00     0.034 A 
ATOM      4  C3  UNL d   1       1.620   2.059   0.090  0.00  0.00     0.017 A 
ATOM      5  C4  UNL d   1       0.289   2.396   0.366  0.00  0.00     0.017 A 
ATOM      6  C5  UNL d   1      -0.681   1.392   0.439  0.00  0.00     0.034 A 
ATOM      7 Cl   UNL d   1      -0.219   4.027   0.625  0.00  0.00    -0.070 Cl
ATOM      8 Cl1  UNL d   1       2.875   3.242  -0.017  0.00  0.00    -0.070 Cl
ENDROOT
TORSDOF 0
ENDMDL
