MODEL 1
REMARK minimizedAffinity -1.50213897
REMARK minimizedRMSD -1
REMARK  0 active torsions:
REMARK  status: ('A' for Active; 'I' for Inactive)
ROOT
ATOM      1  C   UNL d   1       1.407  -2.660   1.124  0.00  0.00     0.020 A 
ATOM      2  C1  UNL d   1       0.070  -2.569   1.508  0.00  0.00     0.020 A 
ATOM      3  C2  UNL d   1      -0.704  -1.484   1.089  0.00  0.00     0.034 A 
ATOM      4  C3  UNL d   1      -0.141  -0.486   0.285  0.00  0.00     0.017 A 
ATOM      5  C4  UNL d   1       1.201  -0.579  -0.099  0.00  0.00     0.017 A 
ATOM      6  C5  UNL d   1       1.971  -1.667   0.323  0.00  0.00     0.034 A 
ATOM      7 Cl   UNL d   1       1.966   0.613  -1.090  0.00  0.00    -0.070 Cl
ATOM      8 Cl1  UNL d   1      -1.157   0.826  -0.196  0.00  0.00    -0.070 Cl
ENDROOT
TORSDOF 0
ENDMDL
