MODEL 1
REMARK minimizedAffinity 3.23079729
REMARK minimizedRMSD -1
REMARK  2 active torsions:
REMARK  status: ('A' for Active; 'I' for Inactive)
REMARK    1  A    between atoms: C1_2  and  C2_3 
REMARK    2  A    between atoms: C2_3  and  C3_4 
ROOT
ATOM      1  C3  UNL d   1      -0.292  -2.129   1.112  0.00  0.00    -0.075 A 
ATOM      2  C4  UNL d   1       0.861  -1.354   1.302  0.00  0.00     0.002 A 
ATOM      3  C5  UNL d   1       2.102  -1.809   0.856  0.00  0.00     0.002 A 
ATOM      4  C6  UNL d   1       2.208  -3.047   0.225  0.00  0.00    -0.004 A 
ATOM      5  C7  UNL d   1       1.072  -3.833   0.046  0.00  0.00     0.002 A 
ATOM      6  C8  UNL d   1      -0.172  -3.378   0.487  0.00  0.00     0.002 A 
ENDROOT
BRANCH   1   7
ATOM      7  C2  UNL d   1      -1.643  -1.629   1.565  0.00  0.00     0.056 C 
BRANCH   7   8
ATOM      8  C1  UNL d   1      -1.671  -0.137   1.912  0.00  0.00     0.007 C 
ATOM      9  C   UNL d   1      -2.310   0.720   0.828  0.00  0.00     0.009 C 
ENDBRANCH   7   8
ENDBRANCH   1   7
TORSDOF 2
ENDMDL
