MODEL 1
REMARK minimizedAffinity 2.96141148
REMARK minimizedRMSD -1
REMARK  2 active torsions:
REMARK  status: ('A' for Active; 'I' for Inactive)
REMARK    1  A    between atoms: C1_2  and  C2_3 
REMARK    2  A    between atoms: C2_3  and  C3_4 
ROOT
ATOM      1  C3  UNL d   1       0.339  -0.420   2.441  0.00  0.00    -0.075 A 
ATOM      2  C4  UNL d   1      -0.826  -0.886   1.815  0.00  0.00     0.002 A 
ATOM      3  C5  UNL d   1      -0.792  -1.328   0.492  0.00  0.00     0.002 A 
ATOM      4  C6  UNL d   1       0.402  -1.301  -0.224  0.00  0.00    -0.004 A 
ATOM      5  C7  UNL d   1       1.563  -0.825   0.382  0.00  0.00     0.002 A 
ATOM      6  C8  UNL d   1       1.533  -0.386   1.707  0.00  0.00     0.002 A 
ENDROOT
BRANCH   1   7
ATOM      7  C2  UNL d   1       0.315   0.032   3.881  0.00  0.00     0.056 C 
BRANCH   7   8
ATOM      8  C1  UNL d   1      -1.027   0.620   4.328  0.00  0.00     0.007 C 
ATOM      9  C   UNL d   1      -1.248   0.536   5.832  0.00  0.00     0.009 C 
ENDBRANCH   7   8
ENDBRANCH   1   7
TORSDOF 2
ENDMDL
