MODEL 1
REMARK minimizedAffinity -0.334721059
REMARK minimizedRMSD -1
REMARK  2 active torsions:
REMARK  status: ('A' for Active; 'I' for Inactive)
REMARK    1  A    between atoms: C1_2  and  C2_3 
REMARK    2  A    between atoms: C2_3  and  C3_4 
ROOT
ATOM      1  C3  UNL d   1       0.452  -1.518   0.506  0.00  0.00    -0.075 A 
ATOM      2  C4  UNL d   1       1.594  -2.330   0.550  0.00  0.00     0.002 A 
ATOM      3  C5  UNL d   1       1.620  -3.553  -0.122  0.00  0.00     0.002 A 
ATOM      4  C6  UNL d   1       0.503  -3.983  -0.836  0.00  0.00    -0.004 A 
ATOM      5  C7  UNL d   1      -0.643  -3.192  -0.872  0.00  0.00     0.002 A 
ATOM      6  C8  UNL d   1      -0.670  -1.966  -0.205  0.00  0.00     0.002 A 
ENDROOT
BRANCH   1   7
ATOM      7  C2  UNL d   1       0.428  -0.180   1.205  0.00  0.00     0.056 C 
BRANCH   7   8
ATOM      8  C1  UNL d   1       1.670   0.100   2.058  0.00  0.00     0.007 C 
ATOM      9  C   UNL d   1       1.539  -0.398   3.491  0.00  0.00     0.009 C 
ENDBRANCH   7   8
ENDBRANCH   1   7
TORSDOF 2
ENDMDL
