MODEL 1
REMARK minimizedAffinity 3.37012744
REMARK minimizedRMSD -1
REMARK  2 active torsions:
REMARK  status: ('A' for Active; 'I' for Inactive)
REMARK    1  A    between atoms: C1_2  and  C2_3 
REMARK    2  A    between atoms: C2_3  and  C3_4 
ROOT
ATOM      1  C3  UNL d   1       1.968  -1.057   0.405  0.00  0.00    -0.075 A 
ATOM      2  C4  UNL d   1       1.765  -2.337  -0.129  0.00  0.00     0.002 A 
ATOM      3  C5  UNL d   1       0.497  -2.919  -0.113  0.00  0.00     0.002 A 
ATOM      4  C6  UNL d   1      -0.580  -2.234   0.446  0.00  0.00    -0.004 A 
ATOM      5  C7  UNL d   1      -0.386  -0.968   0.995  0.00  0.00     0.002 A 
ATOM      6  C8  UNL d   1       0.881  -0.382   0.976  0.00  0.00     0.002 A 
ENDROOT
BRANCH   1   7
ATOM      7  C2  UNL d   1       3.332  -0.410   0.364  0.00  0.00     0.056 C 
BRANCH   7   8
ATOM      8  C1  UNL d   1       4.487  -1.400   0.181  0.00  0.00     0.007 C 
ATOM      9  C   UNL d   1       5.652  -1.145   1.128  0.00  0.00     0.009 C 
ENDBRANCH   7   8
ENDBRANCH   1   7
TORSDOF 2
ENDMDL
