MODEL 1
REMARK minimizedAffinity -2.37919641
REMARK minimizedRMSD -1
REMARK  2 active torsions:
REMARK  status: ('A' for Active; 'I' for Inactive)
REMARK    1  A    between atoms: C1_2  and  C2_3 
REMARK    2  A    between atoms: C2_3  and  C3_4 
ROOT
ATOM      1  C3  UNL d   1       1.813  -2.976   0.111  0.00  0.00    -0.075 A 
ATOM      2  C4  UNL d   1       2.557  -1.797   0.259  0.00  0.00     0.002 A 
ATOM      3  C5  UNL d   1       1.943  -0.621   0.691  0.00  0.00     0.002 A 
ATOM      4  C6  UNL d   1       0.578  -0.607   0.970  0.00  0.00    -0.004 A 
ATOM      5  C7  UNL d   1      -0.174  -1.768   0.810  0.00  0.00     0.002 A 
ATOM      6  C8  UNL d   1       0.438  -2.947   0.382  0.00  0.00     0.002 A 
ENDROOT
BRANCH   1   7
ATOM      7  C2  UNL d   1       2.477  -4.259  -0.328  0.00  0.00     0.056 C 
BRANCH   7   8
ATOM      8  C1  UNL d   1       4.006  -4.179  -0.396  0.00  0.00     0.007 C 
ATOM      9  C   UNL d   1       4.686  -5.532  -0.239  0.00  0.00     0.009 C 
ENDBRANCH   7   8
ENDBRANCH   1   7
TORSDOF 2
ENDMDL
