MODEL 1
REMARK minimizedAffinity 0.706962287
REMARK minimizedRMSD -1
REMARK  2 active torsions:
REMARK  status: ('A' for Active; 'I' for Inactive)
REMARK    1  A    between atoms: C1_2  and  C2_3 
REMARK    2  A    between atoms: C2_3  and  C3_4 
ROOT
ATOM      1  C3  UNL d   1      -1.399  -1.925   1.127  0.00  0.00    -0.075 A 
ATOM      2  C4  UNL d   1      -0.808  -3.033   0.502  0.00  0.00     0.002 A 
ATOM      3  C5  UNL d   1       0.550  -3.026   0.182  0.00  0.00     0.002 A 
ATOM      4  C6  UNL d   1       1.330  -1.909   0.472  0.00  0.00    -0.004 A 
ATOM      5  C7  UNL d   1       0.751  -0.796   1.077  0.00  0.00     0.002 A 
ATOM      6  C8  UNL d   1      -0.607  -0.802   1.402  0.00  0.00     0.002 A 
ENDROOT
BRANCH   1   7
ATOM      7  C2  UNL d   1      -2.861  -1.938   1.503  0.00  0.00     0.056 C 
BRANCH   7   8
ATOM      8  C1  UNL d   1      -3.524  -3.314   1.379  0.00  0.00     0.007 C 
ATOM      9  C   UNL d   1      -4.898  -3.380   2.034  0.00  0.00     0.009 C 
ENDBRANCH   7   8
ENDBRANCH   1   7
TORSDOF 2
ENDMDL
