MODEL 1
REMARK minimizedAffinity -1.92909265
REMARK minimizedRMSD -1
REMARK  2 active torsions:
REMARK  status: ('A' for Active; 'I' for Inactive)
REMARK    1  A    between atoms: C1_2  and  C2_3 
REMARK    2  A    between atoms: C2_3  and  C3_4 
ROOT
ATOM      1  C3  UNL d   1       1.271  -1.544   0.161  0.00  0.00    -0.075 A 
ATOM      2  C4  UNL d   1       1.173  -0.386   0.946  0.00  0.00     0.002 A 
ATOM      3  C5  UNL d   1      -0.033  -0.046   1.560  0.00  0.00     0.002 A 
ATOM      4  C6  UNL d   1      -1.156  -0.852   1.389  0.00  0.00    -0.004 A 
ATOM      5  C7  UNL d   1      -1.075  -1.996   0.598  0.00  0.00     0.002 A 
ATOM      6  C8  UNL d   1       0.131  -2.341  -0.014  0.00  0.00     0.002 A 
ENDROOT
BRANCH   1   7
ATOM      7  C2  UNL d   1       2.580  -1.933  -0.482  0.00  0.00     0.056 C 
BRANCH   7   8
ATOM      8  C1  UNL d   1       2.725  -3.436  -0.743  0.00  0.00     0.007 C 
ATOM      9  C   UNL d   1       4.172  -3.911  -0.734  0.00  0.00     0.009 C 
ENDBRANCH   7   8
ENDBRANCH   1   7
TORSDOF 2
ENDMDL
