MODEL 1
REMARK minimizedAffinity 3.14357448
REMARK minimizedRMSD -1
REMARK  2 active torsions:
REMARK  status: ('A' for Active; 'I' for Inactive)
REMARK    1  A    between atoms: C1_2  and  C2_3 
REMARK    2  A    between atoms: C2_3  and  C3_4 
ROOT
ATOM      1  C3  UNL d   1       1.239  -0.806   1.509  0.00  0.00    -0.075 A 
ATOM      2  C4  UNL d   1      -0.011  -0.193   1.334  0.00  0.00     0.002 A 
ATOM      3  C5  UNL d   1      -1.022  -0.839   0.622  0.00  0.00     0.002 A 
ATOM      4  C6  UNL d   1      -0.795  -2.098   0.069  0.00  0.00    -0.004 A 
ATOM      5  C7  UNL d   1       0.448  -2.708   0.223  0.00  0.00     0.002 A 
ATOM      6  C8  UNL d   1       1.460  -2.066   0.939  0.00  0.00     0.002 A 
ENDROOT
BRANCH   1   7
ATOM      7  C2  UNL d   1       2.328  -0.125   2.304  0.00  0.00     0.056 C 
BRANCH   7   8
ATOM      8  C1  UNL d   1       2.991  -1.025   3.352  0.00  0.00     0.007 C 
ATOM      9  C   UNL d   1       1.995  -1.875   4.129  0.00  0.00     0.009 C 
ENDBRANCH   7   8
ENDBRANCH   1   7
TORSDOF 2
ENDMDL
