MODEL 1
REMARK minimizedAffinity -1.79074907
REMARK minimizedRMSD -1
REMARK  2 active torsions:
REMARK  status: ('A' for Active; 'I' for Inactive)
REMARK    1  A    between atoms: C1_2  and  C2_3 
REMARK    2  A    between atoms: C2_3  and  C3_4 
ROOT
ATOM      1  C3  UNL d   1      -1.426   0.248   1.238  0.00  0.00    -0.075 A 
ATOM      2  C4  UNL d   1      -2.392  -0.035   0.262  0.00  0.00     0.002 A 
ATOM      3  C5  UNL d   1      -3.504   0.793   0.105  0.00  0.00     0.002 A 
ATOM      4  C6  UNL d   1      -3.669   1.906   0.928  0.00  0.00    -0.004 A 
ATOM      5  C7  UNL d   1      -2.724   2.186   1.912  0.00  0.00     0.002 A 
ATOM      6  C8  UNL d   1      -1.608   1.362   2.068  0.00  0.00     0.002 A 
ENDROOT
BRANCH   1   7
ATOM      7  C2  UNL d   1      -0.205  -0.628   1.393  0.00  0.00     0.056 C 
BRANCH   7   8
ATOM      8  C1  UNL d   1       0.214  -1.347   0.107  0.00  0.00     0.007 C 
ATOM      9  C   UNL d   1       0.375  -2.851   0.284  0.00  0.00     0.009 C 
ENDBRANCH   7   8
ENDBRANCH   1   7
TORSDOF 2
ENDMDL
