MODEL 1
REMARK minimizedAffinity 4.68948507
REMARK minimizedRMSD -1
REMARK  2 active torsions:
REMARK  status: ('A' for Active; 'I' for Inactive)
REMARK    1  A    between atoms: C1_2  and  C2_3 
REMARK    2  A    between atoms: C2_3  and  C3_4 
ROOT
ATOM      1  C3  UNL d   1       1.395  -2.666  -0.039  0.00  0.00    -0.075 A 
ATOM      2  C4  UNL d   1       1.980  -1.532   0.542  0.00  0.00     0.002 A 
ATOM      3  C5  UNL d   1       1.241  -0.711   1.394  0.00  0.00     0.002 A 
ATOM      4  C6  UNL d   1      -0.092  -1.006   1.668  0.00  0.00    -0.004 A 
ATOM      5  C7  UNL d   1      -0.689  -2.121   1.083  0.00  0.00     0.002 A 
ATOM      6  C8  UNL d   1       0.049  -2.947   0.233  0.00  0.00     0.002 A 
ENDROOT
BRANCH   1   7
ATOM      7  C2  UNL d   1       2.197  -3.574  -0.939  0.00  0.00     0.056 C 
BRANCH   7   8
ATOM      8  C1  UNL d   1       3.693  -3.615  -0.610  0.00  0.00     0.007 C 
ATOM      9  C   UNL d   1       4.136  -4.935   0.007  0.00  0.00     0.009 C 
ENDBRANCH   7   8
ENDBRANCH   1   7
TORSDOF 2
ENDMDL
