MODEL 1
REMARK minimizedAffinity 1.41689527
REMARK minimizedRMSD -1
REMARK  2 active torsions:
REMARK  status: ('A' for Active; 'I' for Inactive)
REMARK    1  A    between atoms: C1_2  and  C2_3 
REMARK    2  A    between atoms: C2_3  and  C3_4 
ROOT
ATOM      1  C3  UNL d   1      -0.506  -0.296   1.151  0.00  0.00    -0.075 A 
ATOM      2  C4  UNL d   1       0.769  -0.020   1.666  0.00  0.00     0.002 A 
ATOM      3  C5  UNL d   1       1.888  -0.707   1.194  0.00  0.00     0.002 A 
ATOM      4  C6  UNL d   1       1.746  -1.683   0.211  0.00  0.00    -0.004 A 
ATOM      5  C7  UNL d   1       0.482  -1.977  -0.296  0.00  0.00     0.002 A 
ATOM      6  C8  UNL d   1      -0.639  -1.288   0.171  0.00  0.00     0.002 A 
ENDROOT
BRANCH   1   7
ATOM      7  C2  UNL d   1      -1.717   0.465   1.637  0.00  0.00     0.056 C 
BRANCH   7   8
ATOM      8  C1  UNL d   1      -2.976   0.238   0.793  0.00  0.00     0.007 C 
ATOM      9  C   UNL d   1      -3.691   1.530   0.422  0.00  0.00     0.009 C 
ENDBRANCH   7   8
ENDBRANCH   1   7
TORSDOF 2
ENDMDL
