MODEL 1
REMARK minimizedAffinity -1.82832193
REMARK minimizedRMSD -1
REMARK  2 active torsions:
REMARK  status: ('A' for Active; 'I' for Inactive)
REMARK    1  A    between atoms: C1_2  and  C2_3 
REMARK    2  A    between atoms: C2_3  and  C3_4 
ROOT
ATOM      1  C3  UNL d   1       1.535  -2.887  -0.189  0.00  0.00    -0.075 A 
ATOM      2  C4  UNL d   1       2.050  -1.584  -0.140  0.00  0.00     0.002 A 
ATOM      3  C5  UNL d   1       1.339  -0.564   0.494  0.00  0.00     0.002 A 
ATOM      4  C6  UNL d   1       0.103  -0.831   1.077  0.00  0.00    -0.004 A 
ATOM      5  C7  UNL d   1      -0.427  -2.119   1.020  0.00  0.00     0.002 A 
ATOM      6  C8  UNL d   1       0.284  -3.142   0.390  0.00  0.00     0.002 A 
ENDROOT
BRANCH   1   7
ATOM      7  C2  UNL d   1       2.312  -4.001  -0.847  0.00  0.00     0.056 C 
BRANCH   7   8
ATOM      8  C1  UNL d   1       3.800  -4.027  -0.479  0.00  0.00     0.007 C 
ATOM      9  C   UNL d   1       4.383  -5.433  -0.434  0.00  0.00     0.009 C 
ENDBRANCH   7   8
ENDBRANCH   1   7
TORSDOF 2
ENDMDL
