MODEL 1
REMARK minimizedAffinity 2.99131417
REMARK minimizedRMSD -1
REMARK  2 active torsions:
REMARK  status: ('A' for Active; 'I' for Inactive)
REMARK    1  A    between atoms: C1_2  and  C2_3 
REMARK    2  A    between atoms: C2_3  and  C3_4 
ROOT
ATOM      1  C3  UNL d   1       1.166  -2.564  -0.172  0.00  0.00    -0.075 A 
ATOM      2  C4  UNL d   1       1.679  -1.264  -0.280  0.00  0.00     0.002 A 
ATOM      3  C5  UNL d   1       0.987  -0.181   0.263  0.00  0.00     0.002 A 
ATOM      4  C6  UNL d   1      -0.230  -0.383   0.910  0.00  0.00    -0.004 A 
ATOM      5  C7  UNL d   1      -0.758  -1.668   1.009  0.00  0.00     0.002 A 
ATOM      6  C8  UNL d   1      -0.065  -2.754   0.470  0.00  0.00     0.002 A 
ENDROOT
BRANCH   1   7
ATOM      7  C2  UNL d   1       1.924  -3.744  -0.732  0.00  0.00     0.056 C 
BRANCH   7   8
ATOM      8  C1  UNL d   1       3.438  -3.679  -0.500  0.00  0.00     0.007 C 
ATOM      9  C   UNL d   1       4.130  -5.023  -0.677  0.00  0.00     0.009 C 
ENDBRANCH   7   8
ENDBRANCH   1   7
TORSDOF 2
ENDMDL
