MODEL 1
REMARK minimizedAffinity 2.77654886
REMARK minimizedRMSD -1
REMARK  2 active torsions:
REMARK  status: ('A' for Active; 'I' for Inactive)
REMARK    1  A    between atoms: C1_2  and  C2_3 
REMARK    2  A    between atoms: C2_3  and  C3_4 
ROOT
ATOM      1  C3  UNL d   1       1.328  -2.744  -0.071  0.00  0.00    -0.075 A 
ATOM      2  C4  UNL d   1       2.122  -1.662   0.333  0.00  0.00     0.002 A 
ATOM      3  C5  UNL d   1       1.534  -0.469   0.754  0.00  0.00     0.002 A 
ATOM      4  C6  UNL d   1       0.147  -0.340   0.768  0.00  0.00    -0.004 A 
ATOM      5  C7  UNL d   1      -0.652  -1.403   0.353  0.00  0.00     0.002 A 
ATOM      6  C8  UNL d   1      -0.066  -2.599  -0.065  0.00  0.00     0.002 A 
ENDROOT
BRANCH   1   7
ATOM      7  C2  UNL d   1       1.958  -4.048  -0.500  0.00  0.00     0.056 C 
BRANCH   7   8
ATOM      8  C1  UNL d   1       3.485  -4.071  -0.380  0.00  0.00     0.007 C 
ATOM      9  C   UNL d   1       4.048  -5.468  -0.156  0.00  0.00     0.009 C 
ENDBRANCH   7   8
ENDBRANCH   1   7
TORSDOF 2
ENDMDL
