MODEL 1
REMARK minimizedAffinity 5.97583914
REMARK minimizedRMSD -1
REMARK  2 active torsions:
REMARK  status: ('A' for Active; 'I' for Inactive)
REMARK    1  A    between atoms: C1_2  and  C2_3 
REMARK    2  A    between atoms: C2_3  and  C3_4 
ROOT
ATOM      1  C3  UNL d   1       1.407  -3.030  -0.148  0.00  0.00    -0.075 A 
ATOM      2  C4  UNL d   1       2.158  -1.857  -0.311  0.00  0.00     0.002 A 
ATOM      3  C5  UNL d   1       1.670  -0.634   0.149  0.00  0.00     0.002 A 
ATOM      4  C6  UNL d   1       0.424  -0.566   0.768  0.00  0.00    -0.004 A 
ATOM      5  C7  UNL d   1      -0.338  -1.722   0.921  0.00  0.00     0.002 A 
ATOM      6  C8  UNL d   1       0.150  -2.948   0.465  0.00  0.00     0.002 A 
ENDROOT
BRANCH   1   7
ATOM      7  C2  UNL d   1       1.943  -4.362  -0.617  0.00  0.00     0.056 C 
BRANCH   7   8
ATOM      8  C1  UNL d   1       3.473  -4.443  -0.650  0.00  0.00     0.007 C 
ATOM      9  C   UNL d   1       4.011  -5.804  -0.233  0.00  0.00     0.009 C 
ENDBRANCH   7   8
ENDBRANCH   1   7
TORSDOF 2
ENDMDL
