MODEL 1
REMARK minimizedAffinity 3.56249785
REMARK minimizedRMSD -1
REMARK  2 active torsions:
REMARK  status: ('A' for Active; 'I' for Inactive)
REMARK    1  A    between atoms: C1_2  and  C2_3 
REMARK    2  A    between atoms: C2_3  and  C3_4 
ROOT
ATOM      1  C3  UNL d   1       1.608  -2.795  -0.137  0.00  0.00    -0.075 A 
ATOM      2  C4  UNL d   1       0.294  -3.121   0.229  0.00  0.00     0.002 A 
ATOM      3  C5  UNL d   1      -0.523  -2.178   0.854  0.00  0.00     0.002 A 
ATOM      4  C6  UNL d   1      -0.035  -0.903   1.129  0.00  0.00    -0.004 A 
ATOM      5  C7  UNL d   1       1.274  -0.573   0.785  0.00  0.00     0.002 A 
ATOM      6  C8  UNL d   1       2.092  -1.513   0.156  0.00  0.00     0.002 A 
ENDROOT
BRANCH   1   7
ATOM      7  C2  UNL d   1       2.487  -3.802  -0.839  0.00  0.00     0.056 C 
BRANCH   7   8
ATOM      8  C1  UNL d   1       3.970  -3.703  -0.466  0.00  0.00     0.007 C 
ATOM      9  C   UNL d   1       4.617  -5.058  -0.211  0.00  0.00     0.009 C 
ENDBRANCH   7   8
ENDBRANCH   1   7
TORSDOF 2
ENDMDL
