MODEL 1
REMARK minimizedAffinity -4.25416613
REMARK minimizedRMSD -1
REMARK  0 active torsions:
REMARK  status: ('A' for Active; 'I' for Inactive)
ROOT
ATOM      1  C4' PXY d   1       1.332  -1.697  -0.656  0.00  0.00     0.077 C 
ATOM      2  C1' PXY d   1      -2.103   2.504   1.336  0.00  0.00     0.077 C 
ATOM      3  C1  PXY d   1      -1.209   1.402   0.802  0.00  0.00    -0.082 A 
ATOM      4  C2  PXY d   1      -0.595   0.591   1.648  0.00  0.00     0.003 A 
ATOM      5  C3  PXY d   1       0.243  -0.391   1.183  0.00  0.00     0.003 A 
ATOM      6  C4  PXY d   1       0.412  -0.577  -0.163  0.00  0.00    -0.082 A 
ATOM      7  C5  PXY d   1      -0.219   0.240  -1.032  0.00  0.00     0.003 A 
ATOM      8  C6  PXY d   1      -1.033   1.256  -0.539  0.00  0.00     0.003 A 
ENDROOT
TORSDOF 0
ENDMDL
