MODEL 1
REMARK minimizedAffinity 2.9792645
REMARK minimizedRMSD -1
REMARK  0 active torsions:
REMARK  status: ('A' for Active; 'I' for Inactive)
ROOT
ATOM      1  C4' PXY d   1       0.809  -1.566  -2.488  0.00  0.00     0.077 C 
ATOM      2  C1' PXY d   1      -0.210   1.528   2.287  0.00  0.00     0.077 C 
ATOM      3  C1  PXY d   1       0.067   0.711   1.041  0.00  0.00    -0.082 A 
ATOM      4  C2  PXY d   1      -0.339   1.156  -0.137  0.00  0.00     0.003 A 
ATOM      5  C3  PXY d   1      -0.125   0.414  -1.270  0.00  0.00     0.003 A 
ATOM      6  C4  PXY d   1       0.559  -0.770  -1.204  0.00  0.00    -0.082 A 
ATOM      7  C5  PXY d   1       0.986  -1.226  -0.008  0.00  0.00     0.003 A 
ATOM      8  C6  PXY d   1       0.722  -0.478   1.136  0.00  0.00     0.003 A 
ENDROOT
TORSDOF 0
ENDMDL
