MODEL 1
REMARK minimizedAffinity -3.58753824
REMARK minimizedRMSD -1
REMARK  0 active torsions:
REMARK  status: ('A' for Active; 'I' for Inactive)
ROOT
ATOM      1  C4' PXY d   1       0.747  -2.901  -2.284  0.00  0.00     0.077 C 
ATOM      2  C1' PXY d   1      -0.592   0.864   1.894  0.00  0.00     0.077 C 
ATOM      3  C1  PXY d   1      -0.233  -0.115   0.793  0.00  0.00    -0.082 A 
ATOM      4  C2  PXY d   1      -1.068  -1.095   0.491  0.00  0.00     0.003 A 
ATOM      5  C3  PXY d   1      -0.745  -2.008  -0.480  0.00  0.00     0.003 A 
ATOM      6  C4  PXY d   1       0.422  -1.884  -1.186  0.00  0.00    -0.082 A 
ATOM      7  C5  PXY d   1       1.275  -0.880  -0.891  0.00  0.00     0.003 A 
ATOM      8  C6  PXY d   1       0.947   0.012   0.126  0.00  0.00     0.003 A 
ENDROOT
TORSDOF 0
ENDMDL
