MODEL 1
REMARK minimizedAffinity -5.83048344
REMARK minimizedRMSD -1
REMARK  0 active torsions:
REMARK  status: ('A' for Active; 'I' for Inactive)
ROOT
ATOM      1  C4' PXY d   1       2.727  -5.435   1.484  0.00  0.00     0.077 C 
ATOM      2  C1' PXY d   1      -0.424  -2.752  -2.553  0.00  0.00     0.077 C 
ATOM      3  C1  PXY d   1       0.392  -3.463  -1.491  0.00  0.00    -0.082 A 
ATOM      4  C2  PXY d   1       1.466  -2.875  -0.989  0.00  0.00     0.003 A 
ATOM      5  C3  PXY d   1       2.233  -3.517  -0.051  0.00  0.00     0.003 A 
ATOM      6  C4  PXY d   1       1.868  -4.751   0.417  0.00  0.00    -0.082 A 
ATOM      7  C5  PXY d   1       0.767  -5.352  -0.083  0.00  0.00     0.003 A 
ATOM      8  C6  PXY d   1       0.025  -4.701  -1.064  0.00  0.00     0.003 A 
ENDROOT
TORSDOF 0
ENDMDL
