MODEL 1
REMARK minimizedAffinity -3.68758345
REMARK minimizedRMSD -1
REMARK  0 active torsions:
REMARK  status: ('A' for Active; 'I' for Inactive)
ROOT
ATOM      1  C4' PXY d   1       1.372  -6.000  -0.004  0.00  0.00     0.077 C 
ATOM      2  C1' PXY d   1       0.337  -1.176  -3.016  0.00  0.00     0.077 C 
ATOM      3  C1  PXY d   1       0.597  -2.446  -2.230  0.00  0.00    -0.082 A 
ATOM      4  C2  PXY d   1       1.474  -2.433  -1.239  0.00  0.00     0.003 A 
ATOM      5  C3  PXY d   1       1.744  -3.580  -0.538  0.00  0.00     0.003 A 
ATOM      6  C4  PXY d   1       1.071  -4.739  -0.819  0.00  0.00    -0.082 A 
ATOM      7  C5  PXY d   1       0.167  -4.757  -1.822  0.00  0.00     0.003 A 
ATOM      8  C6  PXY d   1      -0.063  -3.592  -2.548  0.00  0.00     0.003 A 
ENDROOT
TORSDOF 0
ENDMDL
