MODEL 1
REMARK minimizedAffinity -2.92381001
REMARK minimizedRMSD -1
REMARK  0 active torsions:
REMARK  status: ('A' for Active; 'I' for Inactive)
ROOT
ATOM      1  C4' PXY d   1       2.642  -6.000   1.318  0.00  0.00     0.077 C 
ATOM      2  C1' PXY d   1      -0.105  -2.732  -2.579  0.00  0.00     0.077 C 
ATOM      3  C1  PXY d   1       0.605  -3.598  -1.557  0.00  0.00    -0.082 A 
ATOM      4  C2  PXY d   1       1.509  -3.056  -0.757  0.00  0.00     0.003 A 
ATOM      5  C3  PXY d   1       2.184  -3.831   0.151  0.00  0.00     0.003 A 
ATOM      6  C4  PXY d   1       1.893  -5.163   0.278  0.00  0.00    -0.082 A 
ATOM      7  C5  PXY d   1       0.965  -5.720  -0.528  0.00  0.00     0.003 A 
ATOM      8  C6  PXY d   1       0.320  -4.925  -1.471  0.00  0.00     0.003 A 
ENDROOT
TORSDOF 0
ENDMDL
