MODEL 1
REMARK minimizedAffinity -2.82203746
REMARK minimizedRMSD -1
REMARK  0 active torsions:
REMARK  status: ('A' for Active; 'I' for Inactive)
ROOT
ATOM      1  C4' PXY d   1       1.671  -0.743  -0.533  0.00  0.00     0.077 C 
ATOM      2  C1' PXY d   1      -2.581   2.479   1.694  0.00  0.00     0.077 C 
ATOM      3  C1  PXY d   1      -1.460   1.635   1.121  0.00  0.00    -0.082 A 
ATOM      4  C2  PXY d   1      -1.292   1.572  -0.190  0.00  0.00     0.003 A 
ATOM      5  C3  PXY d   1      -0.303   0.789  -0.726  0.00  0.00     0.003 A 
ATOM      6  C4  PXY d   1       0.557   0.104   0.090  0.00  0.00    -0.082 A 
ATOM      7  C5  PXY d   1       0.400   0.171   1.429  0.00  0.00     0.003 A 
ATOM      8  C6  PXY d   1      -0.636   0.939   1.952  0.00  0.00     0.003 A 
ENDROOT
TORSDOF 0
ENDMDL
