MODEL 1
REMARK minimizedAffinity -6.03712988
REMARK minimizedRMSD -1
REMARK  0 active torsions:
REMARK  status: ('A' for Active; 'I' for Inactive)
ROOT
ATOM      1  C4' PXY d   1       1.365  -0.733  -0.384  0.00  0.00     0.077 C 
ATOM      2  C1' PXY d   1      -2.174   3.457   1.441  0.00  0.00     0.077 C 
ATOM      3  C1  PXY d   1      -1.247   2.363   0.950  0.00  0.00    -0.082 A 
ATOM      4  C2  PXY d   1      -1.101   1.260   1.666  0.00  0.00     0.003 A 
ATOM      5  C3  PXY d   1      -0.243   0.273   1.253  0.00  0.00     0.003 A 
ATOM      6  C4  PXY d   1       0.433   0.394   0.068  0.00  0.00    -0.082 A 
ATOM      7  C5  PXY d   1       0.281   1.512  -0.673  0.00  0.00     0.003 A 
ATOM      8  C6  PXY d   1      -0.564   2.519  -0.216  0.00  0.00     0.003 A 
ENDROOT
TORSDOF 0
ENDMDL
