MODEL 1
REMARK minimizedAffinity -3.94170403
REMARK minimizedRMSD -1
REMARK  0 active torsions:
REMARK  status: ('A' for Active; 'I' for Inactive)
ROOT
ATOM      1  C4' PXY d   1      -1.506   3.919   0.653  0.00  0.00     0.077 C 
ATOM      2  C1' PXY d   1       1.060  -1.134  -0.484  0.00  0.00     0.077 C 
ATOM      3  C1  PXY d   1       0.378   0.185  -0.178  0.00  0.00    -0.082 A 
ATOM      4  C2  PXY d   1       0.529   1.206  -1.006  0.00  0.00     0.003 A 
ATOM      5  C3  PXY d   1      -0.055   2.415  -0.729  0.00  0.00     0.003 A 
ATOM      6  C4  PXY d   1      -0.844   2.566   0.380  0.00  0.00    -0.082 A 
ATOM      7  C5  PXY d   1      -1.011   1.526   1.224  0.00  0.00     0.003 A 
ATOM      8  C6  PXY d   1      -0.376   0.319   0.946  0.00  0.00     0.003 A 
ENDROOT
TORSDOF 0
ENDMDL
