MODEL 1
REMARK minimizedAffinity -3.55380416
REMARK minimizedRMSD -1
REMARK  0 active torsions:
REMARK  status: ('A' for Active; 'I' for Inactive)
ROOT
ATOM      1  C4' PXY d   1       1.645  -1.256  -0.654  0.00  0.00     0.077 C 
ATOM      2  C1' PXY d   1      -2.580   2.162   1.315  0.00  0.00     0.077 C 
ATOM      3  C1  PXY d   1      -1.465   1.269   0.809  0.00  0.00    -0.082 A 
ATOM      4  C2  PXY d   1      -1.400   0.968  -0.478  0.00  0.00     0.003 A 
ATOM      5  C3  PXY d   1      -0.417   0.137  -0.948  0.00  0.00     0.003 A 
ATOM      6  C4  PXY d   1       0.542  -0.350  -0.100  0.00  0.00    -0.082 A 
ATOM      7  C5  PXY d   1       0.489  -0.040   1.212  0.00  0.00     0.003 A 
ATOM      8  C6  PXY d   1      -0.541   0.773   1.676  0.00  0.00     0.003 A 
ENDROOT
TORSDOF 0
ENDMDL
