MODEL 1
REMARK minimizedAffinity 1.00029576
REMARK minimizedRMSD -1
REMARK  0 active torsions:
REMARK  status: ('A' for Active; 'I' for Inactive)
ROOT
ATOM      1  C4' PXY d   1      -0.362   1.037  -0.071  0.00  0.00     0.077 C 
ATOM      2  C1' PXY d   1      -0.126  -0.396  -5.666  0.00  0.00     0.077 C 
ATOM      3  C1  PXY d   1      -0.197  -0.011  -4.202  0.00  0.00    -0.082 A 
ATOM      4  C2  PXY d   1       0.819  -0.292  -3.402  0.00  0.00     0.003 A 
ATOM      5  C3  PXY d   1       0.758   0.020  -2.068  0.00  0.00     0.003 A 
ATOM      6  C4  PXY d   1      -0.331   0.675  -1.559  0.00  0.00    -0.082 A 
ATOM      7  C5  PXY d   1      -1.366   0.975  -2.371  0.00  0.00     0.003 A 
ATOM      8  C6  PXY d   1      -1.303   0.613  -3.713  0.00  0.00     0.003 A 
ENDROOT
TORSDOF 0
ENDMDL
