MODEL 1
REMARK minimizedAffinity -1.39305615
REMARK minimizedRMSD -1
REMARK  0 active torsions:
REMARK  status: ('A' for Active; 'I' for Inactive)
ROOT
ATOM      1  C4' PXY d   1      -1.339   1.726  -2.516  0.00  0.00     0.077 C 
ATOM      2  C1' PXY d   1      -0.435   0.802   3.119  0.00  0.00     0.077 C 
ATOM      3  C1  PXY d   1      -0.685   1.048   1.644  0.00  0.00    -0.082 A 
ATOM      4  C2  PXY d   1       0.075   0.446   0.743  0.00  0.00     0.003 A 
ATOM      5  C3  PXY d   1      -0.116   0.682  -0.595  0.00  0.00     0.003 A 
ATOM      6  C4  PXY d   1      -1.130   1.500  -1.016  0.00  0.00    -0.082 A 
ATOM      7  C5  PXY d   1      -1.916   2.109  -0.103  0.00  0.00     0.003 A 
ATOM      8  C6  PXY d   1      -1.679   1.889   1.251  0.00  0.00     0.003 A 
ENDROOT
TORSDOF 0
ENDMDL
