MODEL 1
REMARK minimizedAffinity -3.49810243
REMARK minimizedRMSD -1
REMARK  0 active torsions:
REMARK  status: ('A' for Active; 'I' for Inactive)
ROOT
ATOM      1  C4' PXY d   1       0.541   0.703  -2.874  0.00  0.00     0.077 C 
ATOM      2  C1' PXY d   1      -0.845   1.184   2.718  0.00  0.00     0.077 C 
ATOM      3  C1  PXY d   1      -0.470   1.054   1.255  0.00  0.00    -0.082 A 
ATOM      4  C2  PXY d   1      -1.128   1.755   0.346  0.00  0.00     0.003 A 
ATOM      5  C3  PXY d   1      -0.823   1.625  -0.985  0.00  0.00     0.003 A 
ATOM      6  C4  PXY d   1       0.202   0.810  -1.384  0.00  0.00    -0.082 A 
ATOM      7  C5  PXY d   1       0.885   0.100  -0.462  0.00  0.00     0.003 A 
ATOM      8  C6  PXY d   1       0.533   0.214   0.880  0.00  0.00     0.003 A 
ENDROOT
TORSDOF 0
ENDMDL
