MODEL 1
REMARK minimizedAffinity -0.237762421
REMARK minimizedRMSD -1
REMARK  0 active torsions:
REMARK  status: ('A' for Active; 'I' for Inactive)
ROOT
ATOM      1  C4' PXY d   1       0.992   2.308  -1.694  0.00  0.00     0.077 C 
ATOM      2  C1' PXY d   1      -0.765  -0.315   3.149  0.00  0.00     0.077 C 
ATOM      3  C1  PXY d   1      -0.310   0.384   1.883  0.00  0.00    -0.082 A 
ATOM      4  C2  PXY d   1      -0.040  -0.330   0.802  0.00  0.00     0.003 A 
ATOM      5  C3  PXY d   1       0.403   0.282  -0.341  0.00  0.00     0.003 A 
ATOM      6  C4  PXY d   1       0.521   1.645  -0.396  0.00  0.00    -0.082 A 
ATOM      7  C5  PXY d   1       0.237   2.382   0.699  0.00  0.00     0.003 A 
ATOM      8  C6  PXY d   1      -0.172   1.737   1.863  0.00  0.00     0.003 A 
ENDROOT
TORSDOF 0
ENDMDL
