MODEL 1
REMARK minimizedAffinity 6.18356276
REMARK minimizedRMSD -1
REMARK  0 active torsions:
REMARK  status: ('A' for Active; 'I' for Inactive)
ROOT
ATOM      1  C4' PXY d   1       0.382  -3.766  -2.416  0.00  0.00     0.077 C 
ATOM      2  C1' PXY d   1       2.985  -5.792   2.331  0.00  0.00     0.077 C 
ATOM      3  C1  PXY d   1       2.305  -5.248   1.090  0.00  0.00    -0.082 A 
ATOM      4  C2  PXY d   1       1.430  -6.000   0.442  0.00  0.00     0.003 A 
ATOM      5  C3  PXY d   1       0.829  -5.536  -0.700  0.00  0.00     0.003 A 
ATOM      6  C4  PXY d   1       1.087  -4.270  -1.153  0.00  0.00    -0.082 A 
ATOM      7  C5  PXY d   1       1.970  -3.493  -0.492  0.00  0.00     0.003 A 
ATOM      8  C6  PXY d   1       2.600  -3.998   0.642  0.00  0.00     0.003 A 
ENDROOT
TORSDOF 0
ENDMDL
