MODEL 1
REMARK minimizedAffinity -3.37360168
REMARK minimizedRMSD -1
REMARK  0 active torsions:
REMARK  status: ('A' for Active; 'I' for Inactive)
ROOT
ATOM      1  C4' PXY d   1      -0.816   1.164   3.106  0.00  0.00     0.077 C 
ATOM      2  C1' PXY d   1      -1.012   2.327  -2.553  0.00  0.00     0.077 C 
ATOM      3  C1  PXY d   1      -0.970   2.031  -1.067  0.00  0.00    -0.082 A 
ATOM      4  C2  PXY d   1       0.134   1.538  -0.530  0.00  0.00     0.003 A 
ATOM      5  C3  PXY d   1       0.178   1.234   0.807  0.00  0.00     0.003 A 
ATOM      6  C4  PXY d   1      -0.900   1.487   1.611  0.00  0.00    -0.082 A 
ATOM      7  C5  PXY d   1      -2.027   2.000   1.072  0.00  0.00     0.003 A 
ATOM      8  C6  PXY d   1      -2.066   2.263  -0.294  0.00  0.00     0.003 A 
ENDROOT
TORSDOF 0
ENDMDL
