MODEL 1
REMARK minimizedAffinity -0.290119082
REMARK minimizedRMSD -1
REMARK  0 active torsions:
REMARK  status: ('A' for Active; 'I' for Inactive)
ROOT
ATOM      1  C4' PXY d   1      -1.126   1.147  -2.200  0.00  0.00     0.077 C 
ATOM      2  C1' PXY d   1      -1.083   1.692   3.555  0.00  0.00     0.077 C 
ATOM      3  C1  PXY d   1      -1.107   1.547   2.046  0.00  0.00    -0.082 A 
ATOM      4  C2  PXY d   1      -0.005   1.193   1.405  0.00  0.00     0.003 A 
ATOM      5  C3  PXY d   1      -0.001   1.089   0.038  0.00  0.00     0.003 A 
ATOM      6  C4  PXY d   1      -1.150   1.297  -0.676  0.00  0.00    -0.082 A 
ATOM      7  C5  PXY d   1      -2.282   1.647  -0.029  0.00  0.00     0.003 A 
ATOM      8  C6  PXY d   1      -2.255   1.788   1.356  0.00  0.00     0.003 A 
ENDROOT
TORSDOF 0
ENDMDL
