MODEL 1
REMARK minimizedAffinity 3.08612466
REMARK minimizedRMSD -1
REMARK  0 active torsions:
REMARK  status: ('A' for Active; 'I' for Inactive)
ROOT
ATOM      1  C4' PXY d   1       0.250  -2.485  -0.838  0.00  0.00     0.077 C 
ATOM      2  C1' PXY d   1      -0.842   2.243   2.304  0.00  0.00     0.077 C 
ATOM      3  C1  PXY d   1      -0.550   1.010   1.470  0.00  0.00    -0.082 A 
ATOM      4  C2  PXY d   1      -1.275  -0.083   1.644  0.00  0.00     0.003 A 
ATOM      5  C3  PXY d   1      -1.003  -1.217   0.921  0.00  0.00     0.003 A 
ATOM      6  C4  PXY d   1      -0.015  -1.214  -0.026  0.00  0.00    -0.082 A 
ATOM      7  C5  PXY d   1       0.722  -0.099  -0.216  0.00  0.00     0.003 A 
ATOM      8  C6  PXY d   1       0.458   1.028   0.556  0.00  0.00     0.003 A 
ENDROOT
TORSDOF 0
ENDMDL
