MODEL 1
REMARK minimizedAffinity 5.33798599
REMARK minimizedRMSD -1
REMARK  0 active torsions:
REMARK  status: ('A' for Active; 'I' for Inactive)
ROOT
ATOM      1  C4' PXY d   1       0.788   2.241  -2.059  0.00  0.00     0.077 C 
ATOM      2  C1' PXY d   1      -0.824   0.339   3.157  0.00  0.00     0.077 C 
ATOM      3  C1  PXY d   1      -0.407   0.849   1.791  0.00  0.00    -0.082 A 
ATOM      4  C2  PXY d   1      -0.111  -0.014   0.833  0.00  0.00     0.003 A 
ATOM      5  C3  PXY d   1       0.298   0.430  -0.398  0.00  0.00     0.003 A 
ATOM      6  C4  PXY d   1       0.354   1.772  -0.668  0.00  0.00    -0.082 A 
ATOM      7  C5  PXY d   1       0.043   2.658   0.302  0.00  0.00     0.003 A 
ATOM      8  C6  PXY d   1      -0.330   2.187   1.557  0.00  0.00     0.003 A 
ENDROOT
TORSDOF 0
ENDMDL
