MODEL 1
REMARK minimizedAffinity 0.0505032875
REMARK minimizedRMSD -1
REMARK  0 active torsions:
REMARK  status: ('A' for Active; 'I' for Inactive)
ROOT
ATOM      1  C4' PXY d   1      -2.550   2.605   1.368  0.00  0.00     0.077 C 
ATOM      2  C1' PXY d   1       1.601  -1.091  -0.220  0.00  0.00     0.077 C 
ATOM      3  C1  PXY d   1       0.509  -0.130   0.206  0.00  0.00    -0.082 A 
ATOM      4  C2  PXY d   1      -0.034   0.682  -0.687  0.00  0.00     0.003 A 
ATOM      5  C3  PXY d   1      -0.999   1.580  -0.312  0.00  0.00     0.003 A 
ATOM      6  C4  PXY d   1      -1.452   1.611   0.980  0.00  0.00    -0.082 A 
ATOM      7  C5  PXY d   1      -0.910   0.779   1.895  0.00  0.00     0.003 A 
ATOM      8  C6  PXY d   1       0.098  -0.096   1.503  0.00  0.00     0.003 A 
ENDROOT
TORSDOF 0
ENDMDL
