MODEL 1
REMARK minimizedAffinity -5.19720459
REMARK minimizedRMSD -1
REMARK  3 active torsions:
REMARK  status: ('A' for Active; 'I' for Inactive)
REMARK    1  A    between atoms: C3'_2  and  C2'_3 
REMARK    2  A    between atoms: C2'_3  and  C1'_4 
REMARK    3  A    between atoms: C1'_4  and  C1_5 
ROOT
ATOM      1  C1  N4B d   1      -0.424  -0.563   0.076  0.00  0.00    -0.075 A 
ATOM      2  C2  N4B d   1      -1.718  -0.449  -0.477  0.00  0.00     0.002 A 
ATOM      3  C3  N4B d   1      -2.716  -1.300  -0.069  0.00  0.00     0.002 A 
ATOM      4  C4  N4B d   1      -2.440  -2.280   0.872  0.00  0.00    -0.004 A 
ATOM      5  C5  N4B d   1      -1.194  -2.367   1.420  0.00  0.00     0.002 A 
ATOM      6  C6  N4B d   1      -0.182  -1.516   1.023  0.00  0.00     0.002 A 
ENDROOT
BRANCH   1   7
ATOM      7  C1' N4B d   1       0.721   0.289  -0.400  0.00  0.00     0.057 C 
BRANCH   7   8
ATOM      8  C2' N4B d   1       1.339   1.011   0.794  0.00  0.00     0.009 C 
BRANCH   8   9
ATOM      9  C3' N4B d   1       2.430   1.979   0.370  0.00  0.00     0.004 C 
ATOM     10  C4' N4B d   1       2.799   2.948   1.452  0.00  0.00     0.003 C 
ENDBRANCH   8   9
ENDBRANCH   7   8
ENDBRANCH   1   7
TORSDOF 3
ENDMDL
