MODEL 1
REMARK minimizedAffinity -4.72480011
REMARK minimizedRMSD -1
REMARK  3 active torsions:
REMARK  status: ('A' for Active; 'I' for Inactive)
REMARK    1  A    between atoms: C3'_2  and  C2'_3 
REMARK    2  A    between atoms: C2'_3  and  C1'_4 
REMARK    3  A    between atoms: C1'_4  and  C1_5 
ROOT
ATOM      1  C1  N4B d   1      -0.816  -0.234  -0.730  0.00  0.00    -0.075 A 
ATOM      2  C2  N4B d   1      -1.602  -0.110   0.437  0.00  0.00     0.002 A 
ATOM      3  C3  N4B d   1      -2.865  -0.648   0.474  0.00  0.00     0.002 A 
ATOM      4  C4  N4B d   1      -3.368  -1.296  -0.645  0.00  0.00    -0.004 A 
ATOM      5  C5  N4B d   1      -2.592  -1.434  -1.758  0.00  0.00     0.002 A 
ATOM      6  C6  N4B d   1      -1.320  -0.902  -1.809  0.00  0.00     0.002 A 
ENDROOT
BRANCH   1   7
ATOM      7  C1' N4B d   1       0.537   0.412  -0.848  0.00  0.00     0.057 C 
BRANCH   7   8
ATOM      8  C2' N4B d   1       1.217   0.403   0.518  0.00  0.00     0.009 C 
BRANCH   8   9
ATOM      9  C3' N4B d   1       2.382   1.376   0.579  0.00  0.00     0.004 C 
ATOM     10  C4' N4B d   1       2.438   2.135   1.871  0.00  0.00     0.003 C 
ENDBRANCH   8   9
ENDBRANCH   7   8
ENDBRANCH   1   7
TORSDOF 3
ENDMDL
