MODEL 1
REMARK minimizedAffinity 2.03792572
REMARK minimizedRMSD -1
REMARK  3 active torsions:
REMARK  status: ('A' for Active; 'I' for Inactive)
REMARK    1  A    between atoms: C3'_2  and  C2'_3 
REMARK    2  A    between atoms: C2'_3  and  C1'_4 
REMARK    3  A    between atoms: C1'_4  and  C1_5 
ROOT
ATOM      1  C1  N4B d   1      -2.433  -0.139   3.603  0.00  0.00    -0.075 A 
ATOM      2  C2  N4B d   1      -3.182   0.905   4.190  0.00  0.00     0.002 A 
ATOM      3  C3  N4B d   1      -3.827   0.699   5.385  0.00  0.00     0.002 A 
ATOM      4  C4  N4B d   1      -3.753  -0.542   5.999  0.00  0.00    -0.004 A 
ATOM      5  C5  N4B d   1      -3.007  -1.537   5.439  0.00  0.00     0.002 A 
ATOM      6  C6  N4B d   1      -2.350  -1.343   4.240  0.00  0.00     0.002 A 
ENDROOT
BRANCH   1   7
ATOM      7  C1' N4B d   1      -1.781   0.012   2.256  0.00  0.00     0.057 C 
BRANCH   7   8
ATOM      8  C2' N4B d   1      -1.052  -1.282   1.905  0.00  0.00     0.009 C 
BRANCH   8   9
ATOM      9  C3' N4B d   1      -0.039  -1.079   0.792  0.00  0.00     0.004 C 
ATOM     10  C4' N4B d   1      -0.458  -0.027  -0.191  0.00  0.00     0.003 C 
ENDBRANCH   8   9
ENDBRANCH   7   8
ENDBRANCH   1   7
TORSDOF 3
ENDMDL
