MODEL 1
REMARK minimizedAffinity -3.90294313
REMARK minimizedRMSD -1
REMARK  3 active torsions:
REMARK  status: ('A' for Active; 'I' for Inactive)
REMARK    1  A    between atoms: C3'_2  and  C2'_3 
REMARK    2  A    between atoms: C2'_3  and  C1'_4 
REMARK    3  A    between atoms: C1'_4  and  C1_5 
ROOT
ATOM      1  C1  N4B d   1       1.954   1.248   0.127  0.00  0.00    -0.075 A 
ATOM      2  C2  N4B d   1       2.870   1.109   1.193  0.00  0.00     0.002 A 
ATOM      3  C3  N4B d   1       3.366   2.225   1.821  0.00  0.00     0.002 A 
ATOM      4  C4  N4B d   1       2.977   3.485   1.390  0.00  0.00    -0.004 A 
ATOM      5  C5  N4B d   1       2.073   3.610   0.376  0.00  0.00     0.002 A 
ATOM      6  C6  N4B d   1       1.563   2.497  -0.261  0.00  0.00     0.002 A 
ENDROOT
BRANCH   1   7
ATOM      7  C1' N4B d   1       1.450   0.061  -0.647  0.00  0.00     0.057 C 
BRANCH   7   8
ATOM      8  C2' N4B d   1      -0.018  -0.175  -0.303  0.00  0.00     0.009 C 
BRANCH   8   9
ATOM      9  C3' N4B d   1      -0.901  -0.156  -1.539  0.00  0.00     0.004 C 
ATOM     10  C4' N4B d   1      -1.998  -1.177  -1.485  0.00  0.00     0.003 C 
ENDBRANCH   8   9
ENDBRANCH   7   8
ENDBRANCH   1   7
TORSDOF 3
ENDMDL
