MODEL 1
REMARK minimizedAffinity -5.67252254
REMARK minimizedRMSD -1
REMARK  3 active torsions:
REMARK  status: ('A' for Active; 'I' for Inactive)
REMARK    1  A    between atoms: C3'_2  and  C2'_3 
REMARK    2  A    between atoms: C2'_3  and  C1'_4 
REMARK    3  A    between atoms: C1'_4  and  C1_5 
ROOT
ATOM      1  C1  N4B d   1      -0.880  -0.760  -0.036  0.00  0.00    -0.075 A 
ATOM      2  C2  N4B d   1      -2.079  -1.154  -0.670  0.00  0.00     0.002 A 
ATOM      3  C3  N4B d   1      -2.879  -2.110  -0.092  0.00  0.00     0.002 A 
ATOM      4  C4  N4B d   1      -2.492  -2.696   1.104  0.00  0.00    -0.004 A 
ATOM      5  C5  N4B d   1      -1.346  -2.291   1.722  0.00  0.00     0.002 A 
ATOM      6  C6  N4B d   1      -0.534  -1.329   1.155  0.00  0.00     0.002 A 
ENDROOT
BRANCH   1   7
ATOM      7  C1' N4B d   1       0.069   0.219  -0.671  0.00  0.00     0.057 C 
BRANCH   7   8
ATOM      8  C2' N4B d   1       1.401   0.179   0.072  0.00  0.00     0.009 C 
BRANCH   8   9
ATOM      9  C3' N4B d   1       2.325   1.307  -0.356  0.00  0.00     0.004 C 
ATOM     10  C4' N4B d   1       3.053   1.930   0.797  0.00  0.00     0.003 C 
ENDBRANCH   8   9
ENDBRANCH   7   8
ENDBRANCH   1   7
TORSDOF 3
ENDMDL
