MODEL 1
REMARK minimizedAffinity -1.69991124
REMARK minimizedRMSD -1
REMARK  3 active torsions:
REMARK  status: ('A' for Active; 'I' for Inactive)
REMARK    1  A    between atoms: C3'_2  and  C2'_3 
REMARK    2  A    between atoms: C2'_3  and  C1'_4 
REMARK    3  A    between atoms: C1'_4  and  C1_5 
ROOT
ATOM      1  C1  N4B d   1       1.867   1.310   0.547  0.00  0.00    -0.075 A 
ATOM      2  C2  N4B d   1       2.578   2.059  -0.417  0.00  0.00     0.002 A 
ATOM      3  C3  N4B d   1       3.240   3.203  -0.045  0.00  0.00     0.002 A 
ATOM      4  C4  N4B d   1       3.192   3.626   1.275  0.00  0.00    -0.004 A 
ATOM      5  C5  N4B d   1       2.525   2.883   2.204  0.00  0.00     0.002 A 
ATOM      6  C6  N4B d   1       1.857   1.729   1.845  0.00  0.00     0.002 A 
ENDROOT
BRANCH   1   7
ATOM      7  C1' N4B d   1       1.056   0.100   0.172  0.00  0.00     0.057 C 
BRANCH   7   8
ATOM      8  C2' N4B d   1       0.106   0.466  -0.964  0.00  0.00     0.009 C 
BRANCH   8   9
ATOM      9  C3' N4B d   1      -1.349   0.410  -0.528  0.00  0.00     0.004 C 
ATOM     10  C4' N4B d   1      -2.139  -0.623  -1.275  0.00  0.00     0.003 C 
ENDBRANCH   8   9
ENDBRANCH   7   8
ENDBRANCH   1   7
TORSDOF 3
ENDMDL
