MODEL 1
REMARK minimizedAffinity -4.4428215
REMARK minimizedRMSD -1
REMARK  3 active torsions:
REMARK  status: ('A' for Active; 'I' for Inactive)
REMARK    1  A    between atoms: C3'_2  and  C2'_3 
REMARK    2  A    between atoms: C2'_3  and  C1'_4 
REMARK    3  A    between atoms: C1'_4  and  C1_5 
ROOT
ATOM      1  C1  N4B d   1      -0.020  -0.022  -0.284  0.00  0.00    -0.075 A 
ATOM      2  C2  N4B d   1      -0.824  -0.343   0.832  0.00  0.00     0.002 A 
ATOM      3  C3  N4B d   1      -2.153  -0.641   0.659  0.00  0.00     0.002 A 
ATOM      4  C4  N4B d   1      -2.703  -0.607  -0.614  0.00  0.00    -0.004 A 
ATOM      5  C5  N4B d   1      -1.914  -0.322  -1.690  0.00  0.00     0.002 A 
ATOM      6  C6  N4B d   1      -0.576  -0.024  -1.531  0.00  0.00     0.002 A 
ENDROOT
BRANCH   1   7
ATOM      7  C1' N4B d   1       1.417   0.395  -0.135  0.00  0.00     0.057 C 
BRANCH   7   8
ATOM      8  C2' N4B d   1       1.517   1.472   0.941  0.00  0.00     0.009 C 
BRANCH   8   9
ATOM      9  C3' N4B d   1       2.356   2.654   0.486  0.00  0.00     0.004 C 
ATOM     10  C4' N4B d   1       2.740   3.563   1.615  0.00  0.00     0.003 C 
ENDBRANCH   8   9
ENDBRANCH   7   8
ENDBRANCH   1   7
TORSDOF 3
ENDMDL
