MODEL 1
REMARK minimizedAffinity -6.02164602
REMARK minimizedRMSD -1
REMARK  3 active torsions:
REMARK  status: ('A' for Active; 'I' for Inactive)
REMARK    1  A    between atoms: C3'_2  and  C2'_3 
REMARK    2  A    between atoms: C2'_3  and  C1'_4 
REMARK    3  A    between atoms: C1'_4  and  C1_5 
ROOT
ATOM      1  C1  N4B d   1      -0.364   0.022   0.116  0.00  0.00    -0.075 A 
ATOM      2  C2  N4B d   1      -0.983  -0.653   1.191  0.00  0.00     0.002 A 
ATOM      3  C3  N4B d   1      -2.278  -1.093   1.072  0.00  0.00     0.002 A 
ATOM      4  C4  N4B d   1      -2.978  -0.854  -0.102  0.00  0.00    -0.004 A 
ATOM      5  C5  N4B d   1      -2.365  -0.224  -1.145  0.00  0.00     0.002 A 
ATOM      6  C6  N4B d   1      -1.062   0.220  -1.040  0.00  0.00     0.002 A 
ENDROOT
BRANCH   1   7
ATOM      7  C1' N4B d   1       1.021   0.597   0.231  0.00  0.00     0.057 C 
BRANCH   7   8
ATOM      8  C2' N4B d   1       1.492   0.483   1.678  0.00  0.00     0.009 C 
BRANCH   8   9
ATOM      9  C3' N4B d   1       1.958   1.819   2.230  0.00  0.00     0.004 C 
ATOM     10  C4' N4B d   1       2.302   2.805   1.153  0.00  0.00     0.003 C 
ENDBRANCH   8   9
ENDBRANCH   7   8
ENDBRANCH   1   7
TORSDOF 3
ENDMDL
