MODEL 1
REMARK minimizedAffinity -6.18456173
REMARK minimizedRMSD -1
REMARK  3 active torsions:
REMARK  status: ('A' for Active; 'I' for Inactive)
REMARK    1  A    between atoms: C3'_2  and  C2'_3 
REMARK    2  A    between atoms: C2'_3  and  C1'_4 
REMARK    3  A    between atoms: C1'_4  and  C1_5 
ROOT
ATOM      1  C1  N4B d   1       0.011  -0.168   0.081  0.00  0.00    -0.075 A 
ATOM      2  C2  N4B d   1      -0.223   0.178  -1.268  0.00  0.00     0.002 A 
ATOM      3  C3  N4B d   1      -1.500   0.152  -1.772  0.00  0.00     0.002 A 
ATOM      4  C4  N4B d   1      -2.552  -0.232  -0.955  0.00  0.00    -0.004 A 
ATOM      5  C5  N4B d   1      -2.322  -0.540   0.354  0.00  0.00     0.002 A 
ATOM      6  C6  N4B d   1      -1.044  -0.514   0.875  0.00  0.00     0.002 A 
ENDROOT
BRANCH   1   7
ATOM      7  C1' N4B d   1       1.400  -0.237   0.655  0.00  0.00     0.057 C 
BRANCH   7   8
ATOM      8  C2' N4B d   1       2.134   1.065   0.347  0.00  0.00     0.009 C 
BRANCH   8   9
ATOM      9  C3' N4B d   1       2.340   1.909   1.593  0.00  0.00     0.004 C 
ATOM     10  C4' N4B d   1       2.304   3.381   1.310  0.00  0.00     0.003 C 
ENDBRANCH   8   9
ENDBRANCH   7   8
ENDBRANCH   1   7
TORSDOF 3
ENDMDL
