MODEL 1
REMARK minimizedAffinity -2.45313001
REMARK minimizedRMSD -1
REMARK  0 active torsions:
REMARK  status: ('A' for Active; 'I' for Inactive)
ROOT
ATOM      1  N1  IND d   1       0.686   0.273  -2.324  0.00  0.00    -0.196 N 
ATOM      2  C2  IND d   1       0.947  -0.973  -1.825  0.00  0.00     0.054 A 
ATOM      3  C3  IND d   1       0.164  -1.223  -0.752  0.00  0.00    -0.031 A 
ATOM      4  C4  IND d   1      -1.685   0.229   0.297  0.00  0.00     0.051 A 
ATOM      5  C5  IND d   1      -2.263   1.465   0.212  0.00  0.00    -0.031 A 
ATOM      6  C6  IND d   1      -1.882   2.384  -0.744  0.00  0.00     0.015 A 
ATOM      7  C7  IND d   1      -0.912   2.096  -1.662  0.00  0.00    -0.016 A 
ATOM      8  C8  IND d   1      -0.317   0.845  -1.574  0.00  0.00    -0.047 A 
ATOM      9  C9  IND d   1      -0.671  -0.076  -0.579  0.00  0.00    -0.096 A 
ATOM     10  HN1 IND d   1       1.083   0.638  -2.994  0.00  0.00     0.298 HD
ENDROOT
TORSDOF 0
ENDMDL
