MODEL 1
REMARK minimizedAffinity -1.19501352
REMARK minimizedRMSD -1
REMARK  0 active torsions:
REMARK  status: ('A' for Active; 'I' for Inactive)
ROOT
ATOM      1  N1  IND d   1      -0.161  -0.713  -2.180  0.00  0.00    -0.196 N 
ATOM      2  C2  IND d   1       0.829   0.015  -1.581  0.00  0.00     0.054 A 
ATOM      3  C3  IND d   1       1.455  -0.727  -0.640  0.00  0.00    -0.031 A 
ATOM      4  C4  IND d   1       1.087  -3.190   0.013  0.00  0.00     0.051 A 
ATOM      5  C5  IND d   1       0.271  -4.258  -0.231  0.00  0.00    -0.031 A 
ATOM      6  C6  IND d   1      -0.750  -4.200  -1.157  0.00  0.00     0.015 A 
ATOM      7  C7  IND d   1      -0.987  -3.068  -1.886  0.00  0.00    -0.016 A 
ATOM      8  C8  IND d   1      -0.164  -1.979  -1.636  0.00  0.00    -0.047 A 
ATOM      9  C9  IND d   1       0.847  -2.019  -0.667  0.00  0.00    -0.096 A 
ATOM     10  HN1 IND d   1      -0.692  -0.429  -2.793  0.00  0.00     0.298 HD
ENDROOT
TORSDOF 0
ENDMDL
