MODEL 1
REMARK minimizedAffinity -5.06729317
REMARK minimizedRMSD -1
REMARK  0 active torsions:
REMARK  status: ('A' for Active; 'I' for Inactive)
ROOT
ATOM      1  N1  IND d   1       0.437   0.354   1.134  0.00  0.00    -0.196 N 
ATOM      2  C2  IND d   1       0.763  -0.363   0.017  0.00  0.00     0.054 A 
ATOM      3  C3  IND d   1       0.324   0.271  -1.094  0.00  0.00    -0.031 A 
ATOM      4  C4  IND d   1      -0.862   2.545  -1.318  0.00  0.00     0.051 A 
ATOM      5  C5  IND d   1      -1.406   3.554  -0.574  0.00  0.00    -0.031 A 
ATOM      6  C6  IND d   1      -1.360   3.550   0.805  0.00  0.00     0.015 A 
ATOM      7  C7  IND d   1      -0.756   2.537   1.494  0.00  0.00    -0.016 A 
ATOM      8  C8  IND d   1      -0.209   1.507   0.742  0.00  0.00    -0.047 A 
ATOM      9  C9  IND d   1      -0.290   1.485  -0.656  0.00  0.00    -0.096 A 
ATOM     10  HN1 IND d   1       0.606   0.124   1.945  0.00  0.00     0.298 HD
ENDROOT
TORSDOF 0
ENDMDL
