MODEL 1
REMARK minimizedAffinity -1.12509537
REMARK minimizedRMSD -1
REMARK  0 active torsions:
REMARK  status: ('A' for Active; 'I' for Inactive)
ROOT
ATOM      1  N1  IND d   1       0.041   2.760   1.204  0.00  0.00    -0.196 N 
ATOM      2  C2  IND d   1       0.290   1.987   2.304  0.00  0.00     0.054 A 
ATOM      3  C3  IND d   1       0.504   0.704   1.938  0.00  0.00    -0.031 A 
ATOM      4  C4  IND d   1       0.593  -0.333  -0.417  0.00  0.00     0.051 A 
ATOM      5  C5  IND d   1       0.393  -0.032  -1.735  0.00  0.00    -0.031 A 
ATOM      6  C6  IND d   1       0.060   1.242  -2.149  0.00  0.00     0.015 A 
ATOM      7  C7  IND d   1      -0.073   2.269  -1.258  0.00  0.00    -0.016 A 
ATOM      8  C8  IND d   1       0.124   1.965   0.082  0.00  0.00    -0.047 A 
ATOM      9  C9  IND d   1       0.419   0.665   0.512  0.00  0.00    -0.096 A 
ATOM     10  HN1 IND d   1      -0.137   3.601   1.211  0.00  0.00     0.298 HD
ENDROOT
TORSDOF 0
ENDMDL
