MODEL 1
REMARK minimizedAffinity -6.14906073
REMARK minimizedRMSD -1
REMARK  0 active torsions:
REMARK  status: ('A' for Active; 'I' for Inactive)
ROOT
ATOM      1  N1  IND d   1       0.376   1.089  -1.826  0.00  0.00    -0.196 N 
ATOM      2  C2  IND d   1       0.942   0.012  -1.204  0.00  0.00     0.054 A 
ATOM      3  C3  IND d   1       0.701   0.056   0.126  0.00  0.00    -0.031 A 
ATOM      4  C4  IND d   1      -0.686   1.749   1.481  0.00  0.00     0.051 A 
ATOM      5  C5  IND d   1      -1.368   2.927   1.357  0.00  0.00    -0.031 A 
ATOM      6  C6  IND d   1      -1.509   3.564   0.141  0.00  0.00     0.015 A 
ATOM      7  C7  IND d   1      -0.980   3.039  -1.003  0.00  0.00    -0.016 A 
ATOM      8  C8  IND d   1      -0.280   1.846  -0.881  0.00  0.00    -0.047 A 
ATOM      9  C9  IND d   1      -0.098   1.217   0.358  0.00  0.00    -0.096 A 
ATOM     10  HN1 IND d   1       0.423   1.265  -2.666  0.00  0.00     0.298 HD
ENDROOT
TORSDOF 0
ENDMDL
