MODEL 1
REMARK minimizedAffinity -4.01840591
REMARK minimizedRMSD -1
REMARK  0 active torsions:
REMARK  status: ('A' for Active; 'I' for Inactive)
ROOT
ATOM      1  N1  IND d   1       0.830   0.454  -1.804  0.00  0.00    -0.196 N 
ATOM      2  C2  IND d   1       1.111  -0.736  -1.193  0.00  0.00     0.054 A 
ATOM      3  C3  IND d   1       0.910  -0.639   0.141  0.00  0.00    -0.031 A 
ATOM      4  C4  IND d   1       0.025   1.346   1.520  0.00  0.00     0.051 A 
ATOM      5  C5  IND d   1      -0.335   2.660   1.409  0.00  0.00    -0.031 A 
ATOM      6  C6  IND d   1      -0.328   3.318   0.197  0.00  0.00     0.015 A 
ATOM      7  C7  IND d   1       0.031   2.680  -0.957  0.00  0.00    -0.016 A 
ATOM      8  C8  IND d   1       0.403   1.348  -0.848  0.00  0.00    -0.047 A 
ATOM      9  C9  IND d   1       0.439   0.687   0.387  0.00  0.00    -0.096 A 
ATOM     10  HN1 IND d   1       0.906   0.616  -2.645  0.00  0.00     0.298 HD
ENDROOT
TORSDOF 0
ENDMDL
