MODEL 1
REMARK minimizedAffinity -2.7177434
REMARK minimizedRMSD -1
REMARK  0 active torsions:
REMARK  status: ('A' for Active; 'I' for Inactive)
ROOT
ATOM      1  N1  IND d   1       0.314   0.407  -1.440  0.00  0.00    -0.196 N 
ATOM      2  C2  IND d   1       0.621  -0.679  -0.668  0.00  0.00     0.054 A 
ATOM      3  C3  IND d   1       0.377  -0.413   0.635  0.00  0.00    -0.031 A 
ATOM      4  C4  IND d   1      -0.622   1.700   1.714  0.00  0.00     0.051 A 
ATOM      5  C5  IND d   1      -1.027   2.972   1.419  0.00  0.00    -0.031 A 
ATOM      6  C6  IND d   1      -1.007   3.463   0.129  0.00  0.00     0.015 A 
ATOM      7  C7  IND d   1      -0.591   2.692  -0.920  0.00  0.00    -0.016 A 
ATOM      8  C8  IND d   1      -0.173   1.403  -0.623  0.00  0.00    -0.047 A 
ATOM      9  C9  IND d   1      -0.150   0.914   0.690  0.00  0.00    -0.096 A 
ATOM     10  HN1 IND d   1       0.410   0.459  -2.293  0.00  0.00     0.298 HD
ENDROOT
TORSDOF 0
ENDMDL
