MODEL 1
REMARK minimizedAffinity -1.92810476
REMARK minimizedRMSD -1
REMARK  0 active torsions:
REMARK  status: ('A' for Active; 'I' for Inactive)
ROOT
ATOM      1  N1  IND d   1      -0.861  -0.604  -0.738  0.00  0.00    -0.196 N 
ATOM      2  C2  IND d   1       0.436  -1.038  -0.724  0.00  0.00     0.054 A 
ATOM      3  C3  IND d   1       1.175  -0.282   0.119  0.00  0.00    -0.031 A 
ATOM      4  C4  IND d   1       0.442   1.652   1.652  0.00  0.00     0.051 A 
ATOM      5  C5  IND d   1      -0.636   2.433   1.960  0.00  0.00    -0.031 A 
ATOM      6  C6  IND d   1      -1.870   2.235   1.375  0.00  0.00     0.015 A 
ATOM      7  C7  IND d   1      -2.075   1.238   0.464  0.00  0.00    -0.016 A 
ATOM      8  C8  IND d   1      -0.981   0.448   0.143  0.00  0.00    -0.047 A 
ATOM      9  C9  IND d   1       0.284   0.670   0.702  0.00  0.00    -0.096 A 
ATOM     10  HN1 IND d   1      -1.494  -0.933  -1.217  0.00  0.00     0.298 HD
ENDROOT
TORSDOF 0
ENDMDL
