MODEL 1
REMARK minimizedAffinity -1.78350413
REMARK minimizedRMSD -1
REMARK  0 active torsions:
REMARK  status: ('A' for Active; 'I' for Inactive)
ROOT
ATOM      1  N1  IND d   1       0.477   0.878  -2.183  0.00  0.00    -0.196 N 
ATOM      2  C2  IND d   1      -0.157   1.890  -2.848  0.00  0.00     0.054 A 
ATOM      3  C3  IND d   1      -0.890   2.632  -1.988  0.00  0.00    -0.031 A 
ATOM      4  C4  IND d   1      -1.113   2.429   0.568  0.00  0.00     0.051 A 
ATOM      5  C5  IND d   1      -0.750   1.637   1.622  0.00  0.00    -0.031 A 
ATOM      6  C6  IND d   1       0.058   0.531   1.458  0.00  0.00     0.015 A 
ATOM      7  C7  IND d   1       0.546   0.180   0.230  0.00  0.00    -0.016 A 
ATOM      8  C8  IND d   1       0.174   0.978  -0.842  0.00  0.00    -0.047 A 
ATOM      9  C9  IND d   1      -0.681   2.077  -0.689  0.00  0.00    -0.096 A 
ATOM     10  HN1 IND d   1       0.980   0.279  -2.541  0.00  0.00     0.298 HD
ENDROOT
TORSDOF 0
ENDMDL
