MODEL 1
REMARK minimizedAffinity 2.981709
REMARK minimizedRMSD -1
REMARK  0 active torsions:
REMARK  status: ('A' for Active; 'I' for Inactive)
ROOT
ATOM      1  N1  IND d   1       1.652  -3.234  -0.025  0.00  0.00    -0.196 N 
ATOM      2  C2  IND d   1       0.715  -4.229  -0.036  0.00  0.00     0.054 A 
ATOM      3  C3  IND d   1      -0.529  -3.703   0.022  0.00  0.00    -0.031 A 
ATOM      4  C4  IND d   1      -1.263  -1.236   0.037  0.00  0.00     0.051 A 
ATOM      5  C5  IND d   1      -0.766   0.036   0.094  0.00  0.00    -0.031 A 
ATOM      6  C6  IND d   1       0.591   0.288   0.112  0.00  0.00     0.015 A 
ATOM      7  C7  IND d   1       1.505  -0.727   0.062  0.00  0.00    -0.016 A 
ATOM      8  C8  IND d   1       1.003  -2.020   0.011  0.00  0.00    -0.047 A 
ATOM      9  C9  IND d   1      -0.373  -2.283   0.036  0.00  0.00    -0.096 A 
ATOM     10  HN1 IND d   1       2.505  -3.348  -0.038  0.00  0.00     0.298 HD
ENDROOT
TORSDOF 0
ENDMDL
