MODEL 1
REMARK minimizedAffinity -2.17952156
REMARK minimizedRMSD -1
REMARK  0 active torsions:
REMARK  status: ('A' for Active; 'I' for Inactive)
ROOT
ATOM      1  N1  IND d   1      -0.040   1.006  -2.082  0.00  0.00    -0.196 N 
ATOM      2  C2  IND d   1       0.687  -0.145  -1.952  0.00  0.00     0.054 A 
ATOM      3  C3  IND d   1       0.797  -0.487  -0.649  0.00  0.00    -0.031 A 
ATOM      4  C4  IND d   1      -0.223   0.640   1.429  0.00  0.00     0.051 A 
ATOM      5  C5  IND d   1      -0.935   1.740   1.818  0.00  0.00    -0.031 A 
ATOM      6  C6  IND d   1      -1.397   2.669   0.908  0.00  0.00     0.015 A 
ATOM      7  C7  IND d   1      -1.172   2.525  -0.432  0.00  0.00    -0.016 A 
ATOM      8  C8  IND d   1      -0.444   1.413  -0.830  0.00  0.00    -0.047 A 
ATOM      9  C9  IND d   1       0.064   0.490   0.093  0.00  0.00    -0.096 A 
ATOM     10  HN1 IND d   1      -0.216   1.407  -2.822  0.00  0.00     0.298 HD
ENDROOT
TORSDOF 0
ENDMDL
