MODEL 1
REMARK minimizedAffinity 4.63779736
REMARK minimizedRMSD -1
REMARK  1 active torsions:
REMARK  status: ('A' for Active; 'I' for Inactive)
REMARK    1  A    between atoms: C3_4  and  O_7 
ROOT
ATOM      1  C   UNL d   1       5.044   0.846  -5.912  0.00  0.00    -0.033 A 
ATOM      2  C1  UNL d   1       6.000   0.000  -5.346  0.00  0.00     0.039 A 
ATOM      3  C2  UNL d   1       5.676  -0.775  -4.231  0.00  0.00    -0.080 A 
ATOM      4  C3  UNL d   1       4.395  -0.695  -3.692  0.00  0.00     0.150 A 
ATOM      5  C4  UNL d   1       3.436   0.142  -4.253  0.00  0.00    -0.007 A 
ATOM      6  C5  UNL d   1       3.762   0.916  -5.366  0.00  0.00     0.039 A 
ENDROOT
BRANCH   4   7
ATOM      7  O   UNL d   1       4.033  -1.429  -2.601  0.00  0.00    -0.526 OA
ATOM      8  H5  UNL d   1       4.805  -1.940  -2.305  0.00  0.00     0.418 HD
ENDBRANCH   4   7
TORSDOF 1
ENDMDL
