MODEL 1
REMARK minimizedAffinity 2.34772491
REMARK minimizedRMSD -1
REMARK  1 active torsions:
REMARK  status: ('A' for Active; 'I' for Inactive)
REMARK    1  A    between atoms: C3_4  and  O_7 
ROOT
ATOM      1  C   UNL d   1       4.440   0.986  -5.072  0.00  0.00    -0.033 A 
ATOM      2  C1  UNL d   1       5.427   0.639  -5.997  0.00  0.00     0.039 A 
ATOM      3  C2  UNL d   1       5.963  -0.650  -5.999  0.00  0.00    -0.080 A 
ATOM      4  C3  UNL d   1       5.504  -1.582  -5.072  0.00  0.00     0.150 A 
ATOM      5  C4  UNL d   1       4.518  -1.245  -4.150  0.00  0.00    -0.007 A 
ATOM      6  C5  UNL d   1       3.985   0.043  -4.150  0.00  0.00     0.039 A 
ENDROOT
BRANCH   4   7
ATOM      7  O   UNL d   1       6.000  -2.851  -5.032  0.00  0.00    -0.526 OA
ATOM      8  H5  UNL d   1       6.694  -2.932  -5.708  0.00  0.00     0.418 HD
ENDBRANCH   4   7
TORSDOF 1
ENDMDL
