MODEL 1
REMARK minimizedAffinity -1.15526366
REMARK minimizedRMSD -1
REMARK  1 active torsions:
REMARK  status: ('A' for Active; 'I' for Inactive)
REMARK    1  A    between atoms: C3_4  and  O_7 
ROOT
ATOM      1  C   UNL d   1       2.719   0.212   1.379  0.00  0.00    -0.033 A 
ATOM      2  C1  UNL d   1       1.407   0.614   1.124  0.00  0.00     0.039 A 
ATOM      3  C2  UNL d   1       1.157   1.686   0.265  0.00  0.00    -0.080 A 
ATOM      4  C3  UNL d   1       2.228   2.346  -0.333  0.00  0.00     0.150 A 
ATOM      5  C4  UNL d   1       3.538   1.948  -0.086  0.00  0.00    -0.007 A 
ATOM      6  C5  UNL d   1       3.785   0.878   0.773  0.00  0.00     0.039 A 
ENDROOT
BRANCH   4   7
ATOM      7  O   UNL d   1       2.035   3.400  -1.175  0.00  0.00    -0.526 OA
ATOM      8  H5  UNL d   1       1.081   3.580  -1.229  0.00  0.00     0.418 HD
ENDBRANCH   4   7
TORSDOF 1
ENDMDL
