MODEL 1
REMARK minimizedAffinity 0.209801599
REMARK minimizedRMSD -1
REMARK  1 active torsions:
REMARK  status: ('A' for Active; 'I' for Inactive)
REMARK    1  A    between atoms: C3_4  and  O_7 
ROOT
ATOM      1  C   UNL d   1       1.094   1.273   0.569  0.00  0.00    -0.033 A 
ATOM      2  C1  UNL d   1       0.055   0.399   0.894  0.00  0.00     0.039 A 
ATOM      3  C2  UNL d   1       0.332  -0.806   1.544  0.00  0.00    -0.080 A 
ATOM      4  C3  UNL d   1       1.649  -1.123   1.864  0.00  0.00     0.150 A 
ATOM      5  C4  UNL d   1       2.688  -0.254   1.547  0.00  0.00    -0.007 A 
ATOM      6  C5  UNL d   1       2.410   0.947   0.897  0.00  0.00     0.039 A 
ENDROOT
BRANCH   4   7
ATOM      7  O   UNL d   1       1.968  -2.289   2.494  0.00  0.00    -0.526 OA
ATOM      8  H5  UNL d   1       1.153  -2.802   2.624  0.00  0.00     0.418 HD
ENDBRANCH   4   7
TORSDOF 1
ENDMDL
