MODEL 1
REMARK minimizedAffinity 2.93343329
REMARK minimizedRMSD -1
REMARK  1 active torsions:
REMARK  status: ('A' for Active; 'I' for Inactive)
REMARK    1  A    between atoms: C3_4  and  O_7 
ROOT
ATOM      1  C   UNL d   1       2.404  -1.318   1.662  0.00  0.00    -0.033 A 
ATOM      2  C1  UNL d   1       3.547  -1.090   0.893  0.00  0.00     0.039 A 
ATOM      3  C2  UNL d   1       3.910   0.213   0.548  0.00  0.00    -0.080 A 
ATOM      4  C3  UNL d   1       3.122   1.278   0.977  0.00  0.00     0.150 A 
ATOM      5  C4  UNL d   1       1.984   1.058   1.745  0.00  0.00    -0.007 A 
ATOM      6  C5  UNL d   1       1.623  -0.244   2.089  0.00  0.00     0.039 A 
ENDROOT
BRANCH   4   7
ATOM      7  O   UNL d   1       3.433   2.567   0.660  0.00  0.00    -0.526 OA
ATOM      8  H5  UNL d   1       4.228   2.563   0.101  0.00  0.00     0.418 HD
ENDBRANCH   4   7
TORSDOF 1
ENDMDL
