MODEL 1
REMARK minimizedAffinity -2.75979042
REMARK minimizedRMSD -1
REMARK  1 active torsions:
REMARK  status: ('A' for Active; 'I' for Inactive)
REMARK    1  A    between atoms: C3_4  and  O_7 
ROOT
ATOM      1  C   UNL d   1       2.078  -2.311   3.463  0.00  0.00    -0.033 A 
ATOM      2  C1  UNL d   1       2.332  -1.350   2.482  0.00  0.00     0.039 A 
ATOM      3  C2  UNL d   1       1.970  -0.019   2.695  0.00  0.00    -0.080 A 
ATOM      4  C3  UNL d   1       1.355   0.339   3.892  0.00  0.00     0.150 A 
ATOM      5  C4  UNL d   1       1.103  -0.612   4.875  0.00  0.00    -0.007 A 
ATOM      6  C5  UNL d   1       1.465  -1.941   4.660  0.00  0.00     0.039 A 
ENDROOT
BRANCH   4   7
ATOM      7  O   UNL d   1       0.979   1.624   4.144  0.00  0.00    -0.526 OA
ATOM      8  H5  UNL d   1       1.190   2.165   3.364  0.00  0.00     0.418 HD
ENDBRANCH   4   7
TORSDOF 1
ENDMDL
