MODEL 1
REMARK minimizedAffinity 1.3926785
REMARK minimizedRMSD -1
REMARK  1 active torsions:
REMARK  status: ('A' for Active; 'I' for Inactive)
REMARK    1  A    between atoms: C3_4  and  O_7 
ROOT
ATOM      1  C   UNL d   1       1.382  -0.489   4.555  0.00  0.00    -0.033 A 
ATOM      2  C1  UNL d   1       1.493   0.181   3.335  0.00  0.00     0.039 A 
ATOM      3  C2  UNL d   1       2.057  -0.463   2.232  0.00  0.00    -0.080 A 
ATOM      4  C3  UNL d   1       2.504  -1.775   2.361  0.00  0.00     0.150 A 
ATOM      5  C4  UNL d   1       2.393  -2.450   3.572  0.00  0.00    -0.007 A 
ATOM      6  C5  UNL d   1       1.831  -1.805   4.673  0.00  0.00     0.039 A 
ENDROOT
BRANCH   4   7
ATOM      7  O   UNL d   1       3.066  -2.442   1.314  0.00  0.00    -0.526 OA
ATOM      8  H5  UNL d   1       3.103  -1.842   0.550  0.00  0.00     0.418 HD
ENDBRANCH   4   7
TORSDOF 1
ENDMDL
