MODEL 1
REMARK minimizedAffinity -1.32987916
REMARK minimizedRMSD -1
REMARK  1 active torsions:
REMARK  status: ('A' for Active; 'I' for Inactive)
REMARK    1  A    between atoms: C3_4  and  O_7 
ROOT
ATOM      1  C   UNL d   1      -4.641  -5.896  -4.442  0.00  0.00    -0.033 A 
ATOM      2  C1  UNL d   1      -4.183  -4.703  -3.880  0.00  0.00     0.039 A 
ATOM      3  C2  UNL d   1      -4.632  -3.478  -4.378  0.00  0.00    -0.080 A 
ATOM      4  C3  UNL d   1      -5.537  -3.460  -5.435  0.00  0.00     0.150 A 
ATOM      5  C4  UNL d   1      -6.000  -4.646  -5.997  0.00  0.00    -0.007 A 
ATOM      6  C5  UNL d   1      -5.550  -5.868  -5.499  0.00  0.00     0.039 A 
ENDROOT
BRANCH   4   7
ATOM      7  O   UNL d   1      -5.999  -2.289  -5.958  0.00  0.00    -0.526 OA
ATOM      8  H5  UNL d   1      -5.572  -1.553  -5.490  0.00  0.00     0.418 HD
ENDBRANCH   4   7
TORSDOF 1
ENDMDL
