MODEL 1
REMARK minimizedAffinity -1.76886058
REMARK minimizedRMSD -1
REMARK  1 active torsions:
REMARK  status: ('A' for Active; 'I' for Inactive)
REMARK    1  A    between atoms: C3_4  and  O_7 
ROOT
ATOM      1  C   UNL d   1       0.900   0.469   2.008  0.00  0.00    -0.033 A 
ATOM      2  C1  UNL d   1       2.278   0.252   1.962  0.00  0.00     0.039 A 
ATOM      3  C2  UNL d   1       3.132   1.269   1.530  0.00  0.00    -0.080 A 
ATOM      4  C3  UNL d   1       2.596   2.495   1.148  0.00  0.00     0.150 A 
ATOM      5  C4  UNL d   1       1.224   2.719   1.195  0.00  0.00    -0.007 A 
ATOM      6  C5  UNL d   1       0.373   1.703   1.626  0.00  0.00     0.039 A 
ENDROOT
BRANCH   4   7
ATOM      7  O   UNL d   1       3.389   3.516   0.714  0.00  0.00    -0.526 OA
ATOM      8  H5  UNL d   1       4.311   3.208   0.708  0.00  0.00     0.418 HD
ENDBRANCH   4   7
TORSDOF 1
ENDMDL
