MODEL 1
REMARK minimizedAffinity 2.1266644
REMARK minimizedRMSD -1
REMARK  1 active torsions:
REMARK  status: ('A' for Active; 'I' for Inactive)
REMARK    1  A    between atoms: N_2  and  C1_3 
ROOT
ATOM      1  C1  UNL d   1       4.502  -3.001   5.437  0.00  0.00     0.143 A 
ATOM      2  C2  UNL d   1       3.983  -1.821   5.981  0.00  0.00    -0.057 A 
ATOM      3  C3  UNL d   1       2.969  -1.106   5.331  0.00  0.00     0.033 A 
ATOM      4  C4  UNL d   1       2.475  -1.546   4.108  0.00  0.00    -0.042 A 
ATOM      5  C5  UNL d   1       2.993  -2.702   3.536  0.00  0.00     0.033 A 
ATOM      6  C6  UNL d   1       4.001  -3.415   4.193  0.00  0.00    -0.057 A 
ENDROOT
BRANCH   1   7
ATOM      7  N   UNL d   1       5.578  -3.703   5.986  0.00  0.00    -0.732 N 
ATOM      8  C   UNL d   1       5.584  -5.150   6.000  0.00  0.00     0.284 C 
ATOM      9  H3  UNL d   1       6.475  -3.286   5.748  0.00  0.00     0.395 HD
ENDBRANCH   1   7
TORSDOF 1
ENDMDL
