MODEL 1
REMARK minimizedAffinity -0.412150592
REMARK minimizedRMSD -1
REMARK  1 active torsions:
REMARK  status: ('A' for Active; 'I' for Inactive)
REMARK    1  A    between atoms: N_2  and  C1_3 
ROOT
ATOM      1  C1  UNL d   1      -1.609  -2.253  -1.841  0.00  0.00     0.143 A 
ATOM      2  C2  UNL d   1      -0.786  -1.878  -2.908  0.00  0.00    -0.057 A 
ATOM      3  C3  UNL d   1       0.602  -2.059  -2.852  0.00  0.00     0.033 A 
ATOM      4  C4  UNL d   1       1.194  -2.594  -1.713  0.00  0.00    -0.042 A 
ATOM      5  C5  UNL d   1       0.398  -2.950  -0.631  0.00  0.00     0.033 A 
ATOM      6  C6  UNL d   1      -0.988  -2.773  -0.695  0.00  0.00    -0.057 A 
ENDROOT
BRANCH   1   7
ATOM      7  N   UNL d   1      -2.984  -2.008  -1.796  0.00  0.00    -0.732 N 
ATOM      8  C   UNL d   1      -3.739  -2.262  -0.588  0.00  0.00     0.284 C 
ATOM      9  H3  UNL d   1      -3.241  -1.147  -2.274  0.00  0.00     0.395 HD
ENDBRANCH   1   7
TORSDOF 1
ENDMDL
