MODEL 1
REMARK minimizedAffinity -1.52874088
REMARK minimizedRMSD -1
REMARK  1 active torsions:
REMARK  status: ('A' for Active; 'I' for Inactive)
REMARK    1  A    between atoms: N_2  and  C1_3 
ROOT
ATOM      1  C1  UNL d   1      -0.152  -4.124  -2.794  0.00  0.00     0.143 A 
ATOM      2  C2  UNL d   1      -0.033  -2.991  -3.607  0.00  0.00    -0.057 A 
ATOM      3  C3  UNL d   1      -0.274  -1.707  -3.102  0.00  0.00     0.033 A 
ATOM      4  C4  UNL d   1      -0.669  -1.536  -1.779  0.00  0.00    -0.042 A 
ATOM      5  C5  UNL d   1      -0.818  -2.650  -0.961  0.00  0.00     0.033 A 
ATOM      6  C6  UNL d   1      -0.569  -3.929  -1.468  0.00  0.00    -0.057 A 
ENDROOT
BRANCH   1   7
ATOM      7  N   UNL d   1      -0.022  -5.434  -3.262  0.00  0.00    -0.732 N 
ATOM      8  C   UNL d   1      -0.918  -5.947  -4.277  0.00  0.00     0.284 C 
ATOM      9  H3  UNL d   1       0.950  -5.706  -3.390  0.00  0.00     0.395 HD
ENDBRANCH   1   7
TORSDOF 1
ENDMDL
