MODEL 1
REMARK minimizedAffinity 1.32240248
REMARK minimizedRMSD -1
REMARK  1 active torsions:
REMARK  status: ('A' for Active; 'I' for Inactive)
REMARK    1  A    between atoms: N_2  and  C1_3 
ROOT
ATOM      1  C1  UNL d   1       0.781  -2.214  -2.667  0.00  0.00     0.143 A 
ATOM      2  C2  UNL d   1      -0.552  -2.205  -3.090  0.00  0.00    -0.057 A 
ATOM      3  C3  UNL d   1      -1.607  -2.268  -2.171  0.00  0.00     0.033 A 
ATOM      4  C4  UNL d   1      -1.344  -2.370  -0.809  0.00  0.00    -0.042 A 
ATOM      5  C5  UNL d   1      -0.026  -2.406  -0.367  0.00  0.00     0.033 A 
ATOM      6  C6  UNL d   1       1.022  -2.336  -1.289  0.00  0.00    -0.057 A 
ENDROOT
BRANCH   1   7
ATOM      7  N   UNL d   1       1.873  -2.253  -3.537  0.00  0.00    -0.732 N 
ATOM      8  C   UNL d   1       3.153  -1.707  -3.139  0.00  0.00     0.284 C 
ATOM      9  H3  UNL d   1       1.936  -3.134  -4.042  0.00  0.00     0.395 HD
ENDBRANCH   1   7
TORSDOF 1
ENDMDL
