MODEL 1
REMARK minimizedAffinity 8.83887768
REMARK minimizedRMSD -1
REMARK  1 active torsions:
REMARK  status: ('A' for Active; 'I' for Inactive)
REMARK    1  A    between atoms: N_2  and  C1_3 
ROOT
ATOM      1  C1  UNL d   1       5.278   5.448  -2.706  0.00  0.00     0.143 A 
ATOM      2  C2  UNL d   1       5.709   4.858  -3.899  0.00  0.00    -0.057 A 
ATOM      3  C3  UNL d   1       4.902   4.859  -5.043  0.00  0.00     0.033 A 
ATOM      4  C4  UNL d   1       3.632   5.427  -5.005  0.00  0.00    -0.042 A 
ATOM      5  C5  UNL d   1       3.173   5.996  -3.822  0.00  0.00     0.033 A 
ATOM      6  C6  UNL d   1       3.987   5.998  -2.686  0.00  0.00    -0.057 A 
ENDROOT
BRANCH   1   7
ATOM      7  N   UNL d   1       5.994   5.392  -1.508  0.00  0.00    -0.732 N 
ATOM      8  C   UNL d   1       5.466   5.998  -0.305  0.00  0.00     0.284 C 
ATOM      9  H3  UNL d   1       6.433   4.486  -1.359  0.00  0.00     0.395 HD
ENDBRANCH   1   7
TORSDOF 1
ENDMDL
