MODEL 1
REMARK minimizedAffinity 10.2851648
REMARK minimizedRMSD -1
REMARK  1 active torsions:
REMARK  status: ('A' for Active; 'I' for Inactive)
REMARK    1  A    between atoms: N_2  and  C1_3 
ROOT
ATOM      1  C1  UNL d   1       4.149   5.075  -3.767  0.00  0.00     0.143 A 
ATOM      2  C2  UNL d   1       5.074   4.035  -3.630  0.00  0.00    -0.057 A 
ATOM      3  C3  UNL d   1       5.993   3.742  -4.646  0.00  0.00     0.033 A 
ATOM      4  C4  UNL d   1       5.983   4.469  -5.832  0.00  0.00    -0.042 A 
ATOM      5  C5  UNL d   1       5.056   5.491  -5.999  0.00  0.00     0.033 A 
ATOM      6  C6  UNL d   1       4.145   5.783  -4.979  0.00  0.00    -0.057 A 
ENDROOT
BRANCH   1   7
ATOM      7  N   UNL d   1       3.146   5.351  -2.835  0.00  0.00    -0.732 N 
ATOM      8  C   UNL d   1       1.829   5.766  -3.270  0.00  0.00     0.284 C 
ATOM      9  H3  UNL d   1       3.138   4.687  -2.064  0.00  0.00     0.395 HD
ENDBRANCH   1   7
TORSDOF 1
ENDMDL
