MODEL 1
REMARK minimizedAffinity -0.333066285
REMARK minimizedRMSD -1
REMARK  1 active torsions:
REMARK  status: ('A' for Active; 'I' for Inactive)
REMARK    1  A    between atoms: N_2  and  C1_3 
ROOT
ATOM      1  C1  UNL d   1       5.335   5.009  -2.922  0.00  0.00     0.143 A 
ATOM      2  C2  UNL d   1       6.000   4.094  -3.746  0.00  0.00    -0.057 A 
ATOM      3  C3  UNL d   1       5.861   4.137  -5.138  0.00  0.00     0.033 A 
ATOM      4  C4  UNL d   1       5.028   5.080  -5.732  0.00  0.00    -0.042 A 
ATOM      5  C5  UNL d   1       4.338   5.983  -4.931  0.00  0.00     0.033 A 
ATOM      6  C6  UNL d   1       4.486   5.940  -3.542  0.00  0.00    -0.057 A 
ENDROOT
BRANCH   1   7
ATOM      7  N   UNL d   1       5.354   4.956  -1.526  0.00  0.00    -0.732 N 
ATOM      8  C   UNL d   1       5.999   5.999  -0.758  0.00  0.00     0.284 C 
ATOM      9  H3  UNL d   1       4.469   4.640  -1.137  0.00  0.00     0.395 HD
ENDBRANCH   1   7
TORSDOF 1
ENDMDL
