MODEL 1
REMARK minimizedAffinity -1.38658357
REMARK minimizedRMSD -1
REMARK  1 active torsions:
REMARK  status: ('A' for Active; 'I' for Inactive)
REMARK    1  A    between atoms: N_2  and  C1_3 
ROOT
ATOM      1  C1  UNL d   1       5.648   4.508  -3.138  0.00  0.00     0.143 A 
ATOM      2  C2  UNL d   1       5.241   3.320  -3.754  0.00  0.00    -0.057 A 
ATOM      3  C3  UNL d   1       5.231   3.191  -5.148  0.00  0.00     0.033 A 
ATOM      4  C4  UNL d   1       5.601   4.263  -5.954  0.00  0.00    -0.042 A 
ATOM      5  C5  UNL d   1       5.984   5.462  -5.364  0.00  0.00     0.033 A 
ATOM      6  C6  UNL d   1       5.999   5.582  -3.971  0.00  0.00    -0.057 A 
ENDROOT
BRANCH   1   7
ATOM      7  N   UNL d   1       5.586   4.731  -1.760  0.00  0.00    -0.732 N 
ATOM      8  C   UNL d   1       5.997   6.000  -1.199  0.00  0.00     0.284 C 
ATOM      9  H3  UNL d   1       4.743   4.345  -1.341  0.00  0.00     0.395 HD
ENDBRANCH   1   7
TORSDOF 1
ENDMDL
