MODEL 1
REMARK minimizedAffinity 0.612517953
REMARK minimizedRMSD -1
REMARK  1 active torsions:
REMARK  status: ('A' for Active; 'I' for Inactive)
REMARK    1  A    between atoms: N_2  and  C1_3 
ROOT
ATOM      1  C1  UNL d   1       3.962  -2.089   2.677  0.00  0.00     0.143 A 
ATOM      2  C2  UNL d   1       4.701  -3.235   2.987  0.00  0.00    -0.057 A 
ATOM      3  C3  UNL d   1       5.048  -3.541   4.309  0.00  0.00     0.033 A 
ATOM      4  C4  UNL d   1       4.685  -2.686   5.345  0.00  0.00    -0.042 A 
ATOM      5  C5  UNL d   1       3.972  -1.528   5.057  0.00  0.00     0.033 A 
ATOM      6  C6  UNL d   1       3.623  -1.232   3.736  0.00  0.00    -0.057 A 
ENDROOT
BRANCH   1   7
ATOM      7  N   UNL d   1       3.671  -1.679   1.374  0.00  0.00    -0.732 N 
ATOM      8  C   UNL d   1       4.393  -2.233   0.249  0.00  0.00     0.284 C 
ATOM      9  H3  UNL d   1       2.672  -1.571   1.214  0.00  0.00     0.395 HD
ENDBRANCH   1   7
TORSDOF 1
ENDMDL
