MODEL 1
REMARK minimizedAffinity 2.03143811
REMARK minimizedRMSD -1
REMARK  1 active torsions:
REMARK  status: ('A' for Active; 'I' for Inactive)
REMARK    1  A    between atoms: N_2  and  C1_3 
ROOT
ATOM      1  C1  UNL d   1       4.019  -1.970   5.438  0.00  0.00     0.143 A 
ATOM      2  C2  UNL d   1       5.242  -2.355   5.996  0.00  0.00    -0.057 A 
ATOM      3  C3  UNL d   1       5.997  -3.397   5.443  0.00  0.00     0.033 A 
ATOM      4  C4  UNL d   1       5.525  -4.092   4.334  0.00  0.00    -0.042 A 
ATOM      5  C5  UNL d   1       4.300  -3.743   3.777  0.00  0.00     0.033 A 
ATOM      6  C6  UNL d   1       3.554  -2.697   4.331  0.00  0.00    -0.057 A 
ENDROOT
BRANCH   1   7
ATOM      7  N   UNL d   1       3.175  -1.008   6.000  0.00  0.00    -0.732 N 
ATOM      8  C   UNL d   1       1.740  -1.193   5.996  0.00  0.00     0.284 C 
ATOM      9  H3  UNL d   1       3.543  -0.630   6.870  0.00  0.00     0.395 HD
ENDBRANCH   1   7
TORSDOF 1
ENDMDL
