MODEL 1
REMARK minimizedAffinity 2.39015579
REMARK minimizedRMSD -1
REMARK  1 active torsions:
REMARK  status: ('A' for Active; 'I' for Inactive)
REMARK    1  A    between atoms: N_2  and  C1_3 
ROOT
ATOM      1  C1  UNL d   1      -0.189  -2.815  -1.578  0.00  0.00     0.143 A 
ATOM      2  C2  UNL d   1       0.229  -2.182  -2.753  0.00  0.00    -0.057 A 
ATOM      3  C3  UNL d   1       0.480  -2.912  -3.921  0.00  0.00     0.033 A 
ATOM      4  C4  UNL d   1       0.343  -4.296  -3.926  0.00  0.00    -0.042 A 
ATOM      5  C5  UNL d   1      -0.047  -4.949  -2.763  0.00  0.00     0.033 A 
ATOM      6  C6  UNL d   1      -0.302  -4.214  -1.601  0.00  0.00    -0.057 A 
ENDROOT
BRANCH   1   7
ATOM      7  N   UNL d   1      -0.359  -2.156  -0.358  0.00  0.00    -0.732 N 
ATOM      8  C   UNL d   1      -0.743  -2.890   0.829  0.00  0.00     0.284 C 
ATOM      9  H3  UNL d   1       0.354  -1.448  -0.196  0.00  0.00     0.395 HD
ENDBRANCH   1   7
TORSDOF 1
ENDMDL
