MODEL 1
REMARK minimizedAffinity 3.61631465
REMARK minimizedRMSD -1
REMARK  1 active torsions:
REMARK  status: ('A' for Active; 'I' for Inactive)
REMARK    1  A    between atoms: N_2  and  C1_3 
ROOT
ATOM      1  C1  UNL d   1       5.317   4.843  -2.983  0.00  0.00     0.143 A 
ATOM      2  C2  UNL d   1       4.196   5.509  -3.490  0.00  0.00    -0.057 A 
ATOM      3  C3  UNL d   1       3.630   5.146  -4.718  0.00  0.00     0.033 A 
ATOM      4  C4  UNL d   1       4.194   4.126  -5.476  0.00  0.00    -0.042 A 
ATOM      5  C5  UNL d   1       5.323   3.466  -5.004  0.00  0.00     0.033 A 
ATOM      6  C6  UNL d   1       5.880   3.829  -3.774  0.00  0.00    -0.057 A 
ENDROOT
BRANCH   1   7
ATOM      7  N   UNL d   1       5.985   5.222  -1.816  0.00  0.00    -0.732 N 
ATOM      8  C   UNL d   1       5.279   5.895  -0.748  0.00  0.00     0.284 C 
ATOM      9  H3  UNL d   1       6.644   4.515  -1.498  0.00  0.00     0.395 HD
ENDBRANCH   1   7
TORSDOF 1
ENDMDL
