MODEL 1
REMARK minimizedAffinity -2.13740778
REMARK minimizedRMSD -1
REMARK  1 active torsions:
REMARK  status: ('A' for Active; 'I' for Inactive)
REMARK    1  A    between atoms: N_2  and  C1_3 
ROOT
ATOM      1  C1  UNL d   1      -0.723  -2.997  -0.697  0.00  0.00     0.143 A 
ATOM      2  C2  UNL d   1      -0.454  -1.764  -1.300  0.00  0.00    -0.057 A 
ATOM      3  C3  UNL d   1       0.138  -1.688  -2.567  0.00  0.00     0.033 A 
ATOM      4  C4  UNL d   1       0.498  -2.849  -3.243  0.00  0.00    -0.042 A 
ATOM      5  C5  UNL d   1       0.263  -4.086  -2.652  0.00  0.00     0.033 A 
ATOM      6  C6  UNL d   1      -0.335  -4.155  -1.390  0.00  0.00    -0.057 A 
ENDROOT
BRANCH   1   7
ATOM      7  N   UNL d   1      -1.219  -3.136   0.601  0.00  0.00    -0.732 N 
ATOM      8  C   UNL d   1      -2.548  -2.673   0.937  0.00  0.00     0.284 C 
ATOM      9  H3  UNL d   1      -0.974  -4.032   1.017  0.00  0.00     0.395 HD
ENDBRANCH   1   7
TORSDOF 1
ENDMDL
