MODEL 1
REMARK minimizedAffinity 3.91891074
REMARK minimizedRMSD -1
REMARK  1 active torsions:
REMARK  status: ('A' for Active; 'I' for Inactive)
REMARK    1  A    between atoms: N_2  and  C1_3 
ROOT
ATOM      1  C1  UNL d   1      -0.478  -1.756  -1.280  0.00  0.00     0.143 A 
ATOM      2  C2  UNL d   1      -1.485  -2.724  -1.366  0.00  0.00    -0.057 A 
ATOM      3  C3  UNL d   1      -2.219  -3.109  -0.238  0.00  0.00     0.033 A 
ATOM      4  C4  UNL d   1      -1.939  -2.553   1.006  0.00  0.00    -0.042 A 
ATOM      5  C5  UNL d   1      -0.926  -1.608   1.119  0.00  0.00     0.033 A 
ATOM      6  C6  UNL d   1      -0.200  -1.222  -0.012  0.00  0.00    -0.057 A 
ENDROOT
BRANCH   1   7
ATOM      7  N   UNL d   1       0.353  -1.402  -2.346  0.00  0.00    -0.732 N 
ATOM      8  C   UNL d   1       1.628  -2.059  -2.536  0.00  0.00     0.284 C 
ATOM      9  H3  UNL d   1      -0.165  -1.244  -3.207  0.00  0.00     0.395 HD
ENDBRANCH   1   7
TORSDOF 1
ENDMDL
