MODEL 1
REMARK minimizedAffinity -2.97358203
REMARK minimizedRMSD -1
REMARK  0 active torsions:
REMARK  status: ('A' for Active; 'I' for Inactive)
ROOT
ATOM      1  C4' PXY d   1       0.376   2.337  -2.756  0.00  0.00     0.077 C 
ATOM      2  C1' PXY d   1       0.504  -1.934   1.138  0.00  0.00     0.077 C 
ATOM      3  C1  PXY d   1       0.469  -0.805   0.126  0.00  0.00    -0.082 A 
ATOM      4  C2  PXY d   1       0.097  -1.054  -1.118  0.00  0.00     0.003 A 
ATOM      5  C3  PXY d   1       0.090  -0.052  -2.054  0.00  0.00     0.003 A 
ATOM      6  C4  PXY d   1       0.417   1.230  -1.698  0.00  0.00    -0.082 A 
ATOM      7  C5  PXY d   1       0.788   1.493  -0.428  0.00  0.00     0.003 A 
ATOM      8  C6  PXY d   1       0.828   0.454   0.497  0.00  0.00     0.003 A 
ENDROOT
TORSDOF 0
ENDMDL
