MODEL 1
REMARK minimizedAffinity 0.0061632921
REMARK minimizedRMSD -1
REMARK  0 active torsions:
REMARK  status: ('A' for Active; 'I' for Inactive)
ROOT
ATOM      1  C4' PXY d   1       0.714   2.320  -2.535  0.00  0.00     0.077 C 
ATOM      2  C1' PXY d   1       0.235  -1.903   1.382  0.00  0.00     0.077 C 
ATOM      3  C1  PXY d   1       0.356  -0.787   0.364  0.00  0.00    -0.082 A 
ATOM      4  C2  PXY d   1       0.332  -1.074  -0.928  0.00  0.00     0.003 A 
ATOM      5  C3  PXY d   1       0.472  -0.081  -1.862  0.00  0.00     0.003 A 
ATOM      6  C4  PXY d   1       0.585   1.227  -1.472  0.00  0.00    -0.082 A 
ATOM      7  C5  PXY d   1       0.600   1.529  -0.156  0.00  0.00     0.003 A 
ATOM      8  C6  PXY d   1       0.498   0.502   0.777  0.00  0.00     0.003 A 
ENDROOT
TORSDOF 0
ENDMDL
