MODEL 1
REMARK minimizedAffinity -3.84740567
REMARK minimizedRMSD -1
REMARK  0 active torsions:
REMARK  status: ('A' for Active; 'I' for Inactive)
ROOT
ATOM      1  C4' PXY d   1       0.141  -1.378   1.289  0.00  0.00     0.077 C 
ATOM      2  C1' PXY d   1       1.134   2.224  -3.122  0.00  0.00     0.077 C 
ATOM      3  C1  PXY d   1       0.882   1.286  -1.958  0.00  0.00    -0.082 A 
ATOM      4  C2  PXY d   1       0.444   0.059  -2.189  0.00  0.00     0.003 A 
ATOM      5  C3  PXY d   1       0.180  -0.791  -1.146  0.00  0.00     0.003 A 
ATOM      6  C4  PXY d   1       0.418  -0.400   0.144  0.00  0.00    -0.082 A 
ATOM      7  C5  PXY d   1       0.875   0.847   0.388  0.00  0.00     0.003 A 
ATOM      8  C6  PXY d   1       1.097   1.709  -0.682  0.00  0.00     0.003 A 
ENDROOT
TORSDOF 0
ENDMDL
