MODEL 1
REMARK minimizedAffinity -1.12339616
REMARK minimizedRMSD -1
REMARK  0 active torsions:
REMARK  status: ('A' for Active; 'I' for Inactive)
ROOT
ATOM      1  C4' PXY d   1       0.000  -2.370   2.566  0.00  0.00     0.077 C 
ATOM      2  C1' PXY d   1       0.948   1.464  -1.655  0.00  0.00     0.077 C 
ATOM      3  C1  PXY d   1       0.688   0.465  -0.545  0.00  0.00    -0.082 A 
ATOM      4  C2  PXY d   1       1.702  -0.197  -0.010  0.00  0.00     0.003 A 
ATOM      5  C3  PXY d   1       1.481  -1.127   0.973  0.00  0.00     0.003 A 
ATOM      6  C4  PXY d   1       0.216  -1.344   1.450  0.00  0.00    -0.082 A 
ATOM      7  C5  PXY d   1      -0.821  -0.666   0.917  0.00  0.00     0.003 A 
ATOM      8  C6  PXY d   1      -0.581   0.245  -0.108  0.00  0.00     0.003 A 
ENDROOT
TORSDOF 0
ENDMDL
