MODEL 1
REMARK minimizedAffinity -4.5525465
REMARK minimizedRMSD -1
REMARK  0 active torsions:
REMARK  status: ('A' for Active; 'I' for Inactive)
ROOT
ATOM      1  C4' PXY d   1       4.705   2.401  -1.908  0.00  0.00     0.077 C 
ATOM      2  C1' PXY d   1      -0.547   0.738  -3.659  0.00  0.00     0.077 C 
ATOM      3  C1  PXY d   1       0.825   1.180  -3.190  0.00  0.00    -0.082 A 
ATOM      4  C2  PXY d   1       1.810   1.295  -4.065  0.00  0.00     0.003 A 
ATOM      5  C3  PXY d   1       3.065   1.663  -3.653  0.00  0.00     0.003 A 
ATOM      6  C4  PXY d   1       3.301   1.967  -2.339  0.00  0.00    -0.082 A 
ATOM      7  C5  PXY d   1       2.299   1.862  -1.441  0.00  0.00     0.003 A 
ATOM      8  C6  PXY d   1       1.042   1.447  -1.873  0.00  0.00     0.003 A 
ENDROOT
TORSDOF 0
ENDMDL
