MODEL 1
REMARK minimizedAffinity -5.32905436
REMARK minimizedRMSD -1
REMARK  0 active torsions:
REMARK  status: ('A' for Active; 'I' for Inactive)
ROOT
ATOM      1  C4' PXY d   1       1.180   1.430  -2.512  0.00  0.00     0.077 C 
ATOM      2  C1' PXY d   1      -0.696  -2.383   1.407  0.00  0.00     0.077 C 
ATOM      3  C1  PXY d   1      -0.211  -1.373   0.385  0.00  0.00    -0.082 A 
ATOM      4  C2  PXY d   1       0.253  -1.794  -0.781  0.00  0.00     0.003 A 
ATOM      5  C3  PXY d   1       0.724  -0.897  -1.705  0.00  0.00     0.003 A 
ATOM      6  C4  PXY d   1       0.672   0.448  -1.454  0.00  0.00    -0.082 A 
ATOM      7  C5  PXY d   1       0.190   0.885  -0.271  0.00  0.00     0.003 A 
ATOM      8  C6  PXY d   1      -0.245  -0.043   0.669  0.00  0.00     0.003 A 
ENDROOT
TORSDOF 0
ENDMDL
