MODEL 1
REMARK minimizedAffinity -4.78914356
REMARK minimizedRMSD -1
REMARK  0 active torsions:
REMARK  status: ('A' for Active; 'I' for Inactive)
ROOT
ATOM      1  C4' PXY d   1      -2.057  -1.994   2.327  0.00  0.00     0.077 C 
ATOM      2  C1' PXY d   1       0.872   1.901  -0.781  0.00  0.00     0.077 C 
ATOM      3  C1  PXY d   1       0.100   0.889   0.042  0.00  0.00    -0.082 A 
ATOM      4  C2  PXY d   1       0.454  -0.385   0.012  0.00  0.00     0.003 A 
ATOM      5  C3  PXY d   1      -0.253  -1.319   0.725  0.00  0.00     0.003 A 
ATOM      6  C4  PXY d   1      -1.300  -0.936   1.520  0.00  0.00    -0.082 A 
ATOM      7  C5  PXY d   1      -1.661   0.364   1.564  0.00  0.00     0.003 A 
ATOM      8  C6  PXY d   1      -0.956   1.290   0.800  0.00  0.00     0.003 A 
ENDROOT
TORSDOF 0
ENDMDL
