MODEL 1
REMARK minimizedAffinity -2.07104778
REMARK minimizedRMSD -1
REMARK  0 active torsions:
REMARK  status: ('A' for Active; 'I' for Inactive)
ROOT
ATOM      1  C4' PXY d   1       0.445  -2.643   3.556  0.00  0.00     0.077 C 
ATOM      2  C1' PXY d   1      -1.798  -0.369  -1.262  0.00  0.00     0.077 C 
ATOM      3  C1  PXY d   1      -1.222  -0.968   0.006  0.00  0.00    -0.082 A 
ATOM      4  C2  PXY d   1      -0.015  -0.606   0.410  0.00  0.00     0.003 A 
ATOM      5  C3  PXY d   1       0.534  -1.162   1.537  0.00  0.00     0.003 A 
ATOM      6  C4  PXY d   1      -0.180  -2.057   2.287  0.00  0.00    -0.082 A 
ATOM      7  C5  PXY d   1      -1.416  -2.424   1.886  0.00  0.00     0.003 A 
ATOM      8  C6  PXY d   1      -1.939  -1.879   0.717  0.00  0.00     0.003 A 
ENDROOT
TORSDOF 0
ENDMDL
