MODEL 1
REMARK minimizedAffinity -4.8625145
REMARK minimizedRMSD -1
REMARK  0 active torsions:
REMARK  status: ('A' for Active; 'I' for Inactive)
ROOT
ATOM      1  C4' PXY d   1      -2.489  -3.452   1.162  0.00  0.00     0.077 C 
ATOM      2  C1' PXY d   1       0.416   1.490   0.423  0.00  0.00     0.077 C 
ATOM      3  C1  PXY d   1      -0.335   0.187   0.615  0.00  0.00    -0.082 A 
ATOM      4  C2  PXY d   1      -1.622   0.124   0.318  0.00  0.00     0.003 A 
ATOM      5  C3  PXY d   1      -2.324  -1.037   0.516  0.00  0.00     0.003 A 
ATOM      6  C4  PXY d   1      -1.689  -2.161   0.974  0.00  0.00    -0.082 A 
ATOM      7  C5  PXY d   1      -0.373  -2.107   1.269  0.00  0.00     0.003 A 
ATOM      8  C6  PXY d   1       0.312  -0.908   1.100  0.00  0.00     0.003 A 
ENDROOT
TORSDOF 0
ENDMDL
