MODEL 1
REMARK minimizedAffinity -3.32514715
REMARK minimizedRMSD -1
REMARK  0 active torsions:
REMARK  status: ('A' for Active; 'I' for Inactive)
ROOT
ATOM      1  C4' PXY d   1      -2.272   0.224   1.190  0.00  0.00     0.077 C 
ATOM      2  C1' PXY d   1       2.417  -2.963   0.064  0.00  0.00     0.077 C 
ATOM      3  C1  PXY d   1       1.181  -2.138   0.363  0.00  0.00    -0.082 A 
ATOM      4  C2  PXY d   1       1.003  -0.980  -0.251  0.00  0.00     0.003 A 
ATOM      5  C3  PXY d   1      -0.093  -0.206   0.031  0.00  0.00     0.003 A 
ATOM      6  C4  PXY d   1      -1.044  -0.647   0.912  0.00  0.00    -0.082 A 
ATOM      7  C5  PXY d   1      -0.875  -1.833   1.535  0.00  0.00     0.003 A 
ATOM      8  C6  PXY d   1       0.265  -2.584   1.265  0.00  0.00     0.003 A 
ENDROOT
TORSDOF 0
ENDMDL
