MODEL 1
REMARK minimizedAffinity -4.72372007
REMARK minimizedRMSD -1
REMARK  0 active torsions:
REMARK  status: ('A' for Active; 'I' for Inactive)
ROOT
ATOM      1  C4' PXY d   1       1.070   1.807  -0.075  0.00  0.00     0.077 C 
ATOM      2  C1' PXY d   1      -1.737  -3.143   0.945  0.00  0.00     0.077 C 
ATOM      3  C1  PXY d   1      -0.990  -1.850   0.682  0.00  0.00    -0.082 A 
ATOM      4  C2  PXY d   1      -1.659  -0.711   0.609  0.00  0.00     0.003 A 
ATOM      5  C3  PXY d   1      -1.003   0.463   0.340  0.00  0.00     0.003 A 
ATOM      6  C4  PXY d   1       0.358   0.479   0.198  0.00  0.00    -0.082 A 
ATOM      7  C5  PXY d   1       1.050  -0.678   0.282  0.00  0.00     0.003 A 
ATOM      8  C6  PXY d   1       0.361  -1.865   0.514  0.00  0.00     0.003 A 
ENDROOT
TORSDOF 0
ENDMDL
