MODEL 1
REMARK minimizedAffinity -4.46075058
REMARK minimizedRMSD -1
REMARK  0 active torsions:
REMARK  status: ('A' for Active; 'I' for Inactive)
ROOT
ATOM      1  C4' PXY d   1       0.535  -1.115   0.748  0.00  0.00     0.077 C 
ATOM      2  C1' PXY d   1       0.474   2.927  -3.385  0.00  0.00     0.077 C 
ATOM      3  C1  PXY d   1       0.499   1.873  -2.295  0.00  0.00    -0.082 A 
ATOM      4  C2  PXY d   1       0.067   0.650  -2.557  0.00  0.00     0.003 A 
ATOM      5  C3  PXY d   1       0.054  -0.306  -1.574  0.00  0.00     0.003 A 
ATOM      6  C4  PXY d   1       0.537  -0.022  -0.325  0.00  0.00    -0.082 A 
ATOM      7  C5  PXY d   1       0.989   1.220  -0.053  0.00  0.00     0.003 A 
ATOM      8  C6  PXY d   1       0.956   2.188  -1.052  0.00  0.00     0.003 A 
ENDROOT
TORSDOF 0
ENDMDL
