MODEL 1
REMARK minimizedAffinity -2.90155888
REMARK minimizedRMSD -1
REMARK  0 active torsions:
REMARK  status: ('A' for Active; 'I' for Inactive)
ROOT
ATOM      1  C4' PXY d   1       1.090   1.639  -1.624  0.00  0.00     0.077 C 
ATOM      2  C1' PXY d   1       0.123  -3.146   1.472  0.00  0.00     0.077 C 
ATOM      3  C1  PXY d   1       0.376  -1.898   0.649  0.00  0.00    -0.082 A 
ATOM      4  C2  PXY d   1       1.023  -0.878   1.189  0.00  0.00     0.003 A 
ATOM      5  C3  PXY d   1       1.232   0.270   0.469  0.00  0.00     0.003 A 
ATOM      6  C4  PXY d   1       0.821   0.355  -0.834  0.00  0.00    -0.082 A 
ATOM      7  C5  PXY d   1       0.169  -0.685  -1.395  0.00  0.00     0.003 A 
ATOM      8  C6  PXY d   1      -0.069  -1.826  -0.635  0.00  0.00     0.003 A 
ENDROOT
TORSDOF 0
ENDMDL
