MODEL 1
REMARK minimizedAffinity -3.05141568
REMARK minimizedRMSD -1
REMARK  0 active torsions:
REMARK  status: ('A' for Active; 'I' for Inactive)
ROOT
ATOM      1  C4' PXY d   1       1.382   1.921  -2.436  0.00  0.00     0.077 C 
ATOM      2  C1' PXY d   1       0.386  -2.576   1.058  0.00  0.00     0.077 C 
ATOM      3  C1  PXY d   1       0.641  -1.389   0.150  0.00  0.00    -0.082 A 
ATOM      4  C2  PXY d   1       0.858  -1.587  -1.140  0.00  0.00     0.003 A 
ATOM      5  C3  PXY d   1       1.122  -0.527  -1.970  0.00  0.00     0.003 A 
ATOM      6  C4  PXY d   1       1.111   0.753  -1.484  0.00  0.00    -0.082 A 
ATOM      7  C5  PXY d   1       0.880   0.964  -0.171  0.00  0.00     0.003 A 
ATOM      8  C6  PXY d   1       0.655  -0.128   0.662  0.00  0.00     0.003 A 
ENDROOT
TORSDOF 0
ENDMDL
