MODEL 1
REMARK minimizedAffinity -4.01290989
REMARK minimizedRMSD -1
REMARK  0 active torsions:
REMARK  status: ('A' for Active; 'I' for Inactive)
ROOT
ATOM      1  C4' PXY d   1       0.228  -2.165   1.455  0.00  0.00     0.077 C 
ATOM      2  C1' PXY d   1       1.257   1.926  -2.497  0.00  0.00     0.077 C 
ATOM      3  C1  PXY d   1       0.995   0.860  -1.452  0.00  0.00    -0.082 A 
ATOM      4  C2  PXY d   1       0.614  -0.349  -1.833  0.00  0.00     0.003 A 
ATOM      5  C3  PXY d   1       0.342  -1.316  -0.900  0.00  0.00     0.003 A 
ATOM      6  C4  PXY d   1       0.513  -1.060   0.434  0.00  0.00    -0.082 A 
ATOM      7  C5  PXY d   1       0.912   0.168   0.830  0.00  0.00     0.003 A 
ATOM      8  C6  PXY d   1       1.143   1.148  -0.131  0.00  0.00     0.003 A 
ENDROOT
TORSDOF 0
ENDMDL
