MODEL 1
REMARK minimizedAffinity -3.55911326
REMARK minimizedRMSD -1
REMARK  0 active torsions:
REMARK  status: ('A' for Active; 'I' for Inactive)
ROOT
ATOM      1  C4' PXY d   1       0.355  -2.943   1.233  0.00  0.00     0.077 C 
ATOM      2  C1' PXY d   1       0.889   2.103  -1.536  0.00  0.00     0.077 C 
ATOM      3  C1  PXY d   1       0.762   0.780  -0.807  0.00  0.00    -0.082 A 
ATOM      4  C2  PXY d   1      -0.231  -0.041  -1.109  0.00  0.00     0.003 A 
ATOM      5  C3  PXY d   1      -0.379  -1.227  -0.437  0.00  0.00     0.003 A 
ATOM      6  C4  PXY d   1       0.528  -1.601   0.517  0.00  0.00    -0.082 A 
ATOM      7  C5  PXY d   1       1.550  -0.774   0.823  0.00  0.00     0.003 A 
ATOM      8  C6  PXY d   1       1.660   0.444   0.159  0.00  0.00     0.003 A 
ENDROOT
TORSDOF 0
ENDMDL
