MODEL 1
REMARK minimizedAffinity -4.73853207
REMARK minimizedRMSD -1
REMARK  0 active torsions:
REMARK  status: ('A' for Active; 'I' for Inactive)
ROOT
ATOM      1  C4' PXY d   1       1.209   1.623  -1.632  0.00  0.00     0.077 C 
ATOM      2  C1' PXY d   1      -0.741  -2.693   1.682  0.00  0.00     0.077 C 
ATOM      3  C1  PXY d   1      -0.242  -1.557   0.811  0.00  0.00    -0.082 A 
ATOM      4  C2  PXY d   1       0.936  -1.658   0.216  0.00  0.00     0.003 A 
ATOM      5  C3  PXY d   1       1.416  -0.627  -0.549  0.00  0.00     0.003 A 
ATOM      6  C4  PXY d   1       0.661   0.497  -0.751  0.00  0.00    -0.082 A 
ATOM      7  C5  PXY d   1      -0.547   0.602  -0.157  0.00  0.00     0.003 A 
ATOM      8  C6  PXY d   1      -0.999  -0.438   0.650  0.00  0.00     0.003 A 
ENDROOT
TORSDOF 0
ENDMDL
