MODEL 1
REMARK minimizedAffinity -3.86475897
REMARK minimizedRMSD -1
REMARK  0 active torsions:
REMARK  status: ('A' for Active; 'I' for Inactive)
ROOT
ATOM      1  C4' PXY d   1       0.336  -2.050   1.002  0.00  0.00     0.077 C 
ATOM      2  C1' PXY d   1       0.483   2.266  -2.841  0.00  0.00     0.077 C 
ATOM      3  C1  PXY d   1       0.439   1.126  -1.842  0.00  0.00    -0.082 A 
ATOM      4  C2  PXY d   1       0.427   1.393  -0.546  0.00  0.00     0.003 A 
ATOM      5  C3  PXY d   1       0.419   0.374   0.372  0.00  0.00     0.003 A 
ATOM      6  C4  PXY d   1       0.371  -0.931  -0.042  0.00  0.00    -0.082 A 
ATOM      7  C5  PXY d   1       0.373  -1.210  -1.363  0.00  0.00     0.003 A 
ATOM      8  C6  PXY d   1       0.422  -0.163  -2.278  0.00  0.00     0.003 A 
ENDROOT
TORSDOF 0
ENDMDL
