MODEL 1
REMARK minimizedAffinity 13.5212507
REMARK minimizedRMSD -1
REMARK  1 active torsions:
REMARK  status: ('A' for Active; 'I' for Inactive)
REMARK    1  A    between atoms: C1_2  and  C2_3 
ROOT
ATOM      1  C2  UNL d   1       5.982   3.336  -1.123  0.00  0.00    -0.076 A 
ATOM      2  C3  UNL d   1       5.976   4.684  -0.726  0.00  0.00     0.004 A 
ATOM      3  C4  UNL d   1       5.985   5.710  -1.669  0.00  0.00    -0.003 A 
ATOM      4  C5  UNL d   1       6.000   5.404  -3.026  0.00  0.00     0.000 A 
ATOM      5  C6  UNL d   1       5.988   4.072  -3.438  0.00  0.00     0.000 A 
ATOM      6  C7  UNL d   1       5.963   3.026  -2.500  0.00  0.00    -0.073 A 
ATOM      7  C8  UNL d   1       5.958   1.608  -3.001  0.00  0.00     0.078 C 
ENDROOT
BRANCH   1   8
ATOM      8  C1  UNL d   1       6.000   2.266  -0.055  0.00  0.00     0.053 C 
ATOM      9  C   UNL d   1       5.297   2.705   1.221  0.00  0.00     0.018 C 
ENDBRANCH   1   8
TORSDOF 1
ENDMDL
