MODEL 1
REMARK minimizedAffinity -2.48586297
REMARK minimizedRMSD -1
REMARK  1 active torsions:
REMARK  status: ('A' for Active; 'I' for Inactive)
REMARK    1  A    between atoms: C1_2  and  C2_3 
ROOT
ATOM      1  C2  UNL d   1       3.692  -0.060   1.759  0.00  0.00    -0.076 A 
ATOM      2  C3  UNL d   1       4.933   0.599   1.746  0.00  0.00     0.004 A 
ATOM      3  C4  UNL d   1       6.000   0.137   2.515  0.00  0.00    -0.003 A 
ATOM      4  C5  UNL d   1       5.842  -0.993   3.310  0.00  0.00     0.000 A 
ATOM      5  C6  UNL d   1       4.623  -1.670   3.322  0.00  0.00     0.000 A 
ATOM      6  C7  UNL d   1       3.543  -1.226   2.540  0.00  0.00    -0.073 A 
ATOM      7  C8  UNL d   1       2.249  -1.991   2.596  0.00  0.00     0.078 C 
ENDROOT
BRANCH   1   8
ATOM      8  C1  UNL d   1       2.564   0.503   0.925  0.00  0.00     0.053 C 
ATOM      9  C   UNL d   1       2.473  -0.146  -0.447  0.00  0.00     0.018 C 
ENDBRANCH   1   8
TORSDOF 1
ENDMDL
