MODEL 1
REMARK minimizedAffinity 3.149508
REMARK minimizedRMSD -1
REMARK  1 active torsions:
REMARK  status: ('A' for Active; 'I' for Inactive)
REMARK    1  A    between atoms: C1_2  and  C2_3 
ROOT
ATOM      1  C2  UNL d   1       4.601   2.231  -0.899  0.00  0.00    -0.076 A 
ATOM      2  C3  UNL d   1       3.887   1.550  -1.900  0.00  0.00     0.004 A 
ATOM      3  C4  UNL d   1       2.768   0.780  -1.585  0.00  0.00    -0.003 A 
ATOM      4  C5  UNL d   1       2.345   0.680  -0.264  0.00  0.00     0.000 A 
ATOM      5  C6  UNL d   1       3.031   1.364   0.739  0.00  0.00     0.000 A 
ATOM      6  C7  UNL d   1       4.151   2.157   0.437  0.00  0.00    -0.073 A 
ATOM      7  C8  UNL d   1       4.857   2.867   1.559  0.00  0.00     0.078 C 
ENDROOT
BRANCH   1   8
ATOM      8  C1  UNL d   1       5.823   3.028  -1.297  0.00  0.00     0.053 C 
ATOM      9  C   UNL d   1       5.997   3.113  -2.805  0.00  0.00     0.018 C 
ENDBRANCH   1   8
TORSDOF 1
ENDMDL
