MODEL 1
REMARK minimizedAffinity 8.87536716
REMARK minimizedRMSD -1
REMARK  1 active torsions:
REMARK  status: ('A' for Active; 'I' for Inactive)
REMARK    1  A    between atoms: C1_2  and  C2_3 
ROOT
ATOM      1  C2  UNL d   1       3.830  -0.747   2.153  0.00  0.00    -0.076 A 
ATOM      2  C3  UNL d   1       4.216   0.440   1.506  0.00  0.00     0.004 A 
ATOM      3  C4  UNL d   1       3.593   0.850   0.328  0.00  0.00    -0.003 A 
ATOM      4  C5  UNL d   1       2.574   0.080  -0.222  0.00  0.00     0.000 A 
ATOM      5  C6  UNL d   1       2.167  -1.091   0.416  0.00  0.00     0.000 A 
ATOM      6  C7  UNL d   1       2.773  -1.510   1.613  0.00  0.00    -0.073 A 
ATOM      7  C8  UNL d   1       2.297  -2.785   2.255  0.00  0.00     0.078 C 
ENDROOT
BRANCH   1   8
ATOM      8  C1  UNL d   1       4.559  -1.156   3.413  0.00  0.00     0.053 C 
ATOM      9  C   UNL d   1       5.998  -1.570   3.144  0.00  0.00     0.018 C 
ENDBRANCH   1   8
TORSDOF 1
ENDMDL
