MODEL 1
REMARK minimizedAffinity 2.41934419
REMARK minimizedRMSD -1
REMARK  1 active torsions:
REMARK  status: ('A' for Active; 'I' for Inactive)
REMARK    1  A    between atoms: C1_2  and  C2_3 
ROOT
ATOM      1  C2  UNL d   1       4.980   2.415  -1.514  0.00  0.00    -0.076 A 
ATOM      2  C3  UNL d   1       5.092   2.771  -0.159  0.00  0.00     0.004 A 
ATOM      3  C4  UNL d   1       4.166   2.321   0.780  0.00  0.00    -0.003 A 
ATOM      4  C5  UNL d   1       3.113   1.506   0.379  0.00  0.00     0.000 A 
ATOM      5  C6  UNL d   1       2.997   1.128  -0.958  0.00  0.00     0.000 A 
ATOM      6  C7  UNL d   1       3.931   1.560  -1.915  0.00  0.00    -0.073 A 
ATOM      7  C8  UNL d   1       3.754   1.127  -3.344  0.00  0.00     0.078 C 
ENDROOT
BRANCH   1   8
ATOM      8  C1  UNL d   1       5.999   2.956  -2.492  0.00  0.00     0.053 C 
ATOM      9  C   UNL d   1       5.995   4.475  -2.556  0.00  0.00     0.018 C 
ENDBRANCH   1   8
TORSDOF 1
ENDMDL
