MODEL 1
REMARK minimizedAffinity 8.06052971
REMARK minimizedRMSD -1
REMARK  1 active torsions:
REMARK  status: ('A' for Active; 'I' for Inactive)
REMARK    1  A    between atoms: C1_2  and  C2_3 
ROOT
ATOM      1  C2  UNL d   1       4.034   1.620  -1.052  0.00  0.00    -0.076 A 
ATOM      2  C3  UNL d   1       3.934   1.164  -2.378  0.00  0.00     0.004 A 
ATOM      3  C4  UNL d   1       4.846   1.574  -3.349  0.00  0.00    -0.003 A 
ATOM      4  C5  UNL d   1       5.875   2.446  -3.009  0.00  0.00     0.000 A 
ATOM      5  C6  UNL d   1       6.000   2.894  -1.695  0.00  0.00     0.000 A 
ATOM      6  C7  UNL d   1       5.098   2.478  -0.700  0.00  0.00    -0.073 A 
ATOM      7  C8  UNL d   1       5.276   2.998   0.700  0.00  0.00     0.078 C 
ENDROOT
BRANCH   1   8
ATOM      8  C1  UNL d   1       2.999   1.163  -0.049  0.00  0.00     0.053 C 
ATOM      9  C   UNL d   1       2.234  -0.065  -0.519  0.00  0.00     0.018 C 
ENDBRANCH   1   8
TORSDOF 1
ENDMDL
