MODEL 1
REMARK minimizedAffinity -1.59162211
REMARK minimizedRMSD -1
REMARK  0 active torsions:
REMARK  status: ('A' for Active; 'I' for Inactive)
ROOT
ATOM      1  O1  BZF d   1       0.693   0.681   0.231  0.00  0.00    -0.204 OA
ATOM      2  C2  BZF d   1      -0.600   0.245   0.014  0.00  0.00     0.174 A 
ATOM      3  C3  BZF d   1      -0.717  -0.318  -1.206  0.00  0.00    -0.012 A 
ATOM      4  C3A BZF d   1       0.606  -0.311  -1.752  0.00  0.00    -0.107 A 
ATOM      5  C4  BZF d   1       1.137  -0.749  -2.931  0.00  0.00     0.055 A 
ATOM      6  C5  BZF d   1       2.454  -0.527  -3.186  0.00  0.00    -0.016 A 
ATOM      7  C6  BZF d   1       3.265   0.135  -2.288  0.00  0.00     0.022 A 
ATOM      8  C7  BZF d   1       2.784   0.584  -1.103  0.00  0.00     0.029 A 
ATOM      9  C7A BZF d   1       1.462   0.332  -0.828  0.00  0.00     0.058 A 
ENDROOT
TORSDOF 0
ENDMDL
