MODEL 1
REMARK minimizedAffinity -0.841461003
REMARK minimizedRMSD -1
REMARK  0 active torsions:
REMARK  status: ('A' for Active; 'I' for Inactive)
ROOT
ATOM      1  O1  BZF d   1      -0.321  -1.344   0.201  0.00  0.00    -0.204 OA
ATOM      2  C2  BZF d   1      -0.732  -0.398   1.120  0.00  0.00     0.174 A 
ATOM      3  C3  BZF d   1      -0.271   0.825   0.787  0.00  0.00    -0.012 A 
ATOM      4  C3A BZF d   1       0.397   0.647  -0.466  0.00  0.00    -0.107 A 
ATOM      5  C4  BZF d   1       1.047   1.498  -1.313  0.00  0.00     0.055 A 
ATOM      6  C5  BZF d   1       1.653   0.994  -2.420  0.00  0.00    -0.016 A 
ATOM      7  C6  BZF d   1       1.632  -0.355  -2.708  0.00  0.00     0.022 A 
ATOM      8  C7  BZF d   1       0.995  -1.238  -1.900  0.00  0.00     0.029 A 
ATOM      9  C7A BZF d   1       0.354  -0.727  -0.798  0.00  0.00     0.058 A 
ENDROOT
TORSDOF 0
ENDMDL
