MODEL 1
REMARK minimizedAffinity -0.788101256
REMARK minimizedRMSD -1
REMARK  0 active torsions:
REMARK  status: ('A' for Active; 'I' for Inactive)
ROOT
ATOM      1  O1  BZF d   1      -1.403   0.533   0.251  0.00  0.00    -0.204 OA
ATOM      2  C2  BZF d   1      -1.188  -0.405   1.242  0.00  0.00     0.174 A 
ATOM      3  C3  BZF d   1       0.073  -0.879   1.188  0.00  0.00    -0.012 A 
ATOM      4  C3A BZF d   1       0.713  -0.127   0.152  0.00  0.00    -0.107 A 
ATOM      5  C4  BZF d   1       1.977  -0.127  -0.364  0.00  0.00     0.055 A 
ATOM      6  C5  BZF d   1       2.259   0.679  -1.422  0.00  0.00    -0.016 A 
ATOM      7  C6  BZF d   1       1.300   1.492  -1.990  0.00  0.00     0.022 A 
ATOM      8  C7  BZF d   1       0.034   1.530  -1.510  0.00  0.00     0.029 A 
ATOM      9  C7A BZF d   1      -0.245   0.741  -0.421  0.00  0.00     0.058 A 
ENDROOT
TORSDOF 0
ENDMDL
