MODEL 1
REMARK minimizedAffinity -4.1249218
REMARK minimizedRMSD -1
REMARK  0 active torsions:
REMARK  status: ('A' for Active; 'I' for Inactive)
ROOT
ATOM      1  O1  BZF d   1      -1.507  -0.811   0.589  0.00  0.00    -0.204 OA
ATOM      2  C2  BZF d   1      -0.164  -0.505   0.695  0.00  0.00     0.174 A 
ATOM      3  C3  BZF d   1       0.011   0.659   1.354  0.00  0.00    -0.012 A 
ATOM      4  C3A BZF d   1      -1.301   1.062   1.760  0.00  0.00    -0.107 A 
ATOM      5  C4  BZF d   1      -1.778   2.130   2.464  0.00  0.00     0.055 A 
ATOM      6  C5  BZF d   1      -3.121   2.268   2.625  0.00  0.00    -0.016 A 
ATOM      7  C6  BZF d   1      -4.013   1.360   2.093  0.00  0.00     0.022 A 
ATOM      8  C7  BZF d   1      -3.586   0.282   1.391  0.00  0.00     0.029 A 
ATOM      9  C7A BZF d   1      -2.229   0.123   1.254  0.00  0.00     0.058 A 
ENDROOT
TORSDOF 0
ENDMDL
