MODEL 1
REMARK minimizedAffinity -3.38386559
REMARK minimizedRMSD -1
REMARK  0 active torsions:
REMARK  status: ('A' for Active; 'I' for Inactive)
ROOT
ATOM      1  O1  BZF d   1       0.360  -0.020   1.306  0.00  0.00    -0.204 OA
ATOM      2  C2  BZF d   1       0.083  -1.347   1.573  0.00  0.00     0.174 A 
ATOM      3  C3  BZF d   1       0.317  -2.112   0.487  0.00  0.00    -0.012 A 
ATOM      4  C3A BZF d   1       0.856  -1.220  -0.493  0.00  0.00    -0.107 A 
ATOM      5  C4  BZF d   1       1.300  -1.390  -1.773  0.00  0.00     0.055 A 
ATOM      6  C5  BZF d   1       1.697  -0.302  -2.484  0.00  0.00    -0.016 A 
ATOM      7  C6  BZF d   1       1.658   0.969  -1.949  0.00  0.00     0.022 A 
ATOM      8  C7  BZF d   1       1.230   1.186  -0.681  0.00  0.00     0.029 A 
ATOM      9  C7A BZF d   1       0.860   0.085   0.051  0.00  0.00     0.058 A 
ENDROOT
TORSDOF 0
ENDMDL
