MODEL 1
REMARK minimizedAffinity -4.04974222
REMARK minimizedRMSD -1
REMARK  0 active torsions:
REMARK  status: ('A' for Active; 'I' for Inactive)
ROOT
ATOM      1  O1  BZF d   1      -0.553  -1.027  -0.513  0.00  0.00    -0.204 OA
ATOM      2  C2  BZF d   1      -0.782  -0.448   0.721  0.00  0.00     0.174 A 
ATOM      3  C3  BZF d   1       0.184   0.446   1.016  0.00  0.00    -0.012 A 
ATOM      4  C3A BZF d   1       1.022   0.492  -0.143  0.00  0.00    -0.107 A 
ATOM      5  C4  BZF d   1       2.141   1.205  -0.465  0.00  0.00     0.055 A 
ATOM      6  C5  BZF d   1       2.761   0.962  -1.649  0.00  0.00    -0.016 A 
ATOM      7  C6  BZF d   1       2.293   0.011  -2.532  0.00  0.00     0.022 A 
ATOM      8  C7  BZF d   1       1.183  -0.718  -2.259  0.00  0.00     0.029 A 
ATOM      9  C7A BZF d   1       0.536  -0.452  -1.077  0.00  0.00     0.058 A 
ENDROOT
TORSDOF 0
ENDMDL
