MODEL 1
REMARK minimizedAffinity -2.18940854
REMARK minimizedRMSD -1
REMARK  0 active torsions:
REMARK  status: ('A' for Active; 'I' for Inactive)
ROOT
ATOM      1  O1  BZF d   1       0.539   0.133   1.192  0.00  0.00    -0.204 OA
ATOM      2  C2  BZF d   1      -0.824   0.036   1.395  0.00  0.00     0.174 A 
ATOM      3  C3  BZF d   1      -1.483   0.007   0.219  0.00  0.00    -0.012 A 
ATOM      4  C3A BZF d   1      -0.462  -0.002  -0.784  0.00  0.00    -0.107 A 
ATOM      5  C4  BZF d   1      -0.487  -0.044  -2.149  0.00  0.00     0.055 A 
ATOM      6  C5  BZF d   1       0.684   0.034  -2.833  0.00  0.00    -0.016 A 
ATOM      7  C6  BZF d   1       1.896   0.159  -2.186  0.00  0.00     0.022 A 
ATOM      8  C7  BZF d   1       1.972   0.199  -0.834  0.00  0.00     0.029 A 
ATOM      9  C7A BZF d   1       0.793   0.087  -0.138  0.00  0.00     0.058 A 
ENDROOT
TORSDOF 0
ENDMDL
