MODEL 1
REMARK minimizedAffinity -4.39832735
REMARK minimizedRMSD -1
REMARK  0 active torsions:
REMARK  status: ('A' for Active; 'I' for Inactive)
ROOT
ATOM      1  O1  BZF d   1       0.742   0.362   1.440  0.00  0.00    -0.204 OA
ATOM      2  C2  BZF d   1      -0.562   0.131   1.834  0.00  0.00     0.174 A 
ATOM      3  C3  BZF d   1      -1.378   0.054   0.763  0.00  0.00    -0.012 A 
ATOM      4  C3A BZF d   1      -0.517   0.158  -0.375  0.00  0.00    -0.107 A 
ATOM      5  C4  BZF d   1      -0.735   0.134  -1.723  0.00  0.00     0.055 A 
ATOM      6  C5  BZF d   1       0.312   0.335  -2.565  0.00  0.00    -0.016 A 
ATOM      7  C6  BZF d   1       1.588   0.568  -2.095  0.00  0.00     0.022 A 
ATOM      8  C7  BZF d   1       1.854   0.596  -0.766  0.00  0.00     0.029 A 
ATOM      9  C7A BZF d   1       0.804   0.360   0.087  0.00  0.00     0.058 A 
ENDROOT
TORSDOF 0
ENDMDL
