MODEL 1
REMARK minimizedAffinity -4.54870605
REMARK minimizedRMSD -1
REMARK  0 active torsions:
REMARK  status: ('A' for Active; 'I' for Inactive)
ROOT
ATOM      1  O1  BZF d   1       1.448  -1.546  -2.488  0.00  0.00    -0.204 OA
ATOM      2  C2  BZF d   1       2.062  -0.491  -3.136  0.00  0.00     0.174 A 
ATOM      3  C3  BZF d   1       1.977   0.636  -2.400  0.00  0.00    -0.012 A 
ATOM      4  C3A BZF d   1       1.346   0.241  -1.178  0.00  0.00    -0.107 A 
ATOM      5  C4  BZF d   1       1.000   0.913  -0.040  0.00  0.00     0.055 A 
ATOM      6  C5  BZF d   1       0.332   0.251   0.940  0.00  0.00    -0.016 A 
ATOM      7  C6  BZF d   1      -0.011  -1.080   0.814  0.00  0.00     0.022 A 
ATOM      8  C7  BZF d   1       0.315  -1.789  -0.293  0.00  0.00     0.029 A 
ATOM      9  C7A BZF d   1       1.020  -1.132  -1.272  0.00  0.00     0.058 A 
ENDROOT
TORSDOF 0
ENDMDL
