MODEL 1
REMARK minimizedAffinity -3.29993486
REMARK minimizedRMSD -1
REMARK  0 active torsions:
REMARK  status: ('A' for Active; 'I' for Inactive)
ROOT
ATOM      1  O1  BZF d   1       1.929   1.073  -1.674  0.00  0.00    -0.204 OA
ATOM      2  C2  BZF d   1       1.511   0.427  -2.821  0.00  0.00     0.174 A 
ATOM      3  C3  BZF d   1       0.615  -0.537  -2.529  0.00  0.00    -0.012 A 
ATOM      4  C3A BZF d   1       0.395  -0.430  -1.119  0.00  0.00    -0.107 A 
ATOM      5  C4  BZF d   1      -0.402  -1.106  -0.240  0.00  0.00     0.055 A 
ATOM      6  C5  BZF d   1      -0.330  -0.804   1.083  0.00  0.00    -0.016 A 
ATOM      7  C6  BZF d   1       0.531   0.162   1.562  0.00  0.00     0.022 A 
ATOM      8  C7  BZF d   1       1.337   0.862   0.727  0.00  0.00     0.029 A 
ATOM      9  C7A BZF d   1       1.242   0.583  -0.614  0.00  0.00     0.058 A 
ENDROOT
TORSDOF 0
ENDMDL
