MODEL 1
REMARK minimizedAffinity -4.38458395
REMARK minimizedRMSD -1
REMARK  0 active torsions:
REMARK  status: ('A' for Active; 'I' for Inactive)
ROOT
ATOM      1  O1  BZF d   1       0.623  -2.364   0.378  0.00  0.00    -0.204 OA
ATOM      2  C2  BZF d   1      -0.130  -1.527   1.179  0.00  0.00     0.174 A 
ATOM      3  C3  BZF d   1       0.128  -0.234   0.897  0.00  0.00    -0.012 A 
ATOM      4  C3A BZF d   1       1.035  -0.264  -0.209  0.00  0.00    -0.107 A 
ATOM      5  C4  BZF d   1       1.644   0.707  -0.951  0.00  0.00     0.055 A 
ATOM      6  C5  BZF d   1       2.531   0.344  -1.915  0.00  0.00    -0.016 A 
ATOM      7  C6  BZF d   1       2.835  -0.979  -2.161  0.00  0.00     0.022 A 
ATOM      8  C7  BZF d   1       2.252  -1.978  -1.454  0.00  0.00     0.029 A 
ATOM      9  C7A BZF d   1       1.331  -1.616  -0.502  0.00  0.00     0.058 A 
ENDROOT
TORSDOF 0
ENDMDL
