MODEL 1
REMARK minimizedAffinity -4.57919359
REMARK minimizedRMSD -1
REMARK  0 active torsions:
REMARK  status: ('A' for Active; 'I' for Inactive)
ROOT
ATOM      1  O1  BZF d   1       0.536   1.063   0.468  0.00  0.00    -0.204 OA
ATOM      2  C2  BZF d   1      -0.437   0.264   1.036  0.00  0.00     0.174 A 
ATOM      3  C3  BZF d   1      -0.676  -0.818   0.268  0.00  0.00    -0.012 A 
ATOM      4  C3A BZF d   1       0.269  -0.735  -0.804  0.00  0.00    -0.107 A 
ATOM      5  C4  BZF d   1       0.537  -1.529  -1.882  0.00  0.00     0.055 A 
ATOM      6  C5  BZF d   1       1.474  -1.127  -2.780  0.00  0.00    -0.016 A 
ATOM      7  C6  BZF d   1       2.157   0.063  -2.635  0.00  0.00     0.022 A 
ATOM      8  C7  BZF d   1       1.928   0.881  -1.579  0.00  0.00     0.029 A 
ATOM      9  C7A BZF d   1       1.005   0.462  -0.652  0.00  0.00     0.058 A 
ENDROOT
TORSDOF 0
ENDMDL
