MODEL 1
REMARK minimizedAffinity -3.13947392
REMARK minimizedRMSD -1
REMARK  0 active torsions:
REMARK  status: ('A' for Active; 'I' for Inactive)
ROOT
ATOM      1  O1  BZF d   1      -1.659  -0.234  -0.218  0.00  0.00    -0.204 OA
ATOM      2  C2  BZF d   1      -1.382  -0.233   1.135  0.00  0.00     0.174 A 
ATOM      3  C3  BZF d   1      -0.077   0.025   1.356  0.00  0.00    -0.012 A 
ATOM      4  C3A BZF d   1       0.479   0.287   0.064  0.00  0.00    -0.107 A 
ATOM      5  C4  BZF d   1       1.730   0.620  -0.370  0.00  0.00     0.055 A 
ATOM      6  C5  BZF d   1       1.958   0.734  -1.705  0.00  0.00    -0.016 A 
ATOM      7  C6  BZF d   1       0.960   0.516  -2.633  0.00  0.00     0.022 A 
ATOM      8  C7  BZF d   1      -0.298   0.189  -2.250  0.00  0.00     0.029 A 
ATOM      9  C7A BZF d   1      -0.539   0.106  -0.901  0.00  0.00     0.058 A 
ENDROOT
TORSDOF 0
ENDMDL
