MODEL 1
REMARK minimizedAffinity -3.94045377
REMARK minimizedRMSD -1
REMARK  0 active torsions:
REMARK  status: ('A' for Active; 'I' for Inactive)
ROOT
ATOM      1  O1  BZF d   1       1.228  -1.291  -2.551  0.00  0.00    -0.204 OA
ATOM      2  C2  BZF d   1       1.550   0.026  -2.815  0.00  0.00     0.174 A 
ATOM      3  C3  BZF d   1       1.234   0.815  -1.768  0.00  0.00    -0.012 A 
ATOM      4  C3A BZF d   1       0.765  -0.077  -0.753  0.00  0.00    -0.107 A 
ATOM      5  C4  BZF d   1       0.318   0.107   0.525  0.00  0.00     0.055 A 
ATOM      6  C5  BZF d   1      -0.136  -0.965   1.226  0.00  0.00    -0.016 A 
ATOM      7  C6  BZF d   1      -0.162  -2.232   0.680  0.00  0.00     0.022 A 
ATOM      8  C7  BZF d   1       0.275  -2.464  -0.582  0.00  0.00     0.029 A 
ATOM      9  C7A BZF d   1       0.765  -1.388  -1.281  0.00  0.00     0.058 A 
ENDROOT
TORSDOF 0
ENDMDL
