MODEL 1
REMARK minimizedAffinity -3.76712012
REMARK minimizedRMSD -1
REMARK  0 active torsions:
REMARK  status: ('A' for Active; 'I' for Inactive)
ROOT
ATOM      1  O1  BZF d   1       2.616   1.042  -1.599  0.00  0.00    -0.204 OA
ATOM      2  C2  BZF d   1       1.918   1.738  -0.632  0.00  0.00     0.174 A 
ATOM      3  C3  BZF d   1       0.810   1.063  -0.262  0.00  0.00    -0.012 A 
ATOM      4  C3A BZF d   1       0.865  -0.173  -0.981  0.00  0.00    -0.107 A 
ATOM      5  C4  BZF d   1       0.054  -1.271  -1.023  0.00  0.00     0.055 A 
ATOM      6  C5  BZF d   1       0.352  -2.279  -1.884  0.00  0.00    -0.016 A 
ATOM      7  C6  BZF d   1       1.449  -2.220  -2.719  0.00  0.00     0.022 A 
ATOM      8  C7  BZF d   1       2.285  -1.154  -2.709  0.00  0.00     0.029 A 
ATOM      9  C7A BZF d   1       2.005  -0.148  -1.817  0.00  0.00     0.058 A 
ENDROOT
TORSDOF 0
ENDMDL
