MODEL 1
REMARK minimizedAffinity -3.87241411
REMARK minimizedRMSD -1
REMARK  0 active torsions:
REMARK  status: ('A' for Active; 'I' for Inactive)
ROOT
ATOM      1  O1  BZF d   1       0.237   1.088  -1.234  0.00  0.00    -0.204 OA
ATOM      2  C2  BZF d   1       0.796   0.621  -2.408  0.00  0.00     0.174 A 
ATOM      3  C3  BZF d   1       1.042  -0.702  -2.327  0.00  0.00    -0.012 A 
ATOM      4  C3A BZF d   1       0.523  -1.105  -1.056  0.00  0.00    -0.107 A 
ATOM      5  C4  BZF d   1       0.455  -2.304  -0.407  0.00  0.00     0.055 A 
ATOM      6  C5  BZF d   1      -0.046  -2.344   0.856  0.00  0.00    -0.016 A 
ATOM      7  C6  BZF d   1      -0.483  -1.206   1.500  0.00  0.00     0.022 A 
ATOM      8  C7  BZF d   1      -0.440   0.006   0.895  0.00  0.00     0.029 A 
ATOM      9  C7A BZF d   1       0.035   0.045  -0.393  0.00  0.00     0.058 A 
ENDROOT
TORSDOF 0
ENDMDL
