MODEL 1
REMARK minimizedAffinity -3.95922971
REMARK minimizedRMSD -1
REMARK  0 active torsions:
REMARK  status: ('A' for Active; 'I' for Inactive)
ROOT
ATOM      1  O1  BZF d   1      -0.346  -1.722   0.528  0.00  0.00    -0.204 OA
ATOM      2  C2  BZF d   1      -0.700  -0.394   0.673  0.00  0.00     0.174 A 
ATOM      3  C3  BZF d   1      -0.250   0.337  -0.368  0.00  0.00    -0.012 A 
ATOM      4  C3A BZF d   1       0.347  -0.608  -1.261  0.00  0.00    -0.107 A 
ATOM      5  C4  BZF d   1       0.956  -0.494  -2.478  0.00  0.00     0.055 A 
ATOM      6  C5  BZF d   1       1.498  -1.600  -3.052  0.00  0.00    -0.016 A 
ATOM      7  C6  BZF d   1       1.453  -2.833  -2.435  0.00  0.00     0.022 A 
ATOM      8  C7  BZF d   1       0.855  -2.997  -1.230  0.00  0.00     0.029 A 
ATOM      9  C7A BZF d   1       0.278  -1.887  -0.663  0.00  0.00     0.058 A 
ENDROOT
TORSDOF 0
ENDMDL
