MODEL 1
REMARK minimizedAffinity -4.57383251
REMARK minimizedRMSD -1
REMARK  0 active torsions:
REMARK  status: ('A' for Active; 'I' for Inactive)
ROOT
ATOM      1  O1  BZF d   1      -0.641  -0.971   0.606  0.00  0.00    -0.204 OA
ATOM      2  C2  BZF d   1      -0.750   0.400   0.736  0.00  0.00     0.174 A 
ATOM      3  C3  BZF d   1       0.072   1.029  -0.128  0.00  0.00    -0.012 A 
ATOM      4  C3A BZF d   1       0.668  -0.012  -0.906  0.00  0.00    -0.107 A 
ATOM      5  C4  BZF d   1       1.563  -0.019  -1.938  0.00  0.00     0.055 A 
ATOM      6  C5  BZF d   1       1.997  -1.210  -2.428  0.00  0.00    -0.016 A 
ATOM      7  C6  BZF d   1       1.563  -2.411  -1.908  0.00  0.00     0.022 A 
ATOM      8  C7  BZF d   1       0.672  -2.455  -0.887  0.00  0.00     0.029 A 
ATOM      9  C7A BZF d   1       0.206  -1.254  -0.412  0.00  0.00     0.058 A 
ENDROOT
TORSDOF 0
ENDMDL
