MODEL 1
REMARK minimizedAffinity -4.90278673
REMARK minimizedRMSD -1
REMARK  0 active torsions:
REMARK  status: ('A' for Active; 'I' for Inactive)
ROOT
ATOM      1  C4' PXY d   1      -1.501   0.367   1.416  0.00  0.00     0.077 C 
ATOM      2  C1' PXY d   1       1.417   0.184  -3.570  0.00  0.00     0.077 C 
ATOM      3  C1  PXY d   1       0.650   0.219  -2.263  0.00  0.00    -0.082 A 
ATOM      4  C2  PXY d   1       0.060   1.340  -1.880  0.00  0.00     0.003 A 
ATOM      5  C3  PXY d   1      -0.610   1.399  -0.686  0.00  0.00     0.003 A 
ATOM      6  C4  PXY d   1      -0.724   0.283   0.100  0.00  0.00    -0.082 A 
ATOM      7  C5  PXY d   1      -0.134  -0.867  -0.288  0.00  0.00     0.003 A 
ATOM      8  C6  PXY d   1       0.577  -0.894  -1.485  0.00  0.00     0.003 A 
ENDROOT
TORSDOF 0
ENDMDL
