MODEL 1
REMARK minimizedAffinity -3.45132995
REMARK minimizedRMSD -1
REMARK  0 active torsions:
REMARK  status: ('A' for Active; 'I' for Inactive)
ROOT
ATOM      1  C4' PXY d   1      -2.927   0.693   1.135  0.00  0.00     0.077 C 
ATOM      2  C1' PXY d   1       2.540  -0.718   2.379  0.00  0.00     0.077 C 
ATOM      3  C1  PXY d   1       1.102  -0.354   2.064  0.00  0.00    -0.082 A 
ATOM      4  C2  PXY d   1       0.746  -0.122   0.811  0.00  0.00     0.003 A 
ATOM      5  C3  PXY d   1      -0.543   0.240   0.512  0.00  0.00     0.003 A 
ATOM      6  C4  PXY d   1      -1.489   0.313   1.499  0.00  0.00    -0.082 A 
ATOM      7  C5  PXY d   1      -1.135   0.067   2.778  0.00  0.00     0.003 A 
ATOM      8  C6  PXY d   1       0.187  -0.258   3.066  0.00  0.00     0.003 A 
ENDROOT
TORSDOF 0
ENDMDL
