MODEL 1
REMARK minimizedAffinity -3.52081823
REMARK minimizedRMSD -1
REMARK  0 active torsions:
REMARK  status: ('A' for Active; 'I' for Inactive)
ROOT
ATOM      1  C4' PXY d   1       2.641   0.052   3.082  0.00  0.00     0.077 C 
ATOM      2  C1' PXY d   1      -2.132  -0.393  -0.148  0.00  0.00     0.077 C 
ATOM      3  C1  PXY d   1      -0.885  -0.266   0.705  0.00  0.00    -0.082 A 
ATOM      4  C2  PXY d   1       0.254  -0.786   0.279  0.00  0.00     0.003 A 
ATOM      5  C3  PXY d   1       1.384  -0.708   1.052  0.00  0.00     0.003 A 
ATOM      6  C4  PXY d   1       1.360  -0.044   2.250  0.00  0.00    -0.082 A 
ATOM      7  C5  PXY d   1       0.203   0.499   2.686  0.00  0.00     0.003 A 
ATOM      8  C6  PXY d   1      -0.942   0.373   1.905  0.00  0.00     0.003 A 
ENDROOT
TORSDOF 0
ENDMDL
