MODEL 1
REMARK minimizedAffinity -3.55996943
REMARK minimizedRMSD -1
REMARK  0 active torsions:
REMARK  status: ('A' for Active; 'I' for Inactive)
ROOT
ATOM      1  C4' PXY d   1      -1.019  -0.074   2.816  0.00  0.00     0.077 C 
ATOM      2  C1' PXY d   1       0.450  -0.461  -2.761  0.00  0.00     0.077 C 
ATOM      3  C1  PXY d   1       0.074  -0.367  -1.296  0.00  0.00    -0.082 A 
ATOM      4  C2  PXY d   1      -1.171  -0.074  -0.957  0.00  0.00     0.003 A 
ATOM      5  C3  PXY d   1      -1.520   0.046   0.364  0.00  0.00     0.003 A 
ATOM      6  C4  PXY d   1      -0.598  -0.188   1.348  0.00  0.00    -0.082 A 
ATOM      7  C5  PXY d   1       0.672  -0.498   1.011  0.00  0.00     0.003 A 
ATOM      8  C6  PXY d   1       1.016  -0.574  -0.336  0.00  0.00     0.003 A 
ENDROOT
TORSDOF 0
ENDMDL
