MODEL 1
REMARK minimizedAffinity -1.43798494
REMARK minimizedRMSD -1
REMARK  0 active torsions:
REMARK  status: ('A' for Active; 'I' for Inactive)
ROOT
ATOM      1  C4' PXY d   1      -0.647   0.277   3.024  0.00  0.00     0.077 C 
ATOM      2  C1' PXY d   1       0.381  -0.553  -2.603  0.00  0.00     0.077 C 
ATOM      3  C1  PXY d   1       0.103  -0.326  -1.130  0.00  0.00    -0.082 A 
ATOM      4  C2  PXY d   1       1.001  -0.694  -0.231  0.00  0.00     0.003 A 
ATOM      5  C3  PXY d   1       0.752  -0.525   1.107  0.00  0.00     0.003 A 
ATOM      6  C4  PXY d   1      -0.405   0.076   1.526  0.00  0.00    -0.082 A 
ATOM      7  C5  PXY d   1      -1.321   0.464   0.614  0.00  0.00     0.003 A 
ATOM      8  C6  PXY d   1      -1.067   0.246  -0.737  0.00  0.00     0.003 A 
ENDROOT
TORSDOF 0
ENDMDL
