MODEL 1
REMARK minimizedAffinity 1.02944112
REMARK minimizedRMSD -1
REMARK  0 active torsions:
REMARK  status: ('A' for Active; 'I' for Inactive)
ROOT
ATOM      1  C4' PXY d   1      -1.252   0.028   3.223  0.00  0.00     0.077 C 
ATOM      2  C1' PXY d   1       0.704  -0.175  -2.212  0.00  0.00     0.077 C 
ATOM      3  C1  PXY d   1       0.203  -0.117  -0.783  0.00  0.00    -0.082 A 
ATOM      4  C2  PXY d   1      -0.787  -0.909  -0.404  0.00  0.00     0.003 A 
ATOM      5  C3  PXY d   1      -1.274  -0.847   0.876  0.00  0.00     0.003 A 
ATOM      6  C4  PXY d   1      -0.707  -0.003   1.793  0.00  0.00    -0.082 A 
ATOM      7  C5  PXY d   1       0.310   0.801   1.417  0.00  0.00     0.003 A 
ATOM      8  C6  PXY d   1       0.763   0.752   0.102  0.00  0.00     0.003 A 
ENDROOT
TORSDOF 0
ENDMDL
