MODEL 1
REMARK minimizedAffinity -0.497992128
REMARK minimizedRMSD -1
REMARK  0 active torsions:
REMARK  status: ('A' for Active; 'I' for Inactive)
ROOT
ATOM      1  C   UNL d   1      -0.011   0.048   2.902  0.00  0.00     0.023 A 
ATOM      2  C1  UNL d   1       0.886  -0.875   3.438  0.00  0.00     0.003 A 
ATOM      3  C2  UNL d   1       2.245  -0.794   3.125  0.00  0.00     0.048 A 
ATOM      4  C3  UNL d   1       2.699   0.215   2.276  0.00  0.00     0.023 A 
ATOM      5  C4  UNL d   1       1.805   1.142   1.738  0.00  0.00     0.048 A 
ATOM      6  C5  UNL d   1       0.447   1.056   2.053  0.00  0.00     0.003 A 
ATOM      7  I   UNL d   1       4.720   0.339   1.809  0.00  0.00    -0.146 I 
ENDROOT
TORSDOF 0
ENDMDL
