MODEL 1
REMARK minimizedAffinity -0.134491265
REMARK minimizedRMSD -1
REMARK  0 active torsions:
REMARK  status: ('A' for Active; 'I' for Inactive)
ROOT
ATOM      1  C   UNL d   1       5.525  -1.238   3.939  0.00  0.00     0.023 A 
ATOM      2  C1  UNL d   1       5.856  -1.341   5.290  0.00  0.00     0.003 A 
ATOM      3  C2  UNL d   1       5.992  -2.598   5.883  0.00  0.00     0.048 A 
ATOM      4  C3  UNL d   1       5.796  -3.748   5.119  0.00  0.00     0.023 A 
ATOM      5  C4  UNL d   1       5.466  -3.649   3.767  0.00  0.00     0.048 A 
ATOM      6  C5  UNL d   1       5.330  -2.391   3.178  0.00  0.00     0.003 A 
ATOM      7  I   UNL d   1       5.998  -5.620   5.999  0.00  0.00    -0.146 I 
ENDROOT
TORSDOF 0
ENDMDL
