MODEL 1
REMARK minimizedAffinity 14.7139578
REMARK minimizedRMSD -1
REMARK  0 active torsions:
REMARK  status: ('A' for Active; 'I' for Inactive)
ROOT
ATOM      1  C   UNL d   1       4.547   4.891  -4.644  0.00  0.00     0.023 A 
ATOM      2  C1  UNL d   1       4.766   3.543  -4.358  0.00  0.00     0.003 A 
ATOM      3  C2  UNL d   1       4.151   2.954  -3.252  0.00  0.00     0.048 A 
ATOM      4  C3  UNL d   1       3.317   3.717  -2.436  0.00  0.00     0.023 A 
ATOM      5  C4  UNL d   1       3.094   5.066  -2.718  0.00  0.00     0.048 A 
ATOM      6  C5  UNL d   1       3.712   5.652  -3.825  0.00  0.00     0.003 A 
ATOM      7  I   UNL d   1       2.400   2.842  -0.789  0.00  0.00    -0.146 I 
ENDROOT
TORSDOF 0
ENDMDL
