MODEL 1
REMARK minimizedAffinity 0.209122464
REMARK minimizedRMSD -1
REMARK  0 active torsions:
REMARK  status: ('A' for Active; 'I' for Inactive)
ROOT
ATOM      1  C   UNL d   1      -1.578  -4.394  -5.998  0.00  0.00     0.023 A 
ATOM      2  C1  UNL d   1      -1.767  -3.062  -5.630  0.00  0.00     0.003 A 
ATOM      3  C2  UNL d   1      -3.036  -2.613  -5.257  0.00  0.00     0.048 A 
ATOM      4  C3  UNL d   1      -4.110  -3.502  -5.253  0.00  0.00     0.023 A 
ATOM      5  C4  UNL d   1      -3.926  -4.836  -5.620  0.00  0.00     0.048 A 
ATOM      6  C5  UNL d   1      -2.656  -5.280  -5.993  0.00  0.00     0.003 A 
ATOM      7  I   UNL d   1      -5.999  -2.836  -4.698  0.00  0.00    -0.146 I 
ENDROOT
TORSDOF 0
ENDMDL
