MODEL 1
REMARK minimizedAffinity 3.02147889
REMARK minimizedRMSD -1
REMARK  0 active torsions:
REMARK  status: ('A' for Active; 'I' for Inactive)
ROOT
ATOM      1  C   UNL d   1       1.179   4.196  -5.317  0.00  0.00     0.023 A 
ATOM      2  C1  UNL d   1       1.893   5.078  -4.506  0.00  0.00     0.003 A 
ATOM      3  C2  UNL d   1       3.276   4.944  -4.375  0.00  0.00     0.048 A 
ATOM      4  C3  UNL d   1       3.940   3.926  -5.059  0.00  0.00     0.023 A 
ATOM      5  C4  UNL d   1       3.230   3.042  -5.873  0.00  0.00     0.048 A 
ATOM      6  C5  UNL d   1       1.847   3.179  -6.000  0.00  0.00     0.003 A 
ATOM      7  I   UNL d   1       6.000   3.725  -4.866  0.00  0.00    -0.146 I 
ENDROOT
TORSDOF 0
ENDMDL
