MODEL 1
REMARK minimizedAffinity 11.4452133
REMARK minimizedRMSD -1
REMARK  0 active torsions:
REMARK  status: ('A' for Active; 'I' for Inactive)
ROOT
ATOM      1  C   UNL d   1      -3.740  -5.514   1.422  0.00  0.00     0.023 A 
ATOM      2  C1  UNL d   1      -4.104  -4.202   1.725  0.00  0.00     0.003 A 
ATOM      3  C2  UNL d   1      -4.626  -3.373   0.731  0.00  0.00     0.048 A 
ATOM      4  C3  UNL d   1      -4.782  -3.862  -0.566  0.00  0.00     0.023 A 
ATOM      5  C4  UNL d   1      -4.421  -5.174  -0.874  0.00  0.00     0.048 A 
ATOM      6  C5  UNL d   1      -3.898  -6.000   0.124  0.00  0.00     0.003 A 
ATOM      7  I   UNL d   1      -5.559  -2.630  -2.048  0.00  0.00    -0.146 I 
ENDROOT
TORSDOF 0
ENDMDL
