MODEL 1
REMARK minimizedAffinity 2.39349198
REMARK minimizedRMSD -1
REMARK  0 active torsions:
REMARK  status: ('A' for Active; 'I' for Inactive)
ROOT
ATOM      1  C   UNL d   1      -5.989  -0.992  -3.001  0.00  0.00     0.023 A 
ATOM      2  C1  UNL d   1      -5.996  -1.413  -1.671  0.00  0.00     0.003 A 
ATOM      3  C2  UNL d   1      -6.000  -2.776  -1.369  0.00  0.00     0.048 A 
ATOM      4  C3  UNL d   1      -5.995  -3.713  -2.401  0.00  0.00     0.023 A 
ATOM      5  C4  UNL d   1      -5.987  -3.296  -3.734  0.00  0.00     0.048 A 
ATOM      6  C5  UNL d   1      -5.985  -1.932  -4.031  0.00  0.00     0.003 A 
ATOM      7  I   UNL d   1      -6.000  -5.743  -1.954  0.00  0.00    -0.146 I 
ENDROOT
TORSDOF 0
ENDMDL
