MODEL 1
REMARK minimizedAffinity 13.3394947
REMARK minimizedRMSD -1
REMARK  0 active torsions:
REMARK  status: ('A' for Active; 'I' for Inactive)
ROOT
ATOM      1  C   UNL d   1       1.174  -0.277  -2.914  0.00  0.00     0.023 A 
ATOM      2  C1  UNL d   1       0.749   0.283  -4.119  0.00  0.00     0.003 A 
ATOM      3  C2  UNL d   1      -0.070  -0.450  -4.981  0.00  0.00     0.048 A 
ATOM      4  C3  UNL d   1      -0.461  -1.742  -4.631  0.00  0.00     0.023 A 
ATOM      5  C4  UNL d   1      -0.039  -2.306  -3.426  0.00  0.00     0.048 A 
ATOM      6  C5  UNL d   1       0.780  -1.569  -2.568  0.00  0.00     0.003 A 
ATOM      7  I   UNL d   1      -1.680  -2.834  -5.912  0.00  0.00    -0.146 I 
ENDROOT
TORSDOF 0
ENDMDL
