MODEL 1
REMARK minimizedAffinity 7.52746153
REMARK minimizedRMSD -1
REMARK  0 active torsions:
REMARK  status: ('A' for Active; 'I' for Inactive)
ROOT
ATOM      1  C   UNL d   1      -5.990  -1.141  -2.889  0.00  0.00     0.023 A 
ATOM      2  C1  UNL d   1      -5.988  -2.087  -3.914  0.00  0.00     0.003 A 
ATOM      3  C2  UNL d   1      -5.990  -3.450  -3.609  0.00  0.00     0.048 A 
ATOM      4  C3  UNL d   1      -5.996  -3.860  -2.276  0.00  0.00     0.023 A 
ATOM      5  C4  UNL d   1      -5.999  -2.917  -1.247  0.00  0.00     0.048 A 
ATOM      6  C5  UNL d   1      -5.996  -1.556  -1.557  0.00  0.00     0.003 A 
ATOM      7  I   UNL d   1      -6.000  -5.887  -1.819  0.00  0.00    -0.146 I 
ENDROOT
TORSDOF 0
ENDMDL
