MODEL 1
REMARK minimizedAffinity 12.4695797
REMARK minimizedRMSD -1
REMARK  0 active torsions:
REMARK  status: ('A' for Active; 'I' for Inactive)
ROOT
ATOM      1  C   UNL d   1      -5.819  -4.992  -4.538  0.00  0.00     0.023 A 
ATOM      2  C1  UNL d   1      -5.367  -3.780  -4.016  0.00  0.00     0.003 A 
ATOM      3  C2  UNL d   1      -4.143  -3.252  -4.432  0.00  0.00     0.048 A 
ATOM      4  C3  UNL d   1      -3.377  -3.941  -5.372  0.00  0.00     0.023 A 
ATOM      5  C4  UNL d   1      -3.826  -5.153  -5.898  0.00  0.00     0.048 A 
ATOM      6  C5  UNL d   1      -5.050  -5.677  -5.478  0.00  0.00     0.003 A 
ATOM      7  I   UNL d   1      -1.555  -3.157  -5.993  0.00  0.00    -0.146 I 
ENDROOT
TORSDOF 0
ENDMDL
