MODEL 1
REMARK minimizedAffinity 15.7657566
REMARK minimizedRMSD -1
REMARK  0 active torsions:
REMARK  status: ('A' for Active; 'I' for Inactive)
ROOT
ATOM      1  C   UNL d   1      -2.547  -2.007  -5.999  0.00  0.00     0.023 A 
ATOM      2  C1  UNL d   1      -2.319  -0.635  -5.892  0.00  0.00     0.003 A 
ATOM      3  C2  UNL d   1      -1.109  -0.166  -5.376  0.00  0.00     0.048 A 
ATOM      4  C3  UNL d   1      -0.132  -1.073  -4.971  0.00  0.00     0.023 A 
ATOM      5  C4  UNL d   1      -0.355  -2.447  -5.077  0.00  0.00     0.048 A 
ATOM      6  C5  UNL d   1      -1.567  -2.912  -5.592  0.00  0.00     0.003 A 
ATOM      7  I   UNL d   1       1.670  -0.377  -4.203  0.00  0.00    -0.146 I 
ENDROOT
TORSDOF 0
ENDMDL
