MODEL 1
REMARK minimizedAffinity 8.98699951
REMARK minimizedRMSD -1
REMARK  0 active torsions:
REMARK  status: ('A' for Active; 'I' for Inactive)
ROOT
ATOM      1  C   UNL d   1       1.503  -1.429  -3.431  0.00  0.00     0.023 A 
ATOM      2  C1  UNL d   1       2.409  -0.451  -3.841  0.00  0.00     0.003 A 
ATOM      3  C2  UNL d   1       2.587   0.703  -3.076  0.00  0.00     0.048 A 
ATOM      4  C3  UNL d   1       1.856   0.873  -1.901  0.00  0.00     0.023 A 
ATOM      5  C4  UNL d   1       0.949  -0.103  -1.486  0.00  0.00     0.048 A 
ATOM      6  C5  UNL d   1       0.773  -1.255  -2.254  0.00  0.00     0.003 A 
ATOM      7  I   UNL d   1       2.120   2.591  -0.761  0.00  0.00    -0.146 I 
ENDROOT
TORSDOF 0
ENDMDL
