MODEL 1
REMARK minimizedAffinity 11.551177
REMARK minimizedRMSD -1
REMARK  0 active torsions:
REMARK  status: ('A' for Active; 'I' for Inactive)
ROOT
ATOM      1  C   UNL d   1       4.557   4.591  -4.857  0.00  0.00     0.023 A 
ATOM      2  C1  UNL d   1       5.090   3.495  -4.178  0.00  0.00     0.003 A 
ATOM      3  C2  UNL d   1       4.452   2.999  -3.040  0.00  0.00     0.048 A 
ATOM      4  C3  UNL d   1       3.280   3.603  -2.586  0.00  0.00     0.023 A 
ATOM      5  C4  UNL d   1       2.742   4.700  -3.262  0.00  0.00     0.048 A 
ATOM      6  C5  UNL d   1       3.385   5.193  -4.399  0.00  0.00     0.003 A 
ATOM      7  I   UNL d   1       2.328   2.866  -0.891  0.00  0.00    -0.146 I 
ENDROOT
TORSDOF 0
ENDMDL
