MODEL 1
REMARK minimizedAffinity 9.08014202
REMARK minimizedRMSD -1
REMARK  0 active torsions:
REMARK  status: ('A' for Active; 'I' for Inactive)
ROOT
ATOM      1  C   UNL d   1       0.961   0.125   3.226  0.00  0.00     0.023 A 
ATOM      2  C1  UNL d   1      -0.201   0.894   3.161  0.00  0.00     0.003 A 
ATOM      3  C2  UNL d   1      -1.329   0.522   3.896  0.00  0.00     0.048 A 
ATOM      4  C3  UNL d   1      -1.287  -0.619   4.697  0.00  0.00     0.023 A 
ATOM      5  C4  UNL d   1      -0.126  -1.391   4.766  0.00  0.00     0.048 A 
ATOM      6  C5  UNL d   1       0.998  -1.016   4.028  0.00  0.00     0.003 A 
ATOM      7  I   UNL d   1      -2.963  -1.174   5.793  0.00  0.00    -0.146 I 
ENDROOT
TORSDOF 0
ENDMDL
