MODEL 1
REMARK minimizedAffinity 13.5011568
REMARK minimizedRMSD -1
REMARK  0 active torsions:
REMARK  status: ('A' for Active; 'I' for Inactive)
ROOT
ATOM      1  C   UNL d   1      -5.998  -3.867  -3.782  0.00  0.00     0.023 A 
ATOM      2  C1  UNL d   1      -5.669  -3.097  -2.666  0.00  0.00     0.003 A 
ATOM      3  C2  UNL d   1      -5.130  -3.706  -1.531  0.00  0.00     0.048 A 
ATOM      4  C3  UNL d   1      -4.920  -5.084  -1.519  0.00  0.00     0.023 A 
ATOM      5  C4  UNL d   1      -5.246  -5.858  -2.634  0.00  0.00     0.048 A 
ATOM      6  C5  UNL d   1      -5.786  -5.245  -3.766  0.00  0.00     0.003 A 
ATOM      7  I   UNL d   1      -4.116  -5.992   0.169  0.00  0.00    -0.146 I 
ENDROOT
TORSDOF 0
ENDMDL
