MODEL 1
REMARK minimizedAffinity 10.4979353
REMARK minimizedRMSD -1
REMARK  0 active torsions:
REMARK  status: ('A' for Active; 'I' for Inactive)
ROOT
ATOM      1  C   UNL d   1       1.979   2.143   0.295  0.00  0.00     0.023 A 
ATOM      2  C1  UNL d   1       3.024   2.310  -0.614  0.00  0.00     0.003 A 
ATOM      3  C2  UNL d   1       3.015   1.614  -1.825  0.00  0.00     0.048 A 
ATOM      4  C3  UNL d   1       1.958   0.754  -2.120  0.00  0.00     0.023 A 
ATOM      5  C4  UNL d   1       0.910   0.585  -1.214  0.00  0.00     0.048 A 
ATOM      6  C5  UNL d   1       0.924   1.282  -0.004  0.00  0.00     0.003 A 
ATOM      7  I   UNL d   1       1.942  -0.282  -3.922  0.00  0.00    -0.146 I 
ENDROOT
TORSDOF 0
ENDMDL
