MODEL 1
REMARK minimizedAffinity 12.0884933
REMARK minimizedRMSD -1
REMARK  0 active torsions:
REMARK  status: ('A' for Active; 'I' for Inactive)
ROOT
ATOM      1  C   UNL d   1      -1.440  -0.511   1.775  0.00  0.00     0.023 A 
ATOM      2  C1  UNL d   1      -1.035   0.706   1.226  0.00  0.00     0.003 A 
ATOM      3  C2  UNL d   1      -0.343   0.730   0.013  0.00  0.00     0.048 A 
ATOM      4  C3  UNL d   1      -0.061  -0.466  -0.646  0.00  0.00     0.023 A 
ATOM      5  C4  UNL d   1      -0.465  -1.686  -0.101  0.00  0.00     0.048 A 
ATOM      6  C5  UNL d   1      -1.156  -1.705   1.112  0.00  0.00     0.003 A 
ATOM      7  I   UNL d   1       0.969  -0.433  -2.451  0.00  0.00    -0.146 I 
ENDROOT
TORSDOF 0
ENDMDL
