MODEL 1
REMARK minimizedAffinity 9.39283466
REMARK minimizedRMSD -1
REMARK  0 active torsions:
REMARK  status: ('A' for Active; 'I' for Inactive)
ROOT
ATOM      1  C   UNL d   1      -2.267  -4.857  -5.964  0.00  0.00     0.023 A 
ATOM      2  C1  UNL d   1      -1.038  -4.197  -5.989  0.00  0.00     0.003 A 
ATOM      3  C2  UNL d   1      -0.994  -2.802  -6.000  0.00  0.00     0.048 A 
ATOM      4  C3  UNL d   1      -2.182  -2.072  -5.983  0.00  0.00     0.023 A 
ATOM      5  C4  UNL d   1      -3.414  -2.728  -5.957  0.00  0.00     0.048 A 
ATOM      6  C5  UNL d   1      -3.453  -4.124  -5.948  0.00  0.00     0.003 A 
ATOM      7  I   UNL d   1      -2.119   0.005  -5.999  0.00  0.00    -0.146 I 
ENDROOT
TORSDOF 0
ENDMDL
