MODEL 1
REMARK minimizedAffinity -1.7628324
REMARK minimizedRMSD -1
REMARK  1 active torsions:
REMARK  status: ('A' for Active; 'I' for Inactive)
REMARK    1  A    between atoms: C1_2  and  C2_3 
ROOT
ATOM      1  C2  UNL d   1      -0.055  -0.406  -0.031  0.00  0.00    -0.073 A 
ATOM      2  C3  UNL d   1      -0.539  -0.466   1.281  0.00  0.00    -0.002 A 
ATOM      3  C4  UNL d   1      -1.288   0.588   1.806  0.00  0.00     0.004 A 
ATOM      4  C5  UNL d   1      -1.566   1.709   1.023  0.00  0.00    -0.004 A 
ATOM      5  C6  UNL d   1      -1.102   1.782  -0.294  0.00  0.00    -0.075 A 
ATOM      6  C7  UNL d   1      -1.391   2.982  -1.148  0.00  0.00     0.076 C 
ATOM      7  C8  UNL d   1      -0.348   0.721  -0.813  0.00  0.00     0.001 A 
ENDROOT
BRANCH   1   8
ATOM      8  C1  UNL d   1       0.748  -1.545  -0.604  0.00  0.00     0.053 C 
ATOM      9  C   UNL d   1       0.025  -2.232  -1.751  0.00  0.00     0.018 C 
ENDBRANCH   1   8
TORSDOF 1
ENDMDL
