MODEL 1
REMARK minimizedAffinity -4.10352564
REMARK minimizedRMSD -1
REMARK  1 active torsions:
REMARK  status: ('A' for Active; 'I' for Inactive)
REMARK    1  A    between atoms: C1_2  and  C2_3 
ROOT
ATOM      1  C2  UNL d   1       0.028  -0.367  -0.127  0.00  0.00    -0.073 A 
ATOM      2  C3  UNL d   1       0.264  -1.032   1.082  0.00  0.00    -0.002 A 
ATOM      3  C4  UNL d   1      -0.298  -0.558   2.269  0.00  0.00     0.004 A 
ATOM      4  C5  UNL d   1      -1.105   0.579   2.258  0.00  0.00    -0.004 A 
ATOM      5  C6  UNL d   1      -1.363   1.250   1.058  0.00  0.00    -0.075 A 
ATOM      6  C7  UNL d   1      -2.228   2.476   1.029  0.00  0.00     0.076 C 
ATOM      7  C8  UNL d   1      -0.793   0.770  -0.129  0.00  0.00     0.001 A 
ENDROOT
BRANCH   1   8
ATOM      8  C1  UNL d   1       0.627  -0.879  -1.411  0.00  0.00     0.053 C 
ATOM      9  C   UNL d   1       0.138  -2.278  -1.750  0.00  0.00     0.018 C 
ENDBRANCH   1   8
TORSDOF 1
ENDMDL
