MODEL 1
REMARK minimizedAffinity -5.62832451
REMARK minimizedRMSD -1
REMARK  1 active torsions:
REMARK  status: ('A' for Active; 'I' for Inactive)
REMARK    1  A    between atoms: C1_2  and  C2_3 
ROOT
ATOM      1  C2  UNL d   1       0.258  -0.203   0.051  0.00  0.00    -0.073 A 
ATOM      2  C3  UNL d   1       0.311  -1.039   1.171  0.00  0.00    -0.002 A 
ATOM      3  C4  UNL d   1      -0.425  -0.731   2.316  0.00  0.00     0.004 A 
ATOM      4  C5  UNL d   1      -1.226   0.410   2.350  0.00  0.00    -0.004 A 
ATOM      5  C6  UNL d   1      -1.301   1.252   1.236  0.00  0.00    -0.075 A 
ATOM      6  C7  UNL d   1      -2.156   2.485   1.257  0.00  0.00     0.076 C 
ATOM      7  C8  UNL d   1      -0.557   0.937   0.091  0.00  0.00     0.001 A 
ENDROOT
BRANCH   1   8
ATOM      8  C1  UNL d   1       1.045  -0.535  -1.190  0.00  0.00     0.053 C 
ATOM      9  C   UNL d   1       0.822  -1.969  -1.641  0.00  0.00     0.018 C 
ENDBRANCH   1   8
TORSDOF 1
ENDMDL
