MODEL 1
REMARK minimizedAffinity -2.11638331
REMARK minimizedRMSD -1
REMARK  1 active torsions:
REMARK  status: ('A' for Active; 'I' for Inactive)
REMARK    1  A    between atoms: C1_2  and  C2_3 
ROOT
ATOM      1  C2  UNL d   1      -0.471   0.604   0.856  0.00  0.00    -0.073 A 
ATOM      2  C3  UNL d   1      -1.328   1.094   1.848  0.00  0.00    -0.002 A 
ATOM      3  C4  UNL d   1      -1.762   2.419   1.813  0.00  0.00     0.004 A 
ATOM      4  C5  UNL d   1      -1.351   3.266   0.784  0.00  0.00    -0.004 A 
ATOM      5  C6  UNL d   1      -0.504   2.792  -0.223  0.00  0.00    -0.075 A 
ATOM      6  C7  UNL d   1      -0.050   3.690  -1.336  0.00  0.00     0.076 C 
ATOM      7  C8  UNL d   1      -0.070   1.460  -0.179  0.00  0.00     0.001 A 
ENDROOT
BRANCH   1   8
ATOM      8  C1  UNL d   1      -0.004  -0.829   0.887  0.00  0.00     0.053 C 
ATOM      9  C   UNL d   1       1.039  -1.111  -0.183  0.00  0.00     0.018 C 
ENDBRANCH   1   8
TORSDOF 1
ENDMDL
