MODEL 1
REMARK minimizedAffinity -2.17215014
REMARK minimizedRMSD -1
REMARK  1 active torsions:
REMARK  status: ('A' for Active; 'I' for Inactive)
REMARK    1  A    between atoms: C1_2  and  C2_3 
ROOT
ATOM      1  C2  UNL d   1       0.770  -1.473  -1.311  0.00  0.00    -0.073 A 
ATOM      2  C3  UNL d   1       0.265  -1.386  -2.613  0.00  0.00    -0.002 A 
ATOM      3  C4  UNL d   1       0.162  -2.529  -3.407  0.00  0.00     0.004 A 
ATOM      4  C5  UNL d   1       0.556  -3.770  -2.906  0.00  0.00    -0.004 A 
ATOM      5  C6  UNL d   1       1.052  -3.879  -1.603  0.00  0.00    -0.075 A 
ATOM      6  C7  UNL d   1       1.482  -5.206  -1.049  0.00  0.00     0.076 C 
ATOM      7  C8  UNL d   1       1.155  -2.726  -0.813  0.00  0.00     0.001 A 
ENDROOT
BRANCH   1   8
ATOM      8  C1  UNL d   1       0.877  -0.243  -0.448  0.00  0.00     0.053 C 
ATOM      9  C   UNL d   1      -0.484   0.367  -0.153  0.00  0.00     0.018 C 
ENDBRANCH   1   8
TORSDOF 1
ENDMDL
