MODEL 1
REMARK minimizedAffinity -4.75726366
REMARK minimizedRMSD -1
REMARK  1 active torsions:
REMARK  status: ('A' for Active; 'I' for Inactive)
REMARK    1  A    between atoms: C1_2  and  C2_3 
ROOT
ATOM      1  C2  UNL d   1       0.247  -0.450  -0.149  0.00  0.00    -0.073 A 
ATOM      2  C3  UNL d   1       0.545  -1.094   1.058  0.00  0.00    -0.002 A 
ATOM      3  C4  UNL d   1      -0.059  -0.681   2.246  0.00  0.00     0.004 A 
ATOM      4  C5  UNL d   1      -0.972   0.374   2.239  0.00  0.00    -0.004 A 
ATOM      5  C6  UNL d   1      -1.292   1.022   1.042  0.00  0.00    -0.075 A 
ATOM      6  C7  UNL d   1      -2.271   2.160   1.018  0.00  0.00     0.076 C 
ATOM      7  C8  UNL d   1      -0.679   0.603  -0.147  0.00  0.00     0.001 A 
ENDROOT
BRANCH   1   8
ATOM      8  C1  UNL d   1       0.892  -0.897  -1.435  0.00  0.00     0.053 C 
ATOM      9  C   UNL d   1       1.260  -2.372  -1.406  0.00  0.00     0.018 C 
ENDBRANCH   1   8
TORSDOF 1
ENDMDL
