MODEL 1
REMARK minimizedAffinity -4.63950539
REMARK minimizedRMSD -1
REMARK  1 active torsions:
REMARK  status: ('A' for Active; 'I' for Inactive)
REMARK    1  A    between atoms: C1_2  and  C2_3 
ROOT
ATOM      1  C2  UNL d   1       0.871  -0.666  -0.671  0.00  0.00    -0.073 A 
ATOM      2  C3  UNL d   1       1.211   0.350  -1.570  0.00  0.00    -0.002 A 
ATOM      3  C4  UNL d   1       0.743   1.651  -1.374  0.00  0.00     0.004 A 
ATOM      4  C5  UNL d   1      -0.062   1.949  -0.274  0.00  0.00    -0.004 A 
ATOM      5  C6  UNL d   1      -0.402   0.949   0.642  0.00  0.00    -0.075 A 
ATOM      6  C7  UNL d   1      -1.269   1.252   1.829  0.00  0.00     0.076 C 
ATOM      7  C8  UNL d   1       0.069  -0.355   0.437  0.00  0.00     0.001 A 
ENDROOT
BRANCH   1   8
ATOM      8  C1  UNL d   1       1.379  -2.070  -0.875  0.00  0.00     0.053 C 
ATOM      9  C   UNL d   1       0.424  -2.905  -1.715  0.00  0.00     0.018 C 
ENDBRANCH   1   8
TORSDOF 1
ENDMDL
