MODEL 1
REMARK minimizedAffinity -3.72953081
REMARK minimizedRMSD -1
REMARK  1 active torsions:
REMARK  status: ('A' for Active; 'I' for Inactive)
REMARK    1  A    between atoms: C1_2  and  C2_3 
ROOT
ATOM      1  C2  UNL d   1      -0.077  -0.139   0.316  0.00  0.00    -0.073 A 
ATOM      2  C3  UNL d   1      -0.997  -1.042   0.862  0.00  0.00    -0.002 A 
ATOM      3  C4  UNL d   1      -1.789  -0.670   1.949  0.00  0.00     0.004 A 
ATOM      4  C5  UNL d   1      -1.675   0.608   2.496  0.00  0.00    -0.004 A 
ATOM      5  C6  UNL d   1      -0.770   1.528   1.957  0.00  0.00    -0.075 A 
ATOM      6  C7  UNL d   1      -0.634   2.906   2.535  0.00  0.00     0.076 C 
ATOM      7  C8  UNL d   1       0.024   1.147   0.867  0.00  0.00     0.001 A 
ENDROOT
BRANCH   1   8
ATOM      8  C1  UNL d   1       0.776  -0.534  -0.862  0.00  0.00     0.053 C 
ATOM      9  C   UNL d   1       0.528  -1.971  -1.289  0.00  0.00     0.018 C 
ENDBRANCH   1   8
TORSDOF 1
ENDMDL
