MODEL 1
REMARK minimizedAffinity -3.77843523
REMARK minimizedRMSD -1
REMARK  1 active torsions:
REMARK  status: ('A' for Active; 'I' for Inactive)
REMARK    1  A    between atoms: C1_2  and  C2_3 
ROOT
ATOM      1  C2  UNL d   1      -3.986  -4.294  -4.986  0.00  0.00    -0.077 A 
ATOM      2  C3  UNL d   1      -5.031  -4.262  -4.052  0.00  0.00     0.002 A 
ATOM      3  C4  UNL d   1      -5.983  -3.242  -4.091  0.00  0.00     0.002 A 
ATOM      4  C5  UNL d   1      -5.902  -2.248  -5.064  0.00  0.00    -0.004 A 
ATOM      5  C6  UNL d   1      -4.866  -2.269  -5.996  0.00  0.00     0.002 A 
ATOM      6  C7  UNL d   1      -3.913  -3.288  -5.958  0.00  0.00     0.002 A 
ENDROOT
BRANCH   1   7
ATOM      7  C1  UNL d   1      -2.987  -5.421  -4.976  0.00  0.00     0.055 C 
ATOM      8  C   UNL d   1      -1.885  -5.192  -6.000  0.00  0.00     0.019 C 
ENDBRANCH   1   7
TORSDOF 1
ENDMDL
