MODEL 1
REMARK minimizedAffinity -3.19029737
REMARK minimizedRMSD -1
REMARK  1 active torsions:
REMARK  status: ('A' for Active; 'I' for Inactive)
REMARK    1  A    between atoms: C1_2  and  C2_3 
ROOT
ATOM      1  C2  UNL d   1      -5.580  -2.718  -4.418  0.00  0.00    -0.077 A 
ATOM      2  C3  UNL d   1      -5.992  -3.318  -5.616  0.00  0.00     0.002 A 
ATOM      3  C4  UNL d   1      -5.643  -4.640  -5.900  0.00  0.00     0.002 A 
ATOM      4  C5  UNL d   1      -4.885  -5.373  -4.990  0.00  0.00    -0.004 A 
ATOM      5  C6  UNL d   1      -4.469  -4.784  -3.797  0.00  0.00     0.002 A 
ATOM      6  C7  UNL d   1      -4.815  -3.463  -3.511  0.00  0.00     0.002 A 
ENDROOT
BRANCH   1   7
ATOM      7  C1  UNL d   1      -5.997  -1.308  -4.088  0.00  0.00     0.055 C 
ATOM      8  C   UNL d   1      -5.998  -1.069  -2.585  0.00  0.00     0.019 C 
ENDBRANCH   1   7
TORSDOF 1
ENDMDL
