MODEL 1
REMARK minimizedAffinity -4.14479017
REMARK minimizedRMSD -1
REMARK  1 active torsions:
REMARK  status: ('A' for Active; 'I' for Inactive)
REMARK    1  A    between atoms: C1_2  and  C2_3 
ROOT
ATOM      1  C2  UNL d   1      -3.478  -3.974  -4.870  0.00  0.00    -0.077 A 
ATOM      2  C3  UNL d   1      -3.767  -2.727  -5.444  0.00  0.00     0.002 A 
ATOM      3  C4  UNL d   1      -4.972  -2.082  -5.161  0.00  0.00     0.002 A 
ATOM      4  C5  UNL d   1      -5.895  -2.672  -4.300  0.00  0.00    -0.004 A 
ATOM      5  C6  UNL d   1      -5.618  -3.912  -3.726  0.00  0.00     0.002 A 
ATOM      6  C7  UNL d   1      -4.414  -4.559  -4.009  0.00  0.00     0.002 A 
ENDROOT
BRANCH   1   7
ATOM      7  C1  UNL d   1      -2.158  -4.649  -5.136  0.00  0.00     0.055 C 
ATOM      8  C   UNL d   1      -2.343  -5.931  -5.934  0.00  0.00     0.019 C 
ENDBRANCH   1   7
TORSDOF 1
ENDMDL
