MODEL 1
REMARK minimizedAffinity -3.6422317
REMARK minimizedRMSD -1
REMARK  1 active torsions:
REMARK  status: ('A' for Active; 'I' for Inactive)
REMARK    1  A    between atoms: C1_2  and  C2_3 
ROOT
ATOM      1  C2  UNL d   1      -4.118  -4.121  -4.559  0.00  0.00    -0.077 A 
ATOM      2  C3  UNL d   1      -2.766  -3.751  -4.546  0.00  0.00     0.002 A 
ATOM      3  C4  UNL d   1      -1.821  -4.500  -5.250  0.00  0.00     0.002 A 
ATOM      4  C5  UNL d   1      -2.219  -5.622  -5.975  0.00  0.00    -0.004 A 
ATOM      5  C6  UNL d   1      -3.561  -5.999  -5.993  0.00  0.00     0.002 A 
ATOM      6  C7  UNL d   1      -4.506  -5.252  -5.289  0.00  0.00     0.002 A 
ENDROOT
BRANCH   1   7
ATOM      7  C1  UNL d   1      -5.145  -3.286  -3.841  0.00  0.00     0.055 C 
ATOM      8  C   UNL d   1      -6.000  -2.496  -4.821  0.00  0.00     0.019 C 
ENDBRANCH   1   7
TORSDOF 1
ENDMDL
