MODEL 1
REMARK minimizedAffinity 1.65201187
REMARK minimizedRMSD -1
REMARK  1 active torsions:
REMARK  status: ('A' for Active; 'I' for Inactive)
REMARK    1  A    between atoms: C1_2  and  C2_3 
ROOT
ATOM      1  C2  UNL d   1      -0.729  -1.451   2.388  0.00  0.00    -0.077 A 
ATOM      2  C3  UNL d   1       0.313  -2.351   2.127  0.00  0.00     0.002 A 
ATOM      3  C4  UNL d   1       1.100  -2.207   0.983  0.00  0.00     0.002 A 
ATOM      4  C5  UNL d   1       0.857  -1.162   0.094  0.00  0.00    -0.004 A 
ATOM      5  C6  UNL d   1      -0.178  -0.263   0.344  0.00  0.00     0.002 A 
ATOM      6  C7  UNL d   1      -0.967  -0.406   1.487  0.00  0.00     0.002 A 
ENDROOT
BRANCH   1   7
ATOM      7  C1  UNL d   1      -1.548  -1.575   3.646  0.00  0.00     0.055 C 
ATOM      8  C   UNL d   1      -2.919  -0.936   3.480  0.00  0.00     0.019 C 
ENDBRANCH   1   7
TORSDOF 1
ENDMDL
