MODEL 1
REMARK minimizedAffinity -3.66617846
REMARK minimizedRMSD -1
REMARK  1 active torsions:
REMARK  status: ('A' for Active; 'I' for Inactive)
REMARK    1  A    between atoms: C1_2  and  C2_3 
ROOT
ATOM      1  C2  UNL d   1      -3.506  -4.875  -5.267  0.00  0.00    -0.077 A 
ATOM      2  C3  UNL d   1      -3.792  -5.922  -4.380  0.00  0.00     0.002 A 
ATOM      3  C4  UNL d   1      -5.033  -5.991  -3.744  0.00  0.00     0.002 A 
ATOM      4  C5  UNL d   1      -5.999  -5.017  -3.991  0.00  0.00    -0.004 A 
ATOM      5  C6  UNL d   1      -5.723  -3.970  -4.869  0.00  0.00     0.002 A 
ATOM      6  C7  UNL d   1      -4.483  -3.899  -5.505  0.00  0.00     0.002 A 
ENDROOT
BRANCH   1   7
ATOM      7  C1  UNL d   1      -2.187  -4.826  -5.992  0.00  0.00     0.055 C 
ATOM      8  C   UNL d   1      -1.119  -5.618  -5.251  0.00  0.00     0.019 C 
ENDBRANCH   1   7
TORSDOF 1
ENDMDL
