MODEL 1
REMARK minimizedAffinity -4.34152079
REMARK minimizedRMSD -1
REMARK  1 active torsions:
REMARK  status: ('A' for Active; 'I' for Inactive)
REMARK    1  A    between atoms: C1_2  and  C2_3 
ROOT
ATOM      1  C2  UNL d   1      -3.880  -4.663  -5.245  0.00  0.00    -0.077 A 
ATOM      2  C3  UNL d   1      -3.538  -3.347  -4.904  0.00  0.00     0.002 A 
ATOM      3  C4  UNL d   1      -4.421  -2.556  -4.165  0.00  0.00     0.002 A 
ATOM      4  C5  UNL d   1      -5.649  -3.074  -3.758  0.00  0.00    -0.004 A 
ATOM      5  C6  UNL d   1      -5.999  -4.381  -4.094  0.00  0.00     0.002 A 
ATOM      6  C7  UNL d   1      -5.118  -5.172  -4.833  0.00  0.00     0.002 A 
ENDROOT
BRANCH   1   7
ATOM      7  C1  UNL d   1      -2.909  -5.533  -5.999  0.00  0.00     0.055 C 
ATOM      8  C   UNL d   1      -1.561  -5.595  -5.297  0.00  0.00     0.019 C 
ENDBRANCH   1   7
TORSDOF 1
ENDMDL
