MODEL 1
REMARK minimizedAffinity -4.19679737
REMARK minimizedRMSD -1
REMARK  1 active torsions:
REMARK  status: ('A' for Active; 'I' for Inactive)
REMARK    1  A    between atoms: C1_2  and  C2_3 
ROOT
ATOM      1  C2  UNL d   1      -3.757  -3.291  -4.469  0.00  0.00    -0.077 A 
ATOM      2  C3  UNL d   1      -3.445  -4.269  -3.513  0.00  0.00     0.002 A 
ATOM      3  C4  UNL d   1      -2.509  -5.264  -3.800  0.00  0.00     0.002 A 
ATOM      4  C5  UNL d   1      -1.874  -5.288  -5.040  0.00  0.00    -0.004 A 
ATOM      5  C6  UNL d   1      -2.178  -4.322  -5.998  0.00  0.00     0.002 A 
ATOM      6  C7  UNL d   1      -3.115  -3.327  -5.713  0.00  0.00     0.002 A 
ENDROOT
BRANCH   1   7
ATOM      7  C1  UNL d   1      -4.730  -2.188  -4.143  0.00  0.00     0.055 C 
ATOM      8  C   UNL d   1      -5.999  -2.307  -4.975  0.00  0.00     0.019 C 
ENDBRANCH   1   7
TORSDOF 1
ENDMDL
