MODEL 1
REMARK minimizedAffinity -3.53293943
REMARK minimizedRMSD -1
REMARK  1 active torsions:
REMARK  status: ('A' for Active; 'I' for Inactive)
REMARK    1  A    between atoms: C1_2  and  C2_3 
ROOT
ATOM      1  C2  UNL d   1      -3.900  -5.026  -5.060  0.00  0.00    -0.077 A 
ATOM      2  C3  UNL d   1      -4.954  -5.062  -5.984  0.00  0.00     0.002 A 
ATOM      3  C4  UNL d   1      -6.000  -4.141  -5.897  0.00  0.00     0.002 A 
ATOM      4  C5  UNL d   1      -6.000  -3.176  -4.892  0.00  0.00    -0.004 A 
ATOM      5  C6  UNL d   1      -4.957  -3.134  -3.967  0.00  0.00     0.002 A 
ATOM      6  C7  UNL d   1      -3.911  -4.054  -4.052  0.00  0.00     0.002 A 
ENDROOT
BRANCH   1   7
ATOM      7  C1  UNL d   1      -2.746  -5.987  -5.182  0.00  0.00     0.055 C 
ATOM      8  C   UNL d   1      -1.502  -5.293  -5.717  0.00  0.00     0.019 C 
ENDBRANCH   1   7
TORSDOF 1
ENDMDL
