MODEL 1
REMARK minimizedAffinity -4.23322916
REMARK minimizedRMSD -1
REMARK  1 active torsions:
REMARK  status: ('A' for Active; 'I' for Inactive)
REMARK    1  A    between atoms: C1_2  and  C2_3 
ROOT
ATOM      1  C2  UNL d   1      -4.243  -4.501  -4.413  0.00  0.00    -0.077 A 
ATOM      2  C3  UNL d   1      -3.759  -4.498  -5.729  0.00  0.00     0.002 A 
ATOM      3  C4  UNL d   1      -2.446  -4.885  -6.000  0.00  0.00     0.002 A 
ATOM      4  C5  UNL d   1      -1.606  -5.282  -4.961  0.00  0.00    -0.004 A 
ATOM      5  C6  UNL d   1      -2.077  -5.286  -3.649  0.00  0.00     0.002 A 
ATOM      6  C7  UNL d   1      -3.389  -4.899  -3.376  0.00  0.00     0.002 A 
ENDROOT
BRANCH   1   7
ATOM      7  C1  UNL d   1      -5.674  -4.131  -4.125  0.00  0.00     0.055 C 
ATOM      8  C   UNL d   1      -5.952  -2.677  -4.480  0.00  0.00     0.019 C 
ENDBRANCH   1   7
TORSDOF 1
ENDMDL
