MODEL 1
REMARK minimizedAffinity -2.94398737
REMARK minimizedRMSD -1
REMARK  1 active torsions:
REMARK  status: ('A' for Active; 'I' for Inactive)
REMARK    1  A    between atoms: C1_2  and  C2_3 
ROOT
ATOM      1  C2  UNL d   1      -3.862  -5.019  -5.100  0.00  0.00    -0.077 A 
ATOM      2  C3  UNL d   1      -3.872  -4.186  -3.972  0.00  0.00     0.002 A 
ATOM      3  C4  UNL d   1      -4.936  -3.310  -3.750  0.00  0.00     0.002 A 
ATOM      4  C5  UNL d   1      -6.000  -3.261  -4.649  0.00  0.00    -0.004 A 
ATOM      5  C6  UNL d   1      -5.998  -4.084  -5.775  0.00  0.00     0.002 A 
ATOM      6  C7  UNL d   1      -4.935  -4.959  -5.999  0.00  0.00     0.002 A 
ENDROOT
BRANCH   1   7
ATOM      7  C1  UNL d   1      -2.739  -5.999  -5.315  0.00  0.00     0.055 C 
ATOM      8  C   UNL d   1      -1.478  -5.299  -5.800  0.00  0.00     0.019 C 
ENDBRANCH   1   7
TORSDOF 1
ENDMDL
