MODEL 1
REMARK minimizedAffinity 3.07684731
REMARK minimizedRMSD -1
REMARK  1 active torsions:
REMARK  status: ('A' for Active; 'I' for Inactive)
REMARK    1  A    between atoms: C1_2  and  C2_3 
ROOT
ATOM      1  C2  UNL d   1      -1.087  -0.614   3.479  0.00  0.00    -0.077 A 
ATOM      2  C3  UNL d   1      -2.167  -1.499   3.606  0.00  0.00     0.002 A 
ATOM      3  C4  UNL d   1      -3.361  -1.259   2.922  0.00  0.00     0.002 A 
ATOM      4  C5  UNL d   1      -3.483  -0.138   2.104  0.00  0.00    -0.004 A 
ATOM      5  C6  UNL d   1      -2.415   0.748   1.972  0.00  0.00     0.002 A 
ATOM      6  C7  UNL d   1      -1.222   0.511   2.655  0.00  0.00     0.002 A 
ENDROOT
BRANCH   1   7
ATOM      7  C1  UNL d   1       0.218  -0.897   4.177  0.00  0.00     0.055 C 
ATOM      8  C   UNL d   1       1.401  -0.692   3.242  0.00  0.00     0.019 C 
ENDBRANCH   1   7
TORSDOF 1
ENDMDL
