MODEL 1
REMARK minimizedAffinity 5.73626184
REMARK minimizedRMSD -1
REMARK  1 active torsions:
REMARK  status: ('A' for Active; 'I' for Inactive)
REMARK    1  A    between atoms: C1_2  and  C2_3 
ROOT
ATOM      1  C2  UNL d   1      -1.879   0.367   2.022  0.00  0.00    -0.077 A 
ATOM      2  C3  UNL d   1      -3.197   0.339   1.546  0.00  0.00     0.002 A 
ATOM      3  C4  UNL d   1      -3.452   0.363   0.173  0.00  0.00     0.002 A 
ATOM      4  C5  UNL d   1      -2.395   0.412  -0.733  0.00  0.00    -0.004 A 
ATOM      5  C6  UNL d   1      -1.081   0.442  -0.269  0.00  0.00     0.002 A 
ATOM      6  C7  UNL d   1      -0.824   0.419   1.103  0.00  0.00     0.002 A 
ENDROOT
BRANCH   1   7
ATOM      7  C1  UNL d   1      -1.599   0.291   3.501  0.00  0.00     0.055 C 
ATOM      8  C   UNL d   1      -0.970  -1.043   3.877  0.00  0.00     0.019 C 
ENDBRANCH   1   7
TORSDOF 1
ENDMDL
