MODEL 1
REMARK minimizedAffinity 10.3600883
REMARK minimizedRMSD -1
REMARK  1 active torsions:
REMARK  status: ('A' for Active; 'I' for Inactive)
REMARK    1  A    between atoms: C1_2  and  C2_3 
ROOT
ATOM      1  C2  UNL d   1      -2.375   0.173   2.314  0.00  0.00    -0.077 A 
ATOM      2  C3  UNL d   1      -1.099  -0.077   2.838  0.00  0.00     0.002 A 
ATOM      3  C4  UNL d   1      -0.927  -1.007   3.866  0.00  0.00     0.002 A 
ATOM      4  C5  UNL d   1      -2.026  -1.695   4.375  0.00  0.00    -0.004 A 
ATOM      5  C6  UNL d   1      -3.299  -1.452   3.862  0.00  0.00     0.002 A 
ATOM      6  C7  UNL d   1      -3.473  -0.522   2.835  0.00  0.00     0.002 A 
ENDROOT
BRANCH   1   7
ATOM      7  C1  UNL d   1      -2.555   1.139   1.172  0.00  0.00     0.055 C 
ATOM      8  C   UNL d   1      -2.582   0.414  -0.166  0.00  0.00     0.019 C 
ENDBRANCH   1   7
TORSDOF 1
ENDMDL
