MODEL 1
REMARK minimizedAffinity 4.45097446
REMARK minimizedRMSD -1
REMARK  1 active torsions:
REMARK  status: ('A' for Active; 'I' for Inactive)
REMARK    1  A    between atoms: C1_2  and  C2_3 
ROOT
ATOM      1  C2  UNL d   1      -0.054  -1.806  -1.505  0.00  0.00    -0.077 A 
ATOM      2  C3  UNL d   1       1.113  -1.551  -0.771  0.00  0.00     0.002 A 
ATOM      3  C4  UNL d   1       1.103  -0.620   0.269  0.00  0.00     0.002 A 
ATOM      4  C5  UNL d   1      -0.071   0.059   0.588  0.00  0.00    -0.004 A 
ATOM      5  C6  UNL d   1      -1.236  -0.186  -0.138  0.00  0.00     0.002 A 
ATOM      6  C7  UNL d   1      -1.228  -1.115  -1.179  0.00  0.00     0.002 A 
ENDROOT
BRANCH   1   7
ATOM      7  C1  UNL d   1      -0.058  -2.845  -2.596  0.00  0.00     0.055 C 
ATOM      8  C   UNL d   1      -0.385  -2.228  -3.948  0.00  0.00     0.019 C 
ENDBRANCH   1   7
TORSDOF 1
ENDMDL
