MODEL 1
REMARK minimizedAffinity 2.55362654
REMARK minimizedRMSD -1
REMARK  1 active torsions:
REMARK  status: ('A' for Active; 'I' for Inactive)
REMARK    1  A    between atoms: C1_2  and  C2_3 
ROOT
ATOM      1  C2  UNL d   1      -2.360  -0.349   1.339  0.00  0.00    -0.077 A 
ATOM      2  C3  UNL d   1      -3.026  -0.707   0.158  0.00  0.00     0.002 A 
ATOM      3  C4  UNL d   1      -2.343  -0.724  -1.060  0.00  0.00     0.002 A 
ATOM      4  C5  UNL d   1      -0.992  -0.388  -1.108  0.00  0.00    -0.004 A 
ATOM      5  C6  UNL d   1      -0.322  -0.028   0.061  0.00  0.00     0.002 A 
ATOM      6  C7  UNL d   1      -1.003  -0.009   1.279  0.00  0.00     0.002 A 
ENDROOT
BRANCH   1   7
ATOM      7  C1  UNL d   1      -3.082  -0.377   2.661  0.00  0.00     0.055 C 
ATOM      8  C   UNL d   1      -3.517  -1.790   3.024  0.00  0.00     0.019 C 
ENDBRANCH   1   7
TORSDOF 1
ENDMDL
