MODEL 1
REMARK minimizedAffinity 3.64724135
REMARK minimizedRMSD -1
REMARK  1 active torsions:
REMARK  status: ('A' for Active; 'I' for Inactive)
REMARK    1  A    between atoms: C1_2  and  C2_3 
ROOT
ATOM      1  C2  UNL d   1      -0.822   0.081   2.047  0.00  0.00    -0.077 A 
ATOM      2  C3  UNL d   1      -0.694  -0.627   3.251  0.00  0.00     0.002 A 
ATOM      3  C4  UNL d   1       0.564  -1.029   3.704  0.00  0.00     0.002 A 
ATOM      4  C5  UNL d   1       1.703  -0.724   2.962  0.00  0.00    -0.004 A 
ATOM      5  C6  UNL d   1       1.587  -0.022   1.763  0.00  0.00     0.002 A 
ATOM      6  C7  UNL d   1       0.330   0.380   1.308  0.00  0.00     0.002 A 
ENDROOT
BRANCH   1   7
ATOM      7  C1  UNL d   1      -2.172   0.559   1.582  0.00  0.00     0.055 C 
ATOM      8  C   UNL d   1      -2.341   0.366   0.082  0.00  0.00     0.019 C 
ENDBRANCH   1   7
TORSDOF 1
ENDMDL
