MODEL 1
REMARK minimizedAffinity -3.36209989
REMARK minimizedRMSD -1
REMARK  0 active torsions:
REMARK  status: ('A' for Active; 'I' for Inactive)
ROOT
ATOM      1  C   UNL d   1      -0.216  -0.175  -0.001  0.00  0.00     0.172 C 
ATOM      2  N   UNL d   1      -0.315  -0.107   1.438  0.00  0.00    -0.070 N 
ATOM      3  C1  UNL d   1       0.405   0.728   2.249  0.00  0.00    -0.004 A 
ATOM      4  C2  UNL d   1       0.020   0.489   3.551  0.00  0.00    -0.047 A 
ATOM      5  C3  UNL d   1      -0.966  -0.526   3.520  0.00  0.00    -0.047 A 
ATOM      6  C4  UNL d   1      -1.154  -0.876   2.200  0.00  0.00    -0.004 A 
ENDROOT
TORSDOF 0
ENDMDL
