MODEL 1
REMARK minimizedAffinity -0.243982688
REMARK minimizedRMSD -1
REMARK  0 active torsions:
REMARK  status: ('A' for Active; 'I' for Inactive)
ROOT
ATOM      1  C   UNL d   1      -0.444   0.882   3.034  0.00  0.00     0.172 C 
ATOM      2  N   UNL d   1      -0.712  -0.131   2.041  0.00  0.00    -0.070 N 
ATOM      3  C1  UNL d   1      -1.238  -1.371   2.288  0.00  0.00    -0.004 A 
ATOM      4  C2  UNL d   1      -1.339  -2.034   1.084  0.00  0.00    -0.047 A 
ATOM      5  C3  UNL d   1      -0.856  -1.162   0.079  0.00  0.00    -0.047 A 
ATOM      6  C4  UNL d   1      -0.475   0.009   0.699  0.00  0.00    -0.004 A 
ENDROOT
TORSDOF 0
ENDMDL
