MODEL 1
REMARK minimizedAffinity -3.40094519
REMARK minimizedRMSD -1
REMARK  0 active torsions:
REMARK  status: ('A' for Active; 'I' for Inactive)
ROOT
ATOM      1  C   UNL d   1       0.094  -0.016  -1.331  0.00  0.00     0.172 C 
ATOM      2  N   UNL d   1      -0.109  -0.185   0.088  0.00  0.00    -0.070 N 
ATOM      3  C1  UNL d   1      -1.290  -0.531   0.690  0.00  0.00    -0.004 A 
ATOM      4  C2  UNL d   1      -1.070  -0.590   2.049  0.00  0.00    -0.047 A 
ATOM      5  C3  UNL d   1       0.290  -0.268   2.272  0.00  0.00    -0.047 A 
ATOM      6  C4  UNL d   1       0.861  -0.022   1.041  0.00  0.00    -0.004 A 
ENDROOT
TORSDOF 0
ENDMDL
