MODEL 1
REMARK minimizedAffinity -3.31755662
REMARK minimizedRMSD -1
REMARK  0 active torsions:
REMARK  status: ('A' for Active; 'I' for Inactive)
ROOT
ATOM      1  C   UNL d   1      -1.448   0.959  -0.476  0.00  0.00     0.172 C 
ATOM      2  N   UNL d   1      -1.167   0.855   0.937  0.00  0.00    -0.070 N 
ATOM      3  C1  UNL d   1       0.068   0.656   1.492  0.00  0.00    -0.004 A 
ATOM      4  C2  UNL d   1      -0.086   0.617   2.861  0.00  0.00    -0.047 A 
ATOM      5  C3  UNL d   1      -1.462   0.797   3.138  0.00  0.00    -0.047 A 
ATOM      6  C4  UNL d   1      -2.108   0.942   1.928  0.00  0.00    -0.004 A 
ENDROOT
TORSDOF 0
ENDMDL
