MODEL 1
REMARK minimizedAffinity -0.232123479
REMARK minimizedRMSD -1
REMARK  0 active torsions:
REMARK  status: ('A' for Active; 'I' for Inactive)
ROOT
ATOM      1  C   UNL d   1       0.697  -5.999   2.352  0.00  0.00     0.172 C 
ATOM      2  N   UNL d   1       1.976  -5.404   2.660  0.00  0.00    -0.070 N 
ATOM      3  C1  UNL d   1       2.985  -6.000   3.369  0.00  0.00    -0.004 A 
ATOM      4  C2  UNL d   1       4.033  -5.108   3.444  0.00  0.00    -0.047 A 
ATOM      5  C3  UNL d   1       3.641  -3.935   2.756  0.00  0.00    -0.047 A 
ATOM      6  C4  UNL d   1       2.364  -4.145   2.281  0.00  0.00    -0.004 A 
ENDROOT
TORSDOF 0
ENDMDL
