MODEL 1
REMARK minimizedAffinity -2.4935956
REMARK minimizedRMSD -1
REMARK  0 active torsions:
REMARK  status: ('A' for Active; 'I' for Inactive)
ROOT
ATOM      1  C   UNL d   1       0.288   0.054  -2.090  0.00  0.00     0.172 C 
ATOM      2  N   UNL d   1      -0.368  -0.150  -0.820  0.00  0.00    -0.070 N 
ATOM      3  C1  UNL d   1      -1.698   0.057  -0.566  0.00  0.00    -0.004 A 
ATOM      4  C2  UNL d   1      -1.928  -0.250   0.757  0.00  0.00    -0.047 A 
ATOM      5  C3  UNL d   1      -0.694  -0.655   1.319  0.00  0.00    -0.047 A 
ATOM      6  C4  UNL d   1       0.255  -0.583   0.321  0.00  0.00    -0.004 A 
ENDROOT
TORSDOF 0
ENDMDL
