MODEL 1
REMARK minimizedAffinity -4.01177359
REMARK minimizedRMSD -1
REMARK  0 active torsions:
REMARK  status: ('A' for Active; 'I' for Inactive)
ROOT
ATOM      1  C   UNL d   1      -0.196   0.420  -0.787  0.00  0.00     0.172 C 
ATOM      2  N   UNL d   1      -0.164   0.110   0.623  0.00  0.00    -0.070 N 
ATOM      3  C1  UNL d   1       0.789   0.531   1.512  0.00  0.00    -0.004 A 
ATOM      4  C2  UNL d   1       0.463   0.024   2.751  0.00  0.00    -0.047 A 
ATOM      5  C3  UNL d   1      -0.726  -0.728   2.602  0.00  0.00    -0.047 A 
ATOM      6  C4  UNL d   1      -1.092  -0.659   1.274  0.00  0.00    -0.004 A 
ENDROOT
TORSDOF 0
ENDMDL
