MODEL 1
REMARK minimizedAffinity -3.85693336
REMARK minimizedRMSD -1
REMARK  0 active torsions:
REMARK  status: ('A' for Active; 'I' for Inactive)
ROOT
ATOM      1  C   UNL d   1       0.293   0.057  -0.752  0.00  0.00     0.172 C 
ATOM      2  N   UNL d   1       0.217  -0.174   0.672  0.00  0.00    -0.070 N 
ATOM      3  C1  UNL d   1      -0.899  -0.575   1.357  0.00  0.00    -0.004 A 
ATOM      4  C2  UNL d   1      -0.561  -0.681   2.689  0.00  0.00    -0.047 A 
ATOM      5  C3  UNL d   1       0.804  -0.330   2.809  0.00  0.00    -0.047 A 
ATOM      6  C4  UNL d   1       1.261  -0.021   1.545  0.00  0.00    -0.004 A 
ENDROOT
TORSDOF 0
ENDMDL
