MODEL 1
REMARK minimizedAffinity -3.82982302
REMARK minimizedRMSD -1
REMARK  0 active torsions:
REMARK  status: ('A' for Active; 'I' for Inactive)
ROOT
ATOM      1  C   UNL d   1       0.067   0.461  -0.775  0.00  0.00     0.172 C 
ATOM      2  N   UNL d   1      -0.031   0.106   0.622  0.00  0.00    -0.070 N 
ATOM      3  C1  UNL d   1      -1.179  -0.259   1.274  0.00  0.00    -0.004 A 
ATOM      4  C2  UNL d   1      -0.854  -0.518   2.587  0.00  0.00    -0.047 A 
ATOM      5  C3  UNL d   1       0.537  -0.302   2.730  0.00  0.00    -0.047 A 
ATOM      6  C4  UNL d   1       1.022   0.084   1.498  0.00  0.00    -0.004 A 
ENDROOT
TORSDOF 0
ENDMDL
