MODEL 1
REMARK minimizedAffinity -3.08829427
REMARK minimizedRMSD -1
REMARK  0 active torsions:
REMARK  status: ('A' for Active; 'I' for Inactive)
ROOT
ATOM      1  C   UNL d   1       0.212  -1.515  -3.018  0.00  0.00     0.172 C 
ATOM      2  N   UNL d   1       0.165  -0.917  -1.704  0.00  0.00    -0.070 N 
ATOM      3  C1  UNL d   1       0.273   0.421  -1.431  0.00  0.00    -0.004 A 
ATOM      4  C2  UNL d   1       0.179   0.582  -0.066  0.00  0.00    -0.047 A 
ATOM      5  C3  UNL d   1       0.011  -0.703   0.502  0.00  0.00    -0.047 A 
ATOM      6  C4  UNL d   1       0.006  -1.613  -0.535  0.00  0.00    -0.004 A 
ENDROOT
TORSDOF 0
ENDMDL
