MODEL 1
REMARK minimizedAffinity -0.980365515
REMARK minimizedRMSD -1
REMARK  0 active torsions:
REMARK  status: ('A' for Active; 'I' for Inactive)
ROOT
ATOM      1  C   UNL d   1       0.701  -0.398  -2.701  0.00  0.00     0.172 C 
ATOM      2  N   UNL d   1      -0.002   0.031  -1.515  0.00  0.00    -0.070 N 
ATOM      3  C1  UNL d   1      -1.051   0.911  -1.483  0.00  0.00    -0.004 A 
ATOM      4  C2  UNL d   1      -1.440   1.056  -0.169  0.00  0.00    -0.047 A 
ATOM      5  C3  UNL d   1      -0.595   0.235   0.616  0.00  0.00    -0.047 A 
ATOM      6  C4  UNL d   1       0.286  -0.388  -0.243  0.00  0.00    -0.004 A 
ENDROOT
TORSDOF 0
ENDMDL
