MODEL 1
REMARK minimizedAffinity -3.31596613
REMARK minimizedRMSD -1
REMARK  0 active torsions:
REMARK  status: ('A' for Active; 'I' for Inactive)
ROOT
ATOM      1  C   UNL d   1       0.982  -1.078  -1.086  0.00  0.00     0.172 C 
ATOM      2  N   UNL d   1       0.754  -0.590   0.254  0.00  0.00    -0.070 N 
ATOM      3  C1  UNL d   1      -0.356   0.091   0.678  0.00  0.00    -0.004 A 
ATOM      4  C2  UNL d   1      -0.189   0.378   2.016  0.00  0.00    -0.047 A 
ATOM      5  C3  UNL d   1       1.065  -0.148   2.409  0.00  0.00    -0.047 A 
ATOM      6  C4  UNL d   1       1.627  -0.741   1.299  0.00  0.00    -0.004 A 
ENDROOT
TORSDOF 0
ENDMDL
