MODEL 1
REMARK minimizedAffinity -3.74339867
REMARK minimizedRMSD -1
REMARK  0 active torsions:
REMARK  status: ('A' for Active; 'I' for Inactive)
ROOT
ATOM      1  C   UNL d   1       0.622   0.784   2.925  0.00  0.00     0.172 C 
ATOM      2  N   UNL d   1      -0.565   0.038   2.580  0.00  0.00    -0.070 N 
ATOM      3  C1  UNL d   1      -0.704  -0.784   1.494  0.00  0.00    -0.004 A 
ATOM      4  C2  UNL d   1      -1.979  -1.307   1.520  0.00  0.00    -0.047 A 
ATOM      5  C3  UNL d   1      -2.629  -0.780   2.662  0.00  0.00    -0.047 A 
ATOM      6  C4  UNL d   1      -1.731   0.049   3.299  0.00  0.00    -0.004 A 
ENDROOT
TORSDOF 0
ENDMDL
