MODEL 1
REMARK minimizedAffinity -2.23127103
REMARK minimizedRMSD -1
REMARK  0 active torsions:
REMARK  status: ('A' for Active; 'I' for Inactive)
ROOT
ATOM      1  C   UNL d   1      -0.535   0.493   0.177  0.00  0.00     0.172 C 
ATOM      2  N   UNL d   1      -0.937   0.330   1.555  0.00  0.00    -0.070 N 
ATOM      3  C1  UNL d   1      -1.383  -0.833   2.123  0.00  0.00    -0.004 A 
ATOM      4  C2  UNL d   1      -1.662  -0.575   3.448  0.00  0.00    -0.047 A 
ATOM      5  C3  UNL d   1      -1.374   0.791   3.683  0.00  0.00    -0.047 A 
ATOM      6  C4  UNL d   1      -0.927   1.327   2.494  0.00  0.00    -0.004 A 
ENDROOT
TORSDOF 0
ENDMDL
