MODEL 1
REMARK minimizedAffinity -3.30143738
REMARK minimizedRMSD -1
REMARK  0 active torsions:
REMARK  status: ('A' for Active; 'I' for Inactive)
ROOT
ATOM      1  C   UNL d   1       0.099   0.353  -0.830  0.00  0.00     0.172 C 
ATOM      2  N   UNL d   1       0.390   0.641   0.555  0.00  0.00    -0.070 N 
ATOM      3  C1  UNL d   1       1.443   1.388   1.011  0.00  0.00    -0.004 A 
ATOM      4  C2  UNL d   1       1.368   1.427   2.387  0.00  0.00    -0.047 A 
ATOM      5  C3  UNL d   1       0.231   0.677   2.770  0.00  0.00    -0.047 A 
ATOM      6  C4  UNL d   1      -0.356   0.202   1.617  0.00  0.00    -0.004 A 
ENDROOT
TORSDOF 0
ENDMDL
