MODEL 1
REMARK minimizedAffinity -3.72617793
REMARK minimizedRMSD -1
REMARK  0 active torsions:
REMARK  status: ('A' for Active; 'I' for Inactive)
ROOT
ATOM      1  C   UNL d   1      -0.141  -0.710   0.003  0.00  0.00     0.172 C 
ATOM      2  N   UNL d   1      -1.030  -0.379   1.092  0.00  0.00    -0.070 N 
ATOM      3  C1  UNL d   1      -2.362  -0.088   0.975  0.00  0.00    -0.004 A 
ATOM      4  C2  UNL d   1      -2.850   0.171   2.238  0.00  0.00    -0.047 A 
ATOM      5  C3  UNL d   1      -1.773   0.032   3.145  0.00  0.00    -0.047 A 
ATOM      6  C4  UNL d   1      -0.658  -0.309   2.409  0.00  0.00    -0.004 A 
ENDROOT
TORSDOF 0
ENDMDL
