MODEL 1
REMARK minimizedAffinity -3.13886094
REMARK minimizedRMSD -1
REMARK  0 active torsions:
REMARK  status: ('A' for Active; 'I' for Inactive)
ROOT
ATOM      1  C   UNL d   1       0.219  -4.451  -1.110  0.00  0.00     0.172 C 
ATOM      2  N   UNL d   1       0.624  -3.266  -1.830  0.00  0.00    -0.070 N 
ATOM      3  C1  UNL d   1       1.909  -2.811  -1.961  0.00  0.00    -0.004 A 
ATOM      4  C2  UNL d   1       1.874  -1.659  -2.716  0.00  0.00    -0.047 A 
ATOM      5  C3  UNL d   1       0.521  -1.412  -3.049  0.00  0.00    -0.047 A 
ATOM      6  C4  UNL d   1      -0.231  -2.422  -2.488  0.00  0.00    -0.004 A 
ENDROOT
TORSDOF 0
ENDMDL
