MODEL 1
REMARK minimizedAffinity -4.18241453
REMARK minimizedRMSD -1
REMARK  0 active torsions:
REMARK  status: ('A' for Active; 'I' for Inactive)
ROOT
ATOM      1  C   UNL d   1      -0.143   0.252  -0.854  0.00  0.00     0.172 C 
ATOM      2  N   UNL d   1      -0.035   0.255   0.586  0.00  0.00    -0.070 N 
ATOM      3  C1  UNL d   1      -0.967  -0.244   1.457  0.00  0.00    -0.004 A 
ATOM      4  C2  UNL d   1      -0.493  -0.053   2.737  0.00  0.00    -0.047 A 
ATOM      5  C3  UNL d   1       0.766   0.584   2.632  0.00  0.00    -0.047 A 
ATOM      6  C4  UNL d   1       1.025   0.763   1.290  0.00  0.00    -0.004 A 
ENDROOT
TORSDOF 0
ENDMDL
