MODEL 1
REMARK minimizedAffinity -3.44215202
REMARK minimizedRMSD -1
REMARK  0 active torsions:
REMARK  status: ('A' for Active; 'I' for Inactive)
ROOT
ATOM      1  C   UNL d   1      -5.070  -1.815  -5.193  0.00  0.00    -0.002 A 
ATOM      2  C1  UNL d   1      -6.000  -2.718  -5.690  0.00  0.00     0.010 A 
ATOM      3  C2  UNL d   1      -5.632  -4.036  -5.967  0.00  0.00     0.041 A 
ATOM      4  C3  UNL d   1      -4.302  -4.436  -5.732  0.00  0.00    -0.075 A 
ATOM      5  S   UNL d   1      -3.625  -6.000  -5.997  0.00  0.00     0.015 SA
ATOM      6  C4  UNL d   1      -2.086  -5.507  -5.456  0.00  0.00     0.022 A 
ATOM      7  C5  UNL d   1      -2.071  -4.185  -5.079  0.00  0.00     0.026 A 
ATOM      8  C6  UNL d   1      -3.348  -3.546  -5.232  0.00  0.00    -0.082 A 
ATOM      9  C7  UNL d   1      -3.752  -2.216  -4.962  0.00  0.00     0.045 A 
ENDROOT
TORSDOF 0
ENDMDL
