MODEL 1
REMARK minimizedAffinity -3.84744477
REMARK minimizedRMSD -1
REMARK  0 active torsions:
REMARK  status: ('A' for Active; 'I' for Inactive)
ROOT
ATOM      1  C   UNL d   1      -1.649  -4.889  -5.747  0.00  0.00    -0.002 A 
ATOM      2  C1  UNL d   1      -2.199  -6.000  -5.124  0.00  0.00     0.010 A 
ATOM      3  C2  UNL d   1      -3.537  -6.000  -4.723  0.00  0.00     0.041 A 
ATOM      4  C3  UNL d   1      -4.320  -4.854  -4.965  0.00  0.00    -0.075 A 
ATOM      5  S   UNL d   1      -5.982  -4.627  -4.563  0.00  0.00     0.015 SA
ATOM      6  C4  UNL d   1      -6.000  -3.050  -5.211  0.00  0.00     0.022 A 
ATOM      7  C5  UNL d   1      -4.777  -2.690  -5.725  0.00  0.00     0.026 A 
ATOM      8  C6  UNL d   1      -3.789  -3.723  -5.592  0.00  0.00    -0.082 A 
ATOM      9  C7  UNL d   1      -2.429  -3.754  -5.985  0.00  0.00     0.045 A 
ENDROOT
TORSDOF 0
ENDMDL
