MODEL 1
REMARK minimizedAffinity -2.55129361
REMARK minimizedRMSD -1
REMARK  0 active torsions:
REMARK  status: ('A' for Active; 'I' for Inactive)
ROOT
ATOM      1  C   UNL d   1      -1.521  -5.292  -4.996  0.00  0.00    -0.002 A 
ATOM      2  C1  UNL d   1      -2.063  -4.481  -5.983  0.00  0.00     0.010 A 
ATOM      3  C2  UNL d   1      -3.430  -4.197  -5.998  0.00  0.00     0.041 A 
ATOM      4  C3  UNL d   1      -4.250  -4.746  -4.992  0.00  0.00    -0.075 A 
ATOM      5  S   UNL d   1      -5.952  -4.535  -4.808  0.00  0.00     0.015 SA
ATOM      6  C4  UNL d   1      -5.998  -5.515  -3.415  0.00  0.00     0.022 A 
ATOM      7  C5  UNL d   1      -4.755  -6.000  -3.084  0.00  0.00     0.026 A 
ATOM      8  C6  UNL d   1      -3.727  -5.564  -3.987  0.00  0.00    -0.082 A 
ATOM      9  C7  UNL d   1      -2.337  -5.834  -4.001  0.00  0.00     0.045 A 
ENDROOT
TORSDOF 0
ENDMDL
