MODEL 1
REMARK minimizedAffinity -0.12289127
REMARK minimizedRMSD -1
REMARK  0 active torsions:
REMARK  status: ('A' for Active; 'I' for Inactive)
ROOT
ATOM      1  C   UNL d   1      -5.300  -1.458  -3.304  0.00  0.00    -0.002 A 
ATOM      2  C1  UNL d   1      -5.958  -1.340  -4.519  0.00  0.00     0.010 A 
ATOM      3  C2  UNL d   1      -5.999  -2.413  -5.412  0.00  0.00     0.041 A 
ATOM      4  C3  UNL d   1      -5.363  -3.619  -5.058  0.00  0.00    -0.075 A 
ATOM      5  S   UNL d   1      -5.283  -5.065  -5.993  0.00  0.00     0.015 SA
ATOM      6  C4  UNL d   1      -4.374  -5.875  -4.799  0.00  0.00     0.022 A 
ATOM      7  C5  UNL d   1      -4.128  -5.075  -3.708  0.00  0.00     0.026 A 
ATOM      8  C6  UNL d   1      -4.694  -3.762  -3.839  0.00  0.00    -0.082 A 
ATOM      9  C7  UNL d   1      -4.670  -2.656  -2.956  0.00  0.00     0.045 A 
ENDROOT
TORSDOF 0
ENDMDL
