MODEL 1
REMARK minimizedAffinity -1.2711401
REMARK minimizedRMSD -1
REMARK  0 active torsions:
REMARK  status: ('A' for Active; 'I' for Inactive)
ROOT
ATOM      1  C   UNL d   1      -5.050  -1.445  -4.523  0.00  0.00    -0.002 A 
ATOM      2  C1  UNL d   1      -5.974  -1.807  -5.494  0.00  0.00     0.010 A 
ATOM      3  C2  UNL d   1      -6.000  -3.108  -6.000  0.00  0.00     0.041 A 
ATOM      4  C3  UNL d   1      -5.074  -4.049  -5.507  0.00  0.00    -0.075 A 
ATOM      5  S   UNL d   1      -4.921  -5.701  -5.978  0.00  0.00     0.015 SA
ATOM      6  C4  UNL d   1      -3.627  -5.965  -4.901  0.00  0.00     0.022 A 
ATOM      7  C5  UNL d   1      -3.306  -4.832  -4.192  0.00  0.00     0.026 A 
ATOM      8  C6  UNL d   1      -4.136  -3.709  -4.529  0.00  0.00    -0.082 A 
ATOM      9  C7  UNL d   1      -4.134  -2.381  -4.037  0.00  0.00     0.045 A 
ENDROOT
TORSDOF 0
ENDMDL
