MODEL 1
REMARK minimizedAffinity -3.08538175
REMARK minimizedRMSD -1
REMARK  0 active torsions:
REMARK  status: ('A' for Active; 'I' for Inactive)
ROOT
ATOM      1  C   UNL d   1      -4.395  -1.621  -4.344  0.00  0.00    -0.002 A 
ATOM      2  C1  UNL d   1      -3.217  -2.223  -3.925  0.00  0.00     0.010 A 
ATOM      3  C2  UNL d   1      -2.987  -3.579  -4.168  0.00  0.00     0.041 A 
ATOM      4  C3  UNL d   1      -3.969  -4.326  -4.848  0.00  0.00    -0.075 A 
ATOM      5  S   UNL d   1      -3.903  -6.000  -5.257  0.00  0.00     0.015 SA
ATOM      6  C4  UNL d   1      -5.437  -5.954  -5.999  0.00  0.00     0.022 A 
ATOM      7  C5  UNL d   1      -6.000  -4.701  -5.945  0.00  0.00     0.026 A 
ATOM      8  C6  UNL d   1      -5.162  -3.742  -5.281  0.00  0.00    -0.082 A 
ATOM      9  C7  UNL d   1      -5.367  -2.366  -5.018  0.00  0.00     0.045 A 
ENDROOT
TORSDOF 0
ENDMDL
