MODEL 1
REMARK minimizedAffinity -3.87846184
REMARK minimizedRMSD -1
REMARK  0 active torsions:
REMARK  status: ('A' for Active; 'I' for Inactive)
ROOT
ATOM      1  C   UNL d   1      -1.513  -4.838  -5.619  0.00  0.00    -0.002 A 
ATOM      2  C1  UNL d   1      -2.256  -6.000  -5.468  0.00  0.00     0.010 A 
ATOM      3  C2  UNL d   1      -3.652  -5.959  -5.491  0.00  0.00     0.041 A 
ATOM      4  C3  UNL d   1      -4.294  -4.719  -5.673  0.00  0.00    -0.075 A 
ATOM      5  S   UNL d   1      -5.992  -4.427  -5.735  0.00  0.00     0.015 SA
ATOM      6  C4  UNL d   1      -5.772  -2.753  -5.966  0.00  0.00     0.022 A 
ATOM      7  C5  UNL d   1      -4.441  -2.407  -5.997  0.00  0.00     0.026 A 
ATOM      8  C6  UNL d   1      -3.568  -3.535  -5.829  0.00  0.00    -0.082 A 
ATOM      9  C7  UNL d   1      -2.154  -3.609  -5.800  0.00  0.00     0.045 A 
ENDROOT
TORSDOF 0
ENDMDL
