MODEL 1
REMARK minimizedAffinity -0.963600397
REMARK minimizedRMSD -1
REMARK  0 active torsions:
REMARK  status: ('A' for Active; 'I' for Inactive)
ROOT
ATOM      1  C   UNL d   1      -4.836  -2.241  -3.556  0.00  0.00    -0.002 A 
ATOM      2  C1  UNL d   1      -5.999  -2.784  -4.084  0.00  0.00     0.010 A 
ATOM      3  C2  UNL d   1      -5.953  -3.947  -4.855  0.00  0.00     0.041 A 
ATOM      4  C3  UNL d   1      -4.708  -4.563  -5.086  0.00  0.00    -0.075 A 
ATOM      5  S   UNL d   1      -4.410  -5.996  -5.998  0.00  0.00     0.015 SA
ATOM      6  C4  UNL d   1      -2.732  -5.921  -5.707  0.00  0.00     0.022 A 
ATOM      7  C5  UNL d   1      -2.390  -4.837  -4.934  0.00  0.00     0.026 A 
ATOM      8  C6  UNL d   1      -3.523  -4.036  -4.563  0.00  0.00    -0.082 A 
ATOM      9  C7  UNL d   1      -3.603  -2.855  -3.787  0.00  0.00     0.045 A 
ENDROOT
TORSDOF 0
ENDMDL
