MODEL 1
REMARK minimizedAffinity 5.73701096
REMARK minimizedRMSD -1
REMARK  0 active torsions:
REMARK  status: ('A' for Active; 'I' for Inactive)
ROOT
ATOM      1  C   UNL d   1      -3.631  -1.287   5.038  0.00  0.00    -0.002 A 
ATOM      2  C1  UNL d   1      -3.925  -0.079   4.421  0.00  0.00     0.010 A 
ATOM      3  C2  UNL d   1      -3.112   0.411   3.397  0.00  0.00     0.041 A 
ATOM      4  C3  UNL d   1      -1.989  -0.341   2.999  0.00  0.00    -0.075 A 
ATOM      5  S   UNL d   1      -0.852   0.062   1.767  0.00  0.00     0.015 SA
ATOM      6  C4  UNL d   1       0.049  -1.361   2.030  0.00  0.00     0.022 A 
ATOM      7  C5  UNL d   1      -0.490  -2.135   3.030  0.00  0.00     0.026 A 
ATOM      8  C6  UNL d   1      -1.674  -1.560   3.605  0.00  0.00    -0.082 A 
ATOM      9  C7  UNL d   1      -2.517  -2.030   4.640  0.00  0.00     0.045 A 
ENDROOT
TORSDOF 0
ENDMDL
