MODEL 1
REMARK minimizedAffinity -2.65590811
REMARK minimizedRMSD -1
REMARK  0 active torsions:
REMARK  status: ('A' for Active; 'I' for Inactive)
ROOT
ATOM      1  C   UNL d   1      -5.716  -3.566  -4.957  0.00  0.00    -0.002 A 
ATOM      2  C1  UNL d   1      -5.933  -4.860  -5.410  0.00  0.00     0.010 A 
ATOM      3  C2  UNL d   1      -4.857  -5.681  -5.754  0.00  0.00     0.041 A 
ATOM      4  C3  UNL d   1      -3.548  -5.176  -5.633  0.00  0.00    -0.075 A 
ATOM      5  S   UNL d   1      -2.078  -6.000  -5.996  0.00  0.00     0.015 SA
ATOM      6  C4  UNL d   1      -1.128  -4.654  -5.557  0.00  0.00     0.022 A 
ATOM      7  C5  UNL d   1      -1.897  -3.593  -5.142  0.00  0.00     0.026 A 
ATOM      8  C6  UNL d   1      -3.305  -3.876  -5.178  0.00  0.00    -0.082 A 
ATOM      9  C7  UNL d   1      -4.416  -3.068  -4.838  0.00  0.00     0.045 A 
ENDROOT
TORSDOF 0
ENDMDL
