MODEL 1
REMARK minimizedAffinity -2.16978598
REMARK minimizedRMSD -1
REMARK  1 active torsions:
REMARK  status: ('A' for Active; 'I' for Inactive)
REMARK    1  A    between atoms: C1_2  and  C2_3 
ROOT
ATOM      1  C2  UNL d   1       0.483  -1.230  -0.369  0.00  0.00    -0.081 A 
ATOM      2  C3  UNL d   1      -0.369  -1.462   0.717  0.00  0.00     0.006 A 
ATOM      3  C4  UNL d   1      -0.857  -0.394   1.475  0.00  0.00     0.002 A 
ATOM      4  C5  UNL d   1      -0.507   0.922   1.155  0.00  0.00    -0.080 A 
ATOM      5  C6  UNL d   1      -1.048   2.079   1.941  0.00  0.00     0.076 C 
ATOM      6  C7  UNL d   1       0.359   1.152   0.080  0.00  0.00     0.002 A 
ATOM      7  C8  UNL d   1       0.847   0.085  -0.677  0.00  0.00     0.006 A 
ENDROOT
BRANCH   1   8
ATOM      8  C1  UNL d   1       0.959  -2.374  -1.227  0.00  0.00     0.054 C 
ATOM      9  C   UNL d   1      -0.168  -2.928  -2.087  0.00  0.00     0.018 C 
ENDBRANCH   1   8
TORSDOF 1
ENDMDL
