MODEL 1
REMARK minimizedAffinity -1.2346406
REMARK minimizedRMSD -1
REMARK  1 active torsions:
REMARK  status: ('A' for Active; 'I' for Inactive)
REMARK    1  A    between atoms: C1_2  and  C2_3 
ROOT
ATOM      1  C2  UNL d   1       0.850  -1.601  -0.536  0.00  0.00    -0.081 A 
ATOM      2  C3  UNL d   1       0.586  -1.811   0.823  0.00  0.00     0.006 A 
ATOM      3  C4  UNL d   1       0.071  -0.781   1.612  0.00  0.00     0.002 A 
ATOM      4  C5  UNL d   1      -0.198   0.474   1.055  0.00  0.00    -0.080 A 
ATOM      5  C6  UNL d   1      -0.780   1.580   1.884  0.00  0.00     0.076 C 
ATOM      6  C7  UNL d   1       0.082   0.690  -0.299  0.00  0.00     0.002 A 
ATOM      7  C8  UNL d   1       0.598  -0.340  -1.088  0.00  0.00     0.006 A 
ENDROOT
BRANCH   1   8
ATOM      8  C1  UNL d   1       1.345  -2.729  -1.405  0.00  0.00     0.054 C 
ATOM      9  C   UNL d   1       0.401  -2.984  -2.571  0.00  0.00     0.018 C 
ENDBRANCH   1   8
TORSDOF 1
ENDMDL
