MODEL 1
REMARK minimizedAffinity -1.7884903
REMARK minimizedRMSD -1
REMARK  1 active torsions:
REMARK  status: ('A' for Active; 'I' for Inactive)
REMARK    1  A    between atoms: C1_2  and  C2_3 
ROOT
ATOM      1  C2  UNL d   1       0.615  -1.198  -0.485  0.00  0.00    -0.081 A 
ATOM      2  C3  UNL d   1       0.012  -0.095  -1.102  0.00  0.00     0.006 A 
ATOM      3  C4  UNL d   1      -0.630   0.881  -0.337  0.00  0.00     0.002 A 
ATOM      4  C5  UNL d   1      -0.674   0.775   1.058  0.00  0.00    -0.080 A 
ATOM      5  C6  UNL d   1      -1.333   1.832   1.893  0.00  0.00     0.076 C 
ATOM      6  C7  UNL d   1      -0.086  -0.336   1.673  0.00  0.00     0.002 A 
ATOM      7  C8  UNL d   1       0.555  -1.312   0.908  0.00  0.00     0.006 A 
ENDROOT
BRANCH   1   8
ATOM      8  C1  UNL d   1       1.364  -2.219  -1.303  0.00  0.00     0.054 C 
ATOM      9  C   UNL d   1       0.579  -2.618  -2.544  0.00  0.00     0.018 C 
ENDBRANCH   1   8
TORSDOF 1
ENDMDL
