MODEL 1
REMARK minimizedAffinity -1.53100049
REMARK minimizedRMSD -1
REMARK  1 active torsions:
REMARK  status: ('A' for Active; 'I' for Inactive)
REMARK    1  A    between atoms: C1_2  and  C2_3 
ROOT
ATOM      1  C2  UNL d   1       0.468   1.474   0.141  0.00  0.00    -0.081 A 
ATOM      2  C3  UNL d   1       1.063   0.214   0.283  0.00  0.00     0.006 A 
ATOM      3  C4  UNL d   1       0.684  -0.635   1.325  0.00  0.00     0.002 A 
ATOM      4  C5  UNL d   1      -0.300  -0.242   2.239  0.00  0.00    -0.080 A 
ATOM      5  C6  UNL d   1      -0.737  -1.155   3.345  0.00  0.00     0.076 C 
ATOM      6  C7  UNL d   1      -0.882   1.024   2.108  0.00  0.00     0.002 A 
ATOM      7  C8  UNL d   1      -0.503   1.874   1.066  0.00  0.00     0.006 A 
ENDROOT
BRANCH   1   8
ATOM      8  C1  UNL d   1       0.828   2.366  -1.020  0.00  0.00     0.054 C 
ATOM      9  C   UNL d   1       0.460   3.815  -0.739  0.00  0.00     0.018 C 
ENDBRANCH   1   8
TORSDOF 1
ENDMDL
