MODEL 1
REMARK minimizedAffinity -2.34990954
REMARK minimizedRMSD -1
REMARK  1 active torsions:
REMARK  status: ('A' for Active; 'I' for Inactive)
REMARK    1  A    between atoms: C1_2  and  C2_3 
ROOT
ATOM      1  C2  UNL d   1       0.433  -1.629  -0.434  0.00  0.00    -0.081 A 
ATOM      2  C3  UNL d   1       0.349  -0.334  -0.960  0.00  0.00     0.006 A 
ATOM      3  C4  UNL d   1      -0.146   0.716  -0.183  0.00  0.00     0.002 A 
ATOM      4  C5  UNL d   1      -0.559   0.490   1.135  0.00  0.00    -0.080 A 
ATOM      5  C6  UNL d   1      -1.064   1.614   1.990  0.00  0.00     0.076 C 
ATOM      6  C7  UNL d   1      -0.492  -0.807   1.655  0.00  0.00     0.002 A 
ATOM      7  C8  UNL d   1       0.003  -1.857   0.878  0.00  0.00     0.006 A 
ENDROOT
BRANCH   1   8
ATOM      8  C1  UNL d   1       1.027  -2.750  -1.248  0.00  0.00     0.054 C 
ATOM      9  C   UNL d   1       0.268  -2.950  -2.552  0.00  0.00     0.018 C 
ENDBRANCH   1   8
TORSDOF 1
ENDMDL
