MODEL 1
REMARK minimizedAffinity -3.0834651
REMARK minimizedRMSD -1
REMARK  1 active torsions:
REMARK  status: ('A' for Active; 'I' for Inactive)
REMARK    1  A    between atoms: C1_2  and  C2_3 
ROOT
ATOM      1  C2  UNL d   1       0.228  -1.647  -1.273  0.00  0.00    -0.081 A 
ATOM      2  C3  UNL d   1       1.136  -0.775  -0.660  0.00  0.00     0.006 A 
ATOM      3  C4  UNL d   1       0.722   0.060   0.382  0.00  0.00     0.002 A 
ATOM      4  C5  UNL d   1      -0.602   0.030   0.832  0.00  0.00    -0.080 A 
ATOM      5  C6  UNL d   1      -1.051   0.899   1.969  0.00  0.00     0.076 C 
ATOM      6  C7  UNL d   1      -1.513  -0.829   0.208  0.00  0.00     0.002 A 
ATOM      7  C8  UNL d   1      -1.100  -1.663  -0.834  0.00  0.00     0.006 A 
ENDROOT
BRANCH   1   8
ATOM      8  C1  UNL d   1       0.686  -2.595  -2.352  0.00  0.00     0.054 C 
ATOM      9  C   UNL d   1       0.199  -4.012  -2.088  0.00  0.00     0.018 C 
ENDBRANCH   1   8
TORSDOF 1
ENDMDL
