MODEL 1
REMARK minimizedAffinity -0.94684279
REMARK minimizedRMSD -1
REMARK  1 active torsions:
REMARK  status: ('A' for Active; 'I' for Inactive)
REMARK    1  A    between atoms: C1_2  and  C2_3 
ROOT
ATOM      1  C2  UNL d   1       0.939  -3.413  -1.535  0.00  0.00    -0.081 A 
ATOM      2  C3  UNL d   1       1.465  -2.643  -0.490  0.00  0.00     0.006 A 
ATOM      3  C4  UNL d   1       1.325  -1.253  -0.495  0.00  0.00     0.002 A 
ATOM      4  C5  UNL d   1       0.651  -0.611  -1.539  0.00  0.00    -0.080 A 
ATOM      5  C6  UNL d   1       0.468   0.878  -1.541  0.00  0.00     0.076 C 
ATOM      6  C7  UNL d   1       0.141  -1.378  -2.592  0.00  0.00     0.002 A 
ATOM      7  C8  UNL d   1       0.280  -2.768  -2.588  0.00  0.00     0.006 A 
ENDROOT
BRANCH   1   8
ATOM      8  C1  UNL d   1       1.031  -4.917  -1.500  0.00  0.00     0.054 C 
ATOM      9  C   UNL d   1       1.912  -5.391  -0.353  0.00  0.00     0.018 C 
ENDBRANCH   1   8
TORSDOF 1
ENDMDL
