MODEL 1
REMARK minimizedAffinity -0.835136414
REMARK minimizedRMSD -1
REMARK  1 active torsions:
REMARK  status: ('A' for Active; 'I' for Inactive)
REMARK    1  A    between atoms: C1_2  and  C2_3 
ROOT
ATOM      1  C2  UNL d   1       0.910  -1.512  -0.990  0.00  0.00    -0.081 A 
ATOM      2  C3  UNL d   1       0.211  -1.224  -2.168  0.00  0.00     0.006 A 
ATOM      3  C4  UNL d   1      -0.224  -2.256  -3.003  0.00  0.00     0.002 A 
ATOM      4  C5  UNL d   1       0.025  -3.592  -2.670  0.00  0.00    -0.080 A 
ATOM      5  C6  UNL d   1      -0.463  -4.710  -3.542  0.00  0.00     0.076 C 
ATOM      6  C7  UNL d   1       0.739  -3.879  -1.502  0.00  0.00     0.002 A 
ATOM      7  C8  UNL d   1       1.175  -2.847  -0.667  0.00  0.00     0.006 A 
ENDROOT
BRANCH   1   8
ATOM      8  C1  UNL d   1       1.325  -0.405  -0.055  0.00  0.00     0.054 C 
ATOM      9  C   UNL d   1       0.184  -0.006   0.870  0.00  0.00     0.018 C 
ENDBRANCH   1   8
TORSDOF 1
ENDMDL
