MODEL 1
REMARK minimizedAffinity -3.18223786
REMARK minimizedRMSD -1
REMARK  1 active torsions:
REMARK  status: ('A' for Active; 'I' for Inactive)
REMARK    1  A    between atoms: C1_2  and  C2_3 
ROOT
ATOM      1  C2  UNL d   1       0.720  -1.051  -0.620  0.00  0.00    -0.081 A 
ATOM      2  C3  UNL d   1       0.570  -1.397   0.729  0.00  0.00     0.006 A 
ATOM      3  C4  UNL d   1       0.001  -0.496   1.631  0.00  0.00     0.002 A 
ATOM      4  C5  UNL d   1      -0.435   0.762   1.200  0.00  0.00    -0.080 A 
ATOM      5  C6  UNL d   1      -1.076   1.727   2.153  0.00  0.00     0.076 C 
ATOM      6  C7  UNL d   1      -0.270   1.114  -0.144  0.00  0.00     0.002 A 
ATOM      7  C8  UNL d   1       0.300   0.214  -1.047  0.00  0.00     0.006 A 
ENDROOT
BRANCH   1   8
ATOM      8  C1  UNL d   1       1.275  -2.044  -1.609  0.00  0.00     0.054 C 
ATOM      9  C   UNL d   1       0.277  -2.332  -2.722  0.00  0.00     0.018 C 
ENDBRANCH   1   8
TORSDOF 1
ENDMDL
