MODEL 1
REMARK minimizedAffinity -3.35906005
REMARK minimizedRMSD -1
REMARK  1 active torsions:
REMARK  status: ('A' for Active; 'I' for Inactive)
REMARK    1  A    between atoms: C1_2  and  C2_3 
ROOT
ATOM      1  C2  UNL d   1      -0.649   1.174   0.784  0.00  0.00    -0.081 A 
ATOM      2  C3  UNL d   1      -0.029   1.218  -0.471  0.00  0.00     0.006 A 
ATOM      3  C4  UNL d   1       0.600   0.084  -0.991  0.00  0.00     0.002 A 
ATOM      4  C5  UNL d   1       0.614  -1.114  -0.268  0.00  0.00    -0.080 A 
ATOM      5  C6  UNL d   1       1.260  -2.347  -0.827  0.00  0.00     0.076 C 
ATOM      6  C7  UNL d   1       0.010  -1.153   0.993  0.00  0.00     0.002 A 
ATOM      7  C8  UNL d   1      -0.619  -0.020   1.513  0.00  0.00     0.006 A 
ENDROOT
BRANCH   1   8
ATOM      8  C1  UNL d   1      -1.384   2.376   1.318  0.00  0.00     0.054 C 
ATOM      9  C   UNL d   1      -0.930   3.654   0.628  0.00  0.00     0.018 C 
ENDBRANCH   1   8
TORSDOF 1
ENDMDL
