MODEL 1
REMARK minimizedAffinity -4.30190659
REMARK minimizedRMSD -1
REMARK  1 active torsions:
REMARK  status: ('A' for Active; 'I' for Inactive)
REMARK    1  A    between atoms: C1_2  and  C2_3 
ROOT
ATOM      1  C2  UNL d   1       0.133  -1.309  -1.139  0.00  0.00    -0.081 A 
ATOM      2  C3  UNL d   1      -0.812  -1.627  -0.155  0.00  0.00     0.006 A 
ATOM      3  C4  UNL d   1      -1.050  -0.752   0.907  0.00  0.00     0.002 A 
ATOM      4  C5  UNL d   1      -0.354   0.458   1.000  0.00  0.00    -0.080 A 
ATOM      5  C6  UNL d   1      -0.621   1.420   2.119  0.00  0.00     0.076 C 
ATOM      6  C7  UNL d   1       0.603   0.768   0.027  0.00  0.00     0.002 A 
ATOM      7  C8  UNL d   1       0.842  -0.107  -1.035  0.00  0.00     0.006 A 
ENDROOT
BRANCH   1   8
ATOM      8  C1  UNL d   1       0.345  -2.220  -2.321  0.00  0.00     0.054 C 
ATOM      9  C   UNL d   1       1.032  -3.513  -1.906  0.00  0.00     0.018 C 
ENDBRANCH   1   8
TORSDOF 1
ENDMDL
