MODEL 1
REMARK minimizedAffinity -3.10619211
REMARK minimizedRMSD -1
REMARK  1 active torsions:
REMARK  status: ('A' for Active; 'I' for Inactive)
REMARK    1  A    between atoms: C1_2  and  C2_3 
ROOT
ATOM      1  C2  UNL d   1       2.014  -1.233   0.130  0.00  0.00    -0.076 A 
ATOM      2  C3  UNL d   1       1.691  -1.695  -1.158  0.00  0.00     0.004 A 
ATOM      3  C4  UNL d   1       0.474  -1.366  -1.753  0.00  0.00    -0.003 A 
ATOM      4  C5  UNL d   1      -0.439  -0.570  -1.071  0.00  0.00     0.000 A 
ATOM      5  C6  UNL d   1      -0.128  -0.089   0.200  0.00  0.00     0.000 A 
ATOM      6  C7  UNL d   1       1.101  -0.397   0.808  0.00  0.00    -0.073 A 
ATOM      7  C8  UNL d   1       1.382   0.144   2.184  0.00  0.00     0.078 C 
ENDROOT
BRANCH   1   8
ATOM      8  C1  UNL d   1       3.337  -1.644   0.736  0.00  0.00     0.053 C 
ATOM      9  C   UNL d   1       4.527  -1.087  -0.030  0.00  0.00     0.018 C 
ENDBRANCH   1   8
TORSDOF 1
ENDMDL
