MODEL 1
REMARK minimizedAffinity -1.28144991
REMARK minimizedRMSD -1
REMARK  1 active torsions:
REMARK  status: ('A' for Active; 'I' for Inactive)
REMARK    1  A    between atoms: C1_2  and  C2_3 
ROOT
ATOM      1  C2  UNL d   1       3.817   5.157   3.673  0.00  0.00    -0.076 A 
ATOM      2  C3  UNL d   1       4.892   6.000   3.340  0.00  0.00     0.004 A 
ATOM      3  C4  UNL d   1       5.920   5.556   2.510  0.00  0.00    -0.003 A 
ATOM      4  C5  UNL d   1       5.891   4.263   2.000  0.00  0.00     0.000 A 
ATOM      5  C6  UNL d   1       4.823   3.420   2.306  0.00  0.00     0.000 A 
ATOM      6  C7  UNL d   1       3.770   3.856   3.128  0.00  0.00    -0.073 A 
ATOM      7  C8  UNL d   1       2.647   2.902   3.430  0.00  0.00     0.078 C 
ENDROOT
BRANCH   1   8
ATOM      8  C1  UNL d   1       2.744   5.683   4.599  0.00  0.00     0.053 C 
ATOM      9  C   UNL d   1       3.275   5.990   5.992  0.00  0.00     0.018 C 
ENDBRANCH   1   8
TORSDOF 1
ENDMDL
