MODEL 1
REMARK minimizedAffinity 9.79428768
REMARK minimizedRMSD -1
REMARK  1 active torsions:
REMARK  status: ('A' for Active; 'I' for Inactive)
REMARK    1  A    between atoms: C1_2  and  C2_3 
ROOT
ATOM      1  C2  UNL d   1      -0.089  -0.657   0.000  0.00  0.00    -0.076 A 
ATOM      2  C3  UNL d   1      -1.152  -0.808  -0.908  0.00  0.00     0.004 A 
ATOM      3  C4  UNL d   1      -2.473  -0.633  -0.501  0.00  0.00    -0.003 A 
ATOM      4  C5  UNL d   1      -2.754  -0.304   0.821  0.00  0.00     0.000 A 
ATOM      5  C6  UNL d   1      -1.711  -0.134   1.731  0.00  0.00     0.000 A 
ATOM      6  C7  UNL d   1      -0.372  -0.290   1.333  0.00  0.00    -0.073 A 
ATOM      7  C8  UNL d   1       0.713  -0.100   2.358  0.00  0.00     0.078 C 
ENDROOT
BRANCH   1   8
ATOM      8  C1  UNL d   1       1.322  -0.886  -0.492  0.00  0.00     0.053 C 
ATOM      9  C   UNL d   1       1.912   0.344  -1.164  0.00  0.00     0.018 C 
ENDBRANCH   1   8
TORSDOF 1
ENDMDL
