MODEL 1
REMARK minimizedAffinity 3.71306205
REMARK minimizedRMSD -1
REMARK  1 active torsions:
REMARK  status: ('A' for Active; 'I' for Inactive)
REMARK    1  A    between atoms: C1_2  and  C2_3 
ROOT
ATOM      1  C2  UNL d   1       1.951   4.874   3.999  0.00  0.00    -0.076 A 
ATOM      2  C3  UNL d   1       1.992   4.430   2.665  0.00  0.00     0.004 A 
ATOM      3  C4  UNL d   1       3.122   4.635   1.875  0.00  0.00    -0.003 A 
ATOM      4  C5  UNL d   1       4.229   5.288   2.406  0.00  0.00     0.000 A 
ATOM      5  C6  UNL d   1       4.213   5.719   3.732  0.00  0.00     0.000 A 
ATOM      6  C7  UNL d   1       3.088   5.505   4.547  0.00  0.00    -0.073 A 
ATOM      7  C8  UNL d   1       3.122   5.997   5.968  0.00  0.00     0.078 C 
ENDROOT
BRANCH   1   8
ATOM      8  C1  UNL d   1       0.689   4.647   4.799  0.00  0.00     0.053 C 
ATOM      9  C   UNL d   1      -0.055   5.940   5.094  0.00  0.00     0.018 C 
ENDBRANCH   1   8
TORSDOF 1
ENDMDL
