MODEL 1
REMARK minimizedAffinity 4.19921732
REMARK minimizedRMSD -1
REMARK  1 active torsions:
REMARK  status: ('A' for Active; 'I' for Inactive)
REMARK    1  A    between atoms: C1_2  and  C2_3 
ROOT
ATOM      1  C2  UNL d   1      -1.351  -0.332   1.141  0.00  0.00    -0.076 A 
ATOM      2  C3  UNL d   1      -0.362  -0.339   2.139  0.00  0.00     0.004 A 
ATOM      3  C4  UNL d   1       0.944  -0.733   1.852  0.00  0.00    -0.003 A 
ATOM      4  C5  UNL d   1       1.282  -1.126   0.561  0.00  0.00     0.000 A 
ATOM      5  C6  UNL d   1       0.317  -1.108  -0.445  0.00  0.00     0.000 A 
ATOM      6  C7  UNL d   1      -1.000  -0.699  -0.176  0.00  0.00    -0.073 A 
ATOM      7  C8  UNL d   1      -2.001  -0.705  -1.299  0.00  0.00     0.078 C 
ENDROOT
BRANCH   1   8
ATOM      8  C1  UNL d   1      -2.757   0.078   1.517  0.00  0.00     0.053 C 
ATOM      9  C   UNL d   1      -3.791  -0.973   1.144  0.00  0.00     0.018 C 
ENDBRANCH   1   8
TORSDOF 1
ENDMDL
