MODEL 1
REMARK minimizedAffinity -0.592883468
REMARK minimizedRMSD -1
REMARK  1 active torsions:
REMARK  status: ('A' for Active; 'I' for Inactive)
REMARK    1  A    between atoms: C1_2  and  C2_3 
ROOT
ATOM      1  C2  UNL d   1       1.555  -2.223   0.600  0.00  0.00    -0.076 A 
ATOM      2  C3  UNL d   1       1.152  -2.459   1.926  0.00  0.00     0.004 A 
ATOM      3  C4  UNL d   1       0.120  -1.722   2.504  0.00  0.00    -0.003 A 
ATOM      4  C5  UNL d   1      -0.527  -0.737   1.766  0.00  0.00     0.000 A 
ATOM      5  C6  UNL d   1      -0.152  -0.502   0.443  0.00  0.00     0.000 A 
ATOM      6  C7  UNL d   1       0.875  -1.247  -0.160  0.00  0.00    -0.073 A 
ATOM      7  C8  UNL d   1       1.242  -0.947  -1.588  0.00  0.00     0.078 C 
ENDROOT
BRANCH   1   8
ATOM      8  C1  UNL d   1       2.698  -3.035   0.035  0.00  0.00     0.053 C 
ATOM      9  C   UNL d   1       2.958  -4.306   0.828  0.00  0.00     0.018 C 
ENDBRANCH   1   8
TORSDOF 1
ENDMDL
