MODEL 1
REMARK minimizedAffinity 6.92572784
REMARK minimizedRMSD -1
REMARK  0 active torsions:
REMARK  status: ('A' for Active; 'I' for Inactive)
ROOT
ATOM      1  C1  DEN d   1      -2.629   6.000   4.497  0.00  0.00     0.130 A 
ATOM      2  C2  DEN d   1      -3.075   5.624   5.836  0.00  0.00    -0.031 A 
ATOM      3  C3  DEN d   1      -4.456   5.113   5.730  0.00  0.00     0.027 A 
ATOM      4  C4  DEN d   1      -5.939   4.864   3.634  0.00  0.00     0.027 A 
ATOM      5  C5  DEN d   1      -6.000   5.062   2.273  0.00  0.00    -0.003 A 
ATOM      6  C6  DEN d   1      -4.963   5.614   1.568  0.00  0.00     0.001 A 
ATOM      7  C7  DEN d   1      -3.802   5.945   2.216  0.00  0.00     0.017 A 
ATOM      8  C8  DEN d   1      -3.736   5.755   3.590  0.00  0.00    -0.094 A 
ATOM      9  C9  DEN d   1      -4.790   5.185   4.282  0.00  0.00    -0.072 A 
ENDROOT
TORSDOF 0
ENDMDL
