MODEL 1
REMARK minimizedAffinity 4.06673002
REMARK minimizedRMSD -1
REMARK  0 active torsions:
REMARK  status: ('A' for Active; 'I' for Inactive)
ROOT
ATOM      1  C1  DEN d   1      -4.118   5.982   5.640  0.00  0.00     0.130 A 
ATOM      2  C2  DEN d   1      -2.694   6.000   5.963  0.00  0.00    -0.031 A 
ATOM      3  C3  DEN d   1      -1.939   5.998   4.694  0.00  0.00     0.027 A 
ATOM      4  C4  DEN d   1      -2.831   5.974   2.274  0.00  0.00     0.027 A 
ATOM      5  C5  DEN d   1      -3.968   5.945   1.497  0.00  0.00    -0.003 A 
ATOM      6  C6  DEN d   1      -5.224   5.892   2.042  0.00  0.00     0.001 A 
ATOM      7  C7  DEN d   1      -5.374   5.913   3.404  0.00  0.00     0.017 A 
ATOM      8  C8  DEN d   1      -4.232   5.935   4.194  0.00  0.00    -0.094 A 
ATOM      9  C9  DEN d   1      -2.972   6.000   3.623  0.00  0.00    -0.072 A 
ENDROOT
TORSDOF 0
ENDMDL
