MODEL 1
REMARK minimizedAffinity 2.01391721
REMARK minimizedRMSD -1
REMARK  0 active torsions:
REMARK  status: ('A' for Active; 'I' for Inactive)
ROOT
ATOM      1  C1  DEN d   1      -2.205   5.976   4.852  0.00  0.00     0.130 A 
ATOM      2  C2  DEN d   1      -3.117   5.997   5.992  0.00  0.00    -0.031 A 
ATOM      3  C3  DEN d   1      -4.499   6.000   5.470  0.00  0.00     0.027 A 
ATOM      4  C4  DEN d   1      -5.309   5.967   3.022  0.00  0.00     0.027 A 
ATOM      5  C5  DEN d   1      -4.904   5.957   1.705  0.00  0.00    -0.003 A 
ATOM      6  C6  DEN d   1      -3.582   5.987   1.348  0.00  0.00     0.001 A 
ATOM      7  C7  DEN d   1      -2.616   5.982   2.319  0.00  0.00     0.017 A 
ATOM      8  C8  DEN d   1      -3.017   6.000   3.649  0.00  0.00    -0.094 A 
ATOM      9  C9  DEN d   1      -4.358   5.957   3.990  0.00  0.00    -0.072 A 
ENDROOT
TORSDOF 0
ENDMDL
