MODEL 1
REMARK minimizedAffinity 7.51287413
REMARK minimizedRMSD -1
REMARK  0 active torsions:
REMARK  status: ('A' for Active; 'I' for Inactive)
ROOT
ATOM      1  C1  DEN d   1      -2.312   1.330   2.455  0.00  0.00     0.130 A 
ATOM      2  C2  DEN d   1      -3.137   1.070   3.631  0.00  0.00    -0.031 A 
ATOM      3  C3  DEN d   1      -3.718  -0.281   3.493  0.00  0.00     0.027 A 
ATOM      4  C4  DEN d   1      -3.417  -1.988   1.583  0.00  0.00     0.027 A 
ATOM      5  C5  DEN d   1      -2.819  -2.214   0.363  0.00  0.00    -0.003 A 
ATOM      6  C6  DEN d   1      -2.043  -1.269  -0.256  0.00  0.00     0.001 A 
ATOM      7  C7  DEN d   1      -1.809  -0.071   0.365  0.00  0.00     0.017 A 
ATOM      8  C8  DEN d   1      -2.415   0.167   1.591  0.00  0.00    -0.094 A 
ATOM      9  C9  DEN d   1      -3.185  -0.805   2.206  0.00  0.00    -0.072 A 
ENDROOT
TORSDOF 0
ENDMDL
