MODEL 1
REMARK minimizedAffinity 10.0890856
REMARK minimizedRMSD -1
REMARK  0 active torsions:
REMARK  status: ('A' for Active; 'I' for Inactive)
ROOT
ATOM      1  C1  DEN d   1      -3.078  -2.424   1.236  0.00  0.00     0.130 A 
ATOM      2  C2  DEN d   1      -2.338  -2.020   0.043  0.00  0.00    -0.031 A 
ATOM      3  C3  DEN d   1      -1.927  -0.613   0.217  0.00  0.00     0.027 A 
ATOM      4  C4  DEN d   1      -2.356   0.970   2.207  0.00  0.00     0.027 A 
ATOM      5  C5  DEN d   1      -2.950   1.081   3.445  0.00  0.00    -0.003 A 
ATOM      6  C6  DEN d   1      -3.651   0.051   4.014  0.00  0.00     0.001 A 
ATOM      7  C7  DEN d   1      -3.738  -1.151   3.364  0.00  0.00     0.017 A 
ATOM      8  C8  DEN d   1      -3.148  -1.269   2.112  0.00  0.00    -0.094 A 
ATOM      9  C9  DEN d   1      -2.434  -0.219   1.559  0.00  0.00    -0.072 A 
ENDROOT
TORSDOF 0
ENDMDL
