MODEL 1
REMARK minimizedAffinity 2.39006448
REMARK minimizedRMSD -1
REMARK  0 active torsions:
REMARK  status: ('A' for Active; 'I' for Inactive)
ROOT
ATOM      1  C1  DEN d   1      -2.232   5.975   4.625  0.00  0.00     0.130 A 
ATOM      2  C2  DEN d   1      -3.165   5.997   5.749  0.00  0.00    -0.031 A 
ATOM      3  C3  DEN d   1      -4.537   6.000   5.203  0.00  0.00     0.027 A 
ATOM      4  C4  DEN d   1      -5.304   5.968   2.740  0.00  0.00     0.027 A 
ATOM      5  C5  DEN d   1      -4.875   5.958   1.431  0.00  0.00    -0.003 A 
ATOM      6  C6  DEN d   1      -3.547   5.988   1.097  0.00  0.00     0.001 A 
ATOM      7  C7  DEN d   1      -2.599   5.983   2.086  0.00  0.00     0.017 A 
ATOM      8  C8  DEN d   1      -3.023   6.000   3.408  0.00  0.00    -0.094 A 
ATOM      9  C9  DEN d   1      -4.370   5.957   3.725  0.00  0.00    -0.072 A 
ENDROOT
TORSDOF 0
ENDMDL
