MODEL 1
REMARK minimizedAffinity 12.930891
REMARK minimizedRMSD -1
REMARK  0 active torsions:
REMARK  status: ('A' for Active; 'I' for Inactive)
ROOT
ATOM      1  C1  DEN d   1       0.133  -2.632  -4.361  0.00  0.00     0.130 A 
ATOM      2  C2  DEN d   1       0.560  -3.341  -3.158  0.00  0.00    -0.031 A 
ATOM      3  C3  DEN d   1       1.012  -2.338  -2.173  0.00  0.00     0.027 A 
ATOM      4  C4  DEN d   1       1.088   0.231  -2.392  0.00  0.00     0.027 A 
ATOM      5  C5  DEN d   1       0.838   1.294  -3.231  0.00  0.00    -0.003 A 
ATOM      6  C6  DEN d   1       0.372   1.122  -4.508  0.00  0.00     0.001 A 
ATOM      7  C7  DEN d   1       0.098  -0.139  -4.966  0.00  0.00     0.017 A 
ATOM      8  C8  DEN d   1       0.354  -1.216  -4.128  0.00  0.00    -0.094 A 
ATOM      9  C9  DEN d   1       0.813  -1.021  -2.837  0.00  0.00    -0.072 A 
ENDROOT
TORSDOF 0
ENDMDL
