MODEL 1
REMARK minimizedAffinity 5.11482143
REMARK minimizedRMSD -1
REMARK  0 active torsions:
REMARK  status: ('A' for Active; 'I' for Inactive)
ROOT
ATOM      1  C1  DEN d   1      -2.245   2.666   3.375  0.00  0.00     0.130 A 
ATOM      2  C2  DEN d   1      -2.693   1.947   2.185  0.00  0.00    -0.031 A 
ATOM      3  C3  DEN d   1      -3.761   2.742   1.546  0.00  0.00     0.027 A 
ATOM      4  C4  DEN d   1      -4.757   5.006   2.277  0.00  0.00     0.027 A 
ATOM      5  C5  DEN d   1      -4.706   5.999   3.230  0.00  0.00    -0.003 A 
ATOM      6  C6  DEN d   1      -3.863   5.935   4.308  0.00  0.00     0.001 A 
ATOM      7  C7  DEN d   1      -3.003   4.876   4.434  0.00  0.00     0.017 A 
ATOM      8  C8  DEN d   1      -3.053   3.868   3.481  0.00  0.00    -0.094 A 
ATOM      9  C9  DEN d   1      -3.904   3.957   2.393  0.00  0.00    -0.072 A 
ENDROOT
TORSDOF 0
ENDMDL
