MODEL 1
REMARK minimizedAffinity 11.0913887
REMARK minimizedRMSD -1
REMARK  0 active torsions:
REMARK  status: ('A' for Active; 'I' for Inactive)
ROOT
ATOM      1  C1  DEN d   1       3.901  -2.119   4.593  0.00  0.00     0.130 A 
ATOM      2  C2  DEN d   1       4.988  -1.287   5.102  0.00  0.00    -0.031 A 
ATOM      3  C3  DEN d   1       5.977  -2.174   5.747  0.00  0.00     0.027 A 
ATOM      4  C4  DEN d   1       5.934  -4.740   6.000  0.00  0.00     0.027 A 
ATOM      5  C5  DEN d   1       5.210  -5.882   5.738  0.00  0.00    -0.003 A 
ATOM      6  C6  DEN d   1       3.993  -5.847   5.111  0.00  0.00     0.001 A 
ATOM      7  C7  DEN d   1       3.484  -4.649   4.684  0.00  0.00     0.017 A 
ATOM      8  C8  DEN d   1       4.204  -3.492   4.952  0.00  0.00    -0.094 A 
ATOM      9  C9  DEN d   1       5.439  -3.550   5.576  0.00  0.00    -0.072 A 
ENDROOT
TORSDOF 0
ENDMDL
