MODEL 1
REMARK minimizedAffinity 2.21840811
REMARK minimizedRMSD -1
REMARK  0 active torsions:
REMARK  status: ('A' for Active; 'I' for Inactive)
ROOT
ATOM      1  C1  DEN d   1      -4.195   5.966   5.778  0.00  0.00     0.130 A 
ATOM      2  C2  DEN d   1      -2.752   6.000   6.000  0.00  0.00    -0.031 A 
ATOM      3  C3  DEN d   1      -2.088   5.998   4.681  0.00  0.00     0.027 A 
ATOM      4  C4  DEN d   1      -3.148   5.952   2.330  0.00  0.00     0.027 A 
ATOM      5  C5  DEN d   1      -4.336   5.906   1.635  0.00  0.00    -0.003 A 
ATOM      6  C6  DEN d   1      -5.550   5.844   2.268  0.00  0.00     0.001 A 
ATOM      7  C7  DEN d   1      -5.604   5.871   3.636  0.00  0.00     0.017 A 
ATOM      8  C8  DEN d   1      -4.410   5.909   4.344  0.00  0.00    -0.094 A 
ATOM      9  C9  DEN d   1      -3.194   5.984   3.686  0.00  0.00    -0.072 A 
ENDROOT
TORSDOF 0
ENDMDL
