MODEL 1
REMARK minimizedAffinity 1.4836936
REMARK minimizedRMSD -1
REMARK  0 active torsions:
REMARK  status: ('A' for Active; 'I' for Inactive)
ROOT
ATOM      1  C1  DEN d   1      -3.639   5.938   1.816  0.00  0.00     0.130 A 
ATOM      2  C2  DEN d   1      -2.204   5.968   1.548  0.00  0.00    -0.031 A 
ATOM      3  C3  DEN d   1      -1.498   6.000   2.844  0.00  0.00     0.027 A 
ATOM      4  C4  DEN d   1      -2.481   6.000   5.228  0.00  0.00     0.027 A 
ATOM      5  C5  DEN d   1      -3.647   5.992   5.962  0.00  0.00    -0.003 A 
ATOM      6  C6  DEN d   1      -4.882   6.000   5.370  0.00  0.00     0.001 A 
ATOM      7  C7  DEN d   1      -4.980   5.970   4.004  0.00  0.00     0.017 A 
ATOM      8  C8  DEN d   1      -3.809   5.986   3.257  0.00  0.00    -0.094 A 
ATOM      9  C9  DEN d   1      -2.570   5.965   3.875  0.00  0.00    -0.072 A 
ENDROOT
TORSDOF 0
ENDMDL
