MODEL 1
REMARK minimizedAffinity 5.33610106
REMARK minimizedRMSD -1
REMARK  0 active torsions:
REMARK  status: ('A' for Active; 'I' for Inactive)
ROOT
ATOM      1  C1  DEN d   1      -4.527   6.000   5.062  0.00  0.00     0.130 A 
ATOM      2  C2  DEN d   1      -3.408   5.961   5.999  0.00  0.00    -0.031 A 
ATOM      3  C3  DEN d   1      -2.157   5.943   5.214  0.00  0.00     0.027 A 
ATOM      4  C4  DEN d   1      -1.847   5.976   2.654  0.00  0.00     0.027 A 
ATOM      5  C5  DEN d   1      -2.504   5.998   1.444  0.00  0.00    -0.003 A 
ATOM      6  C6  DEN d   1      -3.871   5.987   1.355  0.00  0.00     0.001 A 
ATOM      7  C7  DEN d   1      -4.625   6.000   2.498  0.00  0.00     0.017 A 
ATOM      8  C8  DEN d   1      -3.970   5.971   3.722  0.00  0.00    -0.094 A 
ATOM      9  C9  DEN d   1      -2.587   5.994   3.791  0.00  0.00    -0.072 A 
ENDROOT
TORSDOF 0
ENDMDL
