MODEL 1
REMARK minimizedAffinity 6.86554432
REMARK minimizedRMSD -1
REMARK  0 active torsions:
REMARK  status: ('A' for Active; 'I' for Inactive)
ROOT
ATOM      1  C1  DEN d   1      -2.027   5.938   4.615  0.00  0.00     0.130 A 
ATOM      2  C2  DEN d   1      -2.583   5.966   5.965  0.00  0.00    -0.031 A 
ATOM      3  C3  DEN d   1      -4.055   5.996   5.851  0.00  0.00     0.027 A 
ATOM      4  C4  DEN d   1      -5.519   5.995   3.728  0.00  0.00     0.027 A 
ATOM      5  C5  DEN d   1      -5.499   5.988   2.350  0.00  0.00    -0.003 A 
ATOM      6  C6  DEN d   1      -4.330   5.998   1.637  0.00  0.00     0.001 A 
ATOM      7  C7  DEN d   1      -3.131   5.970   2.299  0.00  0.00     0.017 A 
ATOM      8  C8  DEN d   1      -3.143   5.984   3.688  0.00  0.00    -0.094 A 
ATOM      9  C9  DEN d   1      -4.335   5.962   4.390  0.00  0.00    -0.072 A 
ENDROOT
TORSDOF 0
ENDMDL
