MODEL 1
REMARK minimizedAffinity 5.35809374
REMARK minimizedRMSD -1
REMARK  0 active torsions:
REMARK  status: ('A' for Active; 'I' for Inactive)
ROOT
ATOM      1  C1  DEN d   1      -5.159   6.000   4.907  0.00  0.00     0.130 A 
ATOM      2  C2  DEN d   1      -4.190   5.962   5.999  0.00  0.00    -0.031 A 
ATOM      3  C3  DEN d   1      -2.837   5.945   5.408  0.00  0.00     0.027 A 
ATOM      4  C4  DEN d   1      -2.151   5.979   2.922  0.00  0.00     0.027 A 
ATOM      5  C5  DEN d   1      -2.622   6.000   1.628  0.00  0.00    -0.003 A 
ATOM      6  C6  DEN d   1      -3.961   5.988   1.338  0.00  0.00     0.001 A 
ATOM      7  C7  DEN d   1      -4.876   6.000   2.357  0.00  0.00     0.017 A 
ATOM      8  C8  DEN d   1      -4.409   5.971   3.664  0.00  0.00    -0.094 A 
ATOM      9  C9  DEN d   1      -3.052   5.996   3.937  0.00  0.00    -0.072 A 
ENDROOT
TORSDOF 0
ENDMDL
