MODEL 1
REMARK minimizedAffinity 1.34081292
REMARK minimizedRMSD -1
REMARK  0 active torsions:
REMARK  status: ('A' for Active; 'I' for Inactive)
ROOT
ATOM      1  C1  DEN d   1      -1.879   5.972   4.569  0.00  0.00     0.130 A 
ATOM      2  C2  DEN d   1      -2.732   5.994   5.754  0.00  0.00    -0.031 A 
ATOM      3  C3  DEN d   1      -4.138   6.000   5.304  0.00  0.00     0.027 A 
ATOM      4  C4  DEN d   1      -5.072   5.972   2.900  0.00  0.00     0.027 A 
ATOM      5  C5  DEN d   1      -4.735   5.964   1.565  0.00  0.00    -0.003 A 
ATOM      6  C6  DEN d   1      -3.433   5.992   1.140  0.00  0.00     0.001 A 
ATOM      7  C7  DEN d   1      -2.419   5.984   2.061  0.00  0.00     0.017 A 
ATOM      8  C8  DEN d   1      -2.751   6.000   3.409  0.00  0.00    -0.094 A 
ATOM      9  C9  DEN d   1      -4.073   5.959   3.818  0.00  0.00    -0.072 A 
ENDROOT
TORSDOF 0
ENDMDL
