MODEL 1
REMARK minimizedAffinity 0.400169849
REMARK minimizedRMSD -1
REMARK  3 active torsions:
REMARK  status: ('A' for Active; 'I' for Inactive)
REMARK    1  A    between atoms: C3'_2  and  C2'_3 
REMARK    2  A    between atoms: C2'_3  and  C1'_4 
REMARK    3  A    between atoms: C1'_4  and  C1_5 
ROOT
ATOM      1  C1  N4B d   1      -5.556  -4.371  -3.254  0.00  0.00    -0.075 A 
ATOM      2  C2  N4B d   1      -5.845  -5.682  -3.691  0.00  0.00     0.002 A 
ATOM      3  C3  N4B d   1      -5.999  -5.941  -5.031  0.00  0.00     0.002 A 
ATOM      4  C4  N4B d   1      -5.886  -4.906  -5.947  0.00  0.00    -0.004 A 
ATOM      5  C5  N4B d   1      -5.581  -3.647  -5.519  0.00  0.00     0.002 A 
ATOM      6  C6  N4B d   1      -5.420  -3.373  -4.175  0.00  0.00     0.002 A 
ENDROOT
BRANCH   1   7
ATOM      7  C1' N4B d   1      -5.464  -4.023  -1.793  0.00  0.00     0.057 C 
BRANCH   7   8
ATOM      8  C2' N4B d   1      -4.077  -4.394  -1.276  0.00  0.00     0.009 C 
BRANCH   8   9
ATOM      9  C3' N4B d   1      -3.707  -5.827  -1.619  0.00  0.00     0.004 C 
ATOM     10  C4' N4B d   1      -2.245  -5.997  -1.902  0.00  0.00     0.003 C 
ENDBRANCH   8   9
ENDBRANCH   7   8
ENDBRANCH   1   7
TORSDOF 3
ENDMDL
