MODEL 1
REMARK minimizedAffinity 0.0730724931
REMARK minimizedRMSD -1
REMARK  3 active torsions:
REMARK  status: ('A' for Active; 'I' for Inactive)
REMARK    1  A    between atoms: C3'_2  and  C2'_3 
REMARK    2  A    between atoms: C2'_3  and  C1'_4 
REMARK    3  A    between atoms: C1'_4  and  C1_5 
ROOT
ATOM      1  C1  N4B d   1       1.096   2.886   0.332  0.00  0.00    -0.075 A 
ATOM      2  C2  N4B d   1       1.593   4.012  -0.359  0.00  0.00     0.002 A 
ATOM      3  C3  N4B d   1       0.810   4.644  -1.295  0.00  0.00     0.002 A 
ATOM      4  C4  N4B d   1      -0.459   4.157  -1.568  0.00  0.00    -0.004 A 
ATOM      5  C5  N4B d   1      -0.941   3.084  -0.877  0.00  0.00     0.002 A 
ATOM      6  C6  N4B d   1      -0.167   2.442   0.069  0.00  0.00     0.002 A 
ENDROOT
BRANCH   1   7
ATOM      7  C1' N4B d   1       1.946   2.111   1.302  0.00  0.00     0.057 C 
BRANCH   7   8
ATOM      8  C2' N4B d   1       2.349   0.784   0.665  0.00  0.00     0.009 C 
BRANCH   8   9
ATOM      9  C3' N4B d   1       3.348   0.976  -0.463  0.00  0.00     0.004 C 
ATOM     10  C4' N4B d   1       4.162  -0.254  -0.734  0.00  0.00     0.003 C 
ENDBRANCH   8   9
ENDBRANCH   7   8
ENDBRANCH   1   7
TORSDOF 3
ENDMDL
