MODEL 1
REMARK minimizedAffinity 7.24289703
REMARK minimizedRMSD -1
REMARK  3 active torsions:
REMARK  status: ('A' for Active; 'I' for Inactive)
REMARK    1  A    between atoms: C3'_2  and  C2'_3 
REMARK    2  A    between atoms: C2'_3  and  C1'_4 
REMARK    3  A    between atoms: C1'_4  and  C1_5 
ROOT
ATOM      1  C1  N4B d   1       3.787  -2.267  -3.175  0.00  0.00    -0.075 A 
ATOM      2  C2  N4B d   1       4.099  -3.634  -3.009  0.00  0.00     0.002 A 
ATOM      3  C3  N4B d   1       3.102  -4.538  -2.736  0.00  0.00     0.002 A 
ATOM      4  C4  N4B d   1       1.793  -4.097  -2.607  0.00  0.00    -0.004 A 
ATOM      5  C5  N4B d   1       1.497  -2.779  -2.794  0.00  0.00     0.002 A 
ATOM      6  C6  N4B d   1       2.489  -1.860  -3.072  0.00  0.00     0.002 A 
ENDROOT
BRANCH   1   7
ATOM      7  C1' N4B d   1       4.855  -1.229  -3.389  0.00  0.00     0.057 C 
BRANCH   7   8
ATOM      8  C2' N4B d   1       4.784  -0.728  -4.828  0.00  0.00     0.009 C 
BRANCH   8   9
ATOM      9  C3' N4B d   1       5.998  -1.151  -5.638  0.00  0.00     0.004 C 
ATOM     10  C4' N4B d   1       5.998  -2.616  -5.960  0.00  0.00     0.003 C 
ENDBRANCH   8   9
ENDBRANCH   7   8
ENDBRANCH   1   7
TORSDOF 3
ENDMDL
