MODEL 1
REMARK minimizedAffinity 4.50862169
REMARK minimizedRMSD -1
REMARK  3 active torsions:
REMARK  status: ('A' for Active; 'I' for Inactive)
REMARK    1  A    between atoms: C3'_2  and  C2'_3 
REMARK    2  A    between atoms: C2'_3  and  C1'_4 
REMARK    3  A    between atoms: C1'_4  and  C1_5 
ROOT
ATOM      1  C1  N4B d   1       5.414  -0.831  -3.721  0.00  0.00    -0.075 A 
ATOM      2  C2  N4B d   1       5.998  -0.601  -4.986  0.00  0.00     0.002 A 
ATOM      3  C3  N4B d   1       5.731   0.563  -5.665  0.00  0.00     0.002 A 
ATOM      4  C4  N4B d   1       4.872   1.499  -5.109  0.00  0.00    -0.004 A 
ATOM      5  C5  N4B d   1       4.332   1.280  -3.875  0.00  0.00     0.002 A 
ATOM      6  C6  N4B d   1       4.595   0.117  -3.180  0.00  0.00     0.002 A 
ENDROOT
BRANCH   1   7
ATOM      7  C1' N4B d   1       5.609  -2.126  -2.980  0.00  0.00     0.057 C 
BRANCH   7   8
ATOM      8  C2' N4B d   1       5.999  -3.217  -3.973  0.00  0.00     0.009 C 
BRANCH   8   9
ATOM      9  C3' N4B d   1       5.947  -4.600  -3.346  0.00  0.00     0.004 C 
ATOM     10  C4' N4B d   1       5.992  -5.701  -4.364  0.00  0.00     0.003 C 
ENDBRANCH   8   9
ENDBRANCH   7   8
ENDBRANCH   1   7
TORSDOF 3
ENDMDL
