MODEL 1
REMARK minimizedAffinity -2.70606828
REMARK minimizedRMSD -1
REMARK  0 active torsions:
REMARK  status: ('A' for Active; 'I' for Inactive)
ROOT
ATOM      1  C1  BNZ d   1      -0.005  -0.367   3.365  0.00  0.00     0.000 A 
ATOM      2  C2  BNZ d   1       1.085  -0.743   2.627  0.00  0.00     0.000 A 
ATOM      3  C3  BNZ d   1       1.102  -0.577   1.270  0.00  0.00     0.000 A 
ATOM      4  C4  BNZ d   1       0.016  -0.073   0.650  0.00  0.00     0.000 A 
ATOM      5  C5  BNZ d   1      -1.094   0.302   1.379  0.00  0.00     0.000 A 
ATOM      6  C6  BNZ d   1      -1.093   0.170   2.749  0.00  0.00     0.000 A 
ENDROOT
TORSDOF 0
ENDMDL
