MODEL 1
REMARK minimizedAffinity -2.11050439
REMARK minimizedRMSD -1
REMARK  0 active torsions:
REMARK  status: ('A' for Active; 'I' for Inactive)
ROOT
ATOM      1  C1  BNZ d   1       0.071  -0.471   0.318  0.00  0.00     0.000 A 
ATOM      2  C2  BNZ d   1      -0.015   0.300   1.447  0.00  0.00     0.000 A 
ATOM      3  C3  BNZ d   1      -1.230   0.666   1.954  0.00  0.00     0.000 A 
ATOM      4  C4  BNZ d   1      -2.356   0.296   1.310  0.00  0.00     0.000 A 
ATOM      5  C5  BNZ d   1      -2.285  -0.473   0.165  0.00  0.00     0.000 A 
ATOM      6  C6  BNZ d   1      -1.061  -0.873  -0.320  0.00  0.00     0.000 A 
ENDROOT
TORSDOF 0
ENDMDL
