MODEL 1
REMARK minimizedAffinity -1.5077076
REMARK minimizedRMSD -1
REMARK  0 active torsions:
REMARK  status: ('A' for Active; 'I' for Inactive)
ROOT
ATOM      1  C1  BNZ d   1       1.337  -1.079   2.447  0.00  0.00     0.000 A 
ATOM      2  C2  BNZ d   1       0.946  -1.426   3.713  0.00  0.00     0.000 A 
ATOM      3  C3  BNZ d   1      -0.369  -1.362   4.083  0.00  0.00     0.000 A 
ATOM      4  C4  BNZ d   1      -1.284  -0.914   3.199  0.00  0.00     0.000 A 
ATOM      5  C5  BNZ d   1      -0.905  -0.552   1.922  0.00  0.00     0.000 A 
ATOM      6  C6  BNZ d   1       0.414  -0.655   1.542  0.00  0.00     0.000 A 
ENDROOT
TORSDOF 0
ENDMDL
