MODEL 1
REMARK minimizedAffinity 3.66308045
REMARK minimizedRMSD -1
REMARK  0 active torsions:
REMARK  status: ('A' for Active; 'I' for Inactive)
ROOT
ATOM      1  C1  BNZ d   1      -3.009  -1.482   0.200  0.00  0.00     0.000 A 
ATOM      2  C2  BNZ d   1      -3.464  -2.163   1.298  0.00  0.00     0.000 A 
ATOM      3  C3  BNZ d   1      -3.350  -1.628   2.550  0.00  0.00     0.000 A 
ATOM      4  C4  BNZ d   1      -2.746  -0.433   2.708  0.00  0.00     0.000 A 
ATOM      5  C5  BNZ d   1      -2.274   0.262   1.612  0.00  0.00     0.000 A 
ATOM      6  C6  BNZ d   1      -2.426  -0.262   0.349  0.00  0.00     0.000 A 
ENDROOT
TORSDOF 0
ENDMDL
