MODEL 1
REMARK minimizedAffinity -0.0716542751
REMARK minimizedRMSD -1
REMARK  0 active torsions:
REMARK  status: ('A' for Active; 'I' for Inactive)
ROOT
ATOM      1  C1  BNZ d   1      -2.832  -1.395   3.540  0.00  0.00     0.000 A 
ATOM      2  C2  BNZ d   1      -2.266  -2.291   4.408  0.00  0.00     0.000 A 
ATOM      3  C3  BNZ d   1      -0.953  -2.181   4.770  0.00  0.00     0.000 A 
ATOM      4  C4  BNZ d   1      -0.197  -1.201   4.233  0.00  0.00     0.000 A 
ATOM      5  C5  BNZ d   1      -0.750  -0.297   3.349  0.00  0.00     0.000 A 
ATOM      6  C6  BNZ d   1      -2.082  -0.387   3.017  0.00  0.00     0.000 A 
ENDROOT
TORSDOF 0
ENDMDL
