MODEL 1
REMARK minimizedAffinity 3.35050654
REMARK minimizedRMSD -1
REMARK  0 active torsions:
REMARK  status: ('A' for Active; 'I' for Inactive)
ROOT
ATOM      1  C1  BNZ d   1      -2.384  -0.004   1.752  0.00  0.00     0.000 A 
ATOM      2  C2  BNZ d   1      -2.551  -0.353   0.438  0.00  0.00     0.000 A 
ATOM      3  C3  BNZ d   1      -1.480  -0.711  -0.332  0.00  0.00     0.000 A 
ATOM      4  C4  BNZ d   1      -0.241  -0.681   0.200  0.00  0.00     0.000 A 
ATOM      5  C5  BNZ d   1      -0.056  -0.321   1.520  0.00  0.00     0.000 A 
ATOM      6  C6  BNZ d   1      -1.140   0.001   2.303  0.00  0.00     0.000 A 
ENDROOT
TORSDOF 0
ENDMDL
