MODEL 1
REMARK minimizedAffinity -1.59629452
REMARK minimizedRMSD -1
REMARK  0 active torsions:
REMARK  status: ('A' for Active; 'I' for Inactive)
ROOT
ATOM      1  C1  BNZ d   1      -1.336  -0.285   0.968  0.00  0.00     0.000 A 
ATOM      2  C2  BNZ d   1      -1.475  -0.697  -0.331  0.00  0.00     0.000 A 
ATOM      3  C3  BNZ d   1      -2.542  -0.292  -1.083  0.00  0.00     0.000 A 
ATOM      4  C4  BNZ d   1      -3.488   0.490  -0.525  0.00  0.00     0.000 A 
ATOM      5  C5  BNZ d   1      -3.367   0.906   0.786  0.00  0.00     0.000 A 
ATOM      6  C6  BNZ d   1      -2.272   0.528   1.529  0.00  0.00     0.000 A 
ENDROOT
TORSDOF 0
ENDMDL
