MODEL 1
REMARK minimizedAffinity 0.9350999
REMARK minimizedRMSD -1
REMARK  0 active torsions:
REMARK  status: ('A' for Active; 'I' for Inactive)
ROOT
ATOM      1  C   UNL d   1       0.024  -1.150  -1.031  0.00  0.00     0.124 A 
ATOM      2  C1  UNL d   1       1.153  -0.805  -0.300  0.00  0.00     0.062 A 
ATOM      3  C2  UNL d   1       1.035  -0.008   0.835  0.00  0.00     0.162 A 
ATOM      4  C3  UNL d   1      -0.217   0.450   1.247  0.00  0.00    -0.034 A 
ATOM      5  C4  UNL d   1      -1.347   0.099   0.506  0.00  0.00     0.162 A 
ATOM      6  C5  UNL d   1      -1.224  -0.698  -0.627  0.00  0.00     0.062 A 
ATOM      7  F   UNL d   1      -2.316  -1.030  -1.332  0.00  0.00    -0.097 F 
ATOM      8  F1  UNL d   1      -2.566   0.522   0.875  0.00  0.00    -0.096 F 
ATOM      9  I   UNL d   1      -0.396   1.642   2.943  0.00  0.00    -0.060 I 
ATOM     10  F2  UNL d   1       2.143   0.310   1.521  0.00  0.00    -0.096 F 
ATOM     11  F3  UNL d   1       2.360  -1.240  -0.689  0.00  0.00    -0.097 F 
ATOM     12  F4  UNL d   1       0.140  -1.916  -2.123  0.00  0.00    -0.092 F 
ENDROOT
TORSDOF 0
ENDMDL
