MODEL 1
REMARK minimizedAffinity 2.50942016
REMARK minimizedRMSD -1
REMARK  0 active torsions:
REMARK  status: ('A' for Active; 'I' for Inactive)
ROOT
ATOM      1  C   UNL d   1       0.014   1.009   1.972  0.00  0.00     0.124 A 
ATOM      2  C1  UNL d   1       1.142   0.425   1.413  0.00  0.00     0.062 A 
ATOM      3  C2  UNL d   1       1.085  -0.127   0.136  0.00  0.00     0.162 A 
ATOM      4  C3  UNL d   1      -0.105  -0.097  -0.591  0.00  0.00    -0.034 A 
ATOM      5  C4  UNL d   1      -1.236   0.491  -0.021  0.00  0.00     0.162 A 
ATOM      6  C5  UNL d   1      -1.173   1.041   1.255  0.00  0.00     0.062 A 
ATOM      7  F   UNL d   1      -2.265   1.605   1.793  0.00  0.00    -0.097 F 
ATOM      8  F1  UNL d   1      -2.396   0.537  -0.693  0.00  0.00    -0.096 F 
ATOM      9  I   UNL d   1      -0.194  -0.921  -2.500  0.00  0.00    -0.060 I 
ATOM     10  F2  UNL d   1       2.191  -0.684  -0.380  0.00  0.00    -0.096 F 
ATOM     11  F3  UNL d   1       2.291   0.392   2.104  0.00  0.00    -0.097 F 
ATOM     12  F4  UNL d   1       0.072   1.538   3.201  0.00  0.00    -0.092 F 
ENDROOT
TORSDOF 0
ENDMDL
