MODEL 1
REMARK minimizedAffinity -1.01644897
REMARK minimizedRMSD -1
REMARK  0 active torsions:
REMARK  status: ('A' for Active; 'I' for Inactive)
ROOT
ATOM      1  C   UNL d   1      -0.538   0.737   1.459  0.00  0.00     0.124 A 
ATOM      2  C1  UNL d   1       0.529  -0.023   1.000  0.00  0.00     0.062 A 
ATOM      3  C2  UNL d   1       0.883   0.008  -0.346  0.00  0.00     0.162 A 
ATOM      4  C3  UNL d   1       0.169   0.802  -1.243  0.00  0.00    -0.034 A 
ATOM      5  C4  UNL d   1      -0.904   1.563  -0.775  0.00  0.00     0.162 A 
ATOM      6  C5  UNL d   1      -1.253   1.529   0.572  0.00  0.00     0.062 A 
ATOM      7  F   UNL d   1      -2.285   2.263   1.013  0.00  0.00    -0.097 F 
ATOM      8  F1  UNL d   1      -1.612   2.337  -1.610  0.00  0.00    -0.096 F 
ATOM      9  I   UNL d   1       0.694   0.851  -3.257  0.00  0.00    -0.060 I 
ATOM     10  F2  UNL d   1       1.918  -0.736  -0.761  0.00  0.00    -0.096 F 
ATOM     11  F3  UNL d   1       1.221  -0.789   1.855  0.00  0.00    -0.097 F 
ATOM     12  F4  UNL d   1      -0.877   0.705   2.754  0.00  0.00    -0.092 F 
ENDROOT
TORSDOF 0
ENDMDL
