MODEL 1
REMARK minimizedAffinity -4.39006805
REMARK minimizedRMSD -1
REMARK  0 active torsions:
REMARK  status: ('A' for Active; 'I' for Inactive)
ROOT
ATOM      1  C   UNL d   1      -0.668   0.811   2.342  0.00  0.00     0.124 A 
ATOM      2  C1  UNL d   1      -1.778   0.910   1.515  0.00  0.00     0.062 A 
ATOM      3  C2  UNL d   1      -1.700   0.499   0.187  0.00  0.00     0.162 A 
ATOM      4  C3  UNL d   1      -0.508  -0.015  -0.322  0.00  0.00    -0.034 A 
ATOM      5  C4  UNL d   1       0.605  -0.110   0.516  0.00  0.00     0.162 A 
ATOM      6  C5  UNL d   1       0.522   0.301   1.842  0.00  0.00     0.062 A 
ATOM      7  F   UNL d   1       1.595   0.205   2.640  0.00  0.00    -0.097 F 
ATOM      8  F1  UNL d   1       1.767  -0.600   0.060  0.00  0.00    -0.096 F 
ATOM      9  I   UNL d   1      -0.387  -0.630  -2.306  0.00  0.00    -0.060 I 
ATOM     10  F2  UNL d   1      -2.789   0.606  -0.589  0.00  0.00    -0.096 F 
ATOM     11  F3  UNL d   1      -2.929   1.403   1.995  0.00  0.00    -0.097 F 
ATOM     12  F4  UNL d   1      -0.745   1.208   3.619  0.00  0.00    -0.092 F 
ENDROOT
TORSDOF 0
ENDMDL
