MODEL 1
REMARK minimizedAffinity 20.0076103
REMARK minimizedRMSD -1
REMARK  0 active torsions:
REMARK  status: ('A' for Active; 'I' for Inactive)
ROOT
ATOM      1  C   UNL d   1       1.153   2.460   0.445  0.00  0.00     0.124 A 
ATOM      2  C1  UNL d   1       0.055   2.383  -0.401  0.00  0.00     0.062 A 
ATOM      3  C2  UNL d   1      -0.025   3.204  -1.522  0.00  0.00     0.162 A 
ATOM      4  C3  UNL d   1       0.998   4.109  -1.805  0.00  0.00    -0.034 A 
ATOM      5  C4  UNL d   1       2.099   4.182  -0.950  0.00  0.00     0.162 A 
ATOM      6  C5  UNL d   1       2.174   3.359   0.169  0.00  0.00     0.062 A 
ATOM      7  F   UNL d   1       3.236   3.436   0.984  0.00  0.00    -0.097 F 
ATOM      8  F1  UNL d   1       3.100   5.041  -1.193  0.00  0.00    -0.096 F 
ATOM      9  I   UNL d   1       0.882   5.338  -3.481  0.00  0.00    -0.060 I 
ATOM     10  F2  UNL d   1      -1.098   3.107  -2.321  0.00  0.00    -0.096 F 
ATOM     11  F3  UNL d   1      -0.933   1.515  -0.136  0.00  0.00    -0.097 F 
ATOM     12  F4  UNL d   1       1.227   1.670   1.523  0.00  0.00    -0.092 F 
ENDROOT
TORSDOF 0
ENDMDL
