MODEL 1
REMARK minimizedAffinity 4.58122253
REMARK minimizedRMSD -1
REMARK  0 active torsions:
REMARK  status: ('A' for Active; 'I' for Inactive)
ROOT
ATOM      1  C   UNL d   1       0.297   1.250   0.302  0.00  0.00     0.124 A 
ATOM      2  C1  UNL d   1       0.101   1.964  -0.872  0.00  0.00     0.062 A 
ATOM      3  C2  UNL d   1       0.409   3.320  -0.926  0.00  0.00     0.162 A 
ATOM      4  C3  UNL d   1       0.918   3.972   0.198  0.00  0.00    -0.034 A 
ATOM      5  C4  UNL d   1       1.111   3.248   1.375  0.00  0.00     0.162 A 
ATOM      6  C5  UNL d   1       0.802   1.892   1.424  0.00  0.00     0.062 A 
ATOM      7  F   UNL d   1       0.992   1.204   2.560  0.00  0.00    -0.097 F 
ATOM      8  F1  UNL d   1       1.598   3.843   2.474  0.00  0.00    -0.096 F 
ATOM      9  I   UNL d   1       1.379   6.000   0.121  0.00  0.00    -0.060 I 
ATOM     10  F2  UNL d   1       0.210   3.985  -2.074  0.00  0.00    -0.096 F 
ATOM     11  F3  UNL d   1      -0.387   1.346  -1.957  0.00  0.00    -0.097 F 
ATOM     12  F4  UNL d   1      -0.001  -0.055   0.352  0.00  0.00    -0.092 F 
ENDROOT
TORSDOF 0
ENDMDL
