MODEL 1
REMARK minimizedAffinity 13.372283
REMARK minimizedRMSD -1
REMARK  0 active torsions:
REMARK  status: ('A' for Active; 'I' for Inactive)
ROOT
ATOM      1  C   UNL d   1       0.038   2.304   1.295  0.00  0.00     0.124 A 
ATOM      2  C1  UNL d   1       0.272   3.172   0.237  0.00  0.00     0.062 A 
ATOM      3  C2  UNL d   1      -0.216   2.877  -1.032  0.00  0.00     0.162 A 
ATOM      4  C3  UNL d   1      -0.945   1.707  -1.251  0.00  0.00    -0.034 A 
ATOM      5  C4  UNL d   1      -1.175   0.838  -0.183  0.00  0.00     0.162 A 
ATOM      6  C5  UNL d   1      -0.684   1.138   1.084  0.00  0.00     0.062 A 
ATOM      7  F   UNL d   1      -0.911   0.298   2.104  0.00  0.00    -0.097 F 
ATOM      8  F1  UNL d   1      -1.871  -0.295  -0.359  0.00  0.00    -0.096 F 
ATOM      9  I   UNL d   1      -1.676   1.262  -3.148  0.00  0.00    -0.060 I 
ATOM     10  F2  UNL d   1       0.024   3.734  -2.035  0.00  0.00    -0.096 F 
ATOM     11  F3  UNL d   1       0.971   4.299   0.438  0.00  0.00    -0.097 F 
ATOM     12  F4  UNL d   1       0.510   2.591   2.515  0.00  0.00    -0.092 F 
ENDROOT
TORSDOF 0
ENDMDL
