MODEL 1
REMARK minimizedAffinity 15.6604385
REMARK minimizedRMSD -1
REMARK  0 active torsions:
REMARK  status: ('A' for Active; 'I' for Inactive)
ROOT
ATOM      1  C   UNL d   1       1.718  -4.691  -0.433  0.00  0.00     0.124 A 
ATOM      2  C1  UNL d   1       3.000  -4.185  -0.263  0.00  0.00     0.062 A 
ATOM      3  C2  UNL d   1       3.928  -4.268  -1.297  0.00  0.00     0.162 A 
ATOM      4  C3  UNL d   1       3.578  -4.858  -2.511  0.00  0.00    -0.034 A 
ATOM      5  C4  UNL d   1       2.287  -5.365  -2.675  0.00  0.00     0.162 A 
ATOM      6  C5  UNL d   1       1.363  -5.280  -1.638  0.00  0.00     0.062 A 
ATOM      7  F   UNL d   1       0.126  -5.769  -1.805  0.00  0.00    -0.097 F 
ATOM      8  F1  UNL d   1       1.918  -5.939  -3.829  0.00  0.00    -0.096 F 
ATOM      9  I   UNL d   1       4.963  -4.984  -4.059  0.00  0.00    -0.060 I 
ATOM     10  F2  UNL d   1       5.159  -3.771  -1.104  0.00  0.00    -0.096 F 
ATOM     11  F3  UNL d   1       3.345  -3.616   0.901  0.00  0.00    -0.097 F 
ATOM     12  F4  UNL d   1       0.827  -4.611   0.563  0.00  0.00    -0.092 F 
ENDROOT
TORSDOF 0
ENDMDL
