MODEL 1
REMARK minimizedAffinity 10.7384415
REMARK minimizedRMSD -1
REMARK  0 active torsions:
REMARK  status: ('A' for Active; 'I' for Inactive)
ROOT
ATOM      1  C   UNL d   1       0.345   1.637   2.907  0.00  0.00     0.124 A 
ATOM      2  C1  UNL d   1      -0.718   1.680   2.016  0.00  0.00     0.062 A 
ATOM      3  C2  UNL d   1      -0.626   2.440   0.853  0.00  0.00     0.162 A 
ATOM      4  C3  UNL d   1       0.534   3.162   0.575  0.00  0.00    -0.034 A 
ATOM      5  C4  UNL d   1       1.599   3.114   1.477  0.00  0.00     0.162 A 
ATOM      6  C5  UNL d   1       1.502   2.353   2.637  0.00  0.00     0.062 A 
ATOM      7  F   UNL d   1       2.530   2.313   3.498  0.00  0.00    -0.097 F 
ATOM      8  F1  UNL d   1       2.729   3.797   1.240  0.00  0.00    -0.096 F 
ATOM      9  I   UNL d   1       0.676   4.299  -1.162  0.00  0.00    -0.060 I 
ATOM     10  F2  UNL d   1      -1.668   2.463   0.010  0.00  0.00    -0.096 F 
ATOM     11  F3  UNL d   1      -1.837   0.989   2.275  0.00  0.00    -0.097 F 
ATOM     12  F4  UNL d   1       0.253   0.905   4.026  0.00  0.00    -0.092 F 
ENDROOT
TORSDOF 0
ENDMDL
