MODEL 1
REMARK minimizedAffinity -5.28058434
REMARK minimizedRMSD -1
REMARK  0 active torsions:
REMARK  status: ('A' for Active; 'I' for Inactive)
ROOT
ATOM      1  C1  BNZ d   1       2.362   0.174  -0.580  0.00  0.00     0.000 A 
ATOM      2  C2  BNZ d   1       2.667  -1.068  -1.071  0.00  0.00     0.000 A 
ATOM      3  C3  BNZ d   1       1.719  -2.050  -1.131  0.00  0.00     0.000 A 
ATOM      4  C4  BNZ d   1       0.478  -1.803  -0.663  0.00  0.00     0.000 A 
ATOM      5  C5  BNZ d   1       0.157  -0.559  -0.156  0.00  0.00     0.000 A 
ATOM      6  C6  BNZ d   1       1.104   0.439  -0.134  0.00  0.00     0.000 A 
ENDROOT
TORSDOF 0
ENDMDL
