MODEL 1
REMARK minimizedAffinity -3.82522273
REMARK minimizedRMSD -1
REMARK  0 active torsions:
REMARK  status: ('A' for Active; 'I' for Inactive)
ROOT
ATOM      1  C1  BNZ d   1       1.444   0.885  -0.744  0.00  0.00     0.000 A 
ATOM      2  C2  BNZ d   1       2.612   0.530  -1.365  0.00  0.00     0.000 A 
ATOM      3  C3  BNZ d   1       2.976  -0.783  -1.474  0.00  0.00     0.000 A 
ATOM      4  C4  BNZ d   1       2.193  -1.735  -0.928  0.00  0.00     0.000 A 
ATOM      5  C5  BNZ d   1       1.017  -1.393  -0.291  0.00  0.00     0.000 A 
ATOM      6  C6  BNZ d   1       0.635  -0.073  -0.217  0.00  0.00     0.000 A 
ENDROOT
TORSDOF 0
ENDMDL
