MODEL 1
REMARK minimizedAffinity -4.50290108
REMARK minimizedRMSD -1
REMARK  0 active torsions:
REMARK  status: ('A' for Active; 'I' for Inactive)
ROOT
ATOM      1  C1  BNZ d   1       1.841   0.387  -1.030  0.00  0.00     0.000 A 
ATOM      2  C2  BNZ d   1       0.741   0.472  -0.219  0.00  0.00     0.000 A 
ATOM      3  C3  BNZ d   1       0.049  -0.650   0.142  0.00  0.00     0.000 A 
ATOM      4  C4  BNZ d   1       0.433  -1.850  -0.341  0.00  0.00     0.000 A 
ATOM      5  C5  BNZ d   1       1.535  -1.951  -1.167  0.00  0.00     0.000 A 
ATOM      6  C6  BNZ d   1       2.252  -0.823  -1.496  0.00  0.00     0.000 A 
ENDROOT
TORSDOF 0
ENDMDL
