MODEL 1
REMARK minimizedAffinity -3.28245306
REMARK minimizedRMSD -1
REMARK  0 active torsions:
REMARK  status: ('A' for Active; 'I' for Inactive)
ROOT
ATOM      1  C1  BNZ d   1      -0.095   1.524  -1.242  0.00  0.00     0.000 A 
ATOM      2  C2  BNZ d   1       1.094   0.852  -1.145  0.00  0.00     0.000 A 
ATOM      3  C3  BNZ d   1       1.288  -0.092  -0.176  0.00  0.00     0.000 A 
ATOM      4  C4  BNZ d   1       0.309  -0.334   0.719  0.00  0.00     0.000 A 
ATOM      5  C5  BNZ d   1      -0.892   0.342   0.641  0.00  0.00     0.000 A 
ATOM      6  C6  BNZ d   1      -1.098   1.264  -0.360  0.00  0.00     0.000 A 
ENDROOT
TORSDOF 0
ENDMDL
