MODEL 1
REMARK minimizedAffinity -4.31225777
REMARK minimizedRMSD -1
REMARK  0 active torsions:
REMARK  status: ('A' for Active; 'I' for Inactive)
ROOT
ATOM      1  C1  BNZ d   1       0.271  -1.629  -0.278  0.00  0.00     0.000 A 
ATOM      2  C2  BNZ d   1      -0.590  -0.603   0.007  0.00  0.00     0.000 A 
ATOM      3  C3  BNZ d   1      -0.203   0.699  -0.144  0.00  0.00     0.000 A 
ATOM      4  C4  BNZ d   1       1.056   0.974  -0.541  0.00  0.00     0.000 A 
ATOM      5  C5  BNZ d   1       1.939  -0.049  -0.824  0.00  0.00     0.000 A 
ATOM      6  C6  BNZ d   1       1.534  -1.359  -0.708  0.00  0.00     0.000 A 
ENDROOT
TORSDOF 0
ENDMDL
