MODEL 1
REMARK minimizedAffinity -5.34460211
REMARK minimizedRMSD -1
REMARK  0 active torsions:
REMARK  status: ('A' for Active; 'I' for Inactive)
ROOT
ATOM      1  C1  BNZ d   1       1.821   0.320  -0.961  0.00  0.00     0.000 A 
ATOM      2  C2  BNZ d   1       0.654   0.152  -0.264  0.00  0.00     0.000 A 
ATOM      3  C3  BNZ d   1       0.105  -1.090  -0.106  0.00  0.00     0.000 A 
ATOM      4  C4  BNZ d   1       0.702  -2.156  -0.678  0.00  0.00     0.000 A 
ATOM      5  C5  BNZ d   1       1.874  -2.002  -1.391  0.00  0.00     0.000 A 
ATOM      6  C6  BNZ d   1       2.444  -0.756  -1.515  0.00  0.00     0.000 A 
ENDROOT
TORSDOF 0
ENDMDL
