MODEL 1
REMARK minimizedAffinity -3.99896765
REMARK minimizedRMSD -1
REMARK  0 active torsions:
REMARK  status: ('A' for Active; 'I' for Inactive)
ROOT
ATOM      1  C1  BNZ d   1       0.226  -1.723  -0.406  0.00  0.00     0.000 A 
ATOM      2  C2  BNZ d   1      -0.675  -0.875   0.181  0.00  0.00     0.000 A 
ATOM      3  C3  BNZ d   1      -0.378   0.448   0.358  0.00  0.00     0.000 A 
ATOM      4  C4  BNZ d   1       0.832   0.911  -0.014  0.00  0.00     0.000 A 
ATOM      5  C5  BNZ d   1       1.755   0.066  -0.599  0.00  0.00     0.000 A 
ATOM      6  C6  BNZ d   1       1.438  -1.256  -0.811  0.00  0.00     0.000 A 
ENDROOT
TORSDOF 0
ENDMDL
