MODEL 1
REMARK minimizedAffinity -3.92607784
REMARK minimizedRMSD -1
REMARK  0 active torsions:
REMARK  status: ('A' for Active; 'I' for Inactive)
ROOT
ATOM      1  C1  BNZ d   1      -3.927  -0.631   3.004  0.00  0.00     0.000 A 
ATOM      2  C2  BNZ d   1      -3.709  -0.813   1.665  0.00  0.00     0.000 A 
ATOM      3  C3  BNZ d   1      -2.550  -0.387   1.080  0.00  0.00     0.000 A 
ATOM      4  C4  BNZ d   1      -1.628   0.256   1.825  0.00  0.00     0.000 A 
ATOM      5  C5  BNZ d   1      -1.837   0.455   3.176  0.00  0.00     0.000 A 
ATOM      6  C6  BNZ d   1      -2.988  -0.010   3.769  0.00  0.00     0.000 A 
ENDROOT
TORSDOF 0
ENDMDL
