MODEL 1
REMARK minimizedAffinity -0.479149908
REMARK minimizedRMSD -1
REMARK  0 active torsions:
REMARK  status: ('A' for Active; 'I' for Inactive)
ROOT
ATOM      1  C1  BNZ d   1       0.041   1.010  -0.851  0.00  0.00     0.000 A 
ATOM      2  C2  BNZ d   1      -0.026   0.734   0.488  0.00  0.00     0.000 A 
ATOM      3  C3  BNZ d   1       0.676  -0.309   1.025  0.00  0.00     0.000 A 
ATOM      4  C4  BNZ d   1       1.412  -1.098   0.216  0.00  0.00     0.000 A 
ATOM      5  C5  BNZ d   1       1.482  -0.839  -1.138  0.00  0.00     0.000 A 
ATOM      6  C6  BNZ d   1       0.805   0.235  -1.669  0.00  0.00     0.000 A 
ENDROOT
TORSDOF 0
ENDMDL
