MODEL 1
REMARK minimizedAffinity -4.3445015
REMARK minimizedRMSD -1
REMARK  0 active torsions:
REMARK  status: ('A' for Active; 'I' for Inactive)
ROOT
ATOM      1  C1  BNZ d   1       1.193   0.936  -0.721  0.00  0.00     0.000 A 
ATOM      2  C2  BNZ d   1       2.144  -0.007  -1.005  0.00  0.00     0.000 A 
ATOM      3  C3  BNZ d   1       1.869  -1.340  -0.874  0.00  0.00     0.000 A 
ATOM      4  C4  BNZ d   1       0.659  -1.726  -0.422  0.00  0.00     0.000 A 
ATOM      5  C5  BNZ d   1      -0.308  -0.786  -0.122  0.00  0.00     0.000 A 
ATOM      6  C6  BNZ d   1      -0.040   0.553  -0.292  0.00  0.00     0.000 A 
ENDROOT
TORSDOF 0
ENDMDL
