MODEL 1
REMARK minimizedAffinity -5.14367247
REMARK minimizedRMSD -1
REMARK  0 active torsions:
REMARK  status: ('A' for Active; 'I' for Inactive)
ROOT
ATOM      1  C1  BNZ d   1       2.667  -0.752  -1.711  0.00  0.00     0.000 A 
ATOM      2  C2  BNZ d   1       2.617   0.283  -0.816  0.00  0.00     0.000 A 
ATOM      3  C3  BNZ d   1       1.579   0.397   0.065  0.00  0.00     0.000 A 
ATOM      4  C4  BNZ d   1       0.572  -0.500   0.023  0.00  0.00     0.000 A 
ATOM      5  C5  BNZ d   1       0.603  -1.543  -0.880  0.00  0.00     0.000 A 
ATOM      6  C6  BNZ d   1       1.670  -1.677  -1.739  0.00  0.00     0.000 A 
ENDROOT
TORSDOF 0
ENDMDL
