MODEL 1
REMARK minimizedAffinity -3.96122408
REMARK minimizedRMSD -1
REMARK  0 active torsions:
REMARK  status: ('A' for Active; 'I' for Inactive)
ROOT
ATOM      1  C1  BNZ d   1      -0.080  -1.390  -0.423  0.00  0.00     0.000 A 
ATOM      2  C2  BNZ d   1       1.198  -1.736  -0.772  0.00  0.00     0.000 A 
ATOM      3  C3  BNZ d   1       2.172  -0.785  -0.899  0.00  0.00     0.000 A 
ATOM      4  C4  BNZ d   1       1.857   0.513  -0.716  0.00  0.00     0.000 A 
ATOM      5  C5  BNZ d   1       0.571   0.880  -0.373  0.00  0.00     0.000 A 
ATOM      6  C6  BNZ d   1      -0.397  -0.084  -0.208  0.00  0.00     0.000 A 
ENDROOT
TORSDOF 0
ENDMDL
