MODEL 1
REMARK minimizedAffinity -4.65406275
REMARK minimizedRMSD -1
REMARK  0 active torsions:
REMARK  status: ('A' for Active; 'I' for Inactive)
ROOT
ATOM      1  C1  BNZ d   1       1.415   0.138  -1.557  0.00  0.00     0.000 A 
ATOM      2  C2  BNZ d   1       0.480   0.040  -0.562  0.00  0.00     0.000 A 
ATOM      3  C3  BNZ d   1       0.337  -1.116   0.153  0.00  0.00     0.000 A 
ATOM      4  C4  BNZ d   1       1.102  -2.184  -0.155  0.00  0.00     0.000 A 
ATOM      5  C5  BNZ d   1       2.043  -2.104  -1.162  0.00  0.00     0.000 A 
ATOM      6  C6  BNZ d   1       2.210  -0.926  -1.853  0.00  0.00     0.000 A 
ENDROOT
TORSDOF 0
ENDMDL
