MODEL 1
REMARK minimizedAffinity -4.51303339
REMARK minimizedRMSD -1
REMARK  0 active torsions:
REMARK  status: ('A' for Active; 'I' for Inactive)
ROOT
ATOM      1  C1  BNZ d   1       1.449  -0.050  -1.114  0.00  0.00     0.000 A 
ATOM      2  C2  BNZ d   1       0.457   0.865  -0.882  0.00  0.00     0.000 A 
ATOM      3  C3  BNZ d   1      -0.767   0.468  -0.421  0.00  0.00     0.000 A 
ATOM      4  C4  BNZ d   1      -1.010  -0.845  -0.230  0.00  0.00     0.000 A 
ATOM      5  C5  BNZ d   1      -0.022  -1.780  -0.468  0.00  0.00     0.000 A 
ATOM      6  C6  BNZ d   1       1.221  -1.373  -0.895  0.00  0.00     0.000 A 
ENDROOT
TORSDOF 0
ENDMDL
