MODEL 1
REMARK minimizedAffinity -4.39689302
REMARK minimizedRMSD -1
REMARK  0 active torsions:
REMARK  status: ('A' for Active; 'I' for Inactive)
ROOT
ATOM      1  C1  BNZ d   1      -0.970  -0.361  -0.436  0.00  0.00     0.000 A 
ATOM      2  C2  BNZ d   1      -1.609   0.738  -0.946  0.00  0.00     0.000 A 
ATOM      3  C3  BNZ d   1      -0.899   1.819  -1.388  0.00  0.00     0.000 A 
ATOM      4  C4  BNZ d   1       0.446   1.817  -1.282  0.00  0.00     0.000 A 
ATOM      5  C5  BNZ d   1       1.105   0.721  -0.761  0.00  0.00     0.000 A 
ATOM      6  C6  BNZ d   1       0.389  -0.381  -0.354  0.00  0.00     0.000 A 
ENDROOT
TORSDOF 0
ENDMDL
