MODEL 1
REMARK minimizedAffinity -4.53687525
REMARK minimizedRMSD -1
REMARK  0 active torsions:
REMARK  status: ('A' for Active; 'I' for Inactive)
ROOT
ATOM      1  C1  BNZ d   1       1.470  -2.057  -1.026  0.00  0.00     0.000 A 
ATOM      2  C2  BNZ d   1       2.426  -1.076  -1.000  0.00  0.00     0.000 A 
ATOM      3  C3  BNZ d   1       2.115   0.194  -0.602  0.00  0.00     0.000 A 
ATOM      4  C4  BNZ d   1       0.842   0.492  -0.270  0.00  0.00     0.000 A 
ATOM      5  C5  BNZ d   1      -0.134  -0.484  -0.300  0.00  0.00     0.000 A 
ATOM      6  C6  BNZ d   1       0.190  -1.770  -0.664  0.00  0.00     0.000 A 
ENDROOT
TORSDOF 0
ENDMDL
