MODEL 1
REMARK minimizedAffinity -5.20198774
REMARK minimizedRMSD -1
REMARK  0 active torsions:
REMARK  status: ('A' for Active; 'I' for Inactive)
ROOT
ATOM      1  C1  BNZ d   1       0.632  -1.229  -0.174  0.00  0.00     0.000 A 
ATOM      2  C2  BNZ d   1      -0.145  -0.127   0.068  0.00  0.00     0.000 A 
ATOM      3  C3  BNZ d   1       0.297   1.125  -0.255  0.00  0.00     0.000 A 
ATOM      4  C4  BNZ d   1       1.529   1.279  -0.780  0.00  0.00     0.000 A 
ATOM      5  C5  BNZ d   1       2.328   0.179  -1.021  0.00  0.00     0.000 A 
ATOM      6  C6  BNZ d   1       1.865  -1.084  -0.732  0.00  0.00     0.000 A 
ENDROOT
TORSDOF 0
ENDMDL
