MODEL 1
REMARK minimizedAffinity -3.73170042
REMARK minimizedRMSD -1
REMARK  0 active torsions:
REMARK  status: ('A' for Active; 'I' for Inactive)
ROOT
ATOM      1  C1  BNZ d   1       0.630  -0.169  -0.879  0.00  0.00     0.000 A 
ATOM      2  C2  BNZ d   1       1.180   0.655  -1.825  0.00  0.00     0.000 A 
ATOM      3  C3  BNZ d   1       2.299   0.280  -2.514  0.00  0.00     0.000 A 
ATOM      4  C4  BNZ d   1       2.889  -0.899  -2.230  0.00  0.00     0.000 A 
ATOM      5  C5  BNZ d   1       2.352  -1.736  -1.272  0.00  0.00     0.000 A 
ATOM      6  C6  BNZ d   1       1.203  -1.373  -0.608  0.00  0.00     0.000 A 
ENDROOT
TORSDOF 0
ENDMDL
