MODEL 1
REMARK minimizedAffinity 1.73311436
REMARK minimizedRMSD -1
REMARK  1 active torsions:
REMARK  status: ('A' for Active; 'I' for Inactive)
REMARK    1  A    between atoms: C1_2  and  C2_3 
ROOT
ATOM      1  C2  UNL d   1      -3.939   3.014  -5.966  0.00  0.00    -0.076 A 
ATOM      2  C3  UNL d   1      -4.890   1.980  -5.925  0.00  0.00     0.004 A 
ATOM      3  C4  UNL d   1      -4.496   0.643  -5.919  0.00  0.00    -0.003 A 
ATOM      4  C5  UNL d   1      -3.144   0.318  -5.954  0.00  0.00     0.000 A 
ATOM      5  C6  UNL d   1      -2.187   1.332  -5.978  0.00  0.00     0.000 A 
ATOM      6  C7  UNL d   1      -2.567   2.685  -5.967  0.00  0.00    -0.073 A 
ATOM      7  C8  UNL d   1      -1.492   3.737  -5.999  0.00  0.00     0.078 C 
ENDROOT
BRANCH   1   8
ATOM      8  C1  UNL d   1      -4.427   4.445  -5.997  0.00  0.00     0.053 C 
ATOM      9  C   UNL d   1      -5.944   4.544  -5.972  0.00  0.00     0.018 C 
ENDBRANCH   1   8
TORSDOF 1
ENDMDL
