MODEL 1
REMARK minimizedAffinity -1.67241538
REMARK minimizedRMSD -1
REMARK  1 active torsions:
REMARK  status: ('A' for Active; 'I' for Inactive)
REMARK    1  A    between atoms: C1_2  and  C2_3 
ROOT
ATOM      1  C2  UNL d   1      -3.742   2.325  -5.963  0.00  0.00    -0.076 A 
ATOM      2  C3  UNL d   1      -2.412   1.872  -5.929  0.00  0.00     0.004 A 
ATOM      3  C4  UNL d   1      -1.347   2.773  -5.938  0.00  0.00    -0.003 A 
ATOM      4  C5  UNL d   1      -1.596   4.140  -5.982  0.00  0.00     0.000 A 
ATOM      5  C6  UNL d   1      -2.910   4.607  -5.999  0.00  0.00     0.000 A 
ATOM      6  C7  UNL d   1      -3.995   3.713  -5.973  0.00  0.00    -0.073 A 
ATOM      7  C8  UNL d   1      -5.391   4.272  -6.000  0.00  0.00     0.078 C 
ENDROOT
BRANCH   1   8
ATOM      8  C1  UNL d   1      -4.855   1.301  -5.978  0.00  0.00     0.053 C 
ATOM      9  C   UNL d   1      -4.472   0.014  -5.264  0.00  0.00     0.018 C 
ENDBRANCH   1   8
TORSDOF 1
ENDMDL
