MODEL 1
REMARK minimizedAffinity 6.70368862
REMARK minimizedRMSD -1
REMARK  1 active torsions:
REMARK  status: ('A' for Active; 'I' for Inactive)
REMARK    1  A    between atoms: C1_2  and  C2_3 
ROOT
ATOM      1  C2  UNL d   1       1.265   0.351  -1.221  0.00  0.00    -0.076 A 
ATOM      2  C3  UNL d   1       2.027   1.440  -1.677  0.00  0.00     0.004 A 
ATOM      3  C4  UNL d   1       2.390   2.473  -0.815  0.00  0.00    -0.003 A 
ATOM      4  C5  UNL d   1       1.998   2.433   0.519  0.00  0.00     0.000 A 
ATOM      5  C6  UNL d   1       1.257   1.351   0.993  0.00  0.00     0.000 A 
ATOM      6  C7  UNL d   1       0.896   0.293   0.140  0.00  0.00    -0.073 A 
ATOM      7  C8  UNL d   1       0.091  -0.845   0.704  0.00  0.00     0.078 C 
ENDROOT
BRANCH   1   8
ATOM      8  C1  UNL d   1       0.877  -0.726  -2.208  0.00  0.00     0.053 C 
ATOM      9  C   UNL d   1       0.427  -0.157  -3.545  0.00  0.00     0.018 C 
ENDBRANCH   1   8
TORSDOF 1
ENDMDL
