MODEL 1
REMARK minimizedAffinity 2.65398216
REMARK minimizedRMSD -1
REMARK  1 active torsions:
REMARK  status: ('A' for Active; 'I' for Inactive)
REMARK    1  A    between atoms: C1_2  and  C2_3 
ROOT
ATOM      1  C2  UNL d   1      -2.107   1.910  -5.948  0.00  0.00    -0.076 A 
ATOM      2  C3  UNL d   1      -1.968   3.308  -5.974  0.00  0.00     0.004 A 
ATOM      3  C4  UNL d   1      -3.086   4.140  -6.000  0.00  0.00    -0.003 A 
ATOM      4  C5  UNL d   1      -4.362   3.586  -6.000  0.00  0.00     0.000 A 
ATOM      5  C6  UNL d   1      -4.518   2.201  -5.957  0.00  0.00     0.000 A 
ATOM      6  C7  UNL d   1      -3.402   1.349  -5.914  0.00  0.00    -0.073 A 
ATOM      7  C8  UNL d   1      -3.629  -0.137  -5.874  0.00  0.00     0.078 C 
ENDROOT
BRANCH   1   8
ATOM      8  C1  UNL d   1      -0.858   1.058  -5.948  0.00  0.00     0.053 C 
ATOM      9  C   UNL d   1      -0.515   0.526  -4.565  0.00  0.00     0.018 C 
ENDBRANCH   1   8
TORSDOF 1
ENDMDL
