MODEL 1
REMARK minimizedAffinity 4.95181322
REMARK minimizedRMSD -1
REMARK  1 active torsions:
REMARK  status: ('A' for Active; 'I' for Inactive)
REMARK    1  A    between atoms: C1_2  and  C2_3 
ROOT
ATOM      1  C2  UNL d   1       2.476   0.086  -1.123  0.00  0.00    -0.076 A 
ATOM      2  C3  UNL d   1       2.205  -0.525  -2.360  0.00  0.00     0.004 A 
ATOM      3  C4  UNL d   1       0.895  -0.687  -2.808  0.00  0.00    -0.003 A 
ATOM      4  C5  UNL d   1      -0.165  -0.241  -2.028  0.00  0.00     0.000 A 
ATOM      5  C6  UNL d   1       0.086   0.383  -0.806  0.00  0.00     0.000 A 
ATOM      6  C7  UNL d   1       1.401   0.569  -0.347  0.00  0.00    -0.073 A 
ATOM      7  C8  UNL d   1       1.613   1.243   0.981  0.00  0.00     0.078 C 
ENDROOT
BRANCH   1   8
ATOM      8  C1  UNL d   1       3.915   0.210  -0.676  0.00  0.00     0.053 C 
ATOM      9  C   UNL d   1       4.493   1.589  -0.952  0.00  0.00     0.018 C 
ENDBRANCH   1   8
TORSDOF 1
ENDMDL
