MODEL 1
REMARK minimizedAffinity 5.7557888
REMARK minimizedRMSD -1
REMARK  1 active torsions:
REMARK  status: ('A' for Active; 'I' for Inactive)
REMARK    1  A    between atoms: C1_2  and  C2_3 
ROOT
ATOM      1  C2  UNL d   1      -3.828   1.723  -5.924  0.00  0.00    -0.076 A 
ATOM      2  C3  UNL d   1      -4.936   0.860  -5.876  0.00  0.00     0.004 A 
ATOM      3  C4  UNL d   1      -4.770  -0.524  -5.895  0.00  0.00    -0.003 A 
ATOM      4  C5  UNL d   1      -3.491  -1.067  -5.960  0.00  0.00     0.000 A 
ATOM      5  C6  UNL d   1      -2.379  -0.226  -5.990  0.00  0.00     0.000 A 
ATOM      6  C7  UNL d   1      -2.529   1.171  -5.956  0.00  0.00    -0.073 A 
ATOM      7  C8  UNL d   1      -1.296   2.031  -5.997  0.00  0.00     0.078 C 
ENDROOT
BRANCH   1   8
ATOM      8  C1  UNL d   1      -4.072   3.215  -5.929  0.00  0.00     0.053 C 
ATOM      9  C   UNL d   1      -5.488   3.576  -5.508  0.00  0.00     0.018 C 
ENDBRANCH   1   8
TORSDOF 1
ENDMDL
