MODEL 1
REMARK minimizedAffinity -1.49097121
REMARK minimizedRMSD -1
REMARK  1 active torsions:
REMARK  status: ('A' for Active; 'I' for Inactive)
REMARK    1  A    between atoms: C1_2  and  C2_3 
ROOT
ATOM      1  C2  UNL d   1      -4.475   2.770  -5.979  0.00  0.00    -0.076 A 
ATOM      2  C3  UNL d   1      -5.144   1.534  -5.969  0.00  0.00     0.004 A 
ATOM      3  C4  UNL d   1      -4.436   0.334  -5.980  0.00  0.00    -0.003 A 
ATOM      4  C5  UNL d   1      -3.045   0.350  -6.000  0.00  0.00     0.000 A 
ATOM      5  C6  UNL d   1      -2.364   1.567  -5.992  0.00  0.00     0.000 A 
ATOM      6  C7  UNL d   1      -3.063   2.786  -5.964  0.00  0.00    -0.073 A 
ATOM      7  C8  UNL d   1      -2.278   4.068  -5.963  0.00  0.00     0.078 C 
ENDROOT
BRANCH   1   8
ATOM      8  C1  UNL d   1      -5.296   4.039  -5.994  0.00  0.00     0.053 C 
ATOM      9  C   UNL d   1      -4.434   5.291  -5.968  0.00  0.00     0.018 C 
ENDBRANCH   1   8
TORSDOF 1
ENDMDL
