MODEL 1
REMARK minimizedAffinity 8.09293842
REMARK minimizedRMSD -1
REMARK  1 active torsions:
REMARK  status: ('A' for Active; 'I' for Inactive)
REMARK    1  A    between atoms: C1_2  and  C2_3 
ROOT
ATOM      1  C2  UNL d   1       2.526   0.967  -1.186  0.00  0.00    -0.076 A 
ATOM      2  C3  UNL d   1       3.892   0.694  -1.376  0.00  0.00     0.004 A 
ATOM      3  C4  UNL d   1       4.865   1.627  -1.022  0.00  0.00    -0.003 A 
ATOM      4  C5  UNL d   1       4.489   2.847  -0.473  0.00  0.00     0.000 A 
ATOM      5  C6  UNL d   1       3.139   3.127  -0.261  0.00  0.00     0.000 A 
ATOM      6  C7  UNL d   1       2.146   2.191  -0.597  0.00  0.00    -0.073 A 
ATOM      7  C8  UNL d   1       0.705   2.549  -0.353  0.00  0.00     0.078 C 
ENDROOT
BRANCH   1   8
ATOM      8  C1  UNL d   1       1.514  -0.072  -1.613  0.00  0.00     0.053 C 
ATOM      9  C   UNL d   1       1.347  -0.136  -3.124  0.00  0.00     0.018 C 
ENDBRANCH   1   8
TORSDOF 1
ENDMDL
