MODEL 1
REMARK minimizedAffinity -0.246064961
REMARK minimizedRMSD -1
REMARK  1 active torsions:
REMARK  status: ('A' for Active; 'I' for Inactive)
REMARK    1  A    between atoms: C1_2  and  C2_3 
ROOT
ATOM      1  C2  UNL d   1      -4.026   1.203  -5.976  0.00  0.00    -0.076 A 
ATOM      2  C3  UNL d   1      -2.650   0.920  -5.944  0.00  0.00     0.004 A 
ATOM      3  C4  UNL d   1      -1.706   1.946  -5.948  0.00  0.00    -0.003 A 
ATOM      4  C5  UNL d   1      -2.124   3.272  -5.983  0.00  0.00     0.000 A 
ATOM      5  C6  UNL d   1      -3.486   3.571  -5.997  0.00  0.00     0.000 A 
ATOM      6  C7  UNL d   1      -4.451   2.549  -5.977  0.00  0.00    -0.073 A 
ATOM      7  C8  UNL d   1      -5.906   2.928  -5.999  0.00  0.00     0.078 C 
ENDROOT
BRANCH   1   8
ATOM      8  C1  UNL d   1      -5.002   0.048  -5.997  0.00  0.00     0.053 C 
ATOM      9  C   UNL d   1      -4.306  -1.304  -5.973  0.00  0.00     0.018 C 
ENDBRANCH   1   8
TORSDOF 1
ENDMDL
