MODEL 1
REMARK minimizedAffinity 2.31589508
REMARK minimizedRMSD -1
REMARK  1 active torsions:
REMARK  status: ('A' for Active; 'I' for Inactive)
REMARK    1  A    between atoms: C1_2  and  C2_3 
ROOT
ATOM      1  C2  UNL d   1      -3.055  -3.365  -5.147  0.00  0.00    -0.076 A 
ATOM      2  C3  UNL d   1      -2.973  -4.479  -6.000  0.00  0.00     0.004 A 
ATOM      3  C4  UNL d   1      -2.157  -5.565  -5.686  0.00  0.00    -0.003 A 
ATOM      4  C5  UNL d   1      -1.411  -5.554  -4.513  0.00  0.00     0.000 A 
ATOM      5  C6  UNL d   1      -1.493  -4.465  -3.646  0.00  0.00     0.000 A 
ATOM      6  C7  UNL d   1      -2.323  -3.370  -3.940  0.00  0.00    -0.073 A 
ATOM      7  C8  UNL d   1      -2.369  -2.219  -2.973  0.00  0.00     0.078 C 
ENDROOT
BRANCH   1   8
ATOM      8  C1  UNL d   1      -3.936  -2.205  -5.553  0.00  0.00     0.053 C 
ATOM      9  C   UNL d   1      -5.320  -2.652  -5.997  0.00  0.00     0.018 C 
ENDBRANCH   1   8
TORSDOF 1
ENDMDL
