MODEL 1
REMARK minimizedAffinity -2.32391858
REMARK minimizedRMSD -1
REMARK  1 active torsions:
REMARK  status: ('A' for Active; 'I' for Inactive)
REMARK    1  A    between atoms: C1_2  and  C2_3 
ROOT
ATOM      1  C2  UNL d   1      -3.471   2.423  -5.963  0.00  0.00    -0.076 A 
ATOM      2  C3  UNL d   1      -2.534   1.375  -5.986  0.00  0.00     0.004 A 
ATOM      3  C4  UNL d   1      -2.947   0.044  -5.999  0.00  0.00    -0.003 A 
ATOM      4  C5  UNL d   1      -4.304  -0.261  -5.989  0.00  0.00     0.000 A 
ATOM      5  C6  UNL d   1      -5.247   0.766  -5.985  0.00  0.00     0.000 A 
ATOM      6  C7  UNL d   1      -4.848   2.114  -5.988  0.00  0.00    -0.073 A 
ATOM      7  C8  UNL d   1      -5.907   3.181  -5.977  0.00  0.00     0.078 C 
ENDROOT
BRANCH   1   8
ATOM      8  C1  UNL d   1      -2.963   3.847  -5.923  0.00  0.00     0.053 C 
ATOM      9  C   UNL d   1      -2.333   4.203  -4.585  0.00  0.00     0.018 C 
ENDBRANCH   1   8
TORSDOF 1
ENDMDL
