MODEL 1
REMARK minimizedAffinity 0.977971613
REMARK minimizedRMSD -1
REMARK  1 active torsions:
REMARK  status: ('A' for Active; 'I' for Inactive)
REMARK    1  A    between atoms: C1_2  and  C2_3 
ROOT
ATOM      1  C2  UNL d   1      -3.053   3.392  -5.995  0.00  0.00    -0.076 A 
ATOM      2  C3  UNL d   1      -1.917   2.563  -6.000  0.00  0.00     0.004 A 
ATOM      3  C4  UNL d   1      -2.041   1.175  -5.971  0.00  0.00    -0.003 A 
ATOM      4  C5  UNL d   1      -3.303   0.593  -5.937  0.00  0.00     0.000 A 
ATOM      5  C6  UNL d   1      -4.441   1.399  -5.949  0.00  0.00     0.000 A 
ATOM      6  C7  UNL d   1      -4.334   2.799  -5.995  0.00  0.00    -0.073 A 
ATOM      7  C8  UNL d   1      -5.594   3.620  -6.000  0.00  0.00     0.078 C 
ENDROOT
BRANCH   1   8
ATOM      8  C1  UNL d   1      -2.856   4.891  -6.000  0.00  0.00     0.053 C 
ATOM      9  C   UNL d   1      -1.508   5.303  -5.428  0.00  0.00     0.018 C 
ENDBRANCH   1   8
TORSDOF 1
ENDMDL
