MODEL 1
REMARK minimizedAffinity 2.92486405
REMARK minimizedRMSD -1
REMARK  1 active torsions:
REMARK  status: ('A' for Active; 'I' for Inactive)
REMARK    1  A    between atoms: C1_2  and  C2_3 
ROOT
ATOM      1  C2  UNL d   1       2.716  -0.092  -0.873  0.00  0.00    -0.076 A 
ATOM      2  C3  UNL d   1       2.693  -0.917  -2.011  0.00  0.00     0.004 A 
ATOM      3  C4  UNL d   1       1.487  -1.282  -2.609  0.00  0.00    -0.003 A 
ATOM      4  C5  UNL d   1       0.286  -0.827  -2.078  0.00  0.00     0.000 A 
ATOM      5  C6  UNL d   1       0.291   0.007  -0.960  0.00  0.00     0.000 A 
ATOM      6  C7  UNL d   1       1.498   0.397  -0.355  0.00  0.00    -0.073 A 
ATOM      7  C8  UNL d   1       1.445   1.293   0.852  0.00  0.00     0.078 C 
ENDROOT
BRANCH   1   8
ATOM      8  C1  UNL d   1       4.053   0.248  -0.253  0.00  0.00     0.053 C 
ATOM      9  C   UNL d   1       4.638   1.540  -0.802  0.00  0.00     0.018 C 
ENDBRANCH   1   8
TORSDOF 1
ENDMDL
