MODEL 1
REMARK minimizedAffinity 2.62127161
REMARK minimizedRMSD -1
REMARK  1 active torsions:
REMARK  status: ('A' for Active; 'I' for Inactive)
REMARK    1  A    between atoms: C1_2  and  C2_3 
ROOT
ATOM      1  C2  UNL d   1      -2.460  -2.941  -4.172  0.00  0.00    -0.076 A 
ATOM      2  C3  UNL d   1      -3.465  -1.981  -4.381  0.00  0.00     0.004 A 
ATOM      3  C4  UNL d   1      -4.498  -2.209  -5.287  0.00  0.00    -0.003 A 
ATOM      4  C5  UNL d   1      -4.544  -3.402  -6.000  0.00  0.00     0.000 A 
ATOM      5  C6  UNL d   1      -3.566  -4.374  -5.792  0.00  0.00     0.000 A 
ATOM      6  C7  UNL d   1      -2.526  -4.166  -4.870  0.00  0.00    -0.073 A 
ATOM      7  C8  UNL d   1      -1.494  -5.246  -4.690  0.00  0.00     0.078 C 
ENDROOT
BRANCH   1   8
ATOM      8  C1  UNL d   1      -1.349  -2.627  -3.195  0.00  0.00     0.053 C 
ATOM      9  C   UNL d   1      -0.398  -1.562  -3.719  0.00  0.00     0.018 C 
ENDBRANCH   1   8
TORSDOF 1
ENDMDL
