MODEL 1
REMARK minimizedAffinity 0.553325295
REMARK minimizedRMSD -1
REMARK  1 active torsions:
REMARK  status: ('A' for Active; 'I' for Inactive)
REMARK    1  A    between atoms: C1_2  and  C2_3 
ROOT
ATOM      1  C2  UNL d   1      -3.801   0.949  -5.983  0.00  0.00    -0.076 A 
ATOM      2  C3  UNL d   1      -5.062   0.328  -5.967  0.00  0.00     0.004 A 
ATOM      3  C4  UNL d   1      -5.178  -1.061  -5.976  0.00  0.00    -0.003 A 
ATOM      4  C5  UNL d   1      -4.034  -1.852  -6.000  0.00  0.00     0.000 A 
ATOM      5  C6  UNL d   1      -2.775  -1.252  -5.998  0.00  0.00     0.000 A 
ATOM      6  C7  UNL d   1      -2.641   0.146  -5.973  0.00  0.00    -0.073 A 
ATOM      7  C8  UNL d   1      -1.258   0.739  -5.978  0.00  0.00     0.078 C 
ENDROOT
BRANCH   1   8
ATOM      8  C1  UNL d   1      -3.739   2.460  -5.999  0.00  0.00     0.053 C 
ATOM      9  C   UNL d   1      -5.117   3.101  -5.949  0.00  0.00     0.018 C 
ENDBRANCH   1   8
TORSDOF 1
ENDMDL
