MODEL 1
REMARK minimizedAffinity 3.64632368
REMARK minimizedRMSD -1
REMARK  0 active torsions:
REMARK  status: ('A' for Active; 'I' for Inactive)
ROOT
ATOM      1  O1  BZF d   1       1.903  -0.866   4.319  0.00  0.00    -0.204 OA
ATOM      2  C2  BZF d   1       1.699  -1.739   3.268  0.00  0.00     0.174 A 
ATOM      3  C3  BZF d   1       1.930  -1.129   2.087  0.00  0.00    -0.012 A 
ATOM      4  C3A BZF d   1       2.391   0.183   2.426  0.00  0.00    -0.107 A 
ATOM      5  C4  BZF d   1       2.796   1.256   1.685  0.00  0.00     0.055 A 
ATOM      6  C5  BZF d   1       3.116   2.414   2.320  0.00  0.00    -0.016 A 
ATOM      7  C6  BZF d   1       3.036   2.536   3.691  0.00  0.00     0.022 A 
ATOM      8  C7  BZF d   1       2.643   1.498   4.469  0.00  0.00     0.029 A 
ATOM      9  C7A BZF d   1       2.352   0.316   3.833  0.00  0.00     0.058 A 
ENDROOT
TORSDOF 0
ENDMDL
