MODEL 1
REMARK minimizedAffinity 3.10017824
REMARK minimizedRMSD -1
REMARK  0 active torsions:
REMARK  status: ('A' for Active; 'I' for Inactive)
ROOT
ATOM      1  O1  BZF d   1       2.139  -1.004   3.514  0.00  0.00    -0.204 OA
ATOM      2  C2  BZF d   1       1.667  -1.981   2.659  0.00  0.00     0.174 A 
ATOM      3  C3  BZF d   1       1.596  -1.516   1.395  0.00  0.00    -0.012 A 
ATOM      4  C3A BZF d   1       2.139  -0.193   1.449  0.00  0.00    -0.107 A 
ATOM      5  C4  BZF d   1       2.351   0.774   0.509  0.00  0.00     0.055 A 
ATOM      6  C5  BZF d   1       2.831   1.983   0.901  0.00  0.00    -0.016 A 
ATOM      7  C6  BZF d   1       3.102   2.261   2.225  0.00  0.00     0.022 A 
ATOM      8  C7  BZF d   1       2.912   1.332   3.193  0.00  0.00     0.029 A 
ATOM      9  C7A BZF d   1       2.459   0.098   2.795  0.00  0.00     0.058 A 
ENDROOT
TORSDOF 0
ENDMDL
