MODEL 1
REMARK minimizedAffinity 10.2854691
REMARK minimizedRMSD -1
REMARK  0 active torsions:
REMARK  status: ('A' for Active; 'I' for Inactive)
ROOT
ATOM      1  O1  BZF d   1      -4.110   2.057  -4.099  0.00  0.00    -0.204 OA
ATOM      2  C2  BZF d   1      -5.080   2.705  -4.839  0.00  0.00     0.174 A 
ATOM      3  C3  BZF d   1      -6.000   3.271  -4.031  0.00  0.00    -0.012 A 
ATOM      4  C3A BZF d   1      -5.527   3.036  -2.701  0.00  0.00    -0.107 A 
ATOM      5  C4  BZF d   1      -6.000   3.370  -1.464  0.00  0.00     0.055 A 
ATOM      6  C5  BZF d   1      -5.340   2.925  -0.363  0.00  0.00    -0.016 A 
ATOM      7  C6  BZF d   1      -4.209   2.141  -0.461  0.00  0.00     0.022 A 
ATOM      8  C7  BZF d   1      -3.700   1.788  -1.666  0.00  0.00     0.029 A 
ATOM      9  C7A BZF d   1      -4.346   2.263  -2.781  0.00  0.00     0.058 A 
ENDROOT
TORSDOF 0
ENDMDL
