MODEL 1
REMARK minimizedAffinity 10.2491302
REMARK minimizedRMSD -1
REMARK  0 active torsions:
REMARK  status: ('A' for Active; 'I' for Inactive)
ROOT
ATOM      1  O1  BZF d   1       1.947  -0.467   4.211  0.00  0.00    -0.204 OA
ATOM      2  C2  BZF d   1       2.011  -1.784   3.798  0.00  0.00     0.174 A 
ATOM      3  C3  BZF d   1       2.350  -1.861   2.495  0.00  0.00    -0.012 A 
ATOM      4  C3A BZF d   1       2.598  -0.511   2.091  0.00  0.00    -0.107 A 
ATOM      5  C4  BZF d   1       2.986   0.060   0.912  0.00  0.00     0.055 A 
ATOM      6  C5  BZF d   1       3.065   1.414   0.829  0.00  0.00    -0.016 A 
ATOM      7  C6  BZF d   1       2.759   2.227   1.900  0.00  0.00     0.022 A 
ATOM      8  C7  BZF d   1       2.374   1.706   3.091  0.00  0.00     0.029 A 
ATOM      9  C7A BZF d   1       2.325   0.337   3.189  0.00  0.00     0.058 A 
ENDROOT
TORSDOF 0
ENDMDL
