MODEL 1
REMARK minimizedAffinity 10.7835217
REMARK minimizedRMSD -1
REMARK  0 active torsions:
REMARK  status: ('A' for Active; 'I' for Inactive)
ROOT
ATOM      1  O1  BZF d   1       3.743   0.175   0.937  0.00  0.00    -0.204 OA
ATOM      2  C2  BZF d   1       2.571   0.884   0.748  0.00  0.00     0.174 A 
ATOM      3  C3  BZF d   1       1.652   0.542   1.673  0.00  0.00    -0.012 A 
ATOM      4  C3A BZF d   1       2.319  -0.374   2.547  0.00  0.00    -0.107 A 
ATOM      5  C4  BZF d   1       1.934  -1.051   3.669  0.00  0.00     0.055 A 
ATOM      6  C5  BZF d   1       2.802  -1.923   4.245  0.00  0.00    -0.016 A 
ATOM      7  C6  BZF d   1       4.060  -2.147   3.723  0.00  0.00     0.022 A 
ATOM      8  C7  BZF d   1       4.488  -1.495   2.614  0.00  0.00     0.029 A 
ATOM      9  C7A BZF d   1       3.625  -0.588   2.050  0.00  0.00     0.058 A 
ENDROOT
TORSDOF 0
ENDMDL
