MODEL 1
REMARK minimizedAffinity 5.97027922
REMARK minimizedRMSD -1
REMARK  0 active torsions:
REMARK  status: ('A' for Active; 'I' for Inactive)
ROOT
ATOM      1  O1  BZF d   1      -3.806   2.359  -3.747  0.00  0.00    -0.204 OA
ATOM      2  C2  BZF d   1      -4.952   2.587  -4.484  0.00  0.00     0.174 A 
ATOM      3  C3  BZF d   1      -5.999   2.843  -3.673  0.00  0.00    -0.012 A 
ATOM      4  C3A BZF d   1      -5.454   2.863  -2.350  0.00  0.00    -0.107 A 
ATOM      5  C4  BZF d   1      -5.994   3.082  -1.115  0.00  0.00     0.055 A 
ATOM      6  C5  BZF d   1      -5.204   2.958  -0.017  0.00  0.00    -0.016 A 
ATOM      7  C6  BZF d   1      -3.873   2.610  -0.116  0.00  0.00     0.022 A 
ATOM      8  C7  BZF d   1      -3.291   2.388  -1.319  0.00  0.00     0.029 A 
ATOM      9  C7A BZF d   1      -4.079   2.545  -2.433  0.00  0.00     0.058 A 
ENDROOT
TORSDOF 0
ENDMDL
