MODEL 1
REMARK minimizedAffinity 3.74773145
REMARK minimizedRMSD -1
REMARK  0 active torsions:
REMARK  status: ('A' for Active; 'I' for Inactive)
ROOT
ATOM      1  O1  BZF d   1       2.880   2.713   0.413  0.00  0.00    -0.204 OA
ATOM      2  C2  BZF d   1       1.819   3.586   0.267  0.00  0.00     0.174 A 
ATOM      3  C3  BZF d   1       0.656   2.981   0.583  0.00  0.00    -0.012 A 
ATOM      4  C3A BZF d   1       1.022   1.674   1.037  0.00  0.00    -0.107 A 
ATOM      5  C4  BZF d   1       0.308   0.608   1.504  0.00  0.00     0.055 A 
ATOM      6  C5  BZF d   1       0.960  -0.548   1.795  0.00  0.00    -0.016 A 
ATOM      7  C6  BZF d   1       2.324  -0.674   1.626  0.00  0.00     0.022 A 
ATOM      8  C7  BZF d   1       3.075   0.358   1.171  0.00  0.00     0.029 A 
ATOM      9  C7A BZF d   1       2.424   1.538   0.907  0.00  0.00     0.058 A 
ENDROOT
TORSDOF 0
ENDMDL
