MODEL 1
REMARK minimizedAffinity 8.59884644
REMARK minimizedRMSD -1
REMARK  0 active torsions:
REMARK  status: ('A' for Active; 'I' for Inactive)
ROOT
ATOM      1  O1  BZF d   1      -4.040   2.067  -3.783  0.00  0.00    -0.204 OA
ATOM      2  C2  BZF d   1      -5.050   2.636  -4.534  0.00  0.00     0.174 A 
ATOM      3  C3  BZF d   1      -6.000   3.166  -3.737  0.00  0.00    -0.012 A 
ATOM      4  C3A BZF d   1      -5.511   2.993  -2.403  0.00  0.00    -0.107 A 
ATOM      5  C4  BZF d   1      -5.999   3.328  -1.173  0.00  0.00     0.055 A 
ATOM      6  C5  BZF d   1      -5.311   2.951  -0.064  0.00  0.00    -0.016 A 
ATOM      7  C6  BZF d   1      -4.135   2.235  -0.147  0.00  0.00     0.022 A 
ATOM      8  C7  BZF d   1      -3.608   1.883  -1.345  0.00  0.00     0.029 A 
ATOM      9  C7A BZF d   1      -4.284   2.291  -2.469  0.00  0.00     0.058 A 
ENDROOT
TORSDOF 0
ENDMDL
