MODEL 1
REMARK minimizedAffinity 10.4380217
REMARK minimizedRMSD -1
REMARK  0 active torsions:
REMARK  status: ('A' for Active; 'I' for Inactive)
ROOT
ATOM      1  O1  BZF d   1      -4.159  -2.370  -3.025  0.00  0.00    -0.204 OA
ATOM      2  C2  BZF d   1      -5.188  -3.028  -2.380  0.00  0.00     0.174 A 
ATOM      3  C3  BZF d   1      -4.730  -3.686  -1.295  0.00  0.00    -0.012 A 
ATOM      4  C3A BZF d   1      -3.342  -3.347  -1.208  0.00  0.00    -0.107 A 
ATOM      5  C4  BZF d   1      -2.348  -3.679  -0.332  0.00  0.00     0.055 A 
ATOM      6  C5  BZF d   1      -1.085  -3.239  -0.571  0.00  0.00    -0.016 A 
ATOM      7  C6  BZF d   1      -0.779  -2.473  -1.676  0.00  0.00     0.022 A 
ATOM      8  C7  BZF d   1      -1.732  -2.114  -2.570  0.00  0.00     0.029 A 
ATOM      9  C7A BZF d   1      -3.016  -2.529  -2.314  0.00  0.00     0.058 A 
ENDROOT
TORSDOF 0
ENDMDL
