MODEL 1
REMARK minimizedAffinity 8.39276123
REMARK minimizedRMSD -1
REMARK  0 active torsions:
REMARK  status: ('A' for Active; 'I' for Inactive)
ROOT
ATOM      1  O1  BZF d   1       1.374  -1.284   3.648  0.00  0.00    -0.204 OA
ATOM      2  C2  BZF d   1       2.117  -2.393   4.005  0.00  0.00     0.174 A 
ATOM      3  C3  BZF d   1       3.238  -2.478   3.261  0.00  0.00    -0.012 A 
ATOM      4  C3A BZF d   1       3.240  -1.301   2.448  0.00  0.00    -0.107 A 
ATOM      5  C4  BZF d   1       4.103  -0.808   1.511  0.00  0.00     0.055 A 
ATOM      6  C5  BZF d   1       3.777   0.331   0.847  0.00  0.00    -0.016 A 
ATOM      7  C6  BZF d   1       2.595   1.000   1.089  0.00  0.00     0.022 A 
ATOM      8  C7  BZF d   1       1.710   0.553   2.013  0.00  0.00     0.029 A 
ATOM      9  C7A BZF d   1       2.052  -0.580   2.709  0.00  0.00     0.058 A 
ENDROOT
TORSDOF 0
ENDMDL
