MODEL 1
REMARK minimizedAffinity -2.96508932
REMARK minimizedRMSD -1
REMARK  0 active torsions:
REMARK  status: ('A' for Active; 'I' for Inactive)
ROOT
ATOM      1  C   UNL d   1       0.261   0.487   2.496  0.00  0.00     0.020 A 
ATOM      2  C1  UNL d   1      -0.104   1.786   2.145  0.00  0.00     0.020 A 
ATOM      3  C2  UNL d   1      -0.260   2.128   0.800  0.00  0.00     0.034 A 
ATOM      4  C3  UNL d   1      -0.051   1.170  -0.199  0.00  0.00     0.017 A 
ATOM      5  C4  UNL d   1       0.315  -0.134   0.154  0.00  0.00     0.017 A 
ATOM      6  C5  UNL d   1       0.470  -0.471   1.502  0.00  0.00     0.034 A 
ATOM      7 Cl   UNL d   1       0.590  -1.370  -1.022  0.00  0.00    -0.070 Cl
ATOM      8 Cl1  UNL d   1      -0.263   1.663  -1.842  0.00  0.00    -0.070 Cl
ENDROOT
TORSDOF 0
ENDMDL
