MODEL 1
REMARK minimizedAffinity -3.97733307
REMARK minimizedRMSD -1
REMARK  0 active torsions:
REMARK  status: ('A' for Active; 'I' for Inactive)
ROOT
ATOM      1  C   UNL d   1      -1.152   2.630   1.251  0.00  0.00     0.020 A 
ATOM      2  C1  UNL d   1      -1.021   1.412   1.916  0.00  0.00     0.020 A 
ATOM      3  C2  UNL d   1      -0.470   0.312   1.255  0.00  0.00     0.034 A 
ATOM      4  C3  UNL d   1      -0.049   0.428  -0.075  0.00  0.00     0.017 A 
ATOM      5  C4  UNL d   1      -0.182   1.651  -0.741  0.00  0.00     0.017 A 
ATOM      6  C5  UNL d   1      -0.734   2.749  -0.074  0.00  0.00     0.034 A 
ATOM      7 Cl   UNL d   1       0.315   1.871  -2.382  0.00  0.00    -0.070 Cl
ATOM      8 Cl1  UNL d   1       0.623  -0.974  -0.830  0.00  0.00    -0.070 Cl
ENDROOT
TORSDOF 0
ENDMDL
