MODEL 1
REMARK minimizedAffinity -4.25330639
REMARK minimizedRMSD -1
REMARK  0 active torsions:
REMARK  status: ('A' for Active; 'I' for Inactive)
ROOT
ATOM      1  C   UNL d   1      -1.654   2.591   0.196  0.00  0.00     0.020 A 
ATOM      2  C1  UNL d   1      -1.018   2.794   1.420  0.00  0.00     0.020 A 
ATOM      3  C2  UNL d   1      -0.154   1.822   1.928  0.00  0.00     0.034 A 
ATOM      4  C3  UNL d   1       0.078   0.643   1.212  0.00  0.00     0.017 A 
ATOM      5  C4  UNL d   1      -0.560   0.439  -0.017  0.00  0.00     0.017 A 
ATOM      6  C5  UNL d   1      -1.425   1.416  -0.521  0.00  0.00     0.034 A 
ATOM      7 Cl   UNL d   1      -0.324  -0.991  -0.959  0.00  0.00    -0.070 Cl
ATOM      8 Cl1  UNL d   1       1.159  -0.516   1.900  0.00  0.00    -0.070 Cl
ENDROOT
TORSDOF 0
ENDMDL
