MODEL 1
REMARK minimizedAffinity -4.73015976
REMARK minimizedRMSD -1
REMARK  0 active torsions:
REMARK  status: ('A' for Active; 'I' for Inactive)
ROOT
ATOM      1  C   UNL d   1       0.312  -0.278   0.190  0.00  0.00     0.020 A 
ATOM      2  C1  UNL d   1       0.184   0.142   1.514  0.00  0.00     0.020 A 
ATOM      3  C2  UNL d   1      -0.309   1.417   1.797  0.00  0.00     0.034 A 
ATOM      4  C3  UNL d   1      -0.675   2.278   0.755  0.00  0.00     0.017 A 
ATOM      5  C4  UNL d   1      -0.546   1.856  -0.573  0.00  0.00     0.017 A 
ATOM      6  C5  UNL d   1      -0.052   0.577  -0.851  0.00  0.00     0.034 A 
ATOM      7 Cl   UNL d   1      -0.976   2.861  -1.911  0.00  0.00    -0.070 Cl
ATOM      8 Cl1  UNL d   1      -1.277   3.841   1.179  0.00  0.00    -0.070 Cl
ENDROOT
TORSDOF 0
ENDMDL
