MODEL 1
REMARK minimizedAffinity -3.05587173
REMARK minimizedRMSD -1
REMARK  0 active torsions:
REMARK  status: ('A' for Active; 'I' for Inactive)
ROOT
ATOM      1  C   UNL d   1      -0.831   3.412   0.095  0.00  0.00     0.020 A 
ATOM      2  C1  UNL d   1      -0.919   3.421   1.486  0.00  0.00     0.020 A 
ATOM      3  C2  UNL d   1      -0.718   2.241   2.206  0.00  0.00     0.034 A 
ATOM      4  C3  UNL d   1      -0.429   1.047   1.534  0.00  0.00     0.017 A 
ATOM      5  C4  UNL d   1      -0.341   1.040   0.137  0.00  0.00     0.017 A 
ATOM      6  C5  UNL d   1      -0.543   2.225  -0.578  0.00  0.00     0.034 A 
ATOM      7 Cl   UNL d   1       0.012  -0.393  -0.762  0.00  0.00    -0.070 Cl
ATOM      8 Cl1  UNL d   1      -0.192  -0.374   2.487  0.00  0.00    -0.070 Cl
ENDROOT
TORSDOF 0
ENDMDL
