MODEL 1
REMARK minimizedAffinity -5.85567093
REMARK minimizedRMSD -1
REMARK  0 active torsions:
REMARK  status: ('A' for Active; 'I' for Inactive)
ROOT
ATOM      1  C   UNL d   1      -1.089   3.412   1.224  0.00  0.00     0.020 A 
ATOM      2  C1  UNL d   1      -1.356   3.340  -0.143  0.00  0.00     0.020 A 
ATOM      3  C2  UNL d   1      -0.988   2.204  -0.867  0.00  0.00     0.034 A 
ATOM      4  C3  UNL d   1      -0.351   1.136  -0.224  0.00  0.00     0.017 A 
ATOM      5  C4  UNL d   1      -0.084   1.209   1.148  0.00  0.00     0.017 A 
ATOM      6  C5  UNL d   1      -0.455   2.349   1.868  0.00  0.00     0.034 A 
ATOM      7 Cl   UNL d   1       0.698  -0.069   2.009  0.00  0.00    -0.070 Cl
ATOM      8 Cl1  UNL d   1       0.075  -0.238  -1.181  0.00  0.00    -0.070 Cl
ENDROOT
TORSDOF 0
ENDMDL
