MODEL 1
REMARK minimizedAffinity -3.39751005
REMARK minimizedRMSD -1
REMARK  0 active torsions:
REMARK  status: ('A' for Active; 'I' for Inactive)
ROOT
ATOM      1  C   UNL d   1       0.897  -0.297   1.132  0.00  0.00     0.020 A 
ATOM      2  C1  UNL d   1       1.163  -0.484  -0.224  0.00  0.00     0.020 A 
ATOM      3  C2  UNL d   1       0.541   0.327  -1.176  0.00  0.00     0.034 A 
ATOM      4  C3  UNL d   1      -0.350   1.328  -0.774  0.00  0.00     0.017 A 
ATOM      5  C4  UNL d   1      -0.616   1.515   0.587  0.00  0.00     0.017 A 
ATOM      6  C5  UNL d   1       0.009   0.701   1.536  0.00  0.00     0.034 A 
ATOM      7 Cl   UNL d   1      -1.704   2.730   1.161  0.00  0.00    -0.070 Cl
ATOM      8 Cl1  UNL d   1      -1.083   2.293  -2.005  0.00  0.00    -0.070 Cl
ENDROOT
TORSDOF 0
ENDMDL
