MODEL 1
REMARK minimizedAffinity -4.59686184
REMARK minimizedRMSD -1
REMARK  0 active torsions:
REMARK  status: ('A' for Active; 'I' for Inactive)
ROOT
ATOM      1  C   UNL d   1       1.696  -0.805   0.693  0.00  0.00     0.020 A 
ATOM      2  C1  UNL d   1       1.754  -0.777  -0.700  0.00  0.00     0.020 A 
ATOM      3  C2  UNL d   1       0.975   0.137  -1.413  0.00  0.00     0.034 A 
ATOM      4  C3  UNL d   1       0.136   1.027  -0.733  0.00  0.00     0.017 A 
ATOM      5  C4  UNL d   1       0.079   0.998   0.665  0.00  0.00     0.017 A 
ATOM      6  C5  UNL d   1       0.860   0.081   1.374  0.00  0.00     0.034 A 
ATOM      7 Cl   UNL d   1      -0.933   2.065   1.573  0.00  0.00    -0.070 Cl
ATOM      8 Cl1  UNL d   1      -0.799   2.131  -1.679  0.00  0.00    -0.070 Cl
ENDROOT
TORSDOF 0
ENDMDL
