MODEL 1
REMARK minimizedAffinity 4.94896173
REMARK minimizedRMSD -1
REMARK  0 active torsions:
REMARK  status: ('A' for Active; 'I' for Inactive)
ROOT
ATOM      1  C   UNL d   1      -1.745  -3.695  -2.605  0.00  0.00     0.020 A 
ATOM      2  C1  UNL d   1      -1.719  -3.747  -3.998  0.00  0.00     0.020 A 
ATOM      3  C2  UNL d   1      -1.887  -2.579  -4.744  0.00  0.00     0.034 A 
ATOM      4  C3  UNL d   1      -2.082  -1.353  -4.097  0.00  0.00     0.017 A 
ATOM      5  C4  UNL d   1      -2.107  -1.301  -2.698  0.00  0.00     0.017 A 
ATOM      6  C5  UNL d   1      -1.938  -2.475  -1.957  0.00  0.00     0.034 A 
ATOM      7 Cl   UNL d   1      -2.343   0.174  -1.829  0.00  0.00    -0.070 Cl
ATOM      8 Cl1  UNL d   1      -2.283   0.052  -5.082  0.00  0.00    -0.070 Cl
ENDROOT
TORSDOF 0
ENDMDL
