MODEL 1
REMARK minimizedAffinity -0.564942718
REMARK minimizedRMSD -1
REMARK  0 active torsions:
REMARK  status: ('A' for Active; 'I' for Inactive)
ROOT
ATOM      1  O1  BZF d   1      -0.099  -1.336   3.448  0.00  0.00    -0.204 OA
ATOM      2  C2  BZF d   1       1.228  -0.958   3.519  0.00  0.00     0.174 A 
ATOM      3  C3  BZF d   1       1.657  -0.493   2.328  0.00  0.00    -0.012 A 
ATOM      4  C3A BZF d   1       0.502  -0.499   1.483  0.00  0.00    -0.107 A 
ATOM      5  C4  BZF d   1       0.286  -0.133   0.186  0.00  0.00     0.055 A 
ATOM      6  C5  BZF d   1      -0.942  -0.333  -0.361  0.00  0.00    -0.016 A 
ATOM      7  C6  BZF d   1      -1.974  -0.900   0.358  0.00  0.00     0.022 A 
ATOM      8  C7  BZF d   1      -1.809  -1.275   1.650  0.00  0.00     0.029 A 
ATOM      9  C7A BZF d   1      -0.579  -1.043   2.215  0.00  0.00     0.058 A 
ENDROOT
TORSDOF 0
ENDMDL
