MODEL 1
REMARK minimizedAffinity -1.70021939
REMARK minimizedRMSD -1
REMARK  0 active torsions:
REMARK  status: ('A' for Active; 'I' for Inactive)
ROOT
ATOM      1  O1  BZF d   1      -1.643   1.517  -2.328  0.00  0.00    -0.204 OA
ATOM      2  C2  BZF d   1      -0.769   1.697  -3.384  0.00  0.00     0.174 A 
ATOM      3  C3  BZF d   1       0.463   1.249  -3.066  0.00  0.00    -0.012 A 
ATOM      4  C3A BZF d   1       0.330   0.675  -1.762  0.00  0.00    -0.107 A 
ATOM      5  C4  BZF d   1       1.203   0.052  -0.917  0.00  0.00     0.055 A 
ATOM      6  C5  BZF d   1       0.774  -0.327   0.315  0.00  0.00    -0.016 A 
ATOM      7  C6  BZF d   1      -0.519  -0.094   0.736  0.00  0.00     0.022 A 
ATOM      8  C7  BZF d   1      -1.423   0.516  -0.068  0.00  0.00     0.029 A 
ATOM      9  C7A BZF d   1      -1.001   0.870  -1.326  0.00  0.00     0.058 A 
ENDROOT
TORSDOF 0
ENDMDL
