MODEL 1
REMARK minimizedAffinity -2.75537252
REMARK minimizedRMSD -1
REMARK  0 active torsions:
REMARK  status: ('A' for Active; 'I' for Inactive)
ROOT
ATOM      1  O1  BZF d   1      -0.048   1.142   0.489  0.00  0.00    -0.204 OA
ATOM      2  C2  BZF d   1      -0.358  -0.195   0.647  0.00  0.00     0.174 A 
ATOM      3  C3  BZF d   1      -1.005  -0.667  -0.438  0.00  0.00    -0.012 A 
ATOM      4  C3A BZF d   1      -1.023   0.420  -1.368  0.00  0.00    -0.107 A 
ATOM      5  C4  BZF d   1      -1.511   0.563  -2.636  0.00  0.00     0.055 A 
ATOM      6  C5  BZF d   1      -1.432   1.777  -3.241  0.00  0.00    -0.016 A 
ATOM      7  C6  BZF d   1      -0.877   2.869  -2.607  0.00  0.00     0.022 A 
ATOM      8  C7  BZF d   1      -0.375   2.775  -1.352  0.00  0.00     0.029 A 
ATOM      9  C7A BZF d   1      -0.423   1.541  -0.750  0.00  0.00     0.058 A 
ENDROOT
TORSDOF 0
ENDMDL
