MODEL 1
REMARK minimizedAffinity 5.59973145
REMARK minimizedRMSD -1
REMARK  3 active torsions:
REMARK  status: ('A' for Active; 'I' for Inactive)
REMARK    1  A    between atoms: C3'_2  and  C2'_3 
REMARK    2  A    between atoms: C2'_3  and  C1'_4 
REMARK    3  A    between atoms: C1'_4  and  C1_5 
ROOT
ATOM      1  C1  N4B d   1       3.558   2.211   2.481  0.00  0.00    -0.075 A 
ATOM      2  C2  N4B d   1       4.655   2.566   1.666  0.00  0.00     0.002 A 
ATOM      3  C3  N4B d   1       5.847   2.934   2.240  0.00  0.00     0.002 A 
ATOM      4  C4  N4B d   1       5.959   2.973   3.622  0.00  0.00    -0.004 A 
ATOM      5  C5  N4B d   1       4.902   2.604   4.402  0.00  0.00     0.002 A 
ATOM      6  C6  N4B d   1       3.700   2.228   3.838  0.00  0.00     0.002 A 
ENDROOT
BRANCH   1   7
ATOM      7  C1' N4B d   1       2.210   1.884   1.900  0.00  0.00     0.057 C 
BRANCH   7   8
ATOM      8  C2' N4B d   1       1.336   1.257   2.983  0.00  0.00     0.009 C 
BRANCH   8   9
ATOM      9  C3' N4B d   1       0.704  -0.044   2.520  0.00  0.00     0.004 C 
ATOM     10  C4' N4B d   1       0.140  -0.851   3.652  0.00  0.00     0.003 C 
ENDBRANCH   8   9
ENDBRANCH   7   8
ENDBRANCH   1   7
TORSDOF 3
ENDMDL
