MODEL 1
REMARK minimizedAffinity 0.657082438
REMARK minimizedRMSD -1
REMARK  3 active torsions:
REMARK  status: ('A' for Active; 'I' for Inactive)
REMARK    1  A    between atoms: C3'_2  and  C2'_3 
REMARK    2  A    between atoms: C2'_3  and  C1'_4 
REMARK    3  A    between atoms: C1'_4  and  C1_5 
ROOT
ATOM      1  C1  N4B d   1       1.038  -0.117   1.588  0.00  0.00    -0.075 A 
ATOM      2  C2  N4B d   1       1.627   1.060   2.099  0.00  0.00     0.002 A 
ATOM      3  C3  N4B d   1       1.299   1.502   3.357  0.00  0.00     0.002 A 
ATOM      4  C4  N4B d   1       0.374   0.796   4.112  0.00  0.00    -0.004 A 
ATOM      5  C5  N4B d   1      -0.171  -0.354   3.621  0.00  0.00     0.002 A 
ATOM      6  C6  N4B d   1       0.152  -0.812   2.360  0.00  0.00     0.002 A 
ENDROOT
BRANCH   1   7
ATOM      7  C1' N4B d   1       1.300  -0.593   0.185  0.00  0.00     0.057 C 
BRANCH   7   8
ATOM      8  C2' N4B d   1       0.213  -1.584  -0.220  0.00  0.00     0.009 C 
BRANCH   8   9
ATOM      9  C3' N4B d   1      -1.122  -0.898  -0.456  0.00  0.00     0.004 C 
ATOM     10  C4' N4B d   1      -1.061   0.133  -1.544  0.00  0.00     0.003 C 
ENDBRANCH   8   9
ENDBRANCH   7   8
ENDBRANCH   1   7
TORSDOF 3
ENDMDL
