MODEL 1
REMARK minimizedAffinity 3.05203962
REMARK minimizedRMSD -1
REMARK  3 active torsions:
REMARK  status: ('A' for Active; 'I' for Inactive)
REMARK    1  A    between atoms: C3'_2  and  C2'_3 
REMARK    2  A    between atoms: C2'_3  and  C1'_4 
REMARK    3  A    between atoms: C1'_4  and  C1_5 
ROOT
ATOM      1  C1  N4B d   1      -2.790  -0.052   1.447  0.00  0.00    -0.075 A 
ATOM      2  C2  N4B d   1      -3.433   1.182   1.205  0.00  0.00     0.002 A 
ATOM      3  C3  N4B d   1      -4.135   1.373   0.040  0.00  0.00     0.002 A 
ATOM      4  C4  N4B d   1      -4.192   0.356  -0.901  0.00  0.00    -0.004 A 
ATOM      5  C5  N4B d   1      -3.590  -0.841  -0.648  0.00  0.00     0.002 A 
ATOM      6  C6  N4B d   1      -2.884  -1.049   0.520  0.00  0.00     0.002 A 
ENDROOT
BRANCH   1   7
ATOM      7  C1' N4B d   1      -1.940  -0.278   2.667  0.00  0.00     0.057 C 
BRANCH   7   8
ATOM      8  C2' N4B d   1      -0.688   0.589   2.573  0.00  0.00     0.009 C 
BRANCH   8   9
ATOM      9  C3' N4B d   1       0.493  -0.037   3.294  0.00  0.00     0.004 C 
ATOM     10  C4' N4B d   1       1.595  -0.441   2.360  0.00  0.00     0.003 C 
ENDBRANCH   8   9
ENDBRANCH   7   8
ENDBRANCH   1   7
TORSDOF 3
ENDMDL
