MODEL 1
REMARK minimizedAffinity -4.51482248
REMARK minimizedRMSD -1
REMARK  0 active torsions:
REMARK  status: ('A' for Active; 'I' for Inactive)
ROOT
ATOM      1  O1  BZF d   1       0.419  -0.354   0.014  0.00  0.00    -0.204 OA
ATOM      2  C2  BZF d   1      -0.573   0.236  -0.746  0.00  0.00     0.174 A 
ATOM      3  C3  BZF d   1      -1.440   0.908   0.037  0.00  0.00    -0.012 A 
ATOM      4  C3A BZF d   1      -0.909   0.804   1.362  0.00  0.00    -0.107 A 
ATOM      5  C4  BZF d   1      -1.314   1.281   2.576  0.00  0.00     0.055 A 
ATOM      6  C5  BZF d   1      -0.611   0.939   3.687  0.00  0.00    -0.016 A 
ATOM      7  C6  BZF d   1       0.497   0.120   3.623  0.00  0.00     0.022 A 
ATOM      8  C7  BZF d   1       0.940  -0.372   2.440  0.00  0.00     0.029 A 
ATOM      9  C7A BZF d   1       0.251  -0.002   1.311  0.00  0.00     0.058 A 
ENDROOT
TORSDOF 0
ENDMDL
