MODEL 1
REMARK minimizedAffinity -3.81830812
REMARK minimizedRMSD -1
REMARK  0 active torsions:
REMARK  status: ('A' for Active; 'I' for Inactive)
ROOT
ATOM      1  O1  BZF d   1      -0.791  -0.294   0.559  0.00  0.00    -0.204 OA
ATOM      2  C2  BZF d   1      -1.607   0.817   0.647  0.00  0.00     0.174 A 
ATOM      3  C3  BZF d   1      -1.464   1.603  -0.439  0.00  0.00    -0.012 A 
ATOM      4  C3A BZF d   1      -0.565   0.896  -1.300  0.00  0.00    -0.107 A 
ATOM      5  C4  BZF d   1      -0.048   1.158  -2.536  0.00  0.00     0.055 A 
ATOM      6  C5  BZF d   1       0.860   0.297  -3.068  0.00  0.00    -0.016 A 
ATOM      7  C6  BZF d   1       1.276  -0.830  -2.390  0.00  0.00     0.022 A 
ATOM      8  C7  BZF d   1       0.786  -1.134  -1.163  0.00  0.00     0.029 A 
ATOM      9  C7A BZF d   1      -0.156  -0.284  -0.637  0.00  0.00     0.058 A 
ENDROOT
TORSDOF 0
ENDMDL
