MODEL 1
REMARK minimizedAffinity -3.73180723
REMARK minimizedRMSD -1
REMARK  0 active torsions:
REMARK  status: ('A' for Active; 'I' for Inactive)
ROOT
ATOM      1  O1  BZF d   1      -0.419   1.158  -3.020  0.00  0.00    -0.204 OA
ATOM      2  C2  BZF d   1       0.579   0.637  -3.821  0.00  0.00     0.174 A 
ATOM      3  C3  BZF d   1       1.368  -0.201  -3.118  0.00  0.00    -0.012 A 
ATOM      4  C3A BZF d   1       0.775  -0.275  -1.818  0.00  0.00    -0.107 A 
ATOM      5  C4  BZF d   1       1.091  -0.960  -0.680  0.00  0.00     0.055 A 
ATOM      6  C5  BZF d   1       0.350  -0.756   0.441  0.00  0.00    -0.016 A 
ATOM      7  C6  BZF d   1      -0.709   0.127   0.460  0.00  0.00     0.022 A 
ATOM      8  C7  BZF d   1      -1.064   0.825  -0.646  0.00  0.00     0.029 A 
ATOM      9  C7A BZF d   1      -0.338   0.597  -1.789  0.00  0.00     0.058 A 
ENDROOT
TORSDOF 0
ENDMDL
