MODEL 1
REMARK minimizedAffinity -3.89359474
REMARK minimizedRMSD -1
REMARK  0 active torsions:
REMARK  status: ('A' for Active; 'I' for Inactive)
ROOT
ATOM      1  O1  BZF d   1      -1.094  -0.745   0.213  0.00  0.00    -0.204 OA
ATOM      2  C2  BZF d   1      -1.512   0.527   0.553  0.00  0.00     0.174 A 
ATOM      3  C3  BZF d   1      -0.998   1.442  -0.294  0.00  0.00    -0.012 A 
ATOM      4  C3A BZF d   1      -0.283   0.685  -1.276  0.00  0.00    -0.107 A 
ATOM      5  C4  BZF d   1       0.431   1.028  -2.388  0.00  0.00     0.055 A 
ATOM      6  C5  BZF d   1       1.067   0.054  -3.091  0.00  0.00    -0.016 A 
ATOM      7  C6  BZF d   1       1.015  -1.270  -2.708  0.00  0.00     0.022 A 
ATOM      8  C7  BZF d   1       0.315  -1.659  -1.614  0.00  0.00     0.029 A 
ATOM      9  C7A BZF d   1      -0.356  -0.682  -0.921  0.00  0.00     0.058 A 
ENDROOT
TORSDOF 0
ENDMDL
