MODEL 1
REMARK minimizedAffinity -2.30028582
REMARK minimizedRMSD -1
REMARK  0 active torsions:
REMARK  status: ('A' for Active; 'I' for Inactive)
ROOT
ATOM      1  O1  BZF d   1       1.895  -1.041   2.388  0.00  0.00    -0.204 OA
ATOM      2  C2  BZF d   1       1.701  -0.909   3.749  0.00  0.00     0.174 A 
ATOM      3  C3  BZF d   1       0.474  -0.413   4.012  0.00  0.00    -0.012 A 
ATOM      4  C3A BZF d   1      -0.171  -0.311   2.739  0.00  0.00    -0.107 A 
ATOM      5  C4  BZF d   1      -1.412   0.101   2.345  0.00  0.00     0.055 A 
ATOM      6  C5  BZF d   1      -1.702   0.149   1.019  0.00  0.00    -0.016 A 
ATOM      7  C6  BZF d   1      -0.775  -0.203   0.059  0.00  0.00     0.022 A 
ATOM      8  C7  BZF d   1       0.467  -0.622   0.401  0.00  0.00     0.029 A 
ATOM      9  C7A BZF d   1       0.753  -0.703   1.742  0.00  0.00     0.058 A 
ENDROOT
TORSDOF 0
ENDMDL
