MODEL 1
REMARK minimizedAffinity -0.54904753
REMARK minimizedRMSD -1
REMARK  0 active torsions:
REMARK  status: ('A' for Active; 'I' for Inactive)
ROOT
ATOM      1  O1  BZF d   1       0.020   1.510  -3.194  0.00  0.00    -0.204 OA
ATOM      2  C2  BZF d   1       0.750   0.891  -4.191  0.00  0.00     0.174 A 
ATOM      3  C3  BZF d   1       1.323  -0.240  -3.733  0.00  0.00    -0.012 A 
ATOM      4  C3A BZF d   1       0.852  -0.383  -2.389  0.00  0.00    -0.107 A 
ATOM      5  C4  BZF d   1       1.057  -1.320  -1.417  0.00  0.00     0.055 A 
ATOM      6  C5  BZF d   1       0.509  -1.127  -0.188  0.00  0.00    -0.016 A 
ATOM      7  C6  BZF d   1      -0.244  -0.009   0.104  0.00  0.00     0.022 A 
ATOM      8  C7  BZF d   1      -0.479   0.945  -0.830  0.00  0.00     0.029 A 
ATOM      9  C7A BZF d   1       0.045   0.737  -2.082  0.00  0.00     0.058 A 
ENDROOT
TORSDOF 0
ENDMDL
