MODEL 1
REMARK minimizedAffinity -0.30205965
REMARK minimizedRMSD -1
REMARK  0 active torsions:
REMARK  status: ('A' for Active; 'I' for Inactive)
ROOT
ATOM      1  O1  BZF d   1       1.519   0.018  -0.683  0.00  0.00    -0.204 OA
ATOM      2  C2  BZF d   1       0.400  -0.375   0.027  0.00  0.00     0.174 A 
ATOM      3  C3  BZF d   1      -0.653  -0.547  -0.798  0.00  0.00    -0.012 A 
ATOM      4  C3A BZF d   1      -0.139  -0.332  -2.115  0.00  0.00    -0.107 A 
ATOM      5  C4  BZF d   1      -0.698  -0.377  -3.360  0.00  0.00     0.055 A 
ATOM      6  C5  BZF d   1       0.061  -0.045  -4.438  0.00  0.00    -0.016 A 
ATOM      7  C6  BZF d   1       1.378   0.342  -4.306  0.00  0.00     0.022 A 
ATOM      8  C7  BZF d   1       1.978   0.397  -3.092  0.00  0.00     0.029 A 
ATOM      9  C7A BZF d   1       1.224   0.030  -2.005  0.00  0.00     0.058 A 
ENDROOT
TORSDOF 0
ENDMDL
