MODEL 1
REMARK minimizedAffinity -3.30317211
REMARK minimizedRMSD -1
REMARK  0 active torsions:
REMARK  status: ('A' for Active; 'I' for Inactive)
ROOT
ATOM      1  C   UNL d   1      -1.043   1.443   2.242  0.00  0.00     0.078 C 
ATOM      2  C1  UNL d   1      -0.599   0.682   1.028  0.00  0.00    -0.077 A 
ATOM      3  C2  UNL d   1       0.750   0.361   0.832  0.00  0.00    -0.001 A 
ATOM      4  C3  UNL d   1       1.150  -0.339  -0.307  0.00  0.00     0.003 A 
ATOM      5  C4  UNL d   1       0.208  -0.722  -1.260  0.00  0.00    -0.005 A 
ATOM      6  C5  UNL d   1      -1.136  -0.405  -1.074  0.00  0.00     0.003 A 
ATOM      7  C6  UNL d   1      -1.538   0.295   0.064  0.00  0.00    -0.001 A 
ENDROOT
TORSDOF 0
ENDMDL
