MODEL 1
REMARK minimizedAffinity -5.35863829
REMARK minimizedRMSD -1
REMARK  0 active torsions:
REMARK  status: ('A' for Active; 'I' for Inactive)
ROOT
ATOM      1  C   UNL d   1       0.668  -0.577  -1.390  0.00  0.00     0.078 C 
ATOM      2  C1  UNL d   1       0.136   0.045  -0.134  0.00  0.00    -0.077 A 
ATOM      3  C2  UNL d   1       1.002   0.553   0.843  0.00  0.00    -0.001 A 
ATOM      4  C3  UNL d   1       0.493   1.121   2.012  0.00  0.00     0.003 A 
ATOM      5  C4  UNL d   1      -0.884   1.185   2.216  0.00  0.00    -0.005 A 
ATOM      6  C5  UNL d   1      -1.753   0.681   1.251  0.00  0.00     0.003 A 
ATOM      7  C6  UNL d   1      -1.246   0.113   0.082  0.00  0.00    -0.001 A 
ENDROOT
TORSDOF 0
ENDMDL
