MODEL 1
REMARK minimizedAffinity -4.70244074
REMARK minimizedRMSD -1
REMARK  0 active torsions:
REMARK  status: ('A' for Active; 'I' for Inactive)
ROOT
ATOM      1  C   UNL d   1       0.758  -0.972  -1.545  0.00  0.00     0.078 C 
ATOM      2  C1  UNL d   1      -0.041  -0.392  -0.417  0.00  0.00    -0.077 A 
ATOM      3  C2  UNL d   1      -1.439  -0.478  -0.405  0.00  0.00    -0.001 A 
ATOM      4  C3  UNL d   1      -2.171   0.075   0.647  0.00  0.00     0.003 A 
ATOM      5  C4  UNL d   1      -1.514   0.718   1.695  0.00  0.00    -0.005 A 
ATOM      6  C5  UNL d   1      -0.124   0.810   1.690  0.00  0.00     0.003 A 
ATOM      7  C6  UNL d   1       0.610   0.258   0.639  0.00  0.00    -0.001 A 
ENDROOT
TORSDOF 0
ENDMDL
