MODEL 1
REMARK minimizedAffinity -5.51334095
REMARK minimizedRMSD -1
REMARK  0 active torsions:
REMARK  status: ('A' for Active; 'I' for Inactive)
ROOT
ATOM      1  C   UNL d   1      -0.814   1.365   2.811  0.00  0.00     0.078 C 
ATOM      2  C1  UNL d   1      -0.471   0.731   1.496  0.00  0.00    -0.077 A 
ATOM      3  C2  UNL d   1      -1.467   0.422   0.562  0.00  0.00    -0.001 A 
ATOM      4  C3  UNL d   1      -1.134  -0.176  -0.654  0.00  0.00     0.003 A 
ATOM      5  C4  UNL d   1       0.196  -0.472  -0.948  0.00  0.00    -0.005 A 
ATOM      6  C5  UNL d   1       1.194  -0.170  -0.024  0.00  0.00     0.003 A 
ATOM      7  C6  UNL d   1       0.863   0.428   1.193  0.00  0.00    -0.001 A 
ENDROOT
TORSDOF 0
ENDMDL
