MODEL 1
REMARK minimizedAffinity -4.44757652
REMARK minimizedRMSD -1
REMARK  0 active torsions:
REMARK  status: ('A' for Active; 'I' for Inactive)
ROOT
ATOM      1  C   UNL d   1      -0.509   1.336   3.155  0.00  0.00     0.078 C 
ATOM      2  C1  UNL d   1      -0.106   0.506   1.974  0.00  0.00    -0.077 A 
ATOM      3  C2  UNL d   1       1.174  -0.057   1.891  0.00  0.00    -0.001 A 
ATOM      4  C3  UNL d   1       1.539  -0.820   0.781  0.00  0.00     0.003 A 
ATOM      5  C4  UNL d   1       0.631  -1.027  -0.255  0.00  0.00    -0.005 A 
ATOM      6  C5  UNL d   1      -0.644  -0.470  -0.183  0.00  0.00     0.003 A 
ATOM      7  C6  UNL d   1      -1.011   0.294   0.926  0.00  0.00    -0.001 A 
ENDROOT
TORSDOF 0
ENDMDL
