MODEL 1
REMARK minimizedAffinity -4.78687
REMARK minimizedRMSD -1
REMARK  0 active torsions:
REMARK  status: ('A' for Active; 'I' for Inactive)
ROOT
ATOM      1  C   UNL d   1      -0.778   1.607   2.861  0.00  0.00     0.078 C 
ATOM      2  C1  UNL d   1      -0.342   0.789   1.682  0.00  0.00    -0.077 A 
ATOM      3  C2  UNL d   1       0.991   0.385   1.538  0.00  0.00    -0.001 A 
ATOM      4  C3  UNL d   1       1.385  -0.367   0.430  0.00  0.00     0.003 A 
ATOM      5  C4  UNL d   1       0.452  -0.721  -0.543  0.00  0.00    -0.005 A 
ATOM      6  C5  UNL d   1      -0.876  -0.321  -0.410  0.00  0.00     0.003 A 
ATOM      7  C6  UNL d   1      -1.271   0.431   0.698  0.00  0.00    -0.001 A 
ENDROOT
TORSDOF 0
ENDMDL
