MODEL 1
REMARK minimizedAffinity 2.63859177
REMARK minimizedRMSD -1
REMARK  1 active torsions:
REMARK  status: ('A' for Active; 'I' for Inactive)
REMARK    1  A    between atoms: C1_2  and  C2_3 
ROOT
ATOM      1  C2  UNL d   1       0.812   0.930   1.617  0.00  0.00    -0.073 A 
ATOM      2  C3  UNL d   1       0.193   1.313   2.812  0.00  0.00    -0.002 A 
ATOM      3  C4  UNL d   1      -1.153   1.020   3.035  0.00  0.00     0.004 A 
ATOM      4  C5  UNL d   1      -1.891   0.335   2.070  0.00  0.00    -0.004 A 
ATOM      5  C6  UNL d   1      -1.288  -0.067   0.874  0.00  0.00    -0.075 A 
ATOM      6  C7  UNL d   1      -2.069  -0.803  -0.175  0.00  0.00     0.076 C 
ATOM      7  C8  UNL d   1       0.064   0.233   0.657  0.00  0.00     0.001 A 
ENDROOT
BRANCH   1   8
ATOM      8  C1  UNL d   1       2.267   1.239   1.374  0.00  0.00     0.053 C 
ATOM      9  C   UNL d   1       3.183   0.357   2.208  0.00  0.00     0.018 C 
ENDBRANCH   1   8
TORSDOF 1
ENDMDL
