MODEL 1
REMARK minimizedAffinity 1.41062343
REMARK minimizedRMSD -1
REMARK  1 active torsions:
REMARK  status: ('A' for Active; 'I' for Inactive)
REMARK    1  A    between atoms: C1_2  and  C2_3 
ROOT
ATOM      1  C2  UNL d   1      -1.221   0.018   1.361  0.00  0.00    -0.073 A 
ATOM      2  C3  UNL d   1      -1.759  -0.356   0.125  0.00  0.00    -0.002 A 
ATOM      3  C4  UNL d   1      -0.920  -0.751  -0.919  0.00  0.00     0.004 A 
ATOM      4  C5  UNL d   1       0.462  -0.782  -0.734  0.00  0.00    -0.004 A 
ATOM      5  C6  UNL d   1       1.018  -0.423   0.498  0.00  0.00    -0.075 A 
ATOM      6  C7  UNL d   1       2.503  -0.450   0.711  0.00  0.00     0.076 C 
ATOM      7  C8  UNL d   1       0.170  -0.026   1.540  0.00  0.00     0.001 A 
ENDROOT
BRANCH   1   8
ATOM      8  C1  UNL d   1      -2.123   0.439   2.492  0.00  0.00     0.053 C 
ATOM      9  C   UNL d   1      -1.979  -0.469   3.704  0.00  0.00     0.018 C 
ENDBRANCH   1   8
TORSDOF 1
ENDMDL
