MODEL 1
REMARK minimizedAffinity -6.20070124
REMARK minimizedRMSD -1
REMARK  1 active torsions:
REMARK  status: ('A' for Active; 'I' for Inactive)
REMARK    1  A    between atoms: C1_2  and  C2_3 
ROOT
ATOM      1  C2  UNL d   1       0.666  -0.261   0.240  0.00  0.00    -0.073 A 
ATOM      2  C3  UNL d   1      -0.552  -0.758  -0.238  0.00  0.00    -0.002 A 
ATOM      3  C4  UNL d   1      -1.758  -0.251   0.246  0.00  0.00     0.004 A 
ATOM      4  C5  UNL d   1      -1.761   0.760   1.206  0.00  0.00    -0.004 A 
ATOM      5  C6  UNL d   1      -0.554   1.277   1.689  0.00  0.00    -0.075 A 
ATOM      6  C7  UNL d   1      -0.539   2.363   2.724  0.00  0.00     0.076 C 
ATOM      7  C8  UNL d   1       0.654   0.762   1.200  0.00  0.00     0.001 A 
ENDROOT
BRANCH   1   8
ATOM      8  C1  UNL d   1       1.972  -0.800  -0.284  0.00  0.00     0.053 C 
ATOM      9  C   UNL d   1       2.559   0.086  -1.371  0.00  0.00     0.018 C 
ENDBRANCH   1   8
TORSDOF 1
ENDMDL
