MODEL 1
REMARK minimizedAffinity -4.30790997
REMARK minimizedRMSD -1
REMARK  1 active torsions:
REMARK  status: ('A' for Active; 'I' for Inactive)
REMARK    1  A    between atoms: C1_2  and  C2_3 
ROOT
ATOM      1  C2  UNL d   1       0.068   0.067   0.426  0.00  0.00    -0.073 A 
ATOM      2  C3  UNL d   1      -0.165   1.112   1.327  0.00  0.00    -0.002 A 
ATOM      3  C4  UNL d   1      -1.449   1.342   1.823  0.00  0.00     0.004 A 
ATOM      4  C5  UNL d   1      -2.510   0.526   1.430  0.00  0.00    -0.004 A 
ATOM      5  C6  UNL d   1      -2.295  -0.530   0.539  0.00  0.00    -0.075 A 
ATOM      6  C7  UNL d   1      -3.426  -1.415   0.105  0.00  0.00     0.076 C 
ATOM      7  C8  UNL d   1      -1.003  -0.753   0.044  0.00  0.00     0.001 A 
ENDROOT
BRANCH   1   8
ATOM      8  C1  UNL d   1       1.454  -0.189  -0.107  0.00  0.00     0.053 C 
ATOM      9  C   UNL d   1       2.210  -1.204   0.735  0.00  0.00     0.018 C 
ENDBRANCH   1   8
TORSDOF 1
ENDMDL
