MODEL 1
REMARK minimizedAffinity 1.50790334
REMARK minimizedRMSD -1
REMARK  1 active torsions:
REMARK  status: ('A' for Active; 'I' for Inactive)
REMARK    1  A    between atoms: C1_2  and  C2_3 
ROOT
ATOM      1  C2  UNL d   1      -0.356   0.168   1.591  0.00  0.00    -0.073 A 
ATOM      2  C3  UNL d   1       0.366   0.919   2.526  0.00  0.00    -0.002 A 
ATOM      3  C4  UNL d   1      -0.075   1.011   3.847  0.00  0.00     0.004 A 
ATOM      4  C5  UNL d   1      -1.235   0.350   4.248  0.00  0.00    -0.004 A 
ATOM      5  C6  UNL d   1      -1.964  -0.415   3.331  0.00  0.00    -0.075 A 
ATOM      6  C7  UNL d   1      -3.216  -1.131   3.746  0.00  0.00     0.076 C 
ATOM      7  C8  UNL d   1      -1.517  -0.501   2.006  0.00  0.00     0.001 A 
ENDROOT
BRANCH   1   8
ATOM      8  C1  UNL d   1       0.119   0.060   0.166  0.00  0.00     0.053 C 
ATOM      9  C   UNL d   1       1.459  -0.652   0.064  0.00  0.00     0.018 C 
ENDBRANCH   1   8
TORSDOF 1
ENDMDL
