MODEL 1
REMARK minimizedAffinity 8.31092834
REMARK minimizedRMSD -1
REMARK  1 active torsions:
REMARK  status: ('A' for Active; 'I' for Inactive)
REMARK    1  A    between atoms: C1_2  and  C2_3 
ROOT
ATOM      1  C2  UNL d   1      -5.478  -4.269  -4.590  0.00  0.00    -0.081 A 
ATOM      2  C3  UNL d   1      -4.616  -3.546  -3.757  0.00  0.00     0.006 A 
ATOM      3  C4  UNL d   1      -4.258  -4.046  -2.502  0.00  0.00     0.002 A 
ATOM      4  C5  UNL d   1      -4.749  -5.280  -2.064  0.00  0.00    -0.080 A 
ATOM      5  C6  UNL d   1      -4.349  -5.843  -0.732  0.00  0.00     0.076 C 
ATOM      6  C7  UNL d   1      -5.624  -5.995  -2.889  0.00  0.00     0.002 A 
ATOM      7  C8  UNL d   1      -5.983  -5.495  -4.143  0.00  0.00     0.006 A 
ENDROOT
BRANCH   1   8
ATOM      8  C1  UNL d   1      -5.815  -3.763  -5.969  0.00  0.00     0.054 C 
ATOM      9  C   UNL d   1      -5.889  -2.243  -5.998  0.00  0.00     0.018 C 
ENDBRANCH   1   8
TORSDOF 1
ENDMDL
