MODEL 1
REMARK minimizedAffinity 12.7164745
REMARK minimizedRMSD -1
REMARK  1 active torsions:
REMARK  status: ('A' for Active; 'I' for Inactive)
REMARK    1  A    between atoms: C1_2  and  C2_3 
ROOT
ATOM      1  C2  UNL d   1      -2.818  -5.877  -1.462  0.00  0.00    -0.081 A 
ATOM      2  C3  UNL d   1      -2.532  -6.000  -2.827  0.00  0.00     0.006 A 
ATOM      3  C4  UNL d   1      -3.547  -5.863  -3.778  0.00  0.00     0.002 A 
ATOM      4  C5  UNL d   1      -4.861  -5.594  -3.380  0.00  0.00    -0.080 A 
ATOM      5  C6  UNL d   1      -5.953  -5.415  -4.392  0.00  0.00     0.076 C 
ATOM      6  C7  UNL d   1      -5.149  -5.488  -2.015  0.00  0.00     0.002 A 
ATOM      7  C8  UNL d   1      -4.136  -5.625  -1.064  0.00  0.00     0.006 A 
ENDROOT
BRANCH   1   8
ATOM      8  C1  UNL d   1      -1.715  -5.959  -0.438  0.00  0.00     0.054 C 
ATOM      9  C   UNL d   1      -0.345  -5.993  -1.101  0.00  0.00     0.018 C 
ENDBRANCH   1   8
TORSDOF 1
ENDMDL
