MODEL 1
REMARK minimizedAffinity 6.74262571
REMARK minimizedRMSD -1
REMARK  1 active torsions:
REMARK  status: ('A' for Active; 'I' for Inactive)
REMARK    1  A    between atoms: C1_2  and  C2_3 
ROOT
ATOM      1  C2  UNL d   1      -4.947  -4.656  -3.952  0.00  0.00    -0.081 A 
ATOM      2  C3  UNL d   1      -5.797  -4.090  -4.909  0.00  0.00     0.006 A 
ATOM      3  C4  UNL d   1      -5.439  -2.909  -5.565  0.00  0.00     0.002 A 
ATOM      4  C5  UNL d   1      -4.223  -2.280  -5.280  0.00  0.00    -0.080 A 
ATOM      5  C6  UNL d   1      -3.813  -1.029  -5.998  0.00  0.00     0.076 C 
ATOM      6  C7  UNL d   1      -3.381  -2.836  -4.311  0.00  0.00     0.002 A 
ATOM      7  C8  UNL d   1      -3.738  -4.016  -3.655  0.00  0.00     0.006 A 
ENDROOT
BRANCH   1   8
ATOM      8  C1  UNL d   1      -5.300  -5.964  -3.290  0.00  0.00     0.054 C 
ATOM      9  C   UNL d   1      -4.824  -5.999  -1.845  0.00  0.00     0.018 C 
ENDBRANCH   1   8
TORSDOF 1
ENDMDL
