MODEL 1
REMARK minimizedAffinity 4.22354746
REMARK minimizedRMSD -1
REMARK  1 active torsions:
REMARK  status: ('A' for Active; 'I' for Inactive)
REMARK    1  A    between atoms: C1_2  and  C2_3 
ROOT
ATOM      1  C2  UNL d   1      -2.495  -3.789  -3.656  0.00  0.00    -0.081 A 
ATOM      2  C3  UNL d   1      -3.774  -3.312  -3.966  0.00  0.00     0.006 A 
ATOM      3  C4  UNL d   1      -4.910  -4.031  -3.586  0.00  0.00     0.002 A 
ATOM      4  C5  UNL d   1      -4.786  -5.234  -2.883  0.00  0.00    -0.080 A 
ATOM      5  C6  UNL d   1      -5.998  -6.000  -2.443  0.00  0.00     0.076 C 
ATOM      6  C7  UNL d   1      -3.508  -5.720  -2.588  0.00  0.00     0.002 A 
ATOM      7  C8  UNL d   1      -2.372  -5.002  -2.968  0.00  0.00     0.006 A 
ENDROOT
BRANCH   1   8
ATOM      8  C1  UNL d   1      -1.270  -2.984  -4.007  0.00  0.00     0.054 C 
ATOM      9  C   UNL d   1      -0.002  -3.656  -3.500  0.00  0.00     0.018 C 
ENDBRANCH   1   8
TORSDOF 1
ENDMDL
