MODEL 1
REMARK minimizedAffinity 15.2871532
REMARK minimizedRMSD -1
REMARK  1 active torsions:
REMARK  status: ('A' for Active; 'I' for Inactive)
REMARK    1  A    between atoms: C1_2  and  C2_3 
ROOT
ATOM      1  C2  UNL d   1      -3.044  -2.859  -4.183  0.00  0.00    -0.081 A 
ATOM      2  C3  UNL d   1      -2.813  -4.001  -3.405  0.00  0.00     0.006 A 
ATOM      3  C4  UNL d   1      -3.773  -5.013  -3.332  0.00  0.00     0.002 A 
ATOM      4  C5  UNL d   1      -4.974  -4.906  -4.040  0.00  0.00    -0.080 A 
ATOM      5  C6  UNL d   1      -5.999  -6.000  -3.994  0.00  0.00     0.076 C 
ATOM      6  C7  UNL d   1      -5.212  -3.758  -4.803  0.00  0.00     0.002 A 
ATOM      7  C8  UNL d   1      -4.254  -2.744  -4.877  0.00  0.00     0.006 A 
ENDROOT
BRANCH   1   8
ATOM      8  C1  UNL d   1      -1.985  -1.795  -4.316  0.00  0.00     0.054 C 
ATOM      9  C   UNL d   1      -1.839  -0.996  -3.029  0.00  0.00     0.018 C 
ENDBRANCH   1   8
TORSDOF 1
ENDMDL
