MODEL 1
REMARK minimizedAffinity 17.2607174
REMARK minimizedRMSD -1
REMARK  1 active torsions:
REMARK  status: ('A' for Active; 'I' for Inactive)
REMARK    1  A    between atoms: C1_2  and  C2_3 
ROOT
ATOM      1  C2  UNL d   1      -4.015  -0.416   3.063  0.00  0.00    -0.081 A 
ATOM      2  C3  UNL d   1      -3.481   0.373   2.037  0.00  0.00     0.006 A 
ATOM      3  C4  UNL d   1      -2.104   0.396   1.805  0.00  0.00     0.002 A 
ATOM      4  C5  UNL d   1      -1.239  -0.376   2.589  0.00  0.00    -0.080 A 
ATOM      5  C6  UNL d   1       0.238  -0.384   2.331  0.00  0.00     0.076 C 
ATOM      6  C7  UNL d   1      -1.771  -1.150   3.625  0.00  0.00     0.002 A 
ATOM      7  C8  UNL d   1      -3.148  -1.173   3.858  0.00  0.00     0.006 A 
ENDROOT
BRANCH   1   8
ATOM      8  C1  UNL d   1      -5.506  -0.493   3.275  0.00  0.00     0.054 C 
ATOM      9  C   UNL d   1      -5.998  -1.932   3.225  0.00  0.00     0.018 C 
ENDBRANCH   1   8
TORSDOF 1
ENDMDL
