MODEL 1
REMARK minimizedAffinity 3.99499369
REMARK minimizedRMSD -1
REMARK  1 active torsions:
REMARK  status: ('A' for Active; 'I' for Inactive)
REMARK    1  A    between atoms: C1_2  and  C2_3 
ROOT
ATOM      1  C2  UNL d   1      -4.114  -4.998  -3.005  0.00  0.00    -0.081 A 
ATOM      2  C3  UNL d   1      -3.445  -3.882  -3.523  0.00  0.00     0.006 A 
ATOM      3  C4  UNL d   1      -4.046  -3.087  -4.501  0.00  0.00     0.002 A 
ATOM      4  C5  UNL d   1      -5.329  -3.389  -4.972  0.00  0.00    -0.080 A 
ATOM      5  C6  UNL d   1      -5.998  -2.526  -6.000  0.00  0.00     0.076 C 
ATOM      6  C7  UNL d   1      -5.990  -4.513  -4.467  0.00  0.00     0.002 A 
ATOM      7  C8  UNL d   1      -5.389  -5.309  -3.489  0.00  0.00     0.006 A 
ENDROOT
BRANCH   1   8
ATOM      8  C1  UNL d   1      -3.494  -5.819  -1.903  0.00  0.00     0.054 C 
ATOM      9  C   UNL d   1      -2.098  -5.320  -1.559  0.00  0.00     0.018 C 
ENDBRANCH   1   8
TORSDOF 1
ENDMDL
