MODEL 1
REMARK minimizedAffinity 6.54741621
REMARK minimizedRMSD -1
REMARK  1 active torsions:
REMARK  status: ('A' for Active; 'I' for Inactive)
REMARK    1  A    between atoms: C1_2  and  C2_3 
ROOT
ATOM      1  C2  UNL d   1      -4.323  -0.360   2.977  0.00  0.00    -0.081 A 
ATOM      2  C3  UNL d   1      -3.976   0.400   1.853  0.00  0.00     0.006 A 
ATOM      3  C4  UNL d   1      -2.635   0.580   1.506  0.00  0.00     0.002 A 
ATOM      4  C5  UNL d   1      -1.619  -0.002   2.272  0.00  0.00    -0.080 A 
ATOM      5  C6  UNL d   1      -0.177   0.158   1.893  0.00  0.00     0.076 C 
ATOM      6  C7  UNL d   1      -1.965  -0.747   3.405  0.00  0.00     0.002 A 
ATOM      7  C8  UNL d   1      -3.306  -0.927   3.752  0.00  0.00     0.006 A 
ENDROOT
BRANCH   1   8
ATOM      8  C1  UNL d   1      -5.770  -0.610   3.316  0.00  0.00     0.054 C 
ATOM      9  C   UNL d   1      -5.998  -2.055   3.735  0.00  0.00     0.018 C 
ENDBRANCH   1   8
TORSDOF 1
ENDMDL
