MODEL 1
REMARK minimizedAffinity 0.618891418
REMARK minimizedRMSD -1
REMARK  1 active torsions:
REMARK  status: ('A' for Active; 'I' for Inactive)
REMARK    1  A    between atoms: C1_2  and  C2_3 
ROOT
ATOM      1  C2  UNL d   1       2.249  -0.721  -1.765  0.00  0.00    -0.081 A 
ATOM      2  C3  UNL d   1       2.559  -1.704  -0.816  0.00  0.00     0.006 A 
ATOM      3  C4  UNL d   1       2.130  -3.021  -0.995  0.00  0.00     0.002 A 
ATOM      4  C5  UNL d   1       1.390  -3.379  -2.127  0.00  0.00    -0.080 A 
ATOM      5  C6  UNL d   1       0.949  -4.796  -2.346  0.00  0.00     0.076 C 
ATOM      6  C7  UNL d   1       1.066  -2.394  -3.066  0.00  0.00     0.002 A 
ATOM      7  C8  UNL d   1       1.494  -1.077  -2.888  0.00  0.00     0.006 A 
ENDROOT
BRANCH   1   8
ATOM      8  C1  UNL d   1       2.766   0.686  -1.607  0.00  0.00     0.054 C 
ATOM      9  C   UNL d   1       2.177   1.613  -2.661  0.00  0.00     0.018 C 
ENDBRANCH   1   8
TORSDOF 1
ENDMDL
