MODEL 1
REMARK minimizedAffinity 5.45951891
REMARK minimizedRMSD -1
REMARK  1 active torsions:
REMARK  status: ('A' for Active; 'I' for Inactive)
REMARK    1  A    between atoms: C1_2  and  C2_3 
ROOT
ATOM      1  C2  UNL d   1       2.753  -0.362  -1.321  0.00  0.00    -0.081 A 
ATOM      2  C3  UNL d   1       2.072  -0.533  -2.532  0.00  0.00     0.006 A 
ATOM      3  C4  UNL d   1       1.767  -1.814  -2.998  0.00  0.00     0.002 A 
ATOM      4  C5  UNL d   1       2.131  -2.944  -2.258  0.00  0.00    -0.080 A 
ATOM      5  C6  UNL d   1       1.783  -4.324  -2.732  0.00  0.00     0.076 C 
ATOM      6  C7  UNL d   1       2.827  -2.774  -1.057  0.00  0.00     0.002 A 
ATOM      7  C8  UNL d   1       3.133  -1.493  -0.590  0.00  0.00     0.006 A 
ENDROOT
BRANCH   1   8
ATOM      8  C1  UNL d   1       3.026   1.020  -0.784  0.00  0.00     0.054 C 
ATOM      9  C   UNL d   1       3.887   0.966   0.470  0.00  0.00     0.018 C 
ENDBRANCH   1   8
TORSDOF 1
ENDMDL
