MODEL 1
REMARK minimizedAffinity 7.49830103
REMARK minimizedRMSD -1
REMARK  1 active torsions:
REMARK  status: ('A' for Active; 'I' for Inactive)
REMARK    1  A    between atoms: C1_2  and  C2_3 
ROOT
ATOM      1  C2  UNL d   1      -2.983   2.348   3.721  0.00  0.00    -0.081 A 
ATOM      2  C3  UNL d   1      -2.985   3.595   3.083  0.00  0.00     0.006 A 
ATOM      3  C4  UNL d   1      -2.801   4.767   3.819  0.00  0.00     0.002 A 
ATOM      4  C5  UNL d   1      -2.604   4.713   5.203  0.00  0.00    -0.080 A 
ATOM      5  C6  UNL d   1      -2.374   5.963   6.000  0.00  0.00     0.076 C 
ATOM      6  C7  UNL d   1      -2.619   3.470   5.843  0.00  0.00     0.002 A 
ATOM      7  C8  UNL d   1      -2.804   2.297   5.108  0.00  0.00     0.006 A 
ENDROOT
BRANCH   1   8
ATOM      8  C1  UNL d   1      -3.117   1.077   2.922  0.00  0.00     0.054 C 
ATOM      9  C   UNL d   1      -1.799   0.696   2.264  0.00  0.00     0.018 C 
ENDBRANCH   1   8
TORSDOF 1
ENDMDL
