MODEL 1
REMARK minimizedAffinity 10.2801981
REMARK minimizedRMSD -1
REMARK  1 active torsions:
REMARK  status: ('A' for Active; 'I' for Inactive)
REMARK    1  A    between atoms: C1_2  and  C2_3 
ROOT
ATOM      1  C2  UNL d   1      -2.185   0.407   2.195  0.00  0.00    -0.081 A 
ATOM      2  C3  UNL d   1      -1.157  -0.439   2.630  0.00  0.00     0.006 A 
ATOM      3  C4  UNL d   1       0.157   0.027   2.712  0.00  0.00     0.002 A 
ATOM      4  C5  UNL d   1       0.464   1.348   2.369  0.00  0.00    -0.080 A 
ATOM      5  C6  UNL d   1       1.866   1.870   2.482  0.00  0.00     0.076 C 
ATOM      6  C7  UNL d   1      -0.559   2.188   1.918  0.00  0.00     0.002 A 
ATOM      7  C8  UNL d   1      -1.873   1.723   1.835  0.00  0.00     0.006 A 
ENDROOT
BRANCH   1   8
ATOM      8  C1  UNL d   1      -3.613  -0.073   2.167  0.00  0.00     0.054 C 
ATOM      9  C   UNL d   1      -4.219  -0.091   3.563  0.00  0.00     0.018 C 
ENDBRANCH   1   8
TORSDOF 1
ENDMDL
