MODEL 1
REMARK minimizedAffinity -1.87371194
REMARK minimizedRMSD -1
REMARK  0 active torsions:
REMARK  status: ('A' for Active; 'I' for Inactive)
ROOT
ATOM      1  C4' PXY d   1       1.716   2.890  -0.881  0.00  0.00     0.077 C 
ATOM      2  C1' PXY d   1       0.804  -1.763   2.426  0.00  0.00     0.077 C 
ATOM      3  C1  PXY d   1       1.033  -0.546   1.551  0.00  0.00    -0.082 A 
ATOM      4  C2  PXY d   1       2.225   0.028   1.529  0.00  0.00     0.003 A 
ATOM      5  C3  PXY d   1       2.441   1.148   0.768  0.00  0.00     0.003 A 
ATOM      6  C4  PXY d   1       1.442   1.654  -0.020  0.00  0.00    -0.082 A 
ATOM      7  C5  PXY d   1       0.226   1.067  -0.010  0.00  0.00     0.003 A 
ATOM      8  C6  PXY d   1       0.015  -0.044   0.801  0.00  0.00     0.003 A 
ENDROOT
TORSDOF 0
ENDMDL
