MODEL 1
REMARK minimizedAffinity -1.18947029
REMARK minimizedRMSD -1
REMARK  0 active torsions:
REMARK  status: ('A' for Active; 'I' for Inactive)
ROOT
ATOM      1  C4' PXY d   1       1.563   1.039   0.432  0.00  0.00     0.077 C 
ATOM      2  C1' PXY d   1       0.851  -2.954   4.551  0.00  0.00     0.077 C 
ATOM      3  C1  PXY d   1       1.035  -1.915   3.462  0.00  0.00    -0.082 A 
ATOM      4  C2  PXY d   1       1.805  -0.863   3.685  0.00  0.00     0.003 A 
ATOM      5  C3  PXY d   1       1.956   0.102   2.722  0.00  0.00     0.003 A 
ATOM      6  C4  PXY d   1       1.356  -0.039   1.499  0.00  0.00    -0.082 A 
ATOM      7  C5  PXY d   1       0.578  -1.116   1.261  0.00  0.00     0.003 A 
ATOM      8  C6  PXY d   1       0.404  -2.063   2.266  0.00  0.00     0.003 A 
ENDROOT
TORSDOF 0
ENDMDL
