MODEL 1
REMARK minimizedAffinity 1.6795187
REMARK minimizedRMSD -1
REMARK  0 active torsions:
REMARK  status: ('A' for Active; 'I' for Inactive)
ROOT
ATOM      1  C4' PXY d   1       4.228  -2.978   4.400  0.00  0.00     0.077 C 
ATOM      2  C1' PXY d   1       0.180  -0.377   1.198  0.00  0.00     0.077 C 
ATOM      3  C1  PXY d   1       1.251  -1.055   2.029  0.00  0.00    -0.082 A 
ATOM      4  C2  PXY d   1       0.928  -2.079   2.802  0.00  0.00     0.003 A 
ATOM      5  C3  PXY d   1       1.878  -2.684   3.585  0.00  0.00     0.003 A 
ATOM      6  C4  PXY d   1       3.182  -2.269   3.536  0.00  0.00    -0.082 A 
ATOM      7  C5  PXY d   1       3.521  -1.232   2.742  0.00  0.00     0.003 A 
ATOM      8  C6  PXY d   1       2.534  -0.605   1.986  0.00  0.00     0.003 A 
ENDROOT
TORSDOF 0
ENDMDL
