MODEL 1
REMARK minimizedAffinity 7.06558895
REMARK minimizedRMSD -1
REMARK  0 active torsions:
REMARK  status: ('A' for Active; 'I' for Inactive)
ROOT
ATOM      1  C4' PXY d   1       4.195  -1.105  -2.542  0.00  0.00     0.077 C 
ATOM      2  C1' PXY d   1      -0.597  -4.114  -1.357  0.00  0.00     0.077 C 
ATOM      3  C1  PXY d   1       0.667  -3.334  -1.662  0.00  0.00    -0.082 A 
ATOM      4  C2  PXY d   1       0.594  -2.032  -1.889  0.00  0.00     0.003 A 
ATOM      5  C3  PXY d   1       1.722  -1.318  -2.197  0.00  0.00     0.003 A 
ATOM      6  C4  PXY d   1       2.946  -1.931  -2.221  0.00  0.00    -0.082 A 
ATOM      7  C5  PXY d   1       3.031  -3.257  -1.980  0.00  0.00     0.003 A 
ATOM      8  C6  PXY d   1       1.868  -3.972  -1.710  0.00  0.00     0.003 A 
ENDROOT
TORSDOF 0
ENDMDL
