MODEL 1
REMARK minimizedAffinity 0.53582561
REMARK minimizedRMSD -1
REMARK  0 active torsions:
REMARK  status: ('A' for Active; 'I' for Inactive)
ROOT
ATOM      1  C4' PXY d   1      -5.873   0.386   2.435  0.00  0.00     0.077 C 
ATOM      2  C1' PXY d   1      -4.611   1.992  -2.973  0.00  0.00     0.077 C 
ATOM      3  C1  PXY d   1      -4.932   1.577  -1.550  0.00  0.00    -0.082 A 
ATOM      4  C2  PXY d   1      -5.673   0.503  -1.333  0.00  0.00     0.003 A 
ATOM      5  C3  PXY d   1      -5.999   0.131  -0.054  0.00  0.00     0.003 A 
ATOM      6  C4  PXY d   1      -5.517   0.837   1.016  0.00  0.00    -0.082 A 
ATOM      7  C5  PXY d   1      -4.751   1.928   0.803  0.00  0.00     0.003 A 
ATOM      8  C6  PXY d   1      -4.466   2.312  -0.504  0.00  0.00     0.003 A 
ENDROOT
TORSDOF 0
ENDMDL
