MODEL 1
REMARK minimizedAffinity 1.48488319
REMARK minimizedRMSD -1
REMARK  0 active torsions:
REMARK  status: ('A' for Active; 'I' for Inactive)
ROOT
ATOM      1  C4' PXY d   1      -6.000   1.504  -1.684  0.00  0.00     0.077 C 
ATOM      2  C1' PXY d   1      -3.376   4.120   2.754  0.00  0.00     0.077 C 
ATOM      3  C1  PXY d   1      -4.076   3.440   1.593  0.00  0.00    -0.082 A 
ATOM      4  C2  PXY d   1      -3.589   2.309   1.108  0.00  0.00     0.003 A 
ATOM      5  C3  PXY d   1      -4.190   1.697   0.038  0.00  0.00     0.003 A 
ATOM      6  C4  PXY d   1      -5.332   2.220  -0.507  0.00  0.00    -0.082 A 
ATOM      7  C5  PXY d   1      -5.841   3.368  -0.011  0.00  0.00     0.003 A 
ATOM      8  C6  PXY d   1      -5.192   3.995   1.049  0.00  0.00     0.003 A 
ENDROOT
TORSDOF 0
ENDMDL
