MODEL 1
REMARK minimizedAffinity 2.40771294
REMARK minimizedRMSD -1
REMARK  0 active torsions:
REMARK  status: ('A' for Active; 'I' for Inactive)
ROOT
ATOM      1  C4' PXY d   1      -6.000   2.222  -3.078  0.00  0.00     0.077 C 
ATOM      2  C1' PXY d   1      -5.246   3.315   2.548  0.00  0.00     0.077 C 
ATOM      3  C1  PXY d   1      -5.436   3.018   1.073  0.00  0.00    -0.082 A 
ATOM      4  C2  PXY d   1      -5.792   3.991   0.250  0.00  0.00     0.003 A 
ATOM      5  C3  PXY d   1      -5.999   3.733  -1.080  0.00  0.00     0.003 A 
ATOM      6  C4  PXY d   1      -5.788   2.478  -1.584  0.00  0.00    -0.082 A 
ATOM      7  C5  PXY d   1      -5.414   1.482  -0.753  0.00  0.00     0.003 A 
ATOM      8  C6  PXY d   1      -5.249   1.755   0.602  0.00  0.00     0.003 A 
ENDROOT
TORSDOF 0
ENDMDL
