MODEL 1
REMARK minimizedAffinity 4.35842466
REMARK minimizedRMSD -1
REMARK  0 active torsions:
REMARK  status: ('A' for Active; 'I' for Inactive)
ROOT
ATOM      1  C4' PXY d   1      -5.645   4.249   2.832  0.00  0.00     0.077 C 
ATOM      2  C1' PXY d   1      -5.634   0.564  -1.621  0.00  0.00     0.077 C 
ATOM      3  C1  PXY d   1      -5.635   1.540  -0.462  0.00  0.00    -0.082 A 
ATOM      4  C2  PXY d   1      -5.288   1.123   0.745  0.00  0.00     0.003 A 
ATOM      5  C3  PXY d   1      -5.315   1.985   1.811  0.00  0.00     0.003 A 
ATOM      6  C4  PXY d   1      -5.649   3.300   1.630  0.00  0.00    -0.082 A 
ATOM      7  C5  PXY d   1      -5.993   3.736   0.400  0.00  0.00     0.003 A 
ATOM      8  C6  PXY d   1      -6.000   2.836  -0.661  0.00  0.00     0.003 A 
ENDROOT
TORSDOF 0
ENDMDL
