MODEL 1
REMARK minimizedAffinity 12.5694227
REMARK minimizedRMSD -1
REMARK  0 active torsions:
REMARK  status: ('A' for Active; 'I' for Inactive)
ROOT
ATOM      1  C4' PXY d   1       1.005  -2.117  -1.312  0.00  0.00     0.077 C 
ATOM      2  C1' PXY d   1       1.649  -1.952   4.431  0.00  0.00     0.077 C 
ATOM      3  C1  PXY d   1       1.473  -1.984   2.925  0.00  0.00    -0.082 A 
ATOM      4  C2  PXY d   1       1.608  -3.129   2.275  0.00  0.00     0.003 A 
ATOM      5  C3  PXY d   1       1.484  -3.171   0.911  0.00  0.00     0.003 A 
ATOM      6  C4  PXY d   1       1.165  -2.039   0.209  0.00  0.00    -0.082 A 
ATOM      7  C5  PXY d   1       1.015  -0.869   0.866  0.00  0.00     0.003 A 
ATOM      8  C6  PXY d   1       1.186  -0.840   2.247  0.00  0.00     0.003 A 
ENDROOT
TORSDOF 0
ENDMDL
