MODEL 1
REMARK minimizedAffinity -1.32660007
REMARK minimizedRMSD -1
REMARK  0 active torsions:
REMARK  status: ('A' for Active; 'I' for Inactive)
ROOT
ATOM      1  C4' PXY d   1      -3.681   1.912  -3.371  0.00  0.00     0.077 C 
ATOM      2  C1' PXY d   1      -5.605   3.417   1.868  0.00  0.00     0.077 C 
ATOM      3  C1  PXY d   1      -5.111   3.015   0.492  0.00  0.00    -0.082 A 
ATOM      4  C2  PXY d   1      -3.814   3.034   0.231  0.00  0.00     0.003 A 
ATOM      5  C3  PXY d   1      -3.353   2.705  -1.017  0.00  0.00     0.003 A 
ATOM      6  C4  PXY d   1      -4.224   2.301  -1.993  0.00  0.00    -0.082 A 
ATOM      7  C5  PXY d   1      -5.548   2.269  -1.732  0.00  0.00     0.003 A 
ATOM      8  C6  PXY d   1      -5.999   2.646  -0.471  0.00  0.00     0.003 A 
ENDROOT
TORSDOF 0
ENDMDL
