MODEL 1
REMARK minimizedAffinity 7.10132504
REMARK minimizedRMSD -1
REMARK  0 active torsions:
REMARK  status: ('A' for Active; 'I' for Inactive)
ROOT
ATOM      1  C   UNL d   1      -0.783   0.661   0.702  0.00  0.00     0.020 A 
ATOM      2  C1  UNL d   1      -0.755   2.039   0.914  0.00  0.00     0.020 A 
ATOM      3  C2  UNL d   1       0.098   2.581   1.877  0.00  0.00     0.034 A 
ATOM      4  C3  UNL d   1       0.927   1.744   2.634  0.00  0.00     0.017 A 
ATOM      5  C4  UNL d   1       0.898   0.361   2.421  0.00  0.00     0.017 A 
ATOM      6  C5  UNL d   1       0.042  -0.176   1.455  0.00  0.00     0.034 A 
ATOM      7 Cl   UNL d   1       1.891  -0.735   3.315  0.00  0.00    -0.070 Cl
ATOM      8 Cl1  UNL d   1       1.957   2.482   3.808  0.00  0.00    -0.070 Cl
ENDROOT
TORSDOF 0
ENDMDL
