MODEL 1
REMARK minimizedAffinity 11.8643751
REMARK minimizedRMSD -1
REMARK  0 active torsions:
REMARK  status: ('A' for Active; 'I' for Inactive)
ROOT
ATOM      1  C   UNL d   1      -0.403   0.784   1.326  0.00  0.00     0.020 A 
ATOM      2  C1  UNL d   1       0.359  -0.089   0.551  0.00  0.00     0.020 A 
ATOM      3  C2  UNL d   1      -0.080  -0.456  -0.723  0.00  0.00     0.034 A 
ATOM      4  C3  UNL d   1      -1.284   0.051  -1.226  0.00  0.00     0.017 A 
ATOM      5  C4  UNL d   1      -2.048   0.928  -0.447  0.00  0.00     0.017 A 
ATOM      6  C5  UNL d   1      -1.603   1.292   0.828  0.00  0.00     0.034 A 
ATOM      7 Cl   UNL d   1      -3.543   1.595  -0.999  0.00  0.00    -0.070 Cl
ATOM      8 Cl1  UNL d   1      -1.766  -0.444  -2.809  0.00  0.00    -0.070 Cl
ENDROOT
TORSDOF 0
ENDMDL
