MODEL 1
REMARK minimizedAffinity -1.15389419
REMARK minimizedRMSD -1
REMARK  0 active torsions:
REMARK  status: ('A' for Active; 'I' for Inactive)
ROOT
ATOM      1  C   UNL d   1      -0.476  -2.343  -2.558  0.00  0.00     0.020 A 
ATOM      2  C1  UNL d   1       0.472  -3.072  -1.842  0.00  0.00     0.020 A 
ATOM      3  C2  UNL d   1       1.009  -2.551  -0.662  0.00  0.00     0.034 A 
ATOM      4  C3  UNL d   1       0.598  -1.297  -0.196  0.00  0.00     0.017 A 
ATOM      5  C4  UNL d   1      -0.355  -0.566  -0.915  0.00  0.00     0.017 A 
ATOM      6  C5  UNL d   1      -0.889  -1.093  -2.095  0.00  0.00     0.034 A 
ATOM      7 Cl   UNL d   1      -0.912   0.988  -0.402  0.00  0.00    -0.070 Cl
ATOM      8 Cl1  UNL d   1       1.303  -0.715   1.270  0.00  0.00    -0.070 Cl
ENDROOT
TORSDOF 0
ENDMDL
