MODEL 1
REMARK minimizedAffinity -2.52235413
REMARK minimizedRMSD -1
REMARK  0 active torsions:
REMARK  status: ('A' for Active; 'I' for Inactive)
ROOT
ATOM      1  C   UNL d   1      -1.378   3.349   0.421  0.00  0.00     0.020 A 
ATOM      2  C1  UNL d   1      -1.584   2.125  -0.214  0.00  0.00     0.020 A 
ATOM      3  C2  UNL d   1      -0.750   1.042   0.070  0.00  0.00     0.034 A 
ATOM      4  C3  UNL d   1       0.295   1.181   0.992  0.00  0.00     0.017 A 
ATOM      5  C4  UNL d   1       0.501   2.410   1.628  0.00  0.00     0.017 A 
ATOM      6  C5  UNL d   1      -0.338   3.491   1.340  0.00  0.00     0.034 A 
ATOM      7 Cl   UNL d   1       1.768   2.658   2.777  0.00  0.00    -0.070 Cl
ATOM      8 Cl1  UNL d   1       1.287  -0.200   1.295  0.00  0.00    -0.070 Cl
ENDROOT
TORSDOF 0
ENDMDL
