MODEL 1
REMARK minimizedAffinity -3.95334768
REMARK minimizedRMSD -1
REMARK  0 active torsions:
REMARK  status: ('A' for Active; 'I' for Inactive)
ROOT
ATOM      1  C   UNL d   1       0.571  -0.366   0.415  0.00  0.00     0.020 A 
ATOM      2  C1  UNL d   1      -0.692  -0.128  -0.126  0.00  0.00     0.020 A 
ATOM      3  C2  UNL d   1      -1.346   1.078   0.133  0.00  0.00     0.034 A 
ATOM      4  C3  UNL d   1      -0.738   2.050   0.935  0.00  0.00     0.017 A 
ATOM      5  C4  UNL d   1       0.529   1.811   1.478  0.00  0.00     0.017 A 
ATOM      6  C5  UNL d   1       1.180   0.601   1.215  0.00  0.00     0.034 A 
ATOM      7 Cl   UNL d   1       1.343   2.963   2.476  0.00  0.00    -0.070 Cl
ATOM      8 Cl1  UNL d   1      -1.605   3.519   1.214  0.00  0.00    -0.070 Cl
ENDROOT
TORSDOF 0
ENDMDL
