MODEL 1
REMARK minimizedAffinity -3.20009542
REMARK minimizedRMSD -1
REMARK  0 active torsions:
REMARK  status: ('A' for Active; 'I' for Inactive)
ROOT
ATOM      1  C   UNL d   1      -1.460   2.966   0.869  0.00  0.00     0.020 A 
ATOM      2  C1  UNL d   1      -0.784   3.963   1.571  0.00  0.00     0.020 A 
ATOM      3  C2  UNL d   1       0.454   3.688   2.155  0.00  0.00     0.034 A 
ATOM      4  C3  UNL d   1       1.020   2.413   2.039  0.00  0.00     0.017 A 
ATOM      5  C4  UNL d   1       0.341   1.413   1.333  0.00  0.00     0.017 A 
ATOM      6  C5  UNL d   1      -0.899   1.694   0.750  0.00  0.00     0.034 A 
ATOM      7 Cl   UNL d   1       0.975  -0.184   1.146  0.00  0.00    -0.070 Cl
ATOM      8 Cl1  UNL d   1       2.554   2.144   2.786  0.00  0.00    -0.070 Cl
ENDROOT
TORSDOF 0
ENDMDL
