MODEL 1
REMARK minimizedAffinity -0.0229385719
REMARK minimizedRMSD -1
REMARK  0 active torsions:
REMARK  status: ('A' for Active; 'I' for Inactive)
ROOT
ATOM      1  C   UNL d   1       0.470   4.803  -1.586  0.00  0.00     0.020 A 
ATOM      2  C1  UNL d   1       0.879   5.580  -0.503  0.00  0.00     0.020 A 
ATOM      3  C2  UNL d   1       1.081   4.988   0.746  0.00  0.00     0.034 A 
ATOM      4  C3  UNL d   1       0.875   3.614   0.914  0.00  0.00     0.017 A 
ATOM      5  C4  UNL d   1       0.465   2.834  -0.173  0.00  0.00     0.017 A 
ATOM      6  C5  UNL d   1       0.264   3.432  -1.421  0.00  0.00     0.034 A 
ATOM      7 Cl   UNL d   1       0.190   1.132  -0.043  0.00  0.00    -0.070 Cl
ATOM      8 Cl1  UNL d   1       1.144   2.947   2.485  0.00  0.00    -0.070 Cl
ENDROOT
TORSDOF 0
ENDMDL
