MODEL 1
REMARK minimizedAffinity 4.08902454
REMARK minimizedRMSD -1
REMARK  0 active torsions:
REMARK  status: ('A' for Active; 'I' for Inactive)
ROOT
ATOM      1  C   UNL d   1       2.561   5.337   0.041  0.00  0.00     0.020 A 
ATOM      2  C1  UNL d   1       1.273   5.232  -0.484  0.00  0.00     0.020 A 
ATOM      3  C2  UNL d   1       0.295   4.513   0.206  0.00  0.00     0.034 A 
ATOM      4  C3  UNL d   1       0.602   3.897   1.424  0.00  0.00     0.017 A 
ATOM      5  C4  UNL d   1       1.894   4.003   1.951  0.00  0.00     0.017 A 
ATOM      6  C5  UNL d   1       2.870   4.724   1.256  0.00  0.00     0.034 A 
ATOM      7 Cl   UNL d   1       2.348   3.271   3.449  0.00  0.00    -0.070 Cl
ATOM      8 Cl1  UNL d   1      -0.658   3.024   2.223  0.00  0.00    -0.070 Cl
ENDROOT
TORSDOF 0
ENDMDL
