MODEL 1
REMARK minimizedAffinity -0.207733169
REMARK minimizedRMSD -1
REMARK  0 active torsions:
REMARK  status: ('A' for Active; 'I' for Inactive)
ROOT
ATOM      1  C   UNL d   1       2.428   5.886   0.160  0.00  0.00     0.020 A 
ATOM      2  C1  UNL d   1       1.363   5.392  -0.592  0.00  0.00     0.020 A 
ATOM      3  C2  UNL d   1       0.674   4.255  -0.163  0.00  0.00     0.034 A 
ATOM      4  C3  UNL d   1       1.050   3.609   1.020  0.00  0.00     0.017 A 
ATOM      5  C4  UNL d   1       2.119   4.105   1.773  0.00  0.00     0.017 A 
ATOM      6  C5  UNL d   1       2.806   5.244   1.340  0.00  0.00     0.034 A 
ATOM      7 Cl   UNL d   1       2.641   3.362   3.244  0.00  0.00    -0.070 Cl
ATOM      8 Cl1  UNL d   1       0.153   2.208   1.490  0.00  0.00    -0.070 Cl
ENDROOT
TORSDOF 0
ENDMDL
