MODEL 1
REMARK minimizedAffinity -1.30669475
REMARK minimizedRMSD -1
REMARK  0 active torsions:
REMARK  status: ('A' for Active; 'I' for Inactive)
ROOT
ATOM      1  C   UNL d   1       1.407  -0.202   3.173  0.00  0.00     0.020 A 
ATOM      2  C1  UNL d   1       1.269  -1.191   2.200  0.00  0.00     0.020 A 
ATOM      3  C2  UNL d   1       0.759  -0.866   0.941  0.00  0.00     0.034 A 
ATOM      4  C3  UNL d   1       0.387   0.452   0.652  0.00  0.00     0.017 A 
ATOM      5  C4  UNL d   1       0.526   1.444   1.629  0.00  0.00     0.017 A 
ATOM      6  C5  UNL d   1       1.036   1.113   2.888  0.00  0.00     0.034 A 
ATOM      7 Cl   UNL d   1       0.088   3.092   1.346  0.00  0.00    -0.070 Cl
ATOM      8 Cl1  UNL d   1      -0.235   0.783  -0.926  0.00  0.00    -0.070 Cl
ENDROOT
TORSDOF 0
ENDMDL
