MODEL 1
REMARK minimizedAffinity -2.00115371
REMARK minimizedRMSD -1
REMARK  0 active torsions:
REMARK  status: ('A' for Active; 'I' for Inactive)
ROOT
ATOM      1  C   UNL d   1       1.027   0.231   2.001  0.00  0.00     0.020 A 
ATOM      2  C1  UNL d   1       0.923   1.502   2.564  0.00  0.00     0.020 A 
ATOM      3  C2  UNL d   1       0.803   2.623   1.740  0.00  0.00     0.034 A 
ATOM      4  C3  UNL d   1       0.786   2.475   0.348  0.00  0.00     0.017 A 
ATOM      5  C4  UNL d   1       0.890   1.198  -0.216  0.00  0.00     0.017 A 
ATOM      6  C5  UNL d   1       1.010   0.079   0.614  0.00  0.00     0.034 A 
ATOM      7 Cl   UNL d   1       0.876   0.935  -1.924  0.00  0.00    -0.070 Cl
ATOM      8 Cl1  UNL d   1       0.635   3.904  -0.611  0.00  0.00    -0.070 Cl
ENDROOT
TORSDOF 0
ENDMDL
