MODEL 1
REMARK minimizedAffinity 9.20445442
REMARK minimizedRMSD -1
REMARK  2 active torsions:
REMARK  status: ('A' for Active; 'I' for Inactive)
REMARK    1  A    between atoms: C2'_3  and  C1'_4 
REMARK    2  A    between atoms: C1'_4  and  C1_5 
ROOT
ATOM      1  C1  I4B d   1      -1.466   2.194   2.352  0.00  0.00    -0.075 A 
ATOM      2  C2  I4B d   1      -1.674   1.561   1.152  0.00  0.00     0.003 A 
ATOM      3  C3  I4B d   1      -2.330   2.237   0.094  0.00  0.00     0.002 A 
ATOM      4  C4  I4B d   1      -2.802   3.517   0.295  0.00  0.00    -0.004 A 
ATOM      5  C5  I4B d   1      -2.570   4.166   1.505  0.00  0.00     0.002 A 
ATOM      6  C6  I4B d   1      -1.887   3.505   2.536  0.00  0.00     0.003 A 
ENDROOT
BRANCH   1   7
ATOM      7  C1' I4B d   1      -0.800   1.440   3.458  0.00  0.00     0.060 C 
BRANCH   7   8
ATOM      8  C2' I4B d   1       0.582   1.038   2.984  0.00  0.00    -0.013 C 
ATOM      9  C4' I4B d   1       1.653   1.815   3.703  0.00  0.00     0.013 C 
ATOM     10  C3' I4B d   1       0.738  -0.437   3.209  0.00  0.00     0.013 C 
ENDBRANCH   7   8
ENDBRANCH   1   7
TORSDOF 2
ENDMDL
