MODEL 1
REMARK minimizedAffinity 4.73091269
REMARK minimizedRMSD -1
REMARK  2 active torsions:
REMARK  status: ('A' for Active; 'I' for Inactive)
REMARK    1  A    between atoms: C2'_3  and  C1'_4 
REMARK    2  A    between atoms: C1'_4  and  C1_5 
ROOT
ATOM      1  C1  I4B d   1       2.746   0.816  -0.027  0.00  0.00    -0.075 A 
ATOM      2  C2  I4B d   1       3.731  -0.050  -0.433  0.00  0.00     0.003 A 
ATOM      3  C3  I4B d   1       5.042   0.425  -0.675  0.00  0.00     0.002 A 
ATOM      4  C4  I4B d   1       5.311   1.772  -0.547  0.00  0.00    -0.004 A 
ATOM      5  C5  I4B d   1       4.318   2.645  -0.112  0.00  0.00     0.002 A 
ATOM      6  C6  I4B d   1       3.030   2.162   0.161  0.00  0.00     0.003 A 
ENDROOT
BRANCH   1   7
ATOM      7  C1' I4B d   1       1.364   0.286   0.187  0.00  0.00     0.060 C 
BRANCH   7   8
ATOM      8  C2' I4B d   1       0.497   1.427   0.680  0.00  0.00    -0.013 C 
ATOM      9  C4' I4B d   1      -0.679   1.652  -0.234  0.00  0.00     0.013 C 
ATOM     10  C3' I4B d   1       0.047   1.099   2.072  0.00  0.00     0.013 C 
ENDBRANCH   7   8
ENDBRANCH   1   7
TORSDOF 2
ENDMDL
