MODEL 1
REMARK minimizedAffinity 10.5015278
REMARK minimizedRMSD -1
REMARK  2 active torsions:
REMARK  status: ('A' for Active; 'I' for Inactive)
REMARK    1  A    between atoms: C2'_3  and  C1'_4 
REMARK    2  A    between atoms: C1'_4  and  C1_5 
ROOT
ATOM      1  C1  I4B d   1      -0.366   1.034   2.073  0.00  0.00    -0.075 A 
ATOM      2  C2  I4B d   1       0.698   0.760   1.250  0.00  0.00     0.003 A 
ATOM      3  C3  I4B d   1       0.569   0.899  -0.153  0.00  0.00     0.002 A 
ATOM      4  C4  I4B d   1      -0.649   1.263  -0.690  0.00  0.00    -0.004 A 
ATOM      5  C5  I4B d   1      -1.720   1.563   0.147  0.00  0.00     0.002 A 
ATOM      6  C6  I4B d   1      -1.575   1.459   1.538  0.00  0.00     0.003 A 
ENDROOT
BRANCH   1   7
ATOM      7  C1' I4B d   1      -0.204   0.844   3.548  0.00  0.00     0.060 C 
BRANCH   7   8
ATOM      8  C2' I4B d   1       0.895  -0.175   3.769  0.00  0.00    -0.013 C 
ATOM      9  C4' I4B d   1       1.586   0.047   5.089  0.00  0.00     0.013 C 
ATOM     10  C3' I4B d   1       0.281  -1.541   3.702  0.00  0.00     0.013 C 
ENDBRANCH   7   8
ENDBRANCH   1   7
TORSDOF 2
ENDMDL
