MODEL 1
REMARK minimizedAffinity 5.31100464
REMARK minimizedRMSD -1
REMARK  2 active torsions:
REMARK  status: ('A' for Active; 'I' for Inactive)
REMARK    1  A    between atoms: C2'_3  and  C1'_4 
REMARK    2  A    between atoms: C1'_4  and  C1_5 
ROOT
ATOM      1  C1  I4B d   1       2.285  -1.998  -0.479  0.00  0.00    -0.075 A 
ATOM      2  C2  I4B d   1       2.885  -2.576  -1.570  0.00  0.00     0.003 A 
ATOM      3  C3  I4B d   1       3.993  -1.949  -2.190  0.00  0.00     0.002 A 
ATOM      4  C4  I4B d   1       4.433  -0.728  -1.721  0.00  0.00    -0.004 A 
ATOM      5  C5  I4B d   1       3.838  -0.154  -0.602  0.00  0.00     0.002 A 
ATOM      6  C6  I4B d   1       2.765  -0.799   0.031  0.00  0.00     0.003 A 
ENDROOT
BRANCH   1   7
ATOM      7  C1' I4B d   1       1.097  -2.671   0.131  0.00  0.00     0.060 C 
BRANCH   7   8
ATOM      8  C2' I4B d   1       0.235  -3.207  -0.994  0.00  0.00    -0.013 C 
ATOM      9  C4' I4B d   1      -0.851  -4.107  -0.467  0.00  0.00     0.013 C 
ATOM     10  C3' I4B d   1      -0.342  -2.037  -1.733  0.00  0.00     0.013 C 
ENDBRANCH   7   8
ENDBRANCH   1   7
TORSDOF 2
ENDMDL
