MODEL 1
REMARK minimizedAffinity 0.0125782648
REMARK minimizedRMSD -1
REMARK  3 active torsions:
REMARK  status: ('A' for Active; 'I' for Inactive)
REMARK    1  A    between atoms: C3'_2  and  C2'_3 
REMARK    2  A    between atoms: C2'_3  and  C1'_4 
REMARK    3  A    between atoms: C1'_4  and  C1_5 
ROOT
ATOM      1  C1  N4B d   1       1.433  -3.113  -0.005  0.00  0.00    -0.075 A 
ATOM      2  C2  N4B d   1       0.059  -2.788   0.018  0.00  0.00     0.002 A 
ATOM      3  C3  N4B d   1      -0.346  -1.546   0.442  0.00  0.00     0.002 A 
ATOM      4  C4  N4B d   1       0.600  -0.624   0.864  0.00  0.00    -0.004 A 
ATOM      5  C5  N4B d   1       1.927  -0.936   0.815  0.00  0.00     0.002 A 
ATOM      6  C6  N4B d   1       2.348  -2.179   0.386  0.00  0.00     0.002 A 
ENDROOT
BRANCH   1   7
ATOM      7  C1' N4B d   1       1.919  -4.486  -0.380  0.00  0.00     0.057 C 
BRANCH   7   8
ATOM      8  C2' N4B d   1       3.438  -4.533  -0.252  0.00  0.00     0.009 C 
BRANCH   8   9
ATOM      9  C3' N4B d   1       3.950  -5.950  -0.060  0.00  0.00     0.004 C 
ATOM     10  C4' N4B d   1       5.271  -6.000   0.647  0.00  0.00     0.003 C 
ENDBRANCH   8   9
ENDBRANCH   7   8
ENDBRANCH   1   7
TORSDOF 3
ENDMDL
