MODEL 1
REMARK minimizedAffinity 2.17284656
REMARK minimizedRMSD -1
REMARK  3 active torsions:
REMARK  status: ('A' for Active; 'I' for Inactive)
REMARK    1  A    between atoms: C3'_2  and  C2'_3 
REMARK    2  A    between atoms: C2'_3  and  C1'_4 
REMARK    3  A    between atoms: C1'_4  and  C1_5 
ROOT
ATOM      1  C1  N4B d   1       1.977  -0.812  -0.167  0.00  0.00    -0.075 A 
ATOM      2  C2  N4B d   1       1.293  -0.076   0.826  0.00  0.00     0.002 A 
ATOM      3  C3  N4B d   1       0.067  -0.503   1.273  0.00  0.00     0.002 A 
ATOM      4  C4  N4B d   1      -0.501  -1.647   0.731  0.00  0.00    -0.004 A 
ATOM      5  C5  N4B d   1       0.178  -2.366  -0.209  0.00  0.00     0.002 A 
ATOM      6  C6  N4B d   1       1.413  -1.951  -0.665  0.00  0.00     0.002 A 
ENDROOT
BRANCH   1   7
ATOM      7  C1' N4B d   1       3.281  -0.338  -0.749  0.00  0.00     0.057 C 
BRANCH   7   8
ATOM      8  C2' N4B d   1       2.998   0.697  -1.834  0.00  0.00     0.009 C 
BRANCH   8   9
ATOM      9  C3' N4B d   1       4.252   1.454  -2.238  0.00  0.00     0.004 C 
ATOM     10  C4' N4B d   1       4.175   2.917  -1.918  0.00  0.00     0.003 C 
ENDBRANCH   8   9
ENDBRANCH   7   8
ENDBRANCH   1   7
TORSDOF 3
ENDMDL
