MODEL 1
REMARK minimizedAffinity -3.1584065
REMARK minimizedRMSD -1
REMARK  3 active torsions:
REMARK  status: ('A' for Active; 'I' for Inactive)
REMARK    1  A    between atoms: C3'_2  and  C2'_3 
REMARK    2  A    between atoms: C2'_3  and  C1'_4 
REMARK    3  A    between atoms: C1'_4  and  C1_5 
ROOT
ATOM      1  C1  N4B d   1       2.047  -2.954   0.222  0.00  0.00    -0.075 A 
ATOM      2  C2  N4B d   1       2.736  -1.770   0.564  0.00  0.00     0.002 A 
ATOM      3  C3  N4B d   1       2.041  -0.683   1.035  0.00  0.00     0.002 A 
ATOM      4  C4  N4B d   1       0.661  -0.750   1.154  0.00  0.00    -0.004 A 
ATOM      5  C5  N4B d   1       0.006  -1.906   0.845  0.00  0.00     0.002 A 
ATOM      6  C6  N4B d   1       0.692  -3.008   0.374  0.00  0.00     0.002 A 
ENDROOT
BRANCH   1   7
ATOM      7  C1' N4B d   1       2.754  -4.139  -0.379  0.00  0.00     0.057 C 
BRANCH   7   8
ATOM      8  C2' N4B d   1       4.225  -4.100   0.023  0.00  0.00     0.009 C 
BRANCH   8   9
ATOM      9  C3' N4B d   1       4.956  -5.371  -0.375  0.00  0.00     0.004 C 
ATOM     10  C4' N4B d   1       5.699  -5.996   0.768  0.00  0.00     0.003 C 
ENDBRANCH   8   9
ENDBRANCH   7   8
ENDBRANCH   1   7
TORSDOF 3
ENDMDL
