MODEL 1
REMARK minimizedAffinity 5.98550987
REMARK minimizedRMSD -1
REMARK  3 active torsions:
REMARK  status: ('A' for Active; 'I' for Inactive)
REMARK    1  A    between atoms: C3'_2  and  C2'_3 
REMARK    2  A    between atoms: C2'_3  and  C1'_4 
REMARK    3  A    between atoms: C1'_4  and  C1_5 
ROOT
ATOM      1  C1  N4B d   1      -0.638  -2.602   0.324  0.00  0.00    -0.075 A 
ATOM      2  C2  N4B d   1       0.611  -2.776  -0.312  0.00  0.00     0.002 A 
ATOM      3  C3  N4B d   1       1.647  -1.918  -0.036  0.00  0.00     0.002 A 
ATOM      4  C4  N4B d   1       1.453  -0.871   0.852  0.00  0.00    -0.004 A 
ATOM      5  C5  N4B d   1       0.251  -0.725   1.481  0.00  0.00     0.002 A 
ATOM      6  C6  N4B d   1      -0.798  -1.582   1.217  0.00  0.00     0.002 A 
ENDROOT
BRANCH   1   7
ATOM      7  C1' N4B d   1      -1.826  -3.462  -0.009  0.00  0.00     0.057 C 
BRANCH   7   8
ATOM      8  C2' N4B d   1      -3.046  -2.946   0.747  0.00  0.00     0.009 C 
BRANCH   8   9
ATOM      9  C3' N4B d   1      -4.238  -3.878   0.606  0.00  0.00     0.004 C 
ATOM     10  C4' N4B d   1      -4.596  -4.561   1.893  0.00  0.00     0.003 C 
ENDBRANCH   8   9
ENDBRANCH   7   8
ENDBRANCH   1   7
TORSDOF 3
ENDMDL
