MODEL 1
REMARK minimizedAffinity 4.6597085
REMARK minimizedRMSD -1
REMARK  3 active torsions:
REMARK  status: ('A' for Active; 'I' for Inactive)
REMARK    1  A    between atoms: C3'_2  and  C2'_3 
REMARK    2  A    between atoms: C2'_3  and  C1'_4 
REMARK    3  A    between atoms: C1'_4  and  C1_5 
ROOT
ATOM      1  C1  N4B d   1       1.414  -0.928   0.912  0.00  0.00    -0.075 A 
ATOM      2  C2  N4B d   1       1.638  -2.227   0.403  0.00  0.00     0.002 A 
ATOM      3  C3  N4B d   1       0.584  -2.969  -0.070  0.00  0.00     0.002 A 
ATOM      4  C4  N4B d   1      -0.699  -2.445  -0.027  0.00  0.00    -0.004 A 
ATOM      5  C5  N4B d   1      -0.903  -1.180   0.442  0.00  0.00     0.002 A 
ATOM      6  C6  N4B d   1       0.148  -0.421   0.917  0.00  0.00     0.002 A 
ENDROOT
BRANCH   1   7
ATOM      7  C1' N4B d   1       2.522  -0.112   1.519  0.00  0.00     0.057 C 
BRANCH   7   8
ATOM      8  C2' N4B d   1       3.650  -1.043   1.955  0.00  0.00     0.009 C 
BRANCH   8   9
ATOM      9  C3' N4B d   1       4.541  -1.440   0.791  0.00  0.00     0.004 C 
ATOM     10  C4' N4B d   1       5.998  -1.427   1.145  0.00  0.00     0.003 C 
ENDBRANCH   8   9
ENDBRANCH   7   8
ENDBRANCH   1   7
TORSDOF 3
ENDMDL
