MODEL 1
REMARK minimizedAffinity 4.2084384
REMARK minimizedRMSD -1
REMARK  3 active torsions:
REMARK  status: ('A' for Active; 'I' for Inactive)
REMARK    1  A    between atoms: C3'_2  and  C2'_3 
REMARK    2  A    between atoms: C2'_3  and  C1'_4 
REMARK    3  A    between atoms: C1'_4  and  C1_5 
ROOT
ATOM      1  C1  N4B d   1       1.454   4.295  -4.423  0.00  0.00    -0.075 A 
ATOM      2  C2  N4B d   1       0.908   4.165  -3.127  0.00  0.00     0.002 A 
ATOM      3  C3  N4B d   1      -0.145   4.958  -2.743  0.00  0.00     0.002 A 
ATOM      4  C4  N4B d   1      -0.655   5.897  -3.627  0.00  0.00    -0.004 A 
ATOM      5  C5  N4B d   1      -0.139   5.998  -4.886  0.00  0.00     0.002 A 
ATOM      6  C6  N4B d   1       0.917   5.205  -5.287  0.00  0.00     0.002 A 
ENDROOT
BRANCH   1   7
ATOM      7  C1' N4B d   1       2.661   3.510  -4.858  0.00  0.00     0.057 C 
BRANCH   7   8
ATOM      8  C2' N4B d   1       2.640   2.142  -4.182  0.00  0.00     0.009 C 
BRANCH   8   9
ATOM      9  C3' N4B d   1       3.846   1.934  -3.284  0.00  0.00     0.004 C 
ATOM     10  C4' N4B d   1       4.338   3.209  -2.666  0.00  0.00     0.003 C 
ENDBRANCH   8   9
ENDBRANCH   7   8
ENDBRANCH   1   7
TORSDOF 3
ENDMDL
