MODEL 1
REMARK minimizedAffinity -1.39322758
REMARK minimizedRMSD -1
REMARK  3 active torsions:
REMARK  status: ('A' for Active; 'I' for Inactive)
REMARK    1  A    between atoms: C3'_2  and  C2'_3 
REMARK    2  A    between atoms: C2'_3  and  C1'_4 
REMARK    3  A    between atoms: C1'_4  and  C1_5 
ROOT
ATOM      1  C1  N4B d   1       1.168  -2.480  -0.147  0.00  0.00    -0.075 A 
ATOM      2  C2  N4B d   1      -0.156  -2.472   0.345  0.00  0.00     0.002 A 
ATOM      3  C3  N4B d   1      -0.610  -1.401   1.075  0.00  0.00     0.002 A 
ATOM      4  C4  N4B d   1       0.243  -0.340   1.340  0.00  0.00    -0.004 A 
ATOM      5  C5  N4B d   1       1.512  -0.344   0.839  0.00  0.00     0.002 A 
ATOM      6  C6  N4B d   1       1.981  -1.413   0.101  0.00  0.00     0.002 A 
ENDROOT
BRANCH   1   7
ATOM      7  C1' N4B d   1       1.736  -3.667  -0.876  0.00  0.00     0.057 C 
BRANCH   7   8
ATOM      8  C2' N4B d   1       3.227  -3.776  -0.571  0.00  0.00     0.009 C 
BRANCH   8   9
ATOM      9  C3' N4B d   1       3.735  -5.200  -0.720  0.00  0.00     0.004 C 
ATOM     10  C4' N4B d   1       5.162  -5.355  -0.286  0.00  0.00     0.003 C 
ENDBRANCH   8   9
ENDBRANCH   7   8
ENDBRANCH   1   7
TORSDOF 3
ENDMDL
