MODEL 1
REMARK minimizedAffinity -1.91532683
REMARK minimizedRMSD -1
REMARK  3 active torsions:
REMARK  status: ('A' for Active; 'I' for Inactive)
REMARK    1  A    between atoms: C3'_2  and  C2'_3 
REMARK    2  A    between atoms: C2'_3  and  C1'_4 
REMARK    3  A    between atoms: C1'_4  and  C1_5 
ROOT
ATOM      1  C1  N4B d   1       0.396  -1.100   1.268  0.00  0.00    -0.075 A 
ATOM      2  C2  N4B d   1       1.653  -0.532   0.963  0.00  0.00     0.002 A 
ATOM      3  C3  N4B d   1       2.479  -1.144   0.052  0.00  0.00     0.002 A 
ATOM      4  C4  N4B d   1       2.080  -2.328  -0.550  0.00  0.00    -0.004 A 
ATOM      5  C5  N4B d   1       0.854  -2.855  -0.269  0.00  0.00     0.002 A 
ATOM      6  C6  N4B d   1       0.011  -2.250   0.642  0.00  0.00     0.002 A 
ENDROOT
BRANCH   1   7
ATOM      7  C1' N4B d   1      -0.505  -0.514   2.321  0.00  0.00     0.057 C 
BRANCH   7   8
ATOM      8  C2' N4B d   1      -1.939  -0.496   1.799  0.00  0.00     0.009 C 
BRANCH   8   9
ATOM      9  C3' N4B d   1      -2.263   0.797   1.070  0.00  0.00     0.004 C 
ATOM     10  C4' N4B d   1      -1.956   2.016   1.888  0.00  0.00     0.003 C 
ENDBRANCH   8   9
ENDBRANCH   7   8
ENDBRANCH   1   7
TORSDOF 3
ENDMDL
