MODEL 1
REMARK minimizedAffinity 0.506149471
REMARK minimizedRMSD -1
REMARK  3 active torsions:
REMARK  status: ('A' for Active; 'I' for Inactive)
REMARK    1  A    between atoms: C3'_2  and  C2'_3 
REMARK    2  A    between atoms: C2'_3  and  C1'_4 
REMARK    3  A    between atoms: C1'_4  and  C1_5 
ROOT
ATOM      1  C1  N4B d   1       1.138   4.517  -4.574  0.00  0.00    -0.075 A 
ATOM      2  C2  N4B d   1       0.448   4.461  -3.343  0.00  0.00     0.002 A 
ATOM      3  C3  N4B d   1      -0.711   5.178  -3.173  0.00  0.00     0.002 A 
ATOM      4  C4  N4B d   1      -1.187   5.969  -4.208  0.00  0.00    -0.004 A 
ATOM      5  C5  N4B d   1      -0.528   5.998  -5.402  0.00  0.00     0.002 A 
ATOM      6  C6  N4B d   1       0.636   5.279  -5.589  0.00  0.00     0.002 A 
ENDROOT
BRANCH   1   7
ATOM      7  C1' N4B d   1       2.454   3.818  -4.779  0.00  0.00     0.057 C 
BRANCH   7   8
ATOM      8  C2' N4B d   1       2.994   3.361  -3.427  0.00  0.00     0.009 C 
BRANCH   8   9
ATOM      9  C3' N4B d   1       3.402   1.898  -3.443  0.00  0.00     0.004 C 
ATOM     10  C4' N4B d   1       2.285   0.988  -3.858  0.00  0.00     0.003 C 
ENDBRANCH   8   9
ENDBRANCH   7   8
ENDBRANCH   1   7
TORSDOF 3
ENDMDL
