MODEL 1
REMARK minimizedAffinity -1.52935541
REMARK minimizedRMSD -1
REMARK  3 active torsions:
REMARK  status: ('A' for Active; 'I' for Inactive)
REMARK    1  A    between atoms: C3'_2  and  C2'_3 
REMARK    2  A    between atoms: C2'_3  and  C1'_4 
REMARK    3  A    between atoms: C1'_4  and  C1_5 
ROOT
ATOM      1  C1  N4B d   1      -0.662  -0.501   1.612  0.00  0.00    -0.075 A 
ATOM      2  C2  N4B d   1      -1.698  -0.778   0.694  0.00  0.00     0.002 A 
ATOM      3  C3  N4B d   1      -2.823   0.008   0.671  0.00  0.00     0.002 A 
ATOM      4  C4  N4B d   1      -2.943   1.061   1.566  0.00  0.00    -0.004 A 
ATOM      5  C5  N4B d   1      -1.926   1.337   2.433  0.00  0.00     0.002 A 
ATOM      6  C6  N4B d   1      -0.788   0.558   2.464  0.00  0.00     0.002 A 
ENDROOT
BRANCH   1   7
ATOM      7  C1' N4B d   1       0.550  -1.385   1.733  0.00  0.00     0.057 C 
BRANCH   7   8
ATOM      8  C2' N4B d   1       0.407  -2.564   0.774  0.00  0.00     0.009 C 
BRANCH   8   9
ATOM      9  C3' N4B d   1       1.480  -2.554  -0.302  0.00  0.00     0.004 C 
ATOM     10  C4' N4B d   1       2.685  -1.751   0.087  0.00  0.00     0.003 C 
ENDBRANCH   8   9
ENDBRANCH   7   8
ENDBRANCH   1   7
TORSDOF 3
ENDMDL
