MODEL 1
REMARK minimizedAffinity 4.44754696
REMARK minimizedRMSD -1
REMARK  3 active torsions:
REMARK  status: ('A' for Active; 'I' for Inactive)
REMARK    1  A    between atoms: C3'_2  and  C2'_3 
REMARK    2  A    between atoms: C2'_3  and  C1'_4 
REMARK    3  A    between atoms: C1'_4  and  C1_5 
ROOT
ATOM      1  C1  N4B d   1       1.885  -0.985   0.654  0.00  0.00    -0.075 A 
ATOM      2  C2  N4B d   1       1.238  -2.030  -0.042  0.00  0.00     0.002 A 
ATOM      3  C3  N4B d   1      -0.128  -2.157   0.024  0.00  0.00     0.002 A 
ATOM      4  C4  N4B d   1      -0.863  -1.265   0.790  0.00  0.00    -0.004 A 
ATOM      5  C5  N4B d   1      -0.234  -0.243   1.438  0.00  0.00     0.002 A 
ATOM      6  C6  N4B d   1       1.138  -0.101   1.378  0.00  0.00     0.002 A 
ENDROOT
BRANCH   1   7
ATOM      7  C1' N4B d   1       3.383  -0.857   0.682  0.00  0.00     0.057 C 
BRANCH   7   8
ATOM      8  C2' N4B d   1       3.889  -1.201   2.080  0.00  0.00     0.009 C 
BRANCH   8   9
ATOM      9  C3' N4B d   1       5.365  -1.559   2.078  0.00  0.00     0.004 C 
ATOM     10  C4' N4B d   1       5.998  -1.408   0.727  0.00  0.00     0.003 C 
ENDBRANCH   8   9
ENDBRANCH   7   8
ENDBRANCH   1   7
TORSDOF 3
ENDMDL
