MODEL 1
REMARK minimizedAffinity 2.49746156
REMARK minimizedRMSD -1
REMARK  3 active torsions:
REMARK  status: ('A' for Active; 'I' for Inactive)
REMARK    1  A    between atoms: C3'_2  and  C2'_3 
REMARK    2  A    between atoms: C2'_3  and  C1'_4 
REMARK    3  A    between atoms: C1'_4  and  C1_5 
ROOT
ATOM      1  C1  N4B d   1       2.649  -2.104   0.101  0.00  0.00    -0.075 A 
ATOM      2  C2  N4B d   1       1.257  -2.164   0.335  0.00  0.00     0.002 A 
ATOM      3  C3  N4B d   1       0.581  -3.345   0.152  0.00  0.00     0.002 A 
ATOM      4  C4  N4B d   1       1.268  -4.469  -0.282  0.00  0.00    -0.004 A 
ATOM      5  C5  N4B d   1       2.616  -4.409  -0.481  0.00  0.00     0.002 A 
ATOM      6  C6  N4B d   1       3.310  -3.230  -0.297  0.00  0.00     0.002 A 
ENDROOT
BRANCH   1   7
ATOM      7  C1' N4B d   1       3.416  -0.814   0.205  0.00  0.00     0.057 C 
BRANCH   7   8
ATOM      8  C2' N4B d   1       4.583  -1.003   1.170  0.00  0.00     0.009 C 
BRANCH   8   9
ATOM      9  C3' N4B d   1       4.228  -0.570   2.582  0.00  0.00     0.004 C 
ATOM     10  C4' N4B d   1       3.044   0.349   2.627  0.00  0.00     0.003 C 
ENDBRANCH   8   9
ENDBRANCH   7   8
ENDBRANCH   1   7
TORSDOF 3
ENDMDL
