MODEL 1
REMARK minimizedAffinity -1.22075605
REMARK minimizedRMSD -1
REMARK  2 active torsions:
REMARK  status: ('A' for Active; 'I' for Inactive)
REMARK    1  A    between atoms: C2'_3  and  C1'_4 
REMARK    2  A    between atoms: C1'_4  and  C1_5 
ROOT
ATOM      1  C1  I4B d   1      -0.379   0.279  -0.829  0.00  0.00    -0.075 A 
ATOM      2  C2  I4B d   1      -1.132   0.751   0.217  0.00  0.00     0.003 A 
ATOM      3  C3  I4B d   1      -0.898   0.281   1.533  0.00  0.00     0.002 A 
ATOM      4  C4  I4B d   1       0.058  -0.690   1.748  0.00  0.00    -0.004 A 
ATOM      5  C5  I4B d   1       0.836  -1.150   0.689  0.00  0.00     0.002 A 
ATOM      6  C6  I4B d   1       0.625  -0.654  -0.605  0.00  0.00     0.003 A 
ENDROOT
BRANCH   1   7
ATOM      7  C1' I4B d   1      -0.674   0.773  -2.210  0.00  0.00     0.060 C 
BRANCH   7   8
ATOM      8  C2' I4B d   1      -0.692   2.287  -2.170  0.00  0.00    -0.013 C 
ATOM      9  C4' I4B d   1       0.441   2.867  -2.975  0.00  0.00     0.013 C 
ATOM     10  C3' I4B d   1      -2.020   2.748  -2.695  0.00  0.00     0.013 C 
ENDBRANCH   7   8
ENDBRANCH   1   7
TORSDOF 2
ENDMDL
