MODEL 1
REMARK minimizedAffinity -1.08674717
REMARK minimizedRMSD -1
REMARK  2 active torsions:
REMARK  status: ('A' for Active; 'I' for Inactive)
REMARK    1  A    between atoms: C2'_3  and  C1'_4 
REMARK    2  A    between atoms: C1'_4  and  C1_5 
ROOT
ATOM      1  C1  I4B d   1      -0.081   0.370  -1.128  0.00  0.00    -0.075 A 
ATOM      2  C2  I4B d   1      -0.420   0.429   0.201  0.00  0.00     0.003 A 
ATOM      3  C3  I4B d   1       0.343  -0.276   1.163  0.00  0.00     0.002 A 
ATOM      4  C4  I4B d   1       1.399  -1.063   0.749  0.00  0.00    -0.004 A 
ATOM      5  C5  I4B d   1       1.755  -1.103  -0.596  0.00  0.00     0.002 A 
ATOM      6  C6  I4B d   1       1.018  -0.372  -1.539  0.00  0.00     0.003 A 
ENDROOT
BRANCH   1   7
ATOM      7  C1' I4B d   1      -0.929   1.101  -2.120  0.00  0.00     0.060 C 
BRANCH   7   8
ATOM      8  C2' I4B d   1      -0.528   2.562  -2.091  0.00  0.00    -0.013 C 
ATOM      9  C4' I4B d   1       0.470   2.875  -3.175  0.00  0.00     0.013 C 
ATOM     10  C3' I4B d   1      -1.771   3.386  -2.245  0.00  0.00     0.013 C 
ENDBRANCH   7   8
ENDBRANCH   1   7
TORSDOF 2
ENDMDL
