MODEL 1
REMARK minimizedAffinity -3.78540301
REMARK minimizedRMSD -1
REMARK  2 active torsions:
REMARK  status: ('A' for Active; 'I' for Inactive)
REMARK    1  A    between atoms: C2'_3  and  C1'_4 
REMARK    2  A    between atoms: C1'_4  and  C1_5 
ROOT
ATOM      1  C1  I4B d   1      -0.337   0.166  -0.509  0.00  0.00    -0.075 A 
ATOM      2  C2  I4B d   1       0.730  -0.696  -0.567  0.00  0.00     0.003 A 
ATOM      3  C3  I4B d   1       1.160  -1.377   0.598  0.00  0.00     0.002 A 
ATOM      4  C4  I4B d   1       0.530  -1.130   1.801  0.00  0.00    -0.004 A 
ATOM      5  C5  I4B d   1      -0.566  -0.274   1.853  0.00  0.00     0.002 A 
ATOM      6  C6  I4B d   1      -1.011   0.369   0.688  0.00  0.00     0.003 A 
ENDROOT
BRANCH   1   7
ATOM      7  C1' I4B d   1      -0.744   0.893  -1.751  0.00  0.00     0.060 C 
BRANCH   7   8
ATOM      8  C2' I4B d   1      -0.181   2.298  -1.675  0.00  0.00    -0.013 C 
ATOM      9  C4' I4B d   1       0.692   2.600  -2.864  0.00  0.00     0.013 C 
ATOM     10  C3' I4B d   1      -1.333   3.255  -1.591  0.00  0.00     0.013 C 
ENDBRANCH   7   8
ENDBRANCH   1   7
TORSDOF 2
ENDMDL
