MODEL 1
REMARK minimizedAffinity -5.33062744
REMARK minimizedRMSD -1
REMARK  2 active torsions:
REMARK  status: ('A' for Active; 'I' for Inactive)
REMARK    1  A    between atoms: C2'_3  and  C1'_4 
REMARK    2  A    between atoms: C1'_4  and  C1_5 
ROOT
ATOM      1  C1  I4B d   1       1.518  -0.015   1.444  0.00  0.00    -0.075 A 
ATOM      2  C2  I4B d   1       1.403   0.025   2.811  0.00  0.00     0.003 A 
ATOM      3  C3  I4B d   1       2.145  -0.874   3.615  0.00  0.00     0.002 A 
ATOM      4  C4  I4B d   1       2.946  -1.822   3.012  0.00  0.00    -0.004 A 
ATOM      5  C5  I4B d   1       3.079  -1.846   1.627  0.00  0.00     0.002 A 
ATOM      6  C6  I4B d   1       2.370  -0.929   0.838  0.00  0.00     0.003 A 
ENDROOT
BRANCH   1   7
ATOM      7  C1' I4B d   1       0.694   0.927   0.624  0.00  0.00     0.060 C 
BRANCH   7   8
ATOM      8  C2' I4B d   1      -0.058   0.111  -0.409  0.00  0.00    -0.013 C 
ATOM      9  C4' I4B d   1      -1.327  -0.460   0.166  0.00  0.00     0.013 C 
ATOM     10  C3' I4B d   1      -0.346   1.001  -1.581  0.00  0.00     0.013 C 
ENDBRANCH   7   8
ENDBRANCH   1   7
TORSDOF 2
ENDMDL
