MODEL 1
REMARK minimizedAffinity -5.09248447
REMARK minimizedRMSD -1
REMARK  2 active torsions:
REMARK  status: ('A' for Active; 'I' for Inactive)
REMARK    1  A    between atoms: C2'_3  and  C1'_4 
REMARK    2  A    between atoms: C1'_4  and  C1_5 
ROOT
ATOM      1  C1  I4B d   1       0.013   0.303   0.122  0.00  0.00    -0.075 A 
ATOM      2  C2  I4B d   1       1.348   0.008   0.243  0.00  0.00     0.003 A 
ATOM      3  C3  I4B d   1       1.856  -0.511   1.459  0.00  0.00     0.002 A 
ATOM      4  C4  I4B d   1       1.009  -0.670   2.536  0.00  0.00    -0.004 A 
ATOM      5  C5  I4B d   1      -0.349  -0.392   2.405  0.00  0.00     0.002 A 
ATOM      6  C6  I4B d   1      -0.852   0.086   1.186  0.00  0.00     0.003 A 
ENDROOT
BRANCH   1   7
ATOM      7  C1' I4B d   1      -0.483   0.880  -1.166  0.00  0.00     0.060 C 
BRANCH   7   8
ATOM      8  C2' I4B d   1      -0.026   2.323  -1.237  0.00  0.00    -0.013 C 
ATOM      9  C4' I4B d   1       0.416   2.686  -2.630  0.00  0.00     0.013 C 
ATOM     10  C3' I4B d   1      -1.163   3.191  -0.787  0.00  0.00     0.013 C 
ENDBRANCH   7   8
ENDBRANCH   1   7
TORSDOF 2
ENDMDL
