MODEL 1
REMARK minimizedAffinity -3.7805469
REMARK minimizedRMSD -1
REMARK  2 active torsions:
REMARK  status: ('A' for Active; 'I' for Inactive)
REMARK    1  A    between atoms: C2'_3  and  C1'_4 
REMARK    2  A    between atoms: C1'_4  and  C1_5 
ROOT
ATOM      1  C1  I4B d   1       0.887  -0.231   0.918  0.00  0.00    -0.075 A 
ATOM      2  C2  I4B d   1       0.770  -0.523   2.255  0.00  0.00     0.003 A 
ATOM      3  C3  I4B d   1       1.538  -1.567   2.826  0.00  0.00     0.002 A 
ATOM      4  C4  I4B d   1       2.367  -2.320   2.020  0.00  0.00    -0.004 A 
ATOM      5  C5  I4B d   1       2.501  -2.008   0.670  0.00  0.00     0.002 A 
ATOM      6  C6  I4B d   1       1.766  -0.949   0.118  0.00  0.00     0.003 A 
ENDROOT
BRANCH   1   7
ATOM      7  C1' I4B d   1       0.036   0.855   0.341  0.00  0.00     0.060 C 
BRANCH   7   8
ATOM      8  C2' I4B d   1      -0.058   0.630  -1.154  0.00  0.00    -0.013 C 
ATOM      9  C4' I4B d   1      -0.924  -0.559  -1.473  0.00  0.00     0.013 C 
ATOM     10  C3' I4B d   1      -0.604   1.881  -1.777  0.00  0.00     0.013 C 
ENDBRANCH   7   8
ENDBRANCH   1   7
TORSDOF 2
ENDMDL
