MODEL 1
REMARK minimizedAffinity 6.1711545
REMARK minimizedRMSD -1
REMARK  0 active torsions:
REMARK  status: ('A' for Active; 'I' for Inactive)
ROOT
ATOM      1  C   UNL d   1      -1.351  -3.301  -5.992  0.00  0.00     0.078 C 
ATOM      2  C1  UNL d   1      -2.790  -2.880  -5.998  0.00  0.00    -0.077 A 
ATOM      3  C2  UNL d   1      -3.146  -1.526  -5.989  0.00  0.00    -0.001 A 
ATOM      4  C3  UNL d   1      -4.490  -1.150  -5.986  0.00  0.00     0.003 A 
ATOM      5  C4  UNL d   1      -5.489  -2.121  -5.989  0.00  0.00    -0.005 A 
ATOM      6  C5  UNL d   1      -5.144  -3.471  -5.996  0.00  0.00     0.003 A 
ATOM      7  C6  UNL d   1      -3.801  -3.850  -6.000  0.00  0.00    -0.001 A 
ENDROOT
TORSDOF 0
ENDMDL
