MODEL 1
REMARK minimizedAffinity 14.2625179
REMARK minimizedRMSD -1
REMARK  0 active torsions:
REMARK  status: ('A' for Active; 'I' for Inactive)
ROOT
ATOM      1  C   UNL d   1       2.197   2.035  -1.621  0.00  0.00     0.078 C 
ATOM      2  C1  UNL d   1       2.799   3.045  -2.552  0.00  0.00    -0.077 A 
ATOM      3  C2  UNL d   1       2.197   4.294  -2.747  0.00  0.00    -0.001 A 
ATOM      4  C3  UNL d   1       2.763   5.221  -3.624  0.00  0.00     0.003 A 
ATOM      5  C4  UNL d   1       3.932   4.907  -4.315  0.00  0.00    -0.005 A 
ATOM      6  C5  UNL d   1       4.536   3.666  -4.129  0.00  0.00     0.003 A 
ATOM      7  C6  UNL d   1       3.972   2.738  -3.252  0.00  0.00    -0.001 A 
ENDROOT
TORSDOF 0
ENDMDL
