MODEL 1
REMARK minimizedAffinity 5.92387676
REMARK minimizedRMSD -1
REMARK  0 active torsions:
REMARK  status: ('A' for Active; 'I' for Inactive)
ROOT
ATOM      1  C   UNL d   1      -0.947   0.445   1.799  0.00  0.00     0.078 C 
ATOM      2  C1  UNL d   1      -2.433   0.642   1.762  0.00  0.00    -0.077 A 
ATOM      3  C2  UNL d   1      -3.140   1.013   2.912  0.00  0.00    -0.001 A 
ATOM      4  C3  UNL d   1      -4.525   1.184   2.865  0.00  0.00     0.003 A 
ATOM      5  C4  UNL d   1      -5.214   0.984   1.670  0.00  0.00    -0.005 A 
ATOM      6  C5  UNL d   1      -4.519   0.613   0.521  0.00  0.00     0.003 A 
ATOM      7  C6  UNL d   1      -3.135   0.442   0.566  0.00  0.00    -0.001 A 
ENDROOT
TORSDOF 0
ENDMDL
