MODEL 1
REMARK minimizedAffinity 9.82956696
REMARK minimizedRMSD -1
REMARK  0 active torsions:
REMARK  status: ('A' for Active; 'I' for Inactive)
ROOT
ATOM      1  C   UNL d   1       5.206   0.142   2.220  0.00  0.00     0.078 C 
ATOM      2  C1  UNL d   1       5.476  -1.061   3.074  0.00  0.00    -0.077 A 
ATOM      3  C2  UNL d   1       5.701  -0.932   4.450  0.00  0.00    -0.001 A 
ATOM      4  C3  UNL d   1       5.960  -2.059   5.232  0.00  0.00     0.003 A 
ATOM      5  C4  UNL d   1       5.999  -3.323   4.646  0.00  0.00    -0.005 A 
ATOM      6  C5  UNL d   1       5.778  -3.461   3.277  0.00  0.00     0.003 A 
ATOM      7  C6  UNL d   1       5.519  -2.335   2.494  0.00  0.00    -0.001 A 
ENDROOT
TORSDOF 0
ENDMDL
