MODEL 1
REMARK minimizedAffinity 4.23223019
REMARK minimizedRMSD -1
REMARK  0 active torsions:
REMARK  status: ('A' for Active; 'I' for Inactive)
ROOT
ATOM      1  C   UNL d   1      -1.501   1.410   3.104  0.00  0.00     0.078 C 
ATOM      2  C1  UNL d   1      -2.913   1.089   2.715  0.00  0.00    -0.077 A 
ATOM      3  C2  UNL d   1      -3.664   0.151   3.434  0.00  0.00    -0.001 A 
ATOM      4  C3  UNL d   1      -4.973  -0.146   3.054  0.00  0.00     0.003 A 
ATOM      5  C4  UNL d   1      -5.543   0.490   1.953  0.00  0.00    -0.005 A 
ATOM      6  C5  UNL d   1      -4.803   1.422   1.229  0.00  0.00     0.003 A 
ATOM      7  C6  UNL d   1      -3.493   1.720   1.608  0.00  0.00    -0.001 A 
ENDROOT
TORSDOF 0
ENDMDL
