MODEL 1
REMARK minimizedAffinity 6.71551561
REMARK minimizedRMSD -1
REMARK  0 active torsions:
REMARK  status: ('A' for Active; 'I' for Inactive)
ROOT
ATOM      1  C   UNL d   1      -4.670  -4.109  -5.992  0.00  0.00     0.078 C 
ATOM      2  C1  UNL d   1      -3.583  -3.076  -5.971  0.00  0.00    -0.077 A 
ATOM      3  C2  UNL d   1      -3.887  -1.710  -5.937  0.00  0.00    -0.001 A 
ATOM      4  C3  UNL d   1      -2.865  -0.759  -5.928  0.00  0.00     0.003 A 
ATOM      5  C4  UNL d   1      -1.532  -1.165  -5.954  0.00  0.00    -0.005 A 
ATOM      6  C5  UNL d   1      -1.220  -2.522  -5.991  0.00  0.00     0.003 A 
ATOM      7  C6  UNL d   1      -2.241  -3.474  -6.000  0.00  0.00    -0.001 A 
ENDROOT
TORSDOF 0
ENDMDL
