MODEL 1
REMARK minimizedAffinity -0.183500513
REMARK minimizedRMSD -1
REMARK  0 active torsions:
REMARK  status: ('A' for Active; 'I' for Inactive)
ROOT
ATOM      1  C   UNL d   1      -1.336  -3.724   0.622  0.00  0.00     0.078 C 
ATOM      2  C1  UNL d   1      -2.003  -2.391   0.780  0.00  0.00    -0.077 A 
ATOM      3  C2  UNL d   1      -1.277  -1.264   1.182  0.00  0.00    -0.001 A 
ATOM      4  C3  UNL d   1      -1.913  -0.031   1.334  0.00  0.00     0.003 A 
ATOM      5  C4  UNL d   1      -3.279   0.086   1.087  0.00  0.00    -0.005 A 
ATOM      6  C5  UNL d   1      -4.011  -1.030   0.688  0.00  0.00     0.003 A 
ATOM      7  C6  UNL d   1      -3.377  -2.264   0.535  0.00  0.00    -0.001 A 
ENDROOT
TORSDOF 0
ENDMDL
