MODEL 1
REMARK minimizedAffinity -1.46566057
REMARK minimizedRMSD -1
REMARK  0 active torsions:
REMARK  status: ('A' for Active; 'I' for Inactive)
ROOT
ATOM      1  C   UNL d   1      -0.472   1.188   2.996  0.00  0.00     0.078 C 
ATOM      2  C1  UNL d   1      -1.884   1.146   2.493  0.00  0.00    -0.077 A 
ATOM      3  C2  UNL d   1      -2.190   0.584   1.247  0.00  0.00    -0.001 A 
ATOM      4  C3  UNL d   1      -3.507   0.560   0.787  0.00  0.00     0.003 A 
ATOM      5  C4  UNL d   1      -4.530   1.097   1.566  0.00  0.00    -0.005 A 
ATOM      6  C5  UNL d   1      -4.236   1.660   2.807  0.00  0.00     0.003 A 
ATOM      7  C6  UNL d   1      -2.919   1.685   3.268  0.00  0.00    -0.001 A 
ENDROOT
TORSDOF 0
ENDMDL
