MODEL 1
REMARK minimizedAffinity 1.44895089
REMARK minimizedRMSD -1
REMARK  0 active torsions:
REMARK  status: ('A' for Active; 'I' for Inactive)
ROOT
ATOM      1  C   UNL d   1      -4.433  -1.817   0.005  0.00  0.00     0.078 C 
ATOM      2  C1  UNL d   1      -3.755  -0.789   0.860  0.00  0.00    -0.077 A 
ATOM      3  C2  UNL d   1      -2.359  -0.729   0.947  0.00  0.00    -0.001 A 
ATOM      4  C3  UNL d   1      -1.742   0.228   1.754  0.00  0.00     0.003 A 
ATOM      5  C4  UNL d   1      -2.514   1.132   2.482  0.00  0.00    -0.005 A 
ATOM      6  C5  UNL d   1      -3.904   1.079   2.404  0.00  0.00     0.003 A 
ATOM      7  C6  UNL d   1      -4.522   0.123   1.596  0.00  0.00    -0.001 A 
ENDROOT
TORSDOF 0
ENDMDL
