MODEL 1
REMARK minimizedAffinity 6.52174282
REMARK minimizedRMSD -1
REMARK  0 active torsions:
REMARK  status: ('A' for Active; 'I' for Inactive)
ROOT
ATOM      1  C   UNL d   1      -4.270   0.349   0.488  0.00  0.00     0.078 C 
ATOM      2  C1  UNL d   1      -3.106   0.677   1.374  0.00  0.00    -0.077 A 
ATOM      3  C2  UNL d   1      -3.240   1.578   2.437  0.00  0.00    -0.001 A 
ATOM      4  C3  UNL d   1      -2.145   1.881   3.248  0.00  0.00     0.003 A 
ATOM      5  C4  UNL d   1      -0.908   1.288   3.004  0.00  0.00    -0.005 A 
ATOM      6  C5  UNL d   1      -0.764   0.392   1.947  0.00  0.00     0.003 A 
ATOM      7  C6  UNL d   1      -1.858   0.088   1.135  0.00  0.00    -0.001 A 
ENDROOT
TORSDOF 0
ENDMDL
