MODEL 1
REMARK minimizedAffinity 6.97502851
REMARK minimizedRMSD -1
REMARK  0 active torsions:
REMARK  status: ('A' for Active; 'I' for Inactive)
ROOT
ATOM      1  C   UNL d   1      -4.790   0.580   4.109  0.00  0.00     0.078 C 
ATOM      2  C1  UNL d   1      -3.809   0.456   2.982  0.00  0.00    -0.077 A 
ATOM      3  C2  UNL d   1      -2.468   0.134   3.225  0.00  0.00    -0.001 A 
ATOM      4  C3  UNL d   1      -1.563   0.032   2.168  0.00  0.00     0.003 A 
ATOM      5  C4  UNL d   1      -1.989   0.251   0.859  0.00  0.00    -0.005 A 
ATOM      6  C5  UNL d   1      -3.321   0.574   0.607  0.00  0.00     0.003 A 
ATOM      7  C6  UNL d   1      -4.227   0.676   1.664  0.00  0.00    -0.001 A 
ENDROOT
TORSDOF 0
ENDMDL
