MODEL 1
REMARK minimizedAffinity 2.58178973
REMARK minimizedRMSD -1
REMARK  0 active torsions:
REMARK  status: ('A' for Active; 'I' for Inactive)
ROOT
ATOM      1  C   UNL d   1      -5.888  -2.684   3.791  0.00  0.00     0.078 C 
ATOM      2  C1  UNL d   1      -5.410  -1.546   2.939  0.00  0.00    -0.077 A 
ATOM      3  C2  UNL d   1      -5.250  -1.698   1.556  0.00  0.00    -0.001 A 
ATOM      4  C3  UNL d   1      -4.795  -0.633   0.777  0.00  0.00     0.003 A 
ATOM      5  C4  UNL d   1      -4.495   0.591   1.372  0.00  0.00    -0.005 A 
ATOM      6  C5  UNL d   1      -4.650   0.751   2.748  0.00  0.00     0.003 A 
ATOM      7  C6  UNL d   1      -5.105  -0.313   3.528  0.00  0.00    -0.001 A 
ENDROOT
TORSDOF 0
ENDMDL
