MODEL 1
REMARK minimizedAffinity 2.83567786
REMARK minimizedRMSD -1
REMARK  0 active torsions:
REMARK  status: ('A' for Active; 'I' for Inactive)
ROOT
ATOM      1  C   UNL d   1      -4.399  -1.735   0.397  0.00  0.00     0.078 C 
ATOM      2  C1  UNL d   1      -3.561  -0.669   1.039  0.00  0.00    -0.077 A 
ATOM      3  C2  UNL d   1      -4.102   0.586   1.346  0.00  0.00    -0.001 A 
ATOM      4  C3  UNL d   1      -3.308   1.572   1.934  0.00  0.00     0.003 A 
ATOM      5  C4  UNL d   1      -1.968   1.314   2.218  0.00  0.00    -0.005 A 
ATOM      6  C5  UNL d   1      -1.421   0.069   1.913  0.00  0.00     0.003 A 
ATOM      7  C6  UNL d   1      -2.213  -0.918   1.326  0.00  0.00    -0.001 A 
ENDROOT
TORSDOF 0
ENDMDL
