MODEL 1
REMARK minimizedAffinity 6.73805571
REMARK minimizedRMSD -1
REMARK  0 active torsions:
REMARK  status: ('A' for Active; 'I' for Inactive)
ROOT
ATOM      1  C   UNL d   1      -2.325   0.176   2.051  0.00  0.00     0.078 C 
ATOM      2  C1  UNL d   1      -1.127   0.773   2.727  0.00  0.00    -0.077 A 
ATOM      3  C2  UNL d   1      -1.097   2.128   3.078  0.00  0.00    -0.001 A 
ATOM      4  C3  UNL d   1       0.029   2.672   3.698  0.00  0.00     0.003 A 
ATOM      5  C4  UNL d   1       1.135   1.869   3.970  0.00  0.00    -0.005 A 
ATOM      6  C5  UNL d   1       1.115   0.520   3.622  0.00  0.00     0.003 A 
ATOM      7  C6  UNL d   1      -0.010  -0.026   3.002  0.00  0.00    -0.001 A 
ENDROOT
TORSDOF 0
ENDMDL
