MODEL 1
REMARK minimizedAffinity 6.67935276
REMARK minimizedRMSD -1
REMARK  0 active torsions:
REMARK  status: ('A' for Active; 'I' for Inactive)
ROOT
ATOM      1  C   UNL d   1      -2.747   0.775   1.978  0.00  0.00     0.078 C 
ATOM      2  C1  UNL d   1      -1.408   1.073   2.585  0.00  0.00    -0.077 A 
ATOM      3  C2  UNL d   1      -1.074   2.370   2.994  0.00  0.00    -0.001 A 
ATOM      4  C3  UNL d   1       0.179   2.634   3.548  0.00  0.00     0.003 A 
ATOM      5  C4  UNL d   1       1.109   1.608   3.697  0.00  0.00    -0.005 A 
ATOM      6  C5  UNL d   1       0.787   0.314   3.291  0.00  0.00     0.003 A 
ATOM      7  C6  UNL d   1      -0.466   0.048   2.736  0.00  0.00    -0.001 A 
ENDROOT
TORSDOF 0
ENDMDL
