MODEL 1
REMARK minimizedAffinity 1.54199326
REMARK minimizedRMSD -1
REMARK  0 active torsions:
REMARK  status: ('A' for Active; 'I' for Inactive)
ROOT
ATOM      1  C   UNL d   1      -3.937  -2.052   0.162  0.00  0.00     0.078 C 
ATOM      2  C1  UNL d   1      -3.529  -0.827   0.925  0.00  0.00    -0.077 A 
ATOM      3  C2  UNL d   1      -2.216  -0.666   1.384  0.00  0.00    -0.001 A 
ATOM      4  C3  UNL d   1      -1.854   0.475   2.101  0.00  0.00     0.003 A 
ATOM      5  C4  UNL d   1      -2.799   1.464   2.366  0.00  0.00    -0.005 A 
ATOM      6  C5  UNL d   1      -4.108   1.312   1.916  0.00  0.00     0.003 A 
ATOM      7  C6  UNL d   1      -4.473   0.172   1.198  0.00  0.00    -0.001 A 
ENDROOT
TORSDOF 0
ENDMDL
