MODEL 1
REMARK minimizedAffinity -4.99463558
REMARK minimizedRMSD -1
REMARK  1 active torsions:
REMARK  status: ('A' for Active; 'I' for Inactive)
REMARK    1  A    between atoms: C3_4  and  O_7 
ROOT
ATOM      1  C   UNL d   1      -0.563  -0.155   0.002  0.00  0.00    -0.033 A 
ATOM      2  C1  UNL d   1       0.788  -0.469  -0.159  0.00  0.00     0.039 A 
ATOM      3  C2  UNL d   1       1.555  -0.846   0.946  0.00  0.00    -0.080 A 
ATOM      4  C3  UNL d   1       0.960  -0.905   2.203  0.00  0.00     0.150 A 
ATOM      5  C4  UNL d   1      -0.387  -0.597   2.369  0.00  0.00    -0.007 A 
ATOM      6  C5  UNL d   1      -1.151  -0.220   1.266  0.00  0.00     0.039 A 
ENDROOT
BRANCH   4   7
ATOM      7  O   UNL d   1       1.669  -1.262   3.311  0.00  0.00    -0.526 OA
ATOM      8  H5  UNL d   1       2.591  -1.418   3.048  0.00  0.00     0.418 HD
ENDBRANCH   4   7
TORSDOF 1
ENDMDL
