MODEL 1
REMARK minimizedAffinity -4.43548155
REMARK minimizedRMSD -1
REMARK  1 active torsions:
REMARK  status: ('A' for Active; 'I' for Inactive)
REMARK    1  A    between atoms: C3_4  and  O_7 
ROOT
ATOM      1  C   UNL d   1       2.030  -0.902  -0.206  0.00  0.00    -0.033 A 
ATOM      2  C1  UNL d   1       1.093  -0.037   0.362  0.00  0.00     0.039 A 
ATOM      3  C2  UNL d   1       0.918  -0.005   1.747  0.00  0.00    -0.080 A 
ATOM      4  C3  UNL d   1       1.686  -0.842   2.552  0.00  0.00     0.150 A 
ATOM      5  C4  UNL d   1       2.625  -1.703   1.993  0.00  0.00    -0.007 A 
ATOM      6  C5  UNL d   1       2.797  -1.734   0.610  0.00  0.00     0.039 A 
ENDROOT
BRANCH   4   7
ATOM      7  O   UNL d   1       1.548  -0.850   3.908  0.00  0.00    -0.526 OA
ATOM      8  H5  UNL d   1       0.844  -0.226   4.149  0.00  0.00     0.418 HD
ENDBRANCH   4   7
TORSDOF 1
ENDMDL
