MODEL 1
REMARK minimizedAffinity 15.5535078
REMARK minimizedRMSD -1
REMARK  1 active torsions:
REMARK  status: ('A' for Active; 'I' for Inactive)
REMARK    1  A    between atoms: C1_2  and  C2_3 
ROOT
ATOM      1  C2  UNL d   1       1.402  -1.405   4.115  0.00  0.00    -0.076 A 
ATOM      2  C3  UNL d   1       1.694  -2.343   3.109  0.00  0.00     0.004 A 
ATOM      3  C4  UNL d   1       1.876  -1.944   1.786  0.00  0.00    -0.003 A 
ATOM      4  C5  UNL d   1       1.770  -0.600   1.447  0.00  0.00     0.000 A 
ATOM      5  C6  UNL d   1       1.497   0.347   2.435  0.00  0.00     0.000 A 
ATOM      6  C7  UNL d   1       1.327  -0.037   3.776  0.00  0.00    -0.073 A 
ATOM      7  C8  UNL d   1       1.029   1.025   4.799  0.00  0.00     0.078 C 
ENDROOT
BRANCH   1   8
ATOM      8  C1  UNL d   1       1.188  -1.900   5.527  0.00  0.00     0.053 C 
ATOM      9  C   UNL d   1       2.058  -3.102   5.861  0.00  0.00     0.018 C 
ENDBRANCH   1   8
TORSDOF 1
ENDMDL
