MODEL 1
REMARK minimizedAffinity 11.9297314
REMARK minimizedRMSD -1
REMARK  1 active torsions:
REMARK  status: ('A' for Active; 'I' for Inactive)
REMARK    1  A    between atoms: C1_2  and  C2_3 
ROOT
ATOM      1  C2  UNL d   1       2.085  -2.390   1.960  0.00  0.00    -0.076 A 
ATOM      2  C3  UNL d   1       2.567  -3.392   2.820  0.00  0.00     0.004 A 
ATOM      3  C4  UNL d   1       2.298  -3.355   4.187  0.00  0.00    -0.003 A 
ATOM      4  C5  UNL d   1       1.541  -2.316   4.717  0.00  0.00     0.000 A 
ATOM      5  C6  UNL d   1       1.040  -1.323   3.876  0.00  0.00     0.000 A 
ATOM      6  C7  UNL d   1       1.288  -1.354   2.493  0.00  0.00    -0.073 A 
ATOM      7  C8  UNL d   1       0.727  -0.254   1.634  0.00  0.00     0.078 C 
ENDROOT
BRANCH   1   8
ATOM      8  C1  UNL d   1       2.431  -2.468   0.490  0.00  0.00     0.053 C 
ATOM      9  C   UNL d   1       3.843  -1.983   0.198  0.00  0.00     0.018 C 
ENDBRANCH   1   8
TORSDOF 1
ENDMDL
