MODEL 1
REMARK minimizedAffinity 14.696579
REMARK minimizedRMSD -1
REMARK  1 active torsions:
REMARK  status: ('A' for Active; 'I' for Inactive)
REMARK    1  A    between atoms: C1_2  and  C2_3 
ROOT
ATOM      1  C2  UNL d   1       1.464  -4.067  -0.153  0.00  0.00    -0.076 A 
ATOM      2  C3  UNL d   1       0.286  -4.228   0.597  0.00  0.00     0.004 A 
ATOM      3  C4  UNL d   1      -0.806  -4.921   0.077  0.00  0.00    -0.003 A 
ATOM      4  C5  UNL d   1      -0.738  -5.464  -1.202  0.00  0.00     0.000 A 
ATOM      5  C6  UNL d   1       0.430  -5.328  -1.953  0.00  0.00     0.000 A 
ATOM      6  C7  UNL d   1       1.545  -4.647  -1.437  0.00  0.00    -0.073 A 
ATOM      7  C8  UNL d   1       2.776  -4.526  -2.293  0.00  0.00     0.078 C 
ENDROOT
BRANCH   1   8
ATOM      8  C1  UNL d   1       2.606  -3.283   0.453  0.00  0.00     0.053 C 
ATOM      9  C   UNL d   1       2.140  -2.007   1.136  0.00  0.00     0.018 C 
ENDBRANCH   1   8
TORSDOF 1
ENDMDL
