MODEL 1
REMARK minimizedAffinity 6.92860699
REMARK minimizedRMSD -1
REMARK  1 active torsions:
REMARK  status: ('A' for Active; 'I' for Inactive)
REMARK    1  A    between atoms: C1_2  and  C2_3 
ROOT
ATOM      1  C2  UNL d   1       2.389  -3.024   3.402  0.00  0.00    -0.076 A 
ATOM      2  C3  UNL d   1       2.403  -2.552   2.078  0.00  0.00     0.004 A 
ATOM      3  C4  UNL d   1       1.912  -1.286   1.763  0.00  0.00    -0.003 A 
ATOM      4  C5  UNL d   1       1.398  -0.472   2.766  0.00  0.00     0.000 A 
ATOM      5  C6  UNL d   1       1.392  -0.918   4.088  0.00  0.00     0.000 A 
ATOM      6  C7  UNL d   1       1.899  -2.185   4.425  0.00  0.00    -0.073 A 
ATOM      7  C8  UNL d   1       1.862  -2.617   5.865  0.00  0.00     0.078 C 
ENDROOT
BRANCH   1   8
ATOM      8  C1  UNL d   1       2.910  -4.416   3.680  0.00  0.00     0.053 C 
ATOM      9  C   UNL d   1       2.171  -5.484   2.889  0.00  0.00     0.018 C 
ENDBRANCH   1   8
TORSDOF 1
ENDMDL
