MODEL 1
REMARK minimizedAffinity 10.7080011
REMARK minimizedRMSD -1
REMARK  1 active torsions:
REMARK  status: ('A' for Active; 'I' for Inactive)
REMARK    1  A    between atoms: C1_2  and  C2_3 
ROOT
ATOM      1  C2  UNL d   1      -3.558   2.356  -2.999  0.00  0.00    -0.076 A 
ATOM      2  C3  UNL d   1      -3.947   3.019  -1.822  0.00  0.00     0.004 A 
ATOM      3  C4  UNL d   1      -4.416   4.331  -1.859  0.00  0.00    -0.003 A 
ATOM      4  C5  UNL d   1      -4.506   5.001  -3.074  0.00  0.00     0.000 A 
ATOM      5  C6  UNL d   1      -4.142   4.353  -4.254  0.00  0.00     0.000 A 
ATOM      6  C7  UNL d   1      -3.681   3.025  -4.236  0.00  0.00    -0.073 A 
ATOM      7  C8  UNL d   1      -3.296   2.377  -5.538  0.00  0.00     0.078 C 
ENDROOT
BRANCH   1   8
ATOM      8  C1  UNL d   1      -3.031   0.943  -2.895  0.00  0.00     0.053 C 
ATOM      9  C   UNL d   1      -2.169   0.733  -1.659  0.00  0.00     0.018 C 
ENDBRANCH   1   8
TORSDOF 1
ENDMDL
