MODEL 1
REMARK minimizedAffinity 14.490099
REMARK minimizedRMSD -1
REMARK  1 active torsions:
REMARK  status: ('A' for Active; 'I' for Inactive)
REMARK    1  A    between atoms: C1_2  and  C2_3 
ROOT
ATOM      1  C2  UNL d   1       1.575  -2.392   4.171  0.00  0.00    -0.076 A 
ATOM      2  C3  UNL d   1       0.976  -1.185   3.771  0.00  0.00     0.004 A 
ATOM      3  C4  UNL d   1       1.040  -0.758   2.446  0.00  0.00    -0.003 A 
ATOM      4  C5  UNL d   1       1.704  -1.531   1.499  0.00  0.00     0.000 A 
ATOM      5  C6  UNL d   1       2.288  -2.740   1.875  0.00  0.00     0.000 A 
ATOM      6  C7  UNL d   1       2.219  -3.193   3.204  0.00  0.00    -0.073 A 
ATOM      7  C8  UNL d   1       2.872  -4.502   3.555  0.00  0.00     0.078 C 
ENDROOT
BRANCH   1   8
ATOM      8  C1  UNL d   1       1.497  -2.791   5.628  0.00  0.00     0.053 C 
ATOM      9  C   UNL d   1       0.143  -3.375   6.000  0.00  0.00     0.018 C 
ENDBRANCH   1   8
TORSDOF 1
ENDMDL
