MODEL 1
REMARK minimizedAffinity 6.05112791
REMARK minimizedRMSD -1
REMARK  1 active torsions:
REMARK  status: ('A' for Active; 'I' for Inactive)
REMARK    1  A    between atoms: C1_2  and  C2_3 
ROOT
ATOM      1  C2  UNL d   1      -3.834   2.627  -4.031  0.00  0.00    -0.076 A 
ATOM      2  C3  UNL d   1      -3.441   2.771  -5.373  0.00  0.00     0.004 A 
ATOM      3  C4  UNL d   1      -3.474   4.016  -6.000  0.00  0.00    -0.003 A 
ATOM      4  C5  UNL d   1      -3.901   5.136  -5.295  0.00  0.00     0.000 A 
ATOM      5  C6  UNL d   1      -4.278   5.014  -3.958  0.00  0.00     0.000 A 
ATOM      6  C7  UNL d   1      -4.235   3.770  -3.306  0.00  0.00    -0.073 A 
ATOM      7  C8  UNL d   1      -4.659   3.695  -1.865  0.00  0.00     0.078 C 
ENDROOT
BRANCH   1   8
ATOM      8  C1  UNL d   1      -3.803   1.248  -3.411  0.00  0.00     0.053 C 
ATOM      9  C   UNL d   1      -2.627   1.061  -2.465  0.00  0.00     0.018 C 
ENDBRANCH   1   8
TORSDOF 1
ENDMDL
