MODEL 1
REMARK minimizedAffinity 9.35344124
REMARK minimizedRMSD -1
REMARK  1 active torsions:
REMARK  status: ('A' for Active; 'I' for Inactive)
REMARK    1  A    between atoms: C1_2  and  C2_3 
ROOT
ATOM      1  C2  UNL d   1       1.793  -0.446   4.184  0.00  0.00    -0.076 A 
ATOM      2  C3  UNL d   1       2.501  -1.035   5.247  0.00  0.00     0.004 A 
ATOM      3  C4  UNL d   1       2.977  -2.342   5.154  0.00  0.00    -0.003 A 
ATOM      4  C5  UNL d   1       2.754  -3.081   3.998  0.00  0.00     0.000 A 
ATOM      5  C6  UNL d   1       2.069  -2.507   2.927  0.00  0.00     0.000 A 
ATOM      6  C7  UNL d   1       1.596  -1.185   2.998  0.00  0.00    -0.073 A 
ATOM      7  C8  UNL d   1       0.858  -0.618   1.816  0.00  0.00     0.078 C 
ENDROOT
BRANCH   1   8
ATOM      8  C1  UNL d   1       1.277   0.965   4.352  0.00  0.00     0.053 C 
ATOM      9  C   UNL d   1       1.795   1.628   5.619  0.00  0.00     0.018 C 
ENDBRANCH   1   8
TORSDOF 1
ENDMDL
