MODEL 1
REMARK minimizedAffinity 7.24181938
REMARK minimizedRMSD -1
REMARK  1 active torsions:
REMARK  status: ('A' for Active; 'I' for Inactive)
REMARK    1  A    between atoms: C1_2  and  C2_3 
ROOT
ATOM      1  C2  UNL d   1       1.841  -1.847   4.175  0.00  0.00    -0.076 A 
ATOM      2  C3  UNL d   1       2.258  -2.870   3.305  0.00  0.00     0.004 A 
ATOM      3  C4  UNL d   1       2.386  -2.641   1.937  0.00  0.00    -0.003 A 
ATOM      4  C5  UNL d   1       2.099  -1.384   1.415  0.00  0.00     0.000 A 
ATOM      5  C6  UNL d   1       1.701  -0.353   2.264  0.00  0.00     0.000 A 
ATOM      6  C7  UNL d   1       1.583  -0.563   3.649  0.00  0.00    -0.073 A 
ATOM      7  C8  UNL d   1       1.144   0.584   4.518  0.00  0.00     0.078 C 
ENDROOT
BRANCH   1   8
ATOM      8  C1  UNL d   1       1.695  -2.161   5.646  0.00  0.00     0.053 C 
ATOM      9  C   UNL d   1       2.210  -3.548   6.000  0.00  0.00     0.018 C 
ENDBRANCH   1   8
TORSDOF 1
ENDMDL
