MODEL 1
REMARK minimizedAffinity 3.9611516
REMARK minimizedRMSD -1
REMARK  1 active torsions:
REMARK  status: ('A' for Active; 'I' for Inactive)
REMARK    1  A    between atoms: C1_2  and  C2_3 
ROOT
ATOM      1  C2  UNL d   1       1.779  -2.227   4.328  0.00  0.00    -0.076 A 
ATOM      2  C3  UNL d   1       1.396  -0.877   4.403  0.00  0.00     0.004 A 
ATOM      3  C4  UNL d   1       1.292  -0.095   3.253  0.00  0.00    -0.003 A 
ATOM      4  C5  UNL d   1       1.570  -0.652   2.010  0.00  0.00     0.000 A 
ATOM      5  C6  UNL d   1       1.935  -1.995   1.915  0.00  0.00     0.000 A 
ATOM      6  C7  UNL d   1       2.028  -2.800   3.063  0.00  0.00    -0.073 A 
ATOM      7  C8  UNL d   1       2.432  -4.241   2.903  0.00  0.00     0.078 C 
ENDROOT
BRANCH   1   8
ATOM      8  C1  UNL d   1       1.901  -3.018   5.611  0.00  0.00     0.053 C 
ATOM      9  C   UNL d   1       3.348  -3.289   5.994  0.00  0.00     0.018 C 
ENDBRANCH   1   8
TORSDOF 1
ENDMDL
