MODEL 1
REMARK minimizedAffinity 11.1302309
REMARK minimizedRMSD -1
REMARK  0 active torsions:
REMARK  status: ('A' for Active; 'I' for Inactive)
ROOT
ATOM      1  C1  DEN d   1      -0.344   4.042   3.298  0.00  0.00     0.130 A 
ATOM      2  C2  DEN d   1       0.702   4.952   3.756  0.00  0.00    -0.031 A 
ATOM      3  C3  DEN d   1       0.170   5.722   4.898  0.00  0.00     0.027 A 
ATOM      4  C4  DEN d   1      -2.159   5.591   5.999  0.00  0.00     0.027 A 
ATOM      5  C5  DEN d   1      -3.391   4.976   5.951  0.00  0.00    -0.003 A 
ATOM      6  C6  DEN d   1      -3.702   4.038   5.002  0.00  0.00     0.001 A 
ATOM      7  C7  DEN d   1      -2.755   3.656   4.089  0.00  0.00     0.017 A 
ATOM      8  C8  DEN d   1      -1.513   4.277   4.127  0.00  0.00    -0.094 A 
ATOM      9  C9  DEN d   1      -1.214   5.214   5.102  0.00  0.00    -0.072 A 
ENDROOT
TORSDOF 0
ENDMDL
