MODEL 1
REMARK minimizedAffinity 5.02334499
REMARK minimizedRMSD -1
REMARK  0 active torsions:
REMARK  status: ('A' for Active; 'I' for Inactive)
ROOT
ATOM      1  C1  DEN d   1       2.374   5.846   6.000  0.00  0.00     0.130 A 
ATOM      2  C2  DEN d   1       3.329   5.410   4.984  0.00  0.00    -0.031 A 
ATOM      3  C3  DEN d   1       2.569   5.035   3.774  0.00  0.00     0.027 A 
ATOM      4  C4  DEN d   1       0.021   5.092   3.377  0.00  0.00     0.027 A 
ATOM      5  C5  DEN d   1      -1.199   5.379   3.950  0.00  0.00    -0.003 A 
ATOM      6  C6  DEN d   1      -1.314   5.805   5.246  0.00  0.00     0.001 A 
ATOM      7  C7  DEN d   1      -0.187   6.000   6.000  0.00  0.00     0.017 A 
ATOM      8  C8  DEN d   1       1.046   5.706   5.431  0.00  0.00    -0.094 A 
ATOM      9  C9  DEN d   1       1.143   5.289   4.115  0.00  0.00    -0.072 A 
ENDROOT
TORSDOF 0
ENDMDL
