MODEL 1
REMARK minimizedAffinity 11.8787994
REMARK minimizedRMSD -1
REMARK  0 active torsions:
REMARK  status: ('A' for Active; 'I' for Inactive)
ROOT
ATOM      1  C1  DEN d   1       2.225  -1.115   1.417  0.00  0.00     0.130 A 
ATOM      2  C2  DEN d   1       0.767  -1.193   1.457  0.00  0.00    -0.031 A 
ATOM      3  C3  DEN d   1       0.379  -2.601   1.240  0.00  0.00     0.027 A 
ATOM      4  C4  DEN d   1       1.885  -4.658   0.852  0.00  0.00     0.027 A 
ATOM      5  C5  DEN d   1       3.188  -5.088   0.723  0.00  0.00    -0.003 A 
ATOM      6  C6  DEN d   1       4.250  -4.225   0.782  0.00  0.00     0.001 A 
ATOM      7  C7  DEN d   1       4.031  -2.894   1.020  0.00  0.00     0.017 A 
ATOM      8  C8  DEN d   1       2.720  -2.452   1.144  0.00  0.00    -0.094 A 
ATOM      9  C9  DEN d   1       1.661  -3.342   1.094  0.00  0.00    -0.072 A 
ENDROOT
TORSDOF 0
ENDMDL
