MODEL 1
REMARK minimizedAffinity 10.5112524
REMARK minimizedRMSD -1
REMARK  0 active torsions:
REMARK  status: ('A' for Active; 'I' for Inactive)
ROOT
ATOM      1  C1  DEN d   1       5.055  -0.966   0.037  0.00  0.00     0.130 A 
ATOM      2  C2  DEN d   1       6.000  -1.843  -0.651  0.00  0.00    -0.031 A 
ATOM      3  C3  DEN d   1       5.309  -3.113  -0.950  0.00  0.00     0.027 A 
ATOM      4  C4  DEN d   1       2.880  -3.802  -0.424  0.00  0.00     0.027 A 
ATOM      5  C5  DEN d   1       1.699  -3.397   0.158  0.00  0.00    -0.003 A 
ATOM      6  C6  DEN d   1       1.565  -2.176   0.766  0.00  0.00     0.001 A 
ATOM      7  C7  DEN d   1       2.618  -1.299   0.765  0.00  0.00     0.017 A 
ATOM      8  C8  DEN d   1       3.814  -1.704   0.187  0.00  0.00    -0.094 A 
ATOM      9  C9  DEN d   1       3.925  -2.937  -0.433  0.00  0.00    -0.072 A 
ENDROOT
TORSDOF 0
ENDMDL
