MODEL 1
REMARK minimizedAffinity 10.563529
REMARK minimizedRMSD -1
REMARK  0 active torsions:
REMARK  status: ('A' for Active; 'I' for Inactive)
ROOT
ATOM      1  C1  DEN d   1      -1.011   4.021   5.979  0.00  0.00     0.130 A 
ATOM      2  C2  DEN d   1      -1.368   5.436   5.944  0.00  0.00    -0.031 A 
ATOM      3  C3  DEN d   1      -2.841   5.535   5.935  0.00  0.00     0.027 A 
ATOM      4  C4  DEN d   1      -4.595   3.644   5.978  0.00  0.00     0.027 A 
ATOM      5  C5  DEN d   1      -4.772   2.278   5.998  0.00  0.00    -0.003 A 
ATOM      6  C6  DEN d   1      -3.718   1.404   5.980  0.00  0.00     0.001 A 
ATOM      7  C7  DEN d   1      -2.436   1.887   5.985  0.00  0.00     0.017 A 
ATOM      8  C8  DEN d   1      -2.249   3.263   5.957  0.00  0.00    -0.094 A 
ATOM      9  C9  DEN d   1      -3.328   4.130   5.988  0.00  0.00    -0.072 A 
ENDROOT
TORSDOF 0
ENDMDL
