MODEL 1
REMARK minimizedAffinity 16.7232819
REMARK minimizedRMSD -1
REMARK  0 active torsions:
REMARK  status: ('A' for Active; 'I' for Inactive)
ROOT
ATOM      1  C1  DEN d   1       2.689  -1.635   3.198  0.00  0.00     0.130 A 
ATOM      2  C2  DEN d   1       2.109  -0.373   3.648  0.00  0.00    -0.031 A 
ATOM      3  C3  DEN d   1       1.229   0.134   2.576  0.00  0.00     0.027 A 
ATOM      4  C4  DEN d   1       0.707  -0.911   0.276  0.00  0.00     0.027 A 
ATOM      5  C5  DEN d   1       0.972  -1.972  -0.561  0.00  0.00    -0.003 A 
ATOM      6  C6  DEN d   1       1.846  -2.970  -0.220  0.00  0.00     0.001 A 
ATOM      7  C7  DEN d   1       2.453  -2.951   1.007  0.00  0.00     0.017 A 
ATOM      8  C8  DEN d   1       2.197  -1.880   1.854  0.00  0.00    -0.094 A 
ATOM      9  C9  DEN d   1       1.301  -0.887   1.496  0.00  0.00    -0.072 A 
ENDROOT
TORSDOF 0
ENDMDL
