MODEL 1
REMARK minimizedAffinity 8.24399948
REMARK minimizedRMSD -1
REMARK  0 active torsions:
REMARK  status: ('A' for Active; 'I' for Inactive)
ROOT
ATOM      1  C1  DEN d   1      -0.111   2.613  -5.027  0.00  0.00     0.130 A 
ATOM      2  C2  DEN d   1       0.698   2.649  -3.812  0.00  0.00    -0.031 A 
ATOM      3  C3  DEN d   1      -0.176   2.309  -2.671  0.00  0.00     0.027 A 
ATOM      4  C4  DEN d   1      -2.689   1.729  -2.669  0.00  0.00     0.027 A 
ATOM      5  C5  DEN d   1      -3.808   1.582  -3.459  0.00  0.00    -0.003 A 
ATOM      6  C6  DEN d   1      -3.780   1.799  -4.811  0.00  0.00     0.001 A 
ATOM      7  C7  DEN d   1      -2.600   2.132  -5.422  0.00  0.00     0.017 A 
ATOM      8  C8  DEN d   1      -1.470   2.290  -4.631  0.00  0.00    -0.094 A 
ATOM      9  C9  DEN d   1      -1.515   2.054  -3.267  0.00  0.00    -0.072 A 
ENDROOT
TORSDOF 0
ENDMDL
