MODEL 1
REMARK minimizedAffinity 8.79994583
REMARK minimizedRMSD -1
REMARK  2 active torsions:
REMARK  status: ('A' for Active; 'I' for Inactive)
REMARK    1  A    between atoms: C2'_3  and  C1'_4 
REMARK    2  A    between atoms: C1'_4  and  C1_5 
ROOT
ATOM      1  C1  I4B d   1       3.432   0.119  -0.560  0.00  0.00    -0.075 A 
ATOM      2  C2  I4B d   1       3.693   1.211  -1.351  0.00  0.00     0.003 A 
ATOM      3  C3  I4B d   1       4.999   1.755  -1.405  0.00  0.00     0.002 A 
ATOM      4  C4  I4B d   1       5.995   1.212  -0.619  0.00  0.00    -0.004 A 
ATOM      5  C5  I4B d   1       5.734   0.092   0.164  0.00  0.00     0.002 A 
ATOM      6  C6  I4B d   1       4.447  -0.466   0.185  0.00  0.00     0.003 A 
ENDROOT
BRANCH   1   7
ATOM      7  C1' I4B d   1       2.034  -0.410  -0.501  0.00  0.00     0.060 C 
BRANCH   7   8
ATOM      8  C2' I4B d   1       1.116   0.735  -0.125  0.00  0.00    -0.013 C 
ATOM      9  C4' I4B d   1      -0.035   0.850  -1.089  0.00  0.00     0.013 C 
ATOM     10  C3' I4B d   1       0.630   0.499   1.274  0.00  0.00     0.013 C 
ENDBRANCH   7   8
ENDBRANCH   1   7
TORSDOF 2
ENDMDL
