MODEL 1
REMARK minimizedAffinity 15.0402536
REMARK minimizedRMSD -1
REMARK  2 active torsions:
REMARK  status: ('A' for Active; 'I' for Inactive)
REMARK    1  A    between atoms: C2'_3  and  C1'_4 
REMARK    2  A    between atoms: C1'_4  and  C1_5 
ROOT
ATOM      1  C1  I4B d   1       5.164   3.376  -1.273  0.00  0.00    -0.075 A 
ATOM      2  C2  I4B d   1       4.937   3.780   0.019  0.00  0.00     0.003 A 
ATOM      3  C3  I4B d   1       5.229   5.108   0.412  0.00  0.00     0.002 A 
ATOM      4  C4  I4B d   1       5.791   5.979  -0.499  0.00  0.00    -0.004 A 
ATOM      5  C5  I4B d   1       5.999   5.574  -1.815  0.00  0.00     0.002 A 
ATOM      6  C6  I4B d   1       5.672   4.268  -2.208  0.00  0.00     0.003 A 
ENDROOT
BRANCH   1   7
ATOM      7  C1' I4B d   1       4.874   1.956  -1.646  0.00  0.00     0.060 C 
BRANCH   7   8
ATOM      8  C2' I4B d   1       4.659   1.172  -0.368  0.00  0.00    -0.013 C 
ATOM      9  C4' I4B d   1       3.423   0.317  -0.454  0.00  0.00     0.013 C 
ATOM     10  C3' I4B d   1       5.881   0.336  -0.127  0.00  0.00     0.013 C 
ENDBRANCH   7   8
ENDBRANCH   1   7
TORSDOF 2
ENDMDL
