MODEL 1
REMARK minimizedAffinity 1.90729201
REMARK minimizedRMSD -1
REMARK  2 active torsions:
REMARK  status: ('A' for Active; 'I' for Inactive)
REMARK    1  A    between atoms: C2'_3  and  C1'_4 
REMARK    2  A    between atoms: C1'_4  and  C1_5 
ROOT
ATOM      1  C1  I4B d   1       3.267   0.025  -0.468  0.00  0.00    -0.075 A 
ATOM      2  C2  I4B d   1       3.703   1.307  -0.691  0.00  0.00     0.003 A 
ATOM      3  C3  I4B d   1       5.089   1.586  -0.765  0.00  0.00     0.002 A 
ATOM      4  C4  I4B d   1       5.999   0.569  -0.562  0.00  0.00    -0.004 A 
ATOM      5  C5  I4B d   1       5.555  -0.735  -0.359  0.00  0.00     0.002 A 
ATOM      6  C6  I4B d   1       4.181  -1.011  -0.324  0.00  0.00     0.003 A 
ENDROOT
BRANCH   1   7
ATOM      7  C1' I4B d   1       1.797  -0.229  -0.362  0.00  0.00     0.060 C 
BRANCH   7   8
ATOM      8  C2' I4B d   1       1.137   1.045   0.125  0.00  0.00    -0.013 C 
ATOM      9  C4' I4B d   1      -0.041   1.414  -0.738  0.00  0.00     0.013 C 
ATOM     10  C3' I4B d   1       0.720   0.835   1.550  0.00  0.00     0.013 C 
ENDBRANCH   7   8
ENDBRANCH   1   7
TORSDOF 2
ENDMDL
