MODEL 1
REMARK minimizedAffinity 9.56142616
REMARK minimizedRMSD -1
REMARK  2 active torsions:
REMARK  status: ('A' for Active; 'I' for Inactive)
REMARK    1  A    between atoms: C2'_3  and  C1'_4 
REMARK    2  A    between atoms: C1'_4  and  C1_5 
ROOT
ATOM      1  C1  I4B d   1       3.562  -1.139  -1.411  0.00  0.00    -0.075 A 
ATOM      2  C2  I4B d   1       3.127  -0.686  -0.191  0.00  0.00     0.003 A 
ATOM      3  C3  I4B d   1       3.525   0.590   0.278  0.00  0.00     0.002 A 
ATOM      4  C4  I4B d   1       4.394   1.351  -0.477  0.00  0.00    -0.004 A 
ATOM      5  C5  I4B d   1       4.816   0.899  -1.724  0.00  0.00     0.002 A 
ATOM      6  C6  I4B d   1       4.388  -0.349  -2.200  0.00  0.00     0.003 A 
ENDROOT
BRANCH   1   7
ATOM      7  C1' I4B d   1       3.149  -2.505  -1.862  0.00  0.00     0.060 C 
BRANCH   7   8
ATOM      8  C2' I4B d   1       3.407  -2.603  -3.351  0.00  0.00    -0.013 C 
ATOM      9  C4' I4B d   1       4.217  -3.828  -3.685  0.00  0.00     0.013 C 
ATOM     10  C3' I4B d   1       2.081  -2.624  -4.051  0.00  0.00     0.013 C 
ENDBRANCH   7   8
ENDBRANCH   1   7
TORSDOF 2
ENDMDL
