MODEL 1
REMARK minimizedAffinity 3.9847393
REMARK minimizedRMSD -1
REMARK  2 active torsions:
REMARK  status: ('A' for Active; 'I' for Inactive)
REMARK    1  A    between atoms: C2'_3  and  C1'_4 
REMARK    2  A    between atoms: C1'_4  and  C1_5 
ROOT
ATOM      1  C1  I4B d   1       2.675  -2.069  -0.839  0.00  0.00    -0.075 A 
ATOM      2  C2  I4B d   1       1.470  -1.732  -0.276  0.00  0.00     0.003 A 
ATOM      3  C3  I4B d   1       0.302  -2.464  -0.600  0.00  0.00     0.002 A 
ATOM      4  C4  I4B d   1       0.375  -3.487  -1.523  0.00  0.00    -0.004 A 
ATOM      5  C5  I4B d   1       1.602  -3.842  -2.076  0.00  0.00     0.002 A 
ATOM      6  C6  I4B d   1       2.762  -3.137  -1.722  0.00  0.00     0.003 A 
ENDROOT
BRANCH   1   7
ATOM      7  C1' I4B d   1       3.882  -1.254  -0.500  0.00  0.00     0.060 C 
BRANCH   7   8
ATOM      8  C2' I4B d   1       3.640   0.162  -0.983  0.00  0.00    -0.013 C 
ATOM      9  C4' I4B d   1       3.148   1.043   0.135  0.00  0.00     0.013 C 
ATOM     10  C3' I4B d   1       4.925   0.681  -1.556  0.00  0.00     0.013 C 
ENDBRANCH   7   8
ENDBRANCH   1   7
TORSDOF 2
ENDMDL
