MODEL 1
REMARK minimizedAffinity 13.1865635
REMARK minimizedRMSD -1
REMARK  2 active torsions:
REMARK  status: ('A' for Active; 'I' for Inactive)
REMARK    1  A    between atoms: C2'_3  and  C1'_4 
REMARK    2  A    between atoms: C1'_4  and  C1_5 
ROOT
ATOM      1  C1  I4B d   1       3.731  -1.450  -0.677  0.00  0.00    -0.075 A 
ATOM      2  C2  I4B d   1       4.110  -2.211   0.400  0.00  0.00     0.003 A 
ATOM      3  C3  I4B d   1       5.247  -1.849   1.163  0.00  0.00     0.002 A 
ATOM      4  C4  I4B d   1       5.999  -0.755   0.786  0.00  0.00    -0.004 A 
ATOM      5  C5  I4B d   1       5.599   0.028  -0.293  0.00  0.00     0.002 A 
ATOM      6  C6  I4B d   1       4.451  -0.314  -1.022  0.00  0.00     0.003 A 
ENDROOT
BRANCH   1   7
ATOM      7  C1' I4B d   1       2.545  -1.880  -1.481  0.00  0.00     0.060 C 
BRANCH   7   8
ATOM      8  C2' I4B d   1       2.742  -3.332  -1.865  0.00  0.00    -0.013 C 
ATOM      9  C4' I4B d   1       1.539  -4.161  -1.499  0.00  0.00     0.013 C 
ATOM     10  C3' I4B d   1       3.011  -3.389  -3.339  0.00  0.00     0.013 C 
ENDBRANCH   7   8
ENDBRANCH   1   7
TORSDOF 2
ENDMDL
