MODEL 1
REMARK minimizedAffinity 8.95070457
REMARK minimizedRMSD -1
REMARK  2 active torsions:
REMARK  status: ('A' for Active; 'I' for Inactive)
REMARK    1  A    between atoms: C2'_3  and  C1'_4 
REMARK    2  A    between atoms: C1'_4  and  C1_5 
ROOT
ATOM      1  C1  I4B d   1       1.837   0.025   0.066  0.00  0.00    -0.075 A 
ATOM      2  C2  I4B d   1       0.810   0.329  -0.792  0.00  0.00     0.003 A 
ATOM      3  C3  I4B d   1      -0.421   0.815  -0.288  0.00  0.00     0.002 A 
ATOM      4  C4  I4B d   1      -0.597   0.933   1.076  0.00  0.00    -0.004 A 
ATOM      5  C5  I4B d   1       0.453   0.646   1.943  0.00  0.00     0.002 A 
ATOM      6  C6  I4B d   1       1.682   0.200   1.435  0.00  0.00     0.003 A 
ENDROOT
BRANCH   1   7
ATOM      7  C1' I4B d   1       3.112  -0.517  -0.498  0.00  0.00     0.060 C 
BRANCH   7   8
ATOM      8  C2' I4B d   1       4.236   0.410  -0.087  0.00  0.00    -0.013 C 
ATOM      9  C4' I4B d   1       5.543  -0.331   0.018  0.00  0.00     0.013 C 
ATOM     10  C3' I4B d   1       4.320   1.514  -1.098  0.00  0.00     0.013 C 
ENDBRANCH   7   8
ENDBRANCH   1   7
TORSDOF 2
ENDMDL
