MODEL 1
REMARK minimizedAffinity 9.59472752
REMARK minimizedRMSD -1
REMARK  2 active torsions:
REMARK  status: ('A' for Active; 'I' for Inactive)
REMARK    1  A    between atoms: C2'_3  and  C1'_4 
REMARK    2  A    between atoms: C1'_4  and  C1_5 
ROOT
ATOM      1  C1  I4B d   1       3.410   0.156  -0.564  0.00  0.00    -0.075 A 
ATOM      2  C2  I4B d   1       3.673   1.371  -1.146  0.00  0.00     0.003 A 
ATOM      3  C3  I4B d   1       4.992   1.888  -1.151  0.00  0.00     0.002 A 
ATOM      4  C4  I4B d   1       6.000   1.185  -0.524  0.00  0.00    -0.004 A 
ATOM      5  C5  I4B d   1       5.735  -0.057   0.046  0.00  0.00     0.002 A 
ATOM      6  C6  I4B d   1       4.435  -0.581   0.015  0.00  0.00     0.003 A 
ENDROOT
BRANCH   1   7
ATOM      7  C1' I4B d   1       2.000  -0.344  -0.548  0.00  0.00     0.060 C 
BRANCH   7   8
ATOM      8  C2' I4B d   1       1.094   0.824  -0.216  0.00  0.00    -0.013 C 
ATOM      9  C4' I4B d   1       0.002   0.975  -1.242  0.00  0.00     0.013 C 
ATOM     10  C3' I4B d   1       0.523   0.593   1.151  0.00  0.00     0.013 C 
ENDBRANCH   7   8
ENDBRANCH   1   7
TORSDOF 2
ENDMDL
