MODEL 1
REMARK minimizedAffinity 8.36240959
REMARK minimizedRMSD -1
REMARK  1 active torsions:
REMARK  status: ('A' for Active; 'I' for Inactive)
REMARK    1  A    between atoms: C3_4  and  O_7 
ROOT
ATOM      1  C   UNL d   1       2.239   1.075   0.719  0.00  0.00    -0.033 A 
ATOM      2  C1  UNL d   1       2.850  -0.080   0.226  0.00  0.00     0.039 A 
ATOM      3  C2  UNL d   1       3.402  -0.087  -1.056  0.00  0.00    -0.080 A 
ATOM      4  C3  UNL d   1       3.339   1.066  -1.834  0.00  0.00     0.150 A 
ATOM      5  C4  UNL d   1       2.736   2.222  -1.348  0.00  0.00    -0.007 A 
ATOM      6  C5  UNL d   1       2.183   2.226  -0.067  0.00  0.00     0.039 A 
ENDROOT
BRANCH   4   7
ATOM      7  O   UNL d   1       3.860   1.106  -3.093  0.00  0.00    -0.526 OA
ATOM      8  H5  UNL d   1       4.219   0.228  -3.305  0.00  0.00     0.418 HD
ENDBRANCH   4   7
TORSDOF 1
ENDMDL
