MODEL 1
REMARK minimizedAffinity 1.98741496
REMARK minimizedRMSD -1
REMARK  1 active torsions:
REMARK  status: ('A' for Active; 'I' for Inactive)
REMARK    1  A    between atoms: C3_4  and  O_7 
ROOT
ATOM      1  C   UNL d   1      -1.144  -4.542  -6.000  0.00  0.00    -0.033 A 
ATOM      2  C1  UNL d   1      -0.057  -5.419  -5.996  0.00  0.00     0.039 A 
ATOM      3  C2  UNL d   1       1.246  -4.918  -5.995  0.00  0.00    -0.080 A 
ATOM      4  C3  UNL d   1       1.449  -3.541  -5.996  0.00  0.00     0.150 A 
ATOM      5  C4  UNL d   1       0.371  -2.661  -5.996  0.00  0.00    -0.007 A 
ATOM      6  C5  UNL d   1      -0.930  -3.163  -5.999  0.00  0.00     0.039 A 
ENDROOT
BRANCH   4   7
ATOM      7  O   UNL d   1       2.702  -3.005  -6.000  0.00  0.00    -0.526 OA
ATOM      8  H5  UNL d   1       3.347  -3.731  -6.029  0.00  0.00     0.418 HD
ENDBRANCH   4   7
TORSDOF 1
ENDMDL
