MODEL 1
REMARK minimizedAffinity 5.22213316
REMARK minimizedRMSD -1
REMARK  1 active torsions:
REMARK  status: ('A' for Active; 'I' for Inactive)
REMARK    1  A    between atoms: C3_4  and  O_7 
ROOT
ATOM      1  C   UNL d   1       2.565   0.745   1.154  0.00  0.00    -0.033 A 
ATOM      2  C1  UNL d   1       1.451   0.857   1.988  0.00  0.00     0.039 A 
ATOM      3  C2  UNL d   1       0.715   2.043   2.019  0.00  0.00    -0.080 A 
ATOM      4  C3  UNL d   1       1.103   3.108   1.211  0.00  0.00     0.150 A 
ATOM      5  C4  UNL d   1       2.209   3.003   0.374  0.00  0.00    -0.007 A 
ATOM      6  C5  UNL d   1       2.943   1.818   0.346  0.00  0.00     0.039 A 
ENDROOT
BRANCH   4   7
ATOM      7  O   UNL d   1       0.419   4.288   1.210  0.00  0.00    -0.526 OA
ATOM      8  H5  UNL d   1      -0.303   4.225   1.857  0.00  0.00     0.418 HD
ENDBRANCH   4   7
TORSDOF 1
ENDMDL
