MODEL 1
REMARK minimizedAffinity 11.6237974
REMARK minimizedRMSD -1
REMARK  1 active torsions:
REMARK  status: ('A' for Active; 'I' for Inactive)
REMARK    1  A    between atoms: C3_4  and  O_7 
ROOT
ATOM      1  C   UNL d   1       2.574   0.373   1.713  0.00  0.00    -0.033 A 
ATOM      2  C1  UNL d   1       2.658   1.426   0.800  0.00  0.00     0.039 A 
ATOM      3  C2  UNL d   1       1.784   2.511   0.900  0.00  0.00    -0.080 A 
ATOM      4  C3  UNL d   1       0.833   2.530   1.916  0.00  0.00     0.150 A 
ATOM      5  C4  UNL d   1       0.745   1.486   2.831  0.00  0.00    -0.007 A 
ATOM      6  C5  UNL d   1       1.618   0.403   2.729  0.00  0.00     0.039 A 
ENDROOT
BRANCH   4   7
ATOM      7  O   UNL d   1      -0.045   3.564   2.051  0.00  0.00    -0.526 OA
ATOM      8  H5  UNL d   1       0.114   4.199   1.332  0.00  0.00     0.418 HD
ENDBRANCH   4   7
TORSDOF 1
ENDMDL
