MODEL 1
REMARK minimizedAffinity 12.4395046
REMARK minimizedRMSD -1
REMARK  1 active torsions:
REMARK  status: ('A' for Active; 'I' for Inactive)
REMARK    1  A    between atoms: C3_4  and  O_7 
ROOT
ATOM      1  C   UNL d   1      -5.871   4.907   1.892  0.00  0.00    -0.033 A 
ATOM      2  C1  UNL d   1      -6.000   6.000   2.751  0.00  0.00     0.039 A 
ATOM      3  C2  UNL d   1      -5.468   5.943   4.041  0.00  0.00    -0.080 A 
ATOM      4  C3  UNL d   1      -4.809   4.789   4.457  0.00  0.00     0.150 A 
ATOM      5  C4  UNL d   1      -4.673   3.698   3.605  0.00  0.00    -0.007 A 
ATOM      6  C5  UNL d   1      -5.206   3.757   2.318  0.00  0.00     0.039 A 
ENDROOT
BRANCH   4   7
ATOM      7  O   UNL d   1      -4.277   4.685   5.708  0.00  0.00    -0.526 OA
ATOM      8  H5  UNL d   1      -4.472   5.503   6.195  0.00  0.00     0.418 HD
ENDBRANCH   4   7
TORSDOF 1
ENDMDL
