MODEL 1
REMARK minimizedAffinity 3.60253096
REMARK minimizedRMSD -1
REMARK  1 active torsions:
REMARK  status: ('A' for Active; 'I' for Inactive)
REMARK    1  A    between atoms: C3_4  and  O_7 
ROOT
ATOM      1  C   UNL d   1      -3.607  -5.624  -1.979  0.00  0.00    -0.033 A 
ATOM      2  C1  UNL d   1      -4.445  -4.541  -1.706  0.00  0.00     0.039 A 
ATOM      3  C2  UNL d   1      -3.972  -3.236  -1.858  0.00  0.00    -0.080 A 
ATOM      4  C3  UNL d   1      -2.663  -3.028  -2.284  0.00  0.00     0.150 A 
ATOM      5  C4  UNL d   1      -1.825  -4.103  -2.560  0.00  0.00    -0.007 A 
ATOM      6  C5  UNL d   1      -2.298  -5.405  -2.407  0.00  0.00     0.039 A 
ENDROOT
BRANCH   4   7
ATOM      7  O   UNL d   1      -2.156  -1.773  -2.442  0.00  0.00    -0.526 OA
ATOM      8  H5  UNL d   1      -2.839  -1.130  -2.187  0.00  0.00     0.418 HD
ENDBRANCH   4   7
TORSDOF 1
ENDMDL
