MODEL 1
REMARK minimizedAffinity -0.076168783
REMARK minimizedRMSD -1
REMARK  1 active torsions:
REMARK  status: ('A' for Active; 'I' for Inactive)
REMARK    1  A    between atoms: C3_4  and  O_7 
ROOT
ATOM      1  C   UNL d   1       4.079   4.965  -4.125  0.00  0.00    -0.033 A 
ATOM      2  C1  UNL d   1       3.725   6.000  -4.993  0.00  0.00     0.039 A 
ATOM      3  C2  UNL d   1       2.474   5.996  -5.613  0.00  0.00    -0.080 A 
ATOM      4  C3  UNL d   1       1.587   4.954  -5.356  0.00  0.00     0.150 A 
ATOM      5  C4  UNL d   1       1.932   3.923  -4.489  0.00  0.00    -0.007 A 
ATOM      6  C5  UNL d   1       3.182   3.928  -3.872  0.00  0.00     0.039 A 
ENDROOT
BRANCH   4   7
ATOM      7  O   UNL d   1       0.357   4.905  -5.941  0.00  0.00    -0.526 OA
ATOM      8  H5  UNL d   1       0.269   5.668  -6.537  0.00  0.00     0.418 HD
ENDBRANCH   4   7
TORSDOF 1
ENDMDL
