MODEL 1
REMARK minimizedAffinity 7.2449398
REMARK minimizedRMSD -1
REMARK  1 active torsions:
REMARK  status: ('A' for Active; 'I' for Inactive)
REMARK    1  A    between atoms: C3_4  and  O_7 
ROOT
ATOM      1  C   UNL d   1       4.240   5.021  -4.547  0.00  0.00    -0.033 A 
ATOM      2  C1  UNL d   1       3.338   4.044  -4.122  0.00  0.00     0.039 A 
ATOM      3  C2  UNL d   1       2.027   4.045  -4.602  0.00  0.00    -0.080 A 
ATOM      4  C3  UNL d   1       1.632   5.026  -5.507  0.00  0.00     0.150 A 
ATOM      5  C4  UNL d   1       2.526   6.000  -5.938  0.00  0.00    -0.007 A 
ATOM      6  C5  UNL d   1       3.835   5.998  -5.457  0.00  0.00     0.039 A 
ENDROOT
BRANCH   4   7
ATOM      7  O   UNL d   1       0.362   5.070  -6.000  0.00  0.00    -0.526 OA
ATOM      8  H5  UNL d   1      -0.152   4.353  -5.592  0.00  0.00     0.418 HD
ENDBRANCH   4   7
TORSDOF 1
ENDMDL
