MODEL 1
REMARK minimizedAffinity -0.731466055
REMARK minimizedRMSD -1
REMARK  1 active torsions:
REMARK  status: ('A' for Active; 'I' for Inactive)
REMARK    1  A    between atoms: C3_4  and  O_7 
ROOT
ATOM      1  C   UNL d   1       5.274   5.279   5.638  0.00  0.00    -0.033 A 
ATOM      2  C1  UNL d   1       5.999   4.465   4.765  0.00  0.00     0.039 A 
ATOM      3  C2  UNL d   1       5.620   4.364   3.425  0.00  0.00    -0.080 A 
ATOM      4  C3  UNL d   1       4.517   5.081   2.971  0.00  0.00     0.150 A 
ATOM      5  C4  UNL d   1       3.792   5.896   3.834  0.00  0.00    -0.007 A 
ATOM      6  C5  UNL d   1       4.171   5.996   5.172  0.00  0.00     0.039 A 
ENDROOT
BRANCH   4   7
ATOM      7  O   UNL d   1       4.106   5.010   1.673  0.00  0.00    -0.526 OA
ATOM      8  H5  UNL d   1       4.684   4.387   1.201  0.00  0.00     0.418 HD
ENDBRANCH   4   7
TORSDOF 1
ENDMDL
