MODEL 1
REMARK minimizedAffinity 8.5962286
REMARK minimizedRMSD -1
REMARK  1 active torsions:
REMARK  status: ('A' for Active; 'I' for Inactive)
REMARK    1  A    between atoms: C3_4  and  O_7 
ROOT
ATOM      1  C   UNL d   1      -5.981   5.238   2.722  0.00  0.00    -0.033 A 
ATOM      2  C1  UNL d   1      -6.000   5.996   3.895  0.00  0.00     0.039 A 
ATOM      3  C2  UNL d   1      -5.268   5.580   5.009  0.00  0.00    -0.080 A 
ATOM      4  C3  UNL d   1      -4.522   4.406   4.937  0.00  0.00     0.150 A 
ATOM      5  C4  UNL d   1      -4.496   3.649   3.771  0.00  0.00    -0.007 A 
ATOM      6  C5  UNL d   1      -5.228   4.065   2.660  0.00  0.00     0.039 A 
ENDROOT
BRANCH   4   7
ATOM      7  O   UNL d   1      -3.796   3.958   6.000  0.00  0.00    -0.526 OA
ATOM      8  H5  UNL d   1      -3.932   4.567   6.745  0.00  0.00     0.418 HD
ENDBRANCH   4   7
TORSDOF 1
ENDMDL
