MODEL 1
REMARK minimizedAffinity 9.60515213
REMARK minimizedRMSD -1
REMARK  1 active torsions:
REMARK  status: ('A' for Active; 'I' for Inactive)
REMARK    1  A    between atoms: C3_4  and  O_7 
ROOT
ATOM      1  C   UNL d   1      -5.648  -5.782  -2.493  0.00  0.00    -0.033 A 
ATOM      2  C1  UNL d   1      -4.365  -5.997  -1.986  0.00  0.00     0.039 A 
ATOM      3  C2  UNL d   1      -3.429  -4.961  -1.988  0.00  0.00    -0.080 A 
ATOM      4  C3  UNL d   1      -3.788  -3.716  -2.498  0.00  0.00     0.150 A 
ATOM      5  C4  UNL d   1      -5.066  -3.494  -3.001  0.00  0.00    -0.007 A 
ATOM      6  C5  UNL d   1      -5.999  -4.530  -2.999  0.00  0.00     0.039 A 
ENDROOT
BRANCH   4   7
ATOM      7  O   UNL d   1      -2.907  -2.676  -2.525  0.00  0.00    -0.526 OA
ATOM      8  H5  UNL d   1      -2.056  -2.984  -2.172  0.00  0.00     0.418 HD
ENDBRANCH   4   7
TORSDOF 1
ENDMDL
