MODEL 1
REMARK minimizedAffinity 6.7385025
REMARK minimizedRMSD -1
REMARK  1 active torsions:
REMARK  status: ('A' for Active; 'I' for Inactive)
REMARK    1  A    between atoms: C3_4  and  O_7 
ROOT
ATOM      1  C   UNL d   1       1.709  -4.483  -2.899  0.00  0.00    -0.033 A 
ATOM      2  C1  UNL d   1       0.382  -4.908  -2.990  0.00  0.00     0.039 A 
ATOM      3  C2  UNL d   1      -0.430  -4.447  -4.028  0.00  0.00    -0.080 A 
ATOM      4  C3  UNL d   1       0.096  -3.565  -4.967  0.00  0.00     0.150 A 
ATOM      5  C4  UNL d   1       1.418  -3.141  -4.885  0.00  0.00    -0.007 A 
ATOM      6  C5  UNL d   1       2.227  -3.601  -3.847  0.00  0.00     0.039 A 
ENDROOT
BRANCH   4   7
ATOM      7  O   UNL d   1      -0.660  -3.084  -5.995  0.00  0.00    -0.526 OA
ATOM      8  H5  UNL d   1      -1.560  -3.440  -5.908  0.00  0.00     0.418 HD
ENDBRANCH   4   7
TORSDOF 1
ENDMDL
