MODEL 1
REMARK minimizedAffinity 4.28877878
REMARK minimizedRMSD -1
REMARK  1 active torsions:
REMARK  status: ('A' for Active; 'I' for Inactive)
REMARK    1  A    between atoms: C3_4  and  O_7 
ROOT
ATOM      1  C   UNL d   1      -3.568  -3.029  -1.167  0.00  0.00    -0.033 A 
ATOM      2  C1  UNL d   1      -2.994  -4.196  -0.657  0.00  0.00     0.039 A 
ATOM      3  C2  UNL d   1      -3.799  -5.170  -0.064  0.00  0.00    -0.080 A 
ATOM      4  C3  UNL d   1      -5.174  -4.967   0.011  0.00  0.00     0.150 A 
ATOM      5  C4  UNL d   1      -5.753  -3.810  -0.499  0.00  0.00    -0.007 A 
ATOM      6  C5  UNL d   1      -4.947  -2.837  -1.089  0.00  0.00     0.039 A 
ENDROOT
BRANCH   4   7
ATOM      7  O   UNL d   1      -6.000  -5.888   0.585  0.00  0.00    -0.526 OA
ATOM      8  H5  UNL d   1      -5.458  -6.622   0.918  0.00  0.00     0.418 HD
ENDBRANCH   4   7
TORSDOF 1
ENDMDL
