MODEL 1
REMARK minimizedAffinity 5.76455736
REMARK minimizedRMSD -1
REMARK  1 active torsions:
REMARK  status: ('A' for Active; 'I' for Inactive)
REMARK    1  A    between atoms: C3_4  and  O_7 
ROOT
ATOM      1  C   UNL d   1      -4.955   1.244   4.752  0.00  0.00    -0.033 A 
ATOM      2  C1  UNL d   1      -5.988   1.709   5.567  0.00  0.00     0.039 A 
ATOM      3  C2  UNL d   1      -5.998   3.038   5.995  0.00  0.00    -0.080 A 
ATOM      4  C3  UNL d   1      -4.970   3.890   5.601  0.00  0.00     0.150 A 
ATOM      5  C4  UNL d   1      -3.940   3.435   4.786  0.00  0.00    -0.007 A 
ATOM      6  C5  UNL d   1      -3.931   2.107   4.360  0.00  0.00     0.039 A 
ENDROOT
BRANCH   4   7
ATOM      7  O   UNL d   1      -4.934   5.194   5.998  0.00  0.00    -0.526 OA
ATOM      8  H5  UNL d   1      -5.695   5.360   6.580  0.00  0.00     0.418 HD
ENDBRANCH   4   7
TORSDOF 1
ENDMDL
