MODEL 1
REMARK minimizedAffinity -2.62097549
REMARK minimizedRMSD -1
REMARK  1 active torsions:
REMARK  status: ('A' for Active; 'I' for Inactive)
REMARK    1  A    between atoms: C3_4  and  O_7 
ROOT
ATOM      1  C   UNL d   1      -2.728   0.488   2.661  0.00  0.00    -0.033 A 
ATOM      2  C1  UNL d   1      -1.864  -0.508   2.203  0.00  0.00     0.039 A 
ATOM      3  C2  UNL d   1      -0.533  -0.201   1.914  0.00  0.00    -0.080 A 
ATOM      4  C3  UNL d   1      -0.079   1.103   2.087  0.00  0.00     0.150 A 
ATOM      5  C4  UNL d   1      -0.934   2.100   2.546  0.00  0.00    -0.007 A 
ATOM      6  C5  UNL d   1      -2.263   1.792   2.833  0.00  0.00     0.039 A 
ENDROOT
BRANCH   4   7
ATOM      7  O   UNL d   1       1.210   1.452   1.813  0.00  0.00    -0.526 OA
ATOM      8  H5  UNL d   1       1.676   0.668   1.477  0.00  0.00     0.418 HD
ENDBRANCH   4   7
TORSDOF 1
ENDMDL
