MODEL 1
REMARK minimizedAffinity 3.89816332
REMARK minimizedRMSD -1
REMARK  1 active torsions:
REMARK  status: ('A' for Active; 'I' for Inactive)
REMARK    1  A    between atoms: C3_4  and  O_7 
ROOT
ATOM      1  C   UNL d   1      -4.020  -4.026   0.515  0.00  0.00    -0.033 A 
ATOM      2  C1  UNL d   1      -2.980  -4.520  -0.275  0.00  0.00     0.039 A 
ATOM      3  C2  UNL d   1      -2.610  -3.849  -1.443  0.00  0.00    -0.080 A 
ATOM      4  C3  UNL d   1      -3.286  -2.688  -1.807  0.00  0.00     0.150 A 
ATOM      5  C4  UNL d   1      -4.320  -2.189  -1.023  0.00  0.00    -0.007 A 
ATOM      6  C5  UNL d   1      -4.689  -2.860   0.142  0.00  0.00     0.039 A 
ENDROOT
BRANCH   4   7
ATOM      7  O   UNL d   1      -2.963  -2.002  -2.940  0.00  0.00    -0.526 OA
ATOM      8  H5  UNL d   1      -2.250  -2.479  -3.397  0.00  0.00     0.418 HD
ENDBRANCH   4   7
TORSDOF 1
ENDMDL
