MODEL 1
REMARK minimizedAffinity 0.882691026
REMARK minimizedRMSD -1
REMARK  1 active torsions:
REMARK  status: ('A' for Active; 'I' for Inactive)
REMARK    1  A    between atoms: C3_4  and  O_7 
ROOT
ATOM      1  C   UNL d   1       1.332   1.296   2.227  0.00  0.00    -0.033 A 
ATOM      2  C1  UNL d   1       0.395   2.319   2.068  0.00  0.00     0.039 A 
ATOM      3  C2  UNL d   1      -0.970   2.035   2.139  0.00  0.00    -0.080 A 
ATOM      4  C3  UNL d   1      -1.384   0.726   2.372  0.00  0.00     0.150 A 
ATOM      5  C4  UNL d   1      -0.456  -0.297   2.535  0.00  0.00    -0.007 A 
ATOM      6  C5  UNL d   1       0.907  -0.011   2.462  0.00  0.00     0.039 A 
ENDROOT
BRANCH   4   7
ATOM      7  O   UNL d   1      -2.706   0.399   2.445  0.00  0.00    -0.526 OA
ATOM      8  H5  UNL d   1      -3.230   1.201   2.285  0.00  0.00     0.418 HD
ENDBRANCH   4   7
TORSDOF 1
ENDMDL
