MODEL 1
REMARK minimizedAffinity -1.40971684
REMARK minimizedRMSD -1
REMARK  1 active torsions:
REMARK  status: ('A' for Active; 'I' for Inactive)
REMARK    1  A    between atoms: C3_4  and  O_7 
ROOT
ATOM      1  C   UNL d   1      -4.056  -2.330  -2.204  0.00  0.00    -0.033 A 
ATOM      2  C1  UNL d   1      -2.994  -2.645  -3.054  0.00  0.00     0.039 A 
ATOM      3  C2  UNL d   1      -3.247  -3.138  -4.336  0.00  0.00    -0.080 A 
ATOM      4  C3  UNL d   1      -4.563  -3.311  -4.754  0.00  0.00     0.150 A 
ATOM      5  C4  UNL d   1      -5.626  -2.995  -3.914  0.00  0.00    -0.007 A 
ATOM      6  C5  UNL d   1      -5.372  -2.503  -2.634  0.00  0.00     0.039 A 
ENDROOT
BRANCH   4   7
ATOM      7  O   UNL d   1      -4.859  -3.793  -5.994  0.00  0.00    -0.526 OA
ATOM      8  H5  UNL d   1      -4.027  -3.995  -6.453  0.00  0.00     0.418 HD
ENDBRANCH   4   7
TORSDOF 1
ENDMDL
