MODEL 1
REMARK minimizedAffinity 0.4237234
REMARK minimizedRMSD -1
REMARK  0 active torsions:
REMARK  status: ('A' for Active; 'I' for Inactive)
ROOT
ATOM      1  C4' PXY d   1      -0.373  -1.032  -5.616  0.00  0.00     0.077 C 
ATOM      2  C1' PXY d   1      -5.981  -2.382  -5.995  0.00  0.00     0.077 C 
ATOM      3  C1  PXY d   1      -4.507  -2.040  -5.892  0.00  0.00    -0.082 A 
ATOM      4  C2  PXY d   1      -4.139  -0.783  -5.705  0.00  0.00     0.003 A 
ATOM      5  C3  PXY d   1      -2.810  -0.452  -5.641  0.00  0.00     0.003 A 
ATOM      6  C4  PXY d   1      -1.849  -1.424  -5.717  0.00  0.00    -0.082 A 
ATOM      7  C5  PXY d   1      -2.217  -2.711  -5.897  0.00  0.00     0.003 A 
ATOM      8  C6  PXY d   1      -3.570  -3.021  -6.000  0.00  0.00     0.003 A 
ENDROOT
TORSDOF 0
ENDMDL
