MODEL 1
REMARK minimizedAffinity 2.11065388
REMARK minimizedRMSD -1
REMARK  0 active torsions:
REMARK  status: ('A' for Active; 'I' for Inactive)
ROOT
ATOM      1  C4' PXY d   1      -5.842   3.337   3.228  0.00  0.00     0.077 C 
ATOM      2  C1' PXY d   1      -4.339  -1.508   6.000  0.00  0.00     0.077 C 
ATOM      3  C1  PXY d   1      -4.743  -0.236   5.281  0.00  0.00    -0.082 A 
ATOM      4  C2  PXY d   1      -4.382  -0.053   4.022  0.00  0.00     0.003 A 
ATOM      5  C3  PXY d   1      -4.711   1.106   3.367  0.00  0.00     0.003 A 
ATOM      6  C4  PXY d   1      -5.465   2.064   3.990  0.00  0.00    -0.082 A 
ATOM      7  C5  PXY d   1      -5.847   1.880   5.272  0.00  0.00     0.003 A 
ATOM      8  C6  PXY d   1      -5.467   0.715   5.932  0.00  0.00     0.003 A 
ENDROOT
TORSDOF 0
ENDMDL
