MODEL 1
REMARK minimizedAffinity 1.68571687
REMARK minimizedRMSD -1
REMARK  0 active torsions:
REMARK  status: ('A' for Active; 'I' for Inactive)
ROOT
ATOM      1  C4' PXY d   1      -6.000   1.901   5.895  0.00  0.00     0.077 C 
ATOM      2  C1' PXY d   1      -3.470   1.335   0.728  0.00  0.00     0.077 C 
ATOM      3  C1  PXY d   1      -4.131   1.496   2.083  0.00  0.00    -0.082 A 
ATOM      4  C2  PXY d   1      -4.243   0.450   2.885  0.00  0.00     0.003 A 
ATOM      5  C3  PXY d   1      -4.866   0.571   4.100  0.00  0.00     0.003 A 
ATOM      6  C4  PXY d   1      -5.332   1.787   4.522  0.00  0.00    -0.082 A 
ATOM      7  C5  PXY d   1      -5.212   2.862   3.714  0.00  0.00     0.003 A 
ATOM      8  C6  PXY d   1      -4.613   2.709   2.467  0.00  0.00     0.003 A 
ENDROOT
TORSDOF 0
ENDMDL
