MODEL 1
REMARK minimizedAffinity 12.7193375
REMARK minimizedRMSD -1
REMARK  0 active torsions:
REMARK  status: ('A' for Active; 'I' for Inactive)
ROOT
ATOM      1  C4' PXY d   1       1.598  -0.870  -4.548  0.00  0.00     0.077 C 
ATOM      2  C1' PXY d   1      -3.922  -1.786  -5.999  0.00  0.00     0.077 C 
ATOM      3  C1  PXY d   1      -2.476  -1.533  -5.617  0.00  0.00    -0.082 A 
ATOM      4  C2  PXY d   1      -1.540  -2.387  -5.998  0.00  0.00     0.003 A 
ATOM      5  C3  PXY d   1      -0.233  -2.191  -5.634  0.00  0.00     0.003 A 
ATOM      6  C4  PXY d   1       0.128  -1.080  -4.919  0.00  0.00    -0.082 A 
ATOM      7  C5  PXY d   1      -0.820  -0.199  -4.536  0.00  0.00     0.003 A 
ATOM      8  C6  PXY d   1      -2.147  -0.438  -4.880  0.00  0.00     0.003 A 
ENDROOT
TORSDOF 0
ENDMDL
