MODEL 1
REMARK minimizedAffinity 5.2939949
REMARK minimizedRMSD -1
REMARK  0 active torsions:
REMARK  status: ('A' for Active; 'I' for Inactive)
ROOT
ATOM      1  C4' PXY d   1      -0.813  -0.001  -5.447  0.00  0.00     0.077 C 
ATOM      2  C1' PXY d   1      -4.673  -4.276  -5.937  0.00  0.00     0.077 C 
ATOM      3  C1  PXY d   1      -3.670  -3.146  -5.811  0.00  0.00    -0.082 A 
ATOM      4  C2  PXY d   1      -2.383  -3.390  -6.000  0.00  0.00     0.003 A 
ATOM      5  C3  PXY d   1      -1.459  -2.387  -5.858  0.00  0.00     0.003 A 
ATOM      6  C4  PXY d   1      -1.862  -1.109  -5.573  0.00  0.00    -0.082 A 
ATOM      7  C5  PXY d   1      -3.174  -0.850  -5.390  0.00  0.00     0.003 A 
ATOM      8  C6  PXY d   1      -4.092  -1.891  -5.498  0.00  0.00     0.003 A 
ENDROOT
TORSDOF 0
ENDMDL
