MODEL 1
REMARK minimizedAffinity 2.733814
REMARK minimizedRMSD -1
REMARK  0 active torsions:
REMARK  status: ('A' for Active; 'I' for Inactive)
ROOT
ATOM      1  C4' PXY d   1      -5.927  -2.329  -5.995  0.00  0.00     0.077 C 
ATOM      2  C1' PXY d   1      -0.361  -0.940  -5.289  0.00  0.00     0.077 C 
ATOM      3  C1  PXY d   1      -1.817  -1.314  -5.482  0.00  0.00    -0.082 A 
ATOM      4  C2  PXY d   1      -2.756  -0.396  -5.318  0.00  0.00     0.003 A 
ATOM      5  C3  PXY d   1      -4.079  -0.725  -5.457  0.00  0.00     0.003 A 
ATOM      6  C4  PXY d   1      -4.443  -1.994  -5.820  0.00  0.00    -0.082 A 
ATOM      7  C5  PXY d   1      -3.491  -2.933  -6.000  0.00  0.00     0.003 A 
ATOM      8  C6  PXY d   1      -2.155  -2.589  -5.814  0.00  0.00     0.003 A 
ENDROOT
TORSDOF 0
ENDMDL
