MODEL 1
REMARK minimizedAffinity 4.95577288
REMARK minimizedRMSD -1
REMARK  0 active torsions:
REMARK  status: ('A' for Active; 'I' for Inactive)
ROOT
ATOM      1  C4' PXY d   1      -5.999   2.251   5.999  0.00  0.00     0.077 C 
ATOM      2  C1' PXY d   1      -2.819   1.548   1.223  0.00  0.00     0.077 C 
ATOM      3  C1  PXY d   1      -3.652   1.745   2.474  0.00  0.00    -0.082 A 
ATOM      4  C2  PXY d   1      -3.672   0.803   3.402  0.00  0.00     0.003 A 
ATOM      5  C3  PXY d   1      -4.445   0.951   4.525  0.00  0.00     0.003 A 
ATOM      6  C4  PXY d   1      -5.164   2.099   4.724  0.00  0.00    -0.082 A 
ATOM      7  C5  PXY d   1      -5.141   3.070   3.787  0.00  0.00     0.003 A 
ATOM      8  C6  PXY d   1      -4.382   2.882   2.635  0.00  0.00     0.003 A 
ENDROOT
TORSDOF 0
ENDMDL
