MODEL 1
REMARK minimizedAffinity 4.66317749
REMARK minimizedRMSD -1
REMARK  0 active torsions:
REMARK  status: ('A' for Active; 'I' for Inactive)
ROOT
ATOM      1  C4' PXY d   1      -5.749  -2.623  -6.000  0.00  0.00     0.077 C 
ATOM      2  C1' PXY d   1      -0.279  -0.753  -5.964  0.00  0.00     0.077 C 
ATOM      3  C1  PXY d   1      -1.710  -1.254  -5.979  0.00  0.00    -0.082 A 
ATOM      4  C2  PXY d   1      -2.708  -0.386  -5.986  0.00  0.00     0.003 A 
ATOM      5  C3  PXY d   1      -4.007  -0.822  -5.966  0.00  0.00     0.003 A 
ATOM      6  C4  PXY d   1      -4.289  -2.162  -5.995  0.00  0.00    -0.082 A 
ATOM      7  C5  PXY d   1      -3.276  -3.054  -5.999  0.00  0.00     0.003 A 
ATOM      8  C6  PXY d   1      -1.964  -2.591  -5.976  0.00  0.00     0.003 A 
ENDROOT
TORSDOF 0
ENDMDL
