MODEL 1
REMARK minimizedAffinity 8.46461868
REMARK minimizedRMSD -1
REMARK  0 active torsions:
REMARK  status: ('A' for Active; 'I' for Inactive)
ROOT
ATOM      1  C4' PXY d   1       0.487  -0.271  -5.197  0.00  0.00     0.077 C 
ATOM      2  C1' PXY d   1      -4.100  -3.696  -5.999  0.00  0.00     0.077 C 
ATOM      3  C1  PXY d   1      -2.904  -2.787  -5.791  0.00  0.00    -0.082 A 
ATOM      4  C2  PXY d   1      -1.683  -3.260  -5.979  0.00  0.00     0.003 A 
ATOM      5  C3  PXY d   1      -0.589  -2.461  -5.764  0.00  0.00     0.003 A 
ATOM      6  C4  PXY d   1      -0.749  -1.150  -5.405  0.00  0.00    -0.082 A 
ATOM      7  C5  PXY d   1      -1.993  -0.657  -5.221  0.00  0.00     0.003 A 
ATOM      8  C6  PXY d   1      -3.088  -1.496  -5.404  0.00  0.00     0.003 A 
ENDROOT
TORSDOF 0
ENDMDL
