MODEL 1
REMARK minimizedAffinity 5.18267393
REMARK minimizedRMSD -1
REMARK  0 active torsions:
REMARK  status: ('A' for Active; 'I' for Inactive)
ROOT
ATOM      1  C4' PXY d   1      -4.124  -4.753  -5.998  0.00  0.00     0.077 C 
ATOM      2  C1' PXY d   1      -1.473   0.383  -5.909  0.00  0.00     0.077 C 
ATOM      3  C1  PXY d   1      -2.158  -0.969  -5.938  0.00  0.00    -0.082 A 
ATOM      4  C2  PXY d   1      -3.480  -1.033  -5.929  0.00  0.00     0.003 A 
ATOM      5  C3  PXY d   1      -4.115  -2.249  -5.922  0.00  0.00     0.003 A 
ATOM      6  C4  PXY d   1      -3.390  -3.409  -5.979  0.00  0.00    -0.082 A 
ATOM      7  C5  PXY d   1      -2.042  -3.351  -6.000  0.00  0.00     0.003 A 
ATOM      8  C6  PXY d   1      -1.416  -2.109  -5.964  0.00  0.00     0.003 A 
ENDROOT
TORSDOF 0
ENDMDL
