MODEL 1
REMARK minimizedAffinity 0.00711327326
REMARK minimizedRMSD -1
REMARK  0 active torsions:
REMARK  status: ('A' for Active; 'I' for Inactive)
ROOT
ATOM      1  C4' PXY d   1      -5.867  -3.221  -6.000  0.00  0.00     0.077 C 
ATOM      2  C1' PXY d   1      -0.668  -0.708  -5.751  0.00  0.00     0.077 C 
ATOM      3  C1  PXY d   1      -2.026  -1.377  -5.822  0.00  0.00    -0.082 A 
ATOM      4  C2  PXY d   1      -3.123  -0.638  -5.776  0.00  0.00     0.003 A 
ATOM      5  C3  PXY d   1      -4.359  -1.230  -5.807  0.00  0.00     0.003 A 
ATOM      6  C4  PXY d   1      -4.475  -2.587  -5.940  0.00  0.00    -0.082 A 
ATOM      7  C5  PXY d   1      -3.361  -3.347  -5.999  0.00  0.00     0.003 A 
ATOM      8  C6  PXY d   1      -2.115  -2.731  -5.924  0.00  0.00     0.003 A 
ENDROOT
TORSDOF 0
ENDMDL
