MODEL 1
REMARK minimizedAffinity 2.85934353
REMARK minimizedRMSD -1
REMARK  0 active torsions:
REMARK  status: ('A' for Active; 'I' for Inactive)
ROOT
ATOM      1  C4' PXY d   1      -3.952  -2.092  -5.998  0.00  0.00     0.077 C 
ATOM      2  C1' PXY d   1       1.055   0.185  -4.221  0.00  0.00     0.077 C 
ATOM      3  C1  PXY d   1      -0.264  -0.403  -4.680  0.00  0.00    -0.082 A 
ATOM      4  C2  PXY d   1      -0.316  -1.665  -5.074  0.00  0.00     0.003 A 
ATOM      5  C3  PXY d   1      -1.494  -2.204  -5.522  0.00  0.00     0.003 A 
ATOM      6  C4  PXY d   1      -2.643  -1.459  -5.517  0.00  0.00    -0.082 A 
ATOM      7  C5  PXY d   1      -2.601  -0.174  -5.107  0.00  0.00     0.003 A 
ATOM      8  C6  PXY d   1      -1.386   0.366  -4.694  0.00  0.00     0.003 A 
ENDROOT
TORSDOF 0
ENDMDL
