MODEL 1
REMARK minimizedAffinity 0.887968481
REMARK minimizedRMSD -1
REMARK  0 active torsions:
REMARK  status: ('A' for Active; 'I' for Inactive)
ROOT
ATOM      1  C4' PXY d   1       4.898  -0.642   1.869  0.00  0.00     0.077 C 
ATOM      2  C1' PXY d   1       6.000  -4.535   5.998  0.00  0.00     0.077 C 
ATOM      3  C1  PXY d   1       5.716  -3.522   4.906  0.00  0.00    -0.082 A 
ATOM      4  C2  PXY d   1       5.616  -2.239   5.214  0.00  0.00     0.003 A 
ATOM      5  C3  PXY d   1       5.328  -1.314   4.245  0.00  0.00     0.003 A 
ATOM      6  C4  PXY d   1       5.193  -1.699   2.937  0.00  0.00    -0.082 A 
ATOM      7  C5  PXY d   1       5.304  -3.004   2.614  0.00  0.00     0.003 A 
ATOM      8  C6  PXY d   1       5.556  -3.933   3.619  0.00  0.00     0.003 A 
ENDROOT
TORSDOF 0
ENDMDL
