MODEL 1
REMARK minimizedAffinity 2.32310843
REMARK minimizedRMSD -1
REMARK  0 active torsions:
REMARK  status: ('A' for Active; 'I' for Inactive)
ROOT
ATOM      1  C4' PXY d   1      -5.253  -2.287  -5.952  0.00  0.00     0.077 C 
ATOM      2  C1' PXY d   1       0.225  -0.455  -5.735  0.00  0.00     0.077 C 
ATOM      3  C1  PXY d   1      -1.215  -0.924  -5.788  0.00  0.00    -0.082 A 
ATOM      4  C2  PXY d   1      -1.486  -2.217  -5.714  0.00  0.00     0.003 A 
ATOM      5  C3  PXY d   1      -2.781  -2.661  -5.793  0.00  0.00     0.003 A 
ATOM      6  C4  PXY d   1      -3.814  -1.768  -5.894  0.00  0.00    -0.082 A 
ATOM      7  C5  PXY d   1      -3.547  -0.446  -5.958  0.00  0.00     0.003 A 
ATOM      8  C6  PXY d   1      -2.223  -0.019  -5.919  0.00  0.00     0.003 A 
ENDROOT
TORSDOF 0
ENDMDL
