MODEL 1
REMARK minimizedAffinity 9.25365639
REMARK minimizedRMSD -1
REMARK  0 active torsions:
REMARK  status: ('A' for Active; 'I' for Inactive)
ROOT
ATOM      1  C4' PXY d   1      -0.190  -1.776  -5.983  0.00  0.00     0.077 C 
ATOM      2  C1' PXY d   1      -5.970  -1.711  -5.979  0.00  0.00     0.077 C 
ATOM      3  C1  PXY d   1      -4.454  -1.740  -5.975  0.00  0.00    -0.082 A 
ATOM      4  C2  PXY d   1      -3.778  -0.603  -5.956  0.00  0.00     0.003 A 
ATOM      5  C3  PXY d   1      -2.407  -0.610  -5.984  0.00  0.00     0.003 A 
ATOM      6  C4  PXY d   1      -1.721  -1.795  -5.978  0.00  0.00    -0.082 A 
ATOM      7  C5  PXY d   1      -2.403  -2.959  -5.987  0.00  0.00     0.003 A 
ATOM      8  C6  PXY d   1      -3.795  -2.930  -6.000  0.00  0.00     0.003 A 
ENDROOT
TORSDOF 0
ENDMDL
