MODEL 1
REMARK minimizedAffinity 2.03315639
REMARK minimizedRMSD -1
REMARK  0 active torsions:
REMARK  status: ('A' for Active; 'I' for Inactive)
ROOT
ATOM      1  C4' PXY d   1      -0.425  -0.767  -5.214  0.00  0.00     0.077 C 
ATOM      2  C1' PXY d   1      -5.994  -2.314  -5.310  0.00  0.00     0.077 C 
ATOM      3  C1  PXY d   1      -4.530  -1.921  -5.288  0.00  0.00    -0.082 A 
ATOM      4  C2  PXY d   1      -4.145  -0.870  -4.580  0.00  0.00     0.003 A 
ATOM      5  C3  PXY d   1      -2.830  -0.482  -4.575  0.00  0.00     0.003 A 
ATOM      6  C4  PXY d   1      -1.891  -1.206  -5.258  0.00  0.00    -0.082 A 
ATOM      7  C5  PXY d   1      -2.274  -2.285  -5.973  0.00  0.00     0.003 A 
ATOM      8  C6  PXY d   1      -3.619  -2.639  -5.999  0.00  0.00     0.003 A 
ENDROOT
TORSDOF 0
ENDMDL
