MODEL 1
REMARK minimizedAffinity 0.61196363
REMARK minimizedRMSD -1
REMARK  0 active torsions:
REMARK  status: ('A' for Active; 'I' for Inactive)
ROOT
ATOM      1  C4' PXY d   1      -5.999  -3.030  -5.948  0.00  0.00     0.077 C 
ATOM      2  C1' PXY d   1      -0.611  -0.939  -5.991  0.00  0.00     0.077 C 
ATOM      3  C1  PXY d   1      -2.028  -1.476  -5.974  0.00  0.00    -0.082 A 
ATOM      4  C2  PXY d   1      -2.232  -2.784  -5.982  0.00  0.00     0.003 A 
ATOM      5  C3  PXY d   1      -3.508  -3.286  -5.999  0.00  0.00     0.003 A 
ATOM      6  C4  PXY d   1      -4.585  -2.443  -5.954  0.00  0.00    -0.082 A 
ATOM      7  C5  PXY d   1      -4.385  -1.108  -5.936  0.00  0.00     0.003 A 
ATOM      8  C6  PXY d   1      -3.083  -0.617  -5.960  0.00  0.00     0.003 A 
ENDROOT
TORSDOF 0
ENDMDL
