MODEL 1
REMARK minimizedAffinity 3.22030759
REMARK minimizedRMSD -1
REMARK  0 active torsions:
REMARK  status: ('A' for Active; 'I' for Inactive)
ROOT
ATOM      1  C4' PXY d   1      -1.771   0.247  -5.981  0.00  0.00     0.077 C 
ATOM      2  C1' PXY d   1      -4.017  -5.079  -5.987  0.00  0.00     0.077 C 
ATOM      3  C1  PXY d   1      -3.439  -3.678  -5.991  0.00  0.00    -0.082 A 
ATOM      4  C2  PXY d   1      -2.127  -3.512  -5.999  0.00  0.00     0.003 A 
ATOM      5  C3  PXY d   1      -1.587  -2.252  -5.970  0.00  0.00     0.003 A 
ATOM      6  C4  PXY d   1      -2.399  -1.149  -5.987  0.00  0.00    -0.082 A 
ATOM      7  C5  PXY d   1      -3.739  -1.310  -5.989  0.00  0.00     0.003 A 
ATOM      8  C6  PXY d   1      -4.267  -2.598  -5.977  0.00  0.00     0.003 A 
ENDROOT
TORSDOF 0
ENDMDL
