MODEL 1
REMARK minimizedAffinity 11.2316942
REMARK minimizedRMSD -1
REMARK  0 active torsions:
REMARK  status: ('A' for Active; 'I' for Inactive)
ROOT
ATOM      1  C4' PXY d   1       6.000  -3.735   5.996  0.00  0.00     0.077 C 
ATOM      2  C1' PXY d   1       5.016   0.276   1.951  0.00  0.00     0.077 C 
ATOM      3  C1  PXY d   1       5.268  -0.785   3.004  0.00  0.00    -0.082 A 
ATOM      4  C2  PXY d   1       5.391  -0.431   4.273  0.00  0.00     0.003 A 
ATOM      5  C3  PXY d   1       5.651  -1.374   5.234  0.00  0.00     0.003 A 
ATOM      6  C4  PXY d   1       5.735  -2.699   4.900  0.00  0.00    -0.082 A 
ATOM      7  C5  PXY d   1       5.600  -3.069   3.609  0.00  0.00     0.003 A 
ATOM      8  C6  PXY d   1       5.377  -2.092   2.643  0.00  0.00     0.003 A 
ENDROOT
TORSDOF 0
ENDMDL
