MODEL 1
REMARK minimizedAffinity 7.39078856
REMARK minimizedRMSD -1
REMARK  0 active torsions:
REMARK  status: ('A' for Active; 'I' for Inactive)
ROOT
ATOM      1  C4' PXY d   1      -5.984  -1.848  -5.802  0.00  0.00     0.077 C 
ATOM      2  C1' PXY d   1      -0.205  -1.902  -5.883  0.00  0.00     0.077 C 
ATOM      3  C1  PXY d   1      -1.720  -1.877  -5.855  0.00  0.00    -0.082 A 
ATOM      4  C2  PXY d   1      -2.396  -3.006  -5.988  0.00  0.00     0.003 A 
ATOM      5  C3  PXY d   1      -3.767  -2.997  -5.998  0.00  0.00     0.003 A 
ATOM      6  C4  PXY d   1      -4.453  -1.827  -5.814  0.00  0.00    -0.082 A 
ATOM      7  C5  PXY d   1      -3.771  -0.672  -5.667  0.00  0.00     0.003 A 
ATOM      8  C6  PXY d   1      -2.380  -0.697  -5.701  0.00  0.00     0.003 A 
ENDROOT
TORSDOF 0
ENDMDL
