MODEL 1
REMARK minimizedAffinity 1.9609412
REMARK minimizedRMSD -1
REMARK  0 active torsions:
REMARK  status: ('A' for Active; 'I' for Inactive)
ROOT
ATOM      1  C   UNL d   1      -2.813   1.504  -0.017  0.00  0.00     0.078 C 
ATOM      2  C1  UNL d   1      -3.006   2.970   0.231  0.00  0.00    -0.077 A 
ATOM      3  C2  UNL d   1      -2.463   3.587   1.364  0.00  0.00    -0.001 A 
ATOM      4  C3  UNL d   1      -2.660   4.951   1.587  0.00  0.00     0.003 A 
ATOM      5  C4  UNL d   1      -3.400   5.709   0.682  0.00  0.00    -0.005 A 
ATOM      6  C5  UNL d   1      -3.947   5.102  -0.448  0.00  0.00     0.003 A 
ATOM      7  C6  UNL d   1      -3.751   3.739  -0.672  0.00  0.00    -0.001 A 
ENDROOT
TORSDOF 0
ENDMDL
