MODEL 1
REMARK minimizedAffinity 11.9599428
REMARK minimizedRMSD -1
REMARK  0 active torsions:
REMARK  status: ('A' for Active; 'I' for Inactive)
ROOT
ATOM      1  C   UNL d   1      -2.816  -3.218  -3.745  0.00  0.00     0.078 C 
ATOM      2  C1  UNL d   1      -3.770  -4.196  -4.363  0.00  0.00    -0.077 A 
ATOM      3  C2  UNL d   1      -3.360  -5.054  -5.391  0.00  0.00    -0.001 A 
ATOM      4  C3  UNL d   1      -4.262  -5.952  -5.963  0.00  0.00     0.003 A 
ATOM      5  C4  UNL d   1      -5.581  -6.000  -5.515  0.00  0.00    -0.005 A 
ATOM      6  C5  UNL d   1      -5.999  -5.148  -4.495  0.00  0.00     0.003 A 
ATOM      7  C6  UNL d   1      -5.098  -4.250  -3.921  0.00  0.00    -0.001 A 
ENDROOT
TORSDOF 0
ENDMDL
