MODEL 1
REMARK minimizedAffinity 9.50171375
REMARK minimizedRMSD -1
REMARK  0 active torsions:
REMARK  status: ('A' for Active; 'I' for Inactive)
ROOT
ATOM      1  C   UNL d   1       6.000  -3.073  -1.057  0.00  0.00     0.078 C 
ATOM      2  C1  UNL d   1       5.057  -3.224  -2.213  0.00  0.00    -0.077 A 
ATOM      3  C2  UNL d   1       5.021  -4.404  -2.965  0.00  0.00    -0.001 A 
ATOM      4  C3  UNL d   1       4.145  -4.527  -4.045  0.00  0.00     0.003 A 
ATOM      5  C4  UNL d   1       3.299  -3.473  -4.382  0.00  0.00    -0.005 A 
ATOM      6  C5  UNL d   1       3.328  -2.293  -3.641  0.00  0.00     0.003 A 
ATOM      7  C6  UNL d   1       4.204  -2.169  -2.561  0.00  0.00    -0.001 A 
ENDROOT
TORSDOF 0
ENDMDL
