MODEL 1
REMARK minimizedAffinity 10.4455185
REMARK minimizedRMSD -1
REMARK  0 active torsions:
REMARK  status: ('A' for Active; 'I' for Inactive)
ROOT
ATOM      1  C   UNL d   1       5.946   4.500  -2.668  0.00  0.00     0.078 C 
ATOM      2  C1  UNL d   1       5.891   3.395  -3.681  0.00  0.00    -0.077 A 
ATOM      3  C2  UNL d   1       5.744   2.060  -3.284  0.00  0.00    -0.001 A 
ATOM      4  C3  UNL d   1       5.704   1.041  -4.237  0.00  0.00     0.003 A 
ATOM      5  C4  UNL d   1       5.811   1.346  -5.593  0.00  0.00    -0.005 A 
ATOM      6  C5  UNL d   1       5.960   2.671  -5.997  0.00  0.00     0.003 A 
ATOM      7  C6  UNL d   1       6.000   3.692  -5.045  0.00  0.00    -0.001 A 
ENDROOT
TORSDOF 0
ENDMDL
