MODEL 1
REMARK minimizedAffinity 6.01784801
REMARK minimizedRMSD -1
REMARK  0 active torsions:
REMARK  status: ('A' for Active; 'I' for Inactive)
ROOT
ATOM      1  C   UNL d   1      -1.860   2.582   0.368  0.00  0.00     0.078 C 
ATOM      2  C1  UNL d   1      -2.748   3.780   0.215  0.00  0.00    -0.077 A 
ATOM      3  C2  UNL d   1      -2.605   4.895   1.050  0.00  0.00    -0.001 A 
ATOM      4  C3  UNL d   1      -3.445   6.000   0.903  0.00  0.00     0.003 A 
ATOM      5  C4  UNL d   1      -4.435   6.000  -0.077  0.00  0.00    -0.005 A 
ATOM      6  C5  UNL d   1      -4.587   4.894  -0.911  0.00  0.00     0.003 A 
ATOM      7  C6  UNL d   1      -3.747   3.788  -0.766  0.00  0.00    -0.001 A 
ENDROOT
TORSDOF 0
ENDMDL
