MODEL 1
REMARK minimizedAffinity 12.4756975
REMARK minimizedRMSD -1
REMARK  0 active torsions:
REMARK  status: ('A' for Active; 'I' for Inactive)
ROOT
ATOM      1  C   UNL d   1       4.054  -1.762  -2.823  0.00  0.00     0.078 C 
ATOM      2  C1  UNL d   1       4.592  -0.718  -3.755  0.00  0.00    -0.077 A 
ATOM      3  C2  UNL d   1       4.468  -0.857  -5.143  0.00  0.00    -0.001 A 
ATOM      4  C3  UNL d   1       4.982   0.118  -5.999  0.00  0.00     0.003 A 
ATOM      5  C4  UNL d   1       5.625   1.239  -5.477  0.00  0.00    -0.005 A 
ATOM      6  C5  UNL d   1       5.756   1.385  -4.097  0.00  0.00     0.003 A 
ATOM      7  C6  UNL d   1       5.242   0.410  -3.240  0.00  0.00    -0.001 A 
ENDROOT
TORSDOF 0
ENDMDL
