MODEL 1
REMARK minimizedAffinity 6.7556076
REMARK minimizedRMSD -1
REMARK  0 active torsions:
REMARK  status: ('A' for Active; 'I' for Inactive)
ROOT
ATOM      1  C   UNL d   1       4.160  -5.694   5.877  0.00  0.00     0.078 C 
ATOM      2  C1  UNL d   1       4.487  -4.271   5.538  0.00  0.00    -0.077 A 
ATOM      3  C2  UNL d   1       3.622  -3.500   4.752  0.00  0.00    -0.001 A 
ATOM      4  C3  UNL d   1       3.944  -2.179   4.436  0.00  0.00     0.003 A 
ATOM      5  C4  UNL d   1       5.132  -1.618   4.901  0.00  0.00    -0.005 A 
ATOM      6  C5  UNL d   1       6.000  -2.378   5.682  0.00  0.00     0.003 A 
ATOM      7  C6  UNL d   1       5.680  -3.699   5.999  0.00  0.00    -0.001 A 
ENDROOT
TORSDOF 0
ENDMDL
