MODEL 1
REMARK minimizedAffinity 10.6825266
REMARK minimizedRMSD -1
REMARK  0 active torsions:
REMARK  status: ('A' for Active; 'I' for Inactive)
ROOT
ATOM      1  C   UNL d   1       6.000   5.969  -3.723  0.00  0.00     0.078 C 
ATOM      2  C1  UNL d   1       5.302   5.651  -2.435  0.00  0.00    -0.077 A 
ATOM      3  C2  UNL d   1       5.996   5.082  -1.360  0.00  0.00    -0.001 A 
ATOM      4  C3  UNL d   1       5.331   4.782  -0.169  0.00  0.00     0.003 A 
ATOM      5  C4  UNL d   1       3.969   5.047  -0.043  0.00  0.00    -0.005 A 
ATOM      6  C5  UNL d   1       3.269   5.610  -1.108  0.00  0.00     0.003 A 
ATOM      7  C6  UNL d   1       3.932   5.910  -2.299  0.00  0.00    -0.001 A 
ENDROOT
TORSDOF 0
ENDMDL
