MODEL 1
REMARK minimizedAffinity 8.42616749
REMARK minimizedRMSD -1
REMARK  0 active torsions:
REMARK  status: ('A' for Active; 'I' for Inactive)
ROOT
ATOM      1  C   UNL d   1      -5.673   0.056   5.999  0.00  0.00     0.078 C 
ATOM      2  C1  UNL d   1      -4.215  -0.269   5.867  0.00  0.00    -0.077 A 
ATOM      3  C2  UNL d   1      -3.755  -1.585   6.000  0.00  0.00    -0.001 A 
ATOM      4  C3  UNL d   1      -2.394  -1.872   5.884  0.00  0.00     0.003 A 
ATOM      5  C4  UNL d   1      -1.481  -0.848   5.637  0.00  0.00    -0.005 A 
ATOM      6  C5  UNL d   1      -1.930   0.465   5.506  0.00  0.00     0.003 A 
ATOM      7  C6  UNL d   1      -3.290   0.754   5.621  0.00  0.00    -0.001 A 
ENDROOT
TORSDOF 0
ENDMDL
