MODEL 1
REMARK minimizedAffinity 14.591341
REMARK minimizedRMSD -1
REMARK  0 active torsions:
REMARK  status: ('A' for Active; 'I' for Inactive)
ROOT
ATOM      1  C   UNL d   1      -3.069  -3.076  -3.728  0.00  0.00     0.078 C 
ATOM      2  C1  UNL d   1      -3.867  -4.080  -4.505  0.00  0.00    -0.077 A 
ATOM      3  C2  UNL d   1      -5.267  -4.069  -4.474  0.00  0.00    -0.001 A 
ATOM      4  C3  UNL d   1      -5.996  -5.016  -5.195  0.00  0.00     0.003 A 
ATOM      5  C4  UNL d   1      -5.334  -5.980  -5.953  0.00  0.00    -0.005 A 
ATOM      6  C5  UNL d   1      -3.942  -6.000  -5.989  0.00  0.00     0.003 A 
ATOM      7  C6  UNL d   1      -3.211  -5.054  -5.268  0.00  0.00    -0.001 A 
ENDROOT
TORSDOF 0
ENDMDL
