MODEL 1
REMARK minimizedAffinity 7.7074337
REMARK minimizedRMSD -1
REMARK  0 active torsions:
REMARK  status: ('A' for Active; 'I' for Inactive)
ROOT
ATOM      1  C   UNL d   1      -0.254  -2.148  -0.240  0.00  0.00     0.078 C 
ATOM      2  C1  UNL d   1       0.691  -1.798  -1.350  0.00  0.00    -0.077 A 
ATOM      3  C2  UNL d   1       2.053  -2.115  -1.265  0.00  0.00    -0.001 A 
ATOM      4  C3  UNL d   1       2.923  -1.774  -2.301  0.00  0.00     0.003 A 
ATOM      5  C4  UNL d   1       2.442  -1.113  -3.430  0.00  0.00    -0.005 A 
ATOM      6  C5  UNL d   1       1.090  -0.791  -3.523  0.00  0.00     0.003 A 
ATOM      7  C6  UNL d   1       0.218  -1.131  -2.487  0.00  0.00    -0.001 A 
ENDROOT
TORSDOF 0
ENDMDL
