MODEL 1
REMARK minimizedAffinity 13.5598793
REMARK minimizedRMSD -1
REMARK  0 active torsions:
REMARK  status: ('A' for Active; 'I' for Inactive)
ROOT
ATOM      1  C   UNL d   1      -1.788  -0.731  -0.050  0.00  0.00     0.078 C 
ATOM      2  C1  UNL d   1      -0.663  -1.140  -0.952  0.00  0.00    -0.077 A 
ATOM      3  C2  UNL d   1       0.645  -1.260  -0.466  0.00  0.00    -0.001 A 
ATOM      4  C3  UNL d   1       1.684  -1.633  -1.320  0.00  0.00     0.003 A 
ATOM      5  C4  UNL d   1       1.427  -1.887  -2.666  0.00  0.00    -0.005 A 
ATOM      6  C5  UNL d   1       0.129  -1.768  -3.159  0.00  0.00     0.003 A 
ATOM      7  C6  UNL d   1      -0.912  -1.396  -2.307  0.00  0.00    -0.001 A 
ENDROOT
TORSDOF 0
ENDMDL
