MODEL 1
REMARK minimizedAffinity 6.83086443
REMARK minimizedRMSD -1
REMARK  0 active torsions:
REMARK  status: ('A' for Active; 'I' for Inactive)
ROOT
ATOM      1  C   UNL d   1       4.183  -6.000   5.894  0.00  0.00     0.078 C 
ATOM      2  C1  UNL d   1       3.760  -4.652   5.392  0.00  0.00    -0.077 A 
ATOM      3  C2  UNL d   1       2.880  -4.528   4.310  0.00  0.00    -0.001 A 
ATOM      4  C3  UNL d   1       2.503  -3.266   3.847  0.00  0.00     0.003 A 
ATOM      5  C4  UNL d   1       3.002  -2.118   4.460  0.00  0.00    -0.005 A 
ATOM      6  C5  UNL d   1       3.880  -2.231   5.536  0.00  0.00     0.003 A 
ATOM      7  C6  UNL d   1       4.258  -3.492   6.000  0.00  0.00    -0.001 A 
ENDROOT
TORSDOF 0
ENDMDL
