MODEL 1
REMARK minimizedAffinity 14.1011744
REMARK minimizedRMSD -1
REMARK  0 active torsions:
REMARK  status: ('A' for Active; 'I' for Inactive)
ROOT
ATOM      1  C   UNL d   1       2.421   5.991  -3.766  0.00  0.00     0.078 C 
ATOM      2  C1  UNL d   1       3.606   5.638  -2.917  0.00  0.00    -0.077 A 
ATOM      3  C2  UNL d   1       4.902   5.999  -3.303  0.00  0.00    -0.001 A 
ATOM      4  C3  UNL d   1       5.997   5.656  -2.508  0.00  0.00     0.003 A 
ATOM      5  C4  UNL d   1       5.806   4.948  -1.323  0.00  0.00    -0.005 A 
ATOM      6  C5  UNL d   1       4.520   4.582  -0.932  0.00  0.00     0.003 A 
ATOM      7  C6  UNL d   1       3.424   4.925  -1.726  0.00  0.00    -0.001 A 
ENDROOT
TORSDOF 0
ENDMDL
