MODEL 1
REMARK minimizedAffinity 8.47896194
REMARK minimizedRMSD -1
REMARK  0 active torsions:
REMARK  status: ('A' for Active; 'I' for Inactive)
ROOT
ATOM      1  C   UNL d   1       0.372  -1.967  -1.600  0.00  0.00     0.078 C 
ATOM      2  C1  UNL d   1       1.728  -2.042  -2.236  0.00  0.00    -0.077 A 
ATOM      3  C2  UNL d   1       2.822  -1.363  -1.685  0.00  0.00    -0.001 A 
ATOM      4  C3  UNL d   1       4.076  -1.433  -2.292  0.00  0.00     0.003 A 
ATOM      5  C4  UNL d   1       4.249  -2.181  -3.455  0.00  0.00    -0.005 A 
ATOM      6  C5  UNL d   1       3.166  -2.858  -4.013  0.00  0.00     0.003 A 
ATOM      7  C6  UNL d   1       1.911  -2.789  -3.406  0.00  0.00    -0.001 A 
ENDROOT
TORSDOF 0
ENDMDL
