MODEL 1
REMARK minimizedAffinity 2.8928082
REMARK minimizedRMSD -1
REMARK  0 active torsions:
REMARK  status: ('A' for Active; 'I' for Inactive)
ROOT
ATOM      1  C   UNL d   1       6.000  -5.433  -4.218  0.00  0.00     0.078 C 
ATOM      2  C1  UNL d   1       5.913  -3.936  -4.193  0.00  0.00    -0.077 A 
ATOM      3  C2  UNL d   1       5.743  -3.243  -2.988  0.00  0.00    -0.001 A 
ATOM      4  C3  UNL d   1       5.654  -1.851  -2.980  0.00  0.00     0.003 A 
ATOM      5  C4  UNL d   1       5.733  -1.138  -4.175  0.00  0.00    -0.005 A 
ATOM      6  C5  UNL d   1       5.899  -1.818  -5.380  0.00  0.00     0.003 A 
ATOM      7  C6  UNL d   1       5.988  -3.211  -5.389  0.00  0.00    -0.001 A 
ENDROOT
TORSDOF 0
ENDMDL
