MODEL 1
REMARK minimizedAffinity 14.3627462
REMARK minimizedRMSD -1
REMARK  1 active torsions:
REMARK  status: ('A' for Active; 'I' for Inactive)
REMARK    1  A    between atoms: C1_2  and  C2_3 
ROOT
ATOM      1  C2  UNL d   1       3.802   3.122  -3.773  0.00  0.00    -0.073 A 
ATOM      2  C3  UNL d   1       3.770   2.044  -2.882  0.00  0.00    -0.002 A 
ATOM      3  C4  UNL d   1       2.557   1.608  -2.347  0.00  0.00     0.004 A 
ATOM      4  C5  UNL d   1       1.365   2.239  -2.703  0.00  0.00    -0.004 A 
ATOM      5  C6  UNL d   1       1.376   3.310  -3.602  0.00  0.00    -0.075 A 
ATOM      6  C7  UNL d   1       0.103   4.001  -3.994  0.00  0.00     0.076 C 
ATOM      7  C8  UNL d   1       2.598   3.744  -4.133  0.00  0.00     0.001 A 
ENDROOT
BRANCH   1   8
ATOM      8  C1  UNL d   1       5.109   3.593  -4.358  0.00  0.00     0.053 C 
ATOM      9  C   UNL d   1       5.745   4.692  -3.522  0.00  0.00     0.018 C 
ENDBRANCH   1   8
TORSDOF 1
ENDMDL
