MODEL 1
REMARK minimizedAffinity 3.11160088
REMARK minimizedRMSD -1
REMARK  1 active torsions:
REMARK  status: ('A' for Active; 'I' for Inactive)
REMARK    1  A    between atoms: C1_2  and  C2_3 
ROOT
ATOM      1  C2  UNL d   1      -4.525   5.216  -3.888  0.00  0.00    -0.073 A 
ATOM      2  C3  UNL d   1      -4.711   5.801  -5.146  0.00  0.00    -0.002 A 
ATOM      3  C4  UNL d   1      -3.625   5.998  -6.000  0.00  0.00     0.004 A 
ATOM      4  C5  UNL d   1      -2.345   5.606  -5.609  0.00  0.00    -0.004 A 
ATOM      5  C6  UNL d   1      -2.140   5.009  -4.361  0.00  0.00    -0.075 A 
ATOM      6  C7  UNL d   1      -0.769   4.583  -3.925  0.00  0.00     0.076 C 
ATOM      7  C8  UNL d   1      -3.235   4.817  -3.508  0.00  0.00     0.001 A 
ENDROOT
BRANCH   1   8
ATOM      8  C1  UNL d   1      -5.695   4.996  -2.965  0.00  0.00     0.053 C 
ATOM      9  C   UNL d   1      -5.634   3.640  -2.280  0.00  0.00     0.018 C 
ENDBRANCH   1   8
TORSDOF 1
ENDMDL
