MODEL 1
REMARK minimizedAffinity 7.75457096
REMARK minimizedRMSD -1
REMARK  1 active torsions:
REMARK  status: ('A' for Active; 'I' for Inactive)
REMARK    1  A    between atoms: C1_2  and  C2_3 
ROOT
ATOM      1  C2  UNL d   1      -2.468  -0.146   3.862  0.00  0.00    -0.073 A 
ATOM      2  C3  UNL d   1      -1.481  -0.734   3.062  0.00  0.00    -0.002 A 
ATOM      3  C4  UNL d   1      -1.696  -0.915   1.696  0.00  0.00     0.004 A 
ATOM      4  C5  UNL d   1      -2.896  -0.505   1.114  0.00  0.00    -0.004 A 
ATOM      5  C6  UNL d   1      -3.889   0.095   1.894  0.00  0.00    -0.075 A 
ATOM      6  C7  UNL d   1      -5.186   0.540   1.284  0.00  0.00     0.076 C 
ATOM      7  C8  UNL d   1      -3.667   0.271   3.266  0.00  0.00     0.001 A 
ENDROOT
BRANCH   1   8
ATOM      8  C1  UNL d   1      -2.237   0.057   5.337  0.00  0.00     0.053 C 
ATOM      9  C   UNL d   1      -3.395   0.786   6.000  0.00  0.00     0.018 C 
ENDBRANCH   1   8
TORSDOF 1
ENDMDL
