MODEL 1
REMARK minimizedAffinity 9.43067551
REMARK minimizedRMSD -1
REMARK  1 active torsions:
REMARK  status: ('A' for Active; 'I' for Inactive)
REMARK    1  A    between atoms: C1_2  and  C2_3 
ROOT
ATOM      1  C2  UNL d   1      -3.695  -3.050   2.220  0.00  0.00    -0.073 A 
ATOM      2  C3  UNL d   1      -2.748  -3.634   1.371  0.00  0.00    -0.002 A 
ATOM      3  C4  UNL d   1      -1.594  -2.936   1.016  0.00  0.00     0.004 A 
ATOM      4  C5  UNL d   1      -1.371  -1.651   1.511  0.00  0.00    -0.004 A 
ATOM      5  C6  UNL d   1      -2.300  -1.054   2.369  0.00  0.00    -0.075 A 
ATOM      6  C7  UNL d   1      -2.077   0.328   2.908  0.00  0.00     0.076 C 
ATOM      7  C8  UNL d   1      -3.458  -1.761   2.719  0.00  0.00     0.001 A 
ENDROOT
BRANCH   1   8
ATOM      8  C1  UNL d   1      -4.941  -3.803   2.611  0.00  0.00     0.053 C 
ATOM      9  C   UNL d   1      -4.703  -4.719   3.802  0.00  0.00     0.018 C 
ENDBRANCH   1   8
TORSDOF 1
ENDMDL
