MODEL 1
REMARK minimizedAffinity -1.77038634
REMARK minimizedRMSD -1
REMARK  1 active torsions:
REMARK  status: ('A' for Active; 'I' for Inactive)
REMARK    1  A    between atoms: C1_2  and  C2_3 
ROOT
ATOM      1  C2  UNL d   1      -3.722   0.688   5.106  0.00  0.00    -0.073 A 
ATOM      2  C3  UNL d   1      -4.491  -0.096   5.974  0.00  0.00    -0.002 A 
ATOM      3  C4  UNL d   1      -5.200  -1.196   5.488  0.00  0.00     0.004 A 
ATOM      4  C5  UNL d   1      -5.141  -1.528   4.135  0.00  0.00    -0.004 A 
ATOM      5  C6  UNL d   1      -4.368  -0.764   3.254  0.00  0.00    -0.075 A 
ATOM      6  C7  UNL d   1      -4.296  -1.106   1.795  0.00  0.00     0.076 C 
ATOM      7  C8  UNL d   1      -3.661   0.341   3.749  0.00  0.00     0.001 A 
ENDROOT
BRANCH   1   8
ATOM      8  C1  UNL d   1      -2.950   1.872   5.627  0.00  0.00     0.053 C 
ATOM      9  C   UNL d   1      -3.862   3.036   5.981  0.00  0.00     0.018 C 
ENDBRANCH   1   8
TORSDOF 1
ENDMDL
