MODEL 1
REMARK minimizedAffinity 11.1977692
REMARK minimizedRMSD -1
REMARK  1 active torsions:
REMARK  status: ('A' for Active; 'I' for Inactive)
REMARK    1  A    between atoms: C1_2  and  C2_3 
ROOT
ATOM      1  C2  UNL d   1      -4.524   0.127   5.063  0.00  0.00    -0.073 A 
ATOM      2  C3  UNL d   1      -5.280  -0.939   5.564  0.00  0.00    -0.002 A 
ATOM      3  C4  UNL d   1      -5.855  -1.866   4.693  0.00  0.00     0.004 A 
ATOM      4  C5  UNL d   1      -5.674  -1.741   3.316  0.00  0.00    -0.004 A 
ATOM      5  C6  UNL d   1      -4.912  -0.689   2.797  0.00  0.00    -0.075 A 
ATOM      6  C7  UNL d   1      -4.710  -0.540   1.317  0.00  0.00     0.076 C 
ATOM      7  C8  UNL d   1      -4.340   0.239   3.677  0.00  0.00     0.001 A 
ENDROOT
BRANCH   1   8
ATOM      8  C1  UNL d   1      -3.896   1.127   5.999  0.00  0.00     0.053 C 
ATOM      9  C   UNL d   1      -2.435   1.381   5.666  0.00  0.00     0.018 C 
ENDBRANCH   1   8
TORSDOF 1
ENDMDL
