MODEL 1
REMARK minimizedAffinity 2.8383615
REMARK minimizedRMSD -1
REMARK  1 active torsions:
REMARK  status: ('A' for Active; 'I' for Inactive)
REMARK    1  A    between atoms: C1_2  and  C2_3 
ROOT
ATOM      1  C2  UNL d   1      -4.960   5.008  -3.786  0.00  0.00    -0.073 A 
ATOM      2  C3  UNL d   1      -5.585   5.588  -4.895  0.00  0.00    -0.002 A 
ATOM      3  C4  UNL d   1      -4.830   5.999  -5.995  0.00  0.00     0.004 A 
ATOM      4  C5  UNL d   1      -3.446   5.828  -6.000  0.00  0.00    -0.004 A 
ATOM      5  C6  UNL d   1      -2.805   5.239  -4.906  0.00  0.00    -0.075 A 
ATOM      6  C7  UNL d   1      -1.316   5.049  -4.895  0.00  0.00     0.076 C 
ATOM      7  C8  UNL d   1      -3.569   4.831  -3.804  0.00  0.00     0.001 A 
ENDROOT
BRANCH   1   8
ATOM      8  C1  UNL d   1      -5.771   4.557  -2.599  0.00  0.00     0.053 C 
ATOM      9  C   UNL d   1      -5.713   3.049  -2.409  0.00  0.00     0.018 C 
ENDBRANCH   1   8
TORSDOF 1
ENDMDL
