MODEL 1
REMARK minimizedAffinity -1.51299226
REMARK minimizedRMSD -1
REMARK  1 active torsions:
REMARK  status: ('A' for Active; 'I' for Inactive)
REMARK    1  A    between atoms: C1_2  and  C2_3 
ROOT
ATOM      1  C2  UNL d   1      -3.619   0.048   4.478  0.00  0.00    -0.073 A 
ATOM      2  C3  UNL d   1      -4.790  -0.675   4.730  0.00  0.00    -0.002 A 
ATOM      3  C4  UNL d   1      -5.102  -1.801   3.966  0.00  0.00     0.004 A 
ATOM      4  C5  UNL d   1      -4.245  -2.218   2.948  0.00  0.00    -0.004 A 
ATOM      5  C6  UNL d   1      -3.064  -1.515   2.688  0.00  0.00    -0.075 A 
ATOM      6  C7  UNL d   1      -2.132  -1.949   1.595  0.00  0.00     0.076 C 
ATOM      7  C8  UNL d   1      -2.759  -0.384   3.458  0.00  0.00     0.001 A 
ENDROOT
BRANCH   1   8
ATOM      8  C1  UNL d   1      -3.275   1.260   5.304  0.00  0.00     0.053 C 
ATOM      9  C   UNL d   1      -1.931   1.113   5.999  0.00  0.00     0.018 C 
ENDBRANCH   1   8
TORSDOF 1
ENDMDL
