MODEL 1
REMARK minimizedAffinity 2.92641687
REMARK minimizedRMSD -1
REMARK  1 active torsions:
REMARK  status: ('A' for Active; 'I' for Inactive)
REMARK    1  A    between atoms: C1_2  and  C2_3 
ROOT
ATOM      1  C2  UNL d   1      -3.071   0.717   5.261  0.00  0.00    -0.073 A 
ATOM      2  C3  UNL d   1      -4.251   0.567   5.998  0.00  0.00    -0.002 A 
ATOM      3  C4  UNL d   1      -5.367  -0.044   5.424  0.00  0.00     0.004 A 
ATOM      4  C5  UNL d   1      -5.312  -0.518   4.114  0.00  0.00    -0.004 A 
ATOM      5  C6  UNL d   1      -4.138  -0.389   3.366  0.00  0.00    -0.075 A 
ATOM      6  C7  UNL d   1      -4.063  -0.892   1.954  0.00  0.00     0.076 C 
ATOM      7  C8  UNL d   1      -3.022   0.229   3.947  0.00  0.00     0.001 A 
ENDROOT
BRANCH   1   8
ATOM      8  C1  UNL d   1      -1.861   1.371   5.877  0.00  0.00     0.053 C 
ATOM      9  C   UNL d   1      -0.690   0.408   5.995  0.00  0.00     0.018 C 
ENDBRANCH   1   8
TORSDOF 1
ENDMDL
