MODEL 1
REMARK minimizedAffinity 5.88767576
REMARK minimizedRMSD -1
REMARK  1 active torsions:
REMARK  status: ('A' for Active; 'I' for Inactive)
REMARK    1  A    between atoms: C1_2  and  C2_3 
ROOT
ATOM      1  C2  UNL d   1      -5.274   4.758  -3.866  0.00  0.00    -0.073 A 
ATOM      2  C3  UNL d   1      -6.000   5.351  -4.906  0.00  0.00    -0.002 A 
ATOM      3  C4  UNL d   1      -5.335   5.970  -5.965  0.00  0.00     0.004 A 
ATOM      4  C5  UNL d   1      -3.941   5.997  -5.999  0.00  0.00    -0.004 A 
ATOM      5  C6  UNL d   1      -3.198   5.400  -4.975  0.00  0.00    -0.075 A 
ATOM      6  C7  UNL d   1      -1.698   5.422  -4.996  0.00  0.00     0.076 C 
ATOM      7  C8  UNL d   1      -3.873   4.783  -3.913  0.00  0.00     0.001 A 
ENDROOT
BRANCH   1   8
ATOM      8  C1  UNL d   1      -5.988   4.083  -2.723  0.00  0.00     0.053 C 
ATOM      9  C   UNL d   1      -5.998   2.570  -2.871  0.00  0.00     0.018 C 
ENDBRANCH   1   8
TORSDOF 1
ENDMDL
