MODEL 1
REMARK minimizedAffinity 5.36323643
REMARK minimizedRMSD -1
REMARK  1 active torsions:
REMARK  status: ('A' for Active; 'I' for Inactive)
REMARK    1  A    between atoms: C1_2  and  C2_3 
ROOT
ATOM      1  C2  UNL d   1      -2.081  -0.166   4.113  0.00  0.00    -0.073 A 
ATOM      2  C3  UNL d   1      -1.784   0.916   3.277  0.00  0.00    -0.002 A 
ATOM      3  C4  UNL d   1      -1.703   0.738   1.896  0.00  0.00     0.004 A 
ATOM      4  C5  UNL d   1      -1.924  -0.520   1.336  0.00  0.00    -0.004 A 
ATOM      5  C6  UNL d   1      -2.234  -1.611   2.153  0.00  0.00    -0.075 A 
ATOM      6  C7  UNL d   1      -2.473  -2.971   1.567  0.00  0.00     0.076 C 
ATOM      7  C8  UNL d   1      -2.311  -1.425   3.540  0.00  0.00     0.001 A 
ENDROOT
BRANCH   1   8
ATOM      8  C1  UNL d   1      -2.176   0.022   5.605  0.00  0.00     0.053 C 
ATOM      9  C   UNL d   1      -3.395   0.841   6.000  0.00  0.00     0.018 C 
ENDBRANCH   1   8
TORSDOF 1
ENDMDL
