MODEL 1
REMARK minimizedAffinity 8.95203781
REMARK minimizedRMSD -1
REMARK  1 active torsions:
REMARK  status: ('A' for Active; 'I' for Inactive)
REMARK    1  A    between atoms: C1_2  and  C2_3 
ROOT
ATOM      1  C2  UNL d   1      -2.262   0.190   3.934  0.00  0.00    -0.073 A 
ATOM      2  C3  UNL d   1      -3.330  -0.452   3.298  0.00  0.00    -0.002 A 
ATOM      3  C4  UNL d   1      -3.120  -1.173   2.121  0.00  0.00     0.004 A 
ATOM      4  C5  UNL d   1      -1.841  -1.264   1.573  0.00  0.00    -0.004 A 
ATOM      5  C6  UNL d   1      -0.758  -0.640   2.201  0.00  0.00    -0.075 A 
ATOM      6  C7  UNL d   1       0.624  -0.727   1.624  0.00  0.00     0.076 C 
ATOM      7  C8  UNL d   1      -0.978   0.084   3.381  0.00  0.00     0.001 A 
ENDROOT
BRANCH   1   8
ATOM      8  C1  UNL d   1      -2.483   0.963   5.208  0.00  0.00     0.053 C 
ATOM      9  C   UNL d   1      -3.680   0.445   5.990  0.00  0.00     0.018 C 
ENDBRANCH   1   8
TORSDOF 1
ENDMDL
