MODEL 1
REMARK minimizedAffinity 7.33548021
REMARK minimizedRMSD -1
REMARK  1 active torsions:
REMARK  status: ('A' for Active; 'I' for Inactive)
REMARK    1  A    between atoms: C1_2  and  C2_3 
ROOT
ATOM      1  C2  UNL d   1       5.074   3.968  -1.950  0.00  0.00    -0.073 A 
ATOM      2  C3  UNL d   1       5.740   3.944  -3.181  0.00  0.00    -0.002 A 
ATOM      3  C4  UNL d   1       5.106   3.434  -4.315  0.00  0.00     0.004 A 
ATOM      4  C5  UNL d   1       3.801   2.949  -4.232  0.00  0.00    -0.004 A 
ATOM      5  C6  UNL d   1       3.115   2.976  -3.014  0.00  0.00    -0.075 A 
ATOM      6  C7  UNL d   1       1.711   2.456  -2.907  0.00  0.00     0.076 C 
ATOM      7  C8  UNL d   1       3.759   3.487  -1.879  0.00  0.00     0.001 A 
ENDROOT
BRANCH   1   8
ATOM      8  C1  UNL d   1       5.751   4.524  -0.724  0.00  0.00     0.053 C 
ATOM      9  C   UNL d   1       5.441   5.998  -0.521  0.00  0.00     0.018 C 
ENDBRANCH   1   8
TORSDOF 1
ENDMDL
