MODEL 1
REMARK minimizedAffinity 0.657502711
REMARK minimizedRMSD -1
REMARK  1 active torsions:
REMARK  status: ('A' for Active; 'I' for Inactive)
REMARK    1  A    between atoms: C1_2  and  C2_3 
ROOT
ATOM      1  C2  UNL d   1      -1.534  -3.665   2.784  0.00  0.00    -0.076 A 
ATOM      2  C3  UNL d   1      -1.449  -2.802   1.678  0.00  0.00     0.004 A 
ATOM      3  C4  UNL d   1      -0.961  -3.253   0.452  0.00  0.00    -0.003 A 
ATOM      4  C5  UNL d   1      -0.552  -4.575   0.313  0.00  0.00     0.000 A 
ATOM      5  C6  UNL d   1      -0.645  -5.449   1.395  0.00  0.00     0.000 A 
ATOM      6  C7  UNL d   1      -1.150  -5.015   2.633  0.00  0.00    -0.073 A 
ATOM      7  C8  UNL d   1      -1.223  -5.999   3.768  0.00  0.00     0.078 C 
ENDROOT
BRANCH   1   8
ATOM      8  C1  UNL d   1      -2.045  -3.113   4.096  0.00  0.00     0.053 C 
ATOM      9  C   UNL d   1      -2.821  -1.817   3.919  0.00  0.00     0.018 C 
ENDBRANCH   1   8
TORSDOF 1
ENDMDL
