MODEL 1
REMARK minimizedAffinity 18.7170696
REMARK minimizedRMSD -1
REMARK  1 active torsions:
REMARK  status: ('A' for Active; 'I' for Inactive)
REMARK    1  A    between atoms: C1_2  and  C2_3 
ROOT
ATOM      1  C2  UNL d   1      -2.038  -2.566   1.449  0.00  0.00    -0.076 A 
ATOM      2  C3  UNL d   1      -2.621  -1.455   0.815  0.00  0.00     0.004 A 
ATOM      3  C4  UNL d   1      -2.217  -1.062  -0.460  0.00  0.00    -0.003 A 
ATOM      4  C5  UNL d   1      -1.223  -1.774  -1.122  0.00  0.00     0.000 A 
ATOM      5  C6  UNL d   1      -0.646  -2.889  -0.515  0.00  0.00     0.000 A 
ATOM      6  C7  UNL d   1      -1.054  -3.309   0.763  0.00  0.00    -0.073 A 
ATOM      7  C8  UNL d   1      -0.393  -4.515   1.372  0.00  0.00     0.078 C 
ENDROOT
BRANCH   1   8
ATOM      8  C1  UNL d   1      -2.498  -2.929   2.843  0.00  0.00     0.053 C 
ATOM      9  C   UNL d   1      -2.673  -1.709   3.734  0.00  0.00     0.018 C 
ENDBRANCH   1   8
TORSDOF 1
ENDMDL
