MODEL 1
REMARK minimizedAffinity 20.4882126
REMARK minimizedRMSD -1
REMARK  1 active torsions:
REMARK  status: ('A' for Active; 'I' for Inactive)
REMARK    1  A    between atoms: C1_2  and  C2_3 
ROOT
ATOM      1  C2  UNL d   1      -1.093  -3.817   1.932  0.00  0.00    -0.076 A 
ATOM      2  C3  UNL d   1      -1.526  -2.866   0.991  0.00  0.00     0.004 A 
ATOM      3  C4  UNL d   1      -1.211  -2.999  -0.361  0.00  0.00    -0.003 A 
ATOM      4  C5  UNL d   1      -0.458  -4.085  -0.793  0.00  0.00     0.000 A 
ATOM      5  C6  UNL d   1      -0.034  -5.047   0.124  0.00  0.00     0.000 A 
ATOM      6  C7  UNL d   1      -0.357  -4.936   1.487  0.00  0.00    -0.073 A 
ATOM      7  C8  UNL d   1       0.130  -6.000   2.433  0.00  0.00     0.078 C 
ENDROOT
BRANCH   1   8
ATOM      8  C1  UNL d   1      -1.442  -3.606   3.388  0.00  0.00     0.053 C 
ATOM      9  C   UNL d   1      -2.630  -2.674   3.573  0.00  0.00     0.018 C 
ENDBRANCH   1   8
TORSDOF 1
ENDMDL
