MODEL 1
REMARK minimizedAffinity 11.090333
REMARK minimizedRMSD -1
REMARK  1 active torsions:
REMARK  status: ('A' for Active; 'I' for Inactive)
REMARK    1  A    between atoms: C1_2  and  C2_3 
ROOT
ATOM      1  C2  UNL d   1      -1.888   1.754  -3.882  0.00  0.00    -0.076 A 
ATOM      2  C3  UNL d   1      -2.597   0.708  -3.264  0.00  0.00     0.004 A 
ATOM      3  C4  UNL d   1      -1.948  -0.457  -2.860  0.00  0.00    -0.003 A 
ATOM      4  C5  UNL d   1      -0.580  -0.596  -3.068  0.00  0.00     0.000 A 
ATOM      5  C6  UNL d   1       0.142   0.438  -3.663  0.00  0.00     0.000 A 
ATOM      6  C7  UNL d   1      -0.494   1.626  -4.061  0.00  0.00    -0.073 A 
ATOM      7  C8  UNL d   1       0.331   2.707  -4.704  0.00  0.00     0.078 C 
ENDROOT
BRANCH   1   8
ATOM      8  C1  UNL d   1      -2.650   2.983  -4.323  0.00  0.00     0.053 C 
ATOM      9  C   UNL d   1      -3.683   2.675  -5.396  0.00  0.00     0.018 C 
ENDBRANCH   1   8
TORSDOF 1
ENDMDL
