MODEL 1
REMARK minimizedAffinity 17.5442772
REMARK minimizedRMSD -1
REMARK  1 active torsions:
REMARK  status: ('A' for Active; 'I' for Inactive)
REMARK    1  A    between atoms: C1_2  and  C2_3 
ROOT
ATOM      1  C2  UNL d   1      -1.366  -2.341  -2.286  0.00  0.00    -0.076 A 
ATOM      2  C3  UNL d   1      -1.102  -3.565  -2.926  0.00  0.00     0.004 A 
ATOM      3  C4  UNL d   1      -0.594  -4.651  -2.216  0.00  0.00    -0.003 A 
ATOM      4  C5  UNL d   1      -0.342  -4.532  -0.854  0.00  0.00     0.000 A 
ATOM      5  C6  UNL d   1      -0.615  -3.331  -0.199  0.00  0.00     0.000 A 
ATOM      6  C7  UNL d   1      -1.143  -2.232  -0.897  0.00  0.00    -0.073 A 
ATOM      7  C8  UNL d   1      -1.413  -0.959  -0.142  0.00  0.00     0.078 C 
ENDROOT
BRANCH   1   8
ATOM      8  C1  UNL d   1      -1.892  -1.190  -3.113  0.00  0.00     0.053 C 
ATOM      9  C   UNL d   1      -0.791  -0.474  -3.880  0.00  0.00     0.018 C 
ENDBRANCH   1   8
TORSDOF 1
ENDMDL
