MODEL 1
REMARK minimizedAffinity 11.531147
REMARK minimizedRMSD -1
REMARK  1 active torsions:
REMARK  status: ('A' for Active; 'I' for Inactive)
REMARK    1  A    between atoms: C1_2  and  C2_3 
ROOT
ATOM      1  C2  UNL d   1      -2.768  -2.832   0.890  0.00  0.00    -0.076 A 
ATOM      2  C3  UNL d   1      -3.403  -1.750   0.255  0.00  0.00     0.004 A 
ATOM      3  C4  UNL d   1      -2.862  -1.174  -0.893  0.00  0.00    -0.003 A 
ATOM      4  C5  UNL d   1      -1.677  -1.671  -1.426  0.00  0.00     0.000 A 
ATOM      5  C6  UNL d   1      -1.043  -2.755  -0.819  0.00  0.00     0.000 A 
ATOM      6  C7  UNL d   1      -1.584  -3.357   0.330  0.00  0.00    -0.073 A 
ATOM      7  C8  UNL d   1      -0.855  -4.519   0.947  0.00  0.00     0.078 C 
ENDROOT
BRANCH   1   8
ATOM      8  C1  UNL d   1      -3.387  -3.398   2.148  0.00  0.00     0.053 C 
ATOM      9  C   UNL d   1      -2.503  -3.203   3.371  0.00  0.00     0.018 C 
ENDBRANCH   1   8
TORSDOF 1
ENDMDL
