MODEL 1
REMARK minimizedAffinity 13.5290394
REMARK minimizedRMSD -1
REMARK  1 active torsions:
REMARK  status: ('A' for Active; 'I' for Inactive)
REMARK    1  A    between atoms: C1_2  and  C2_3 
ROOT
ATOM      1  C2  UNL d   1      -0.999  -3.099   0.451  0.00  0.00    -0.076 A 
ATOM      2  C3  UNL d   1      -0.504  -2.717  -0.808  0.00  0.00     0.004 A 
ATOM      3  C4  UNL d   1      -0.994  -1.585  -1.458  0.00  0.00    -0.003 A 
ATOM      4  C5  UNL d   1      -1.985  -0.816  -0.858  0.00  0.00     0.000 A 
ATOM      5  C6  UNL d   1      -2.474  -1.170   0.399  0.00  0.00     0.000 A 
ATOM      6  C7  UNL d   1      -1.980  -2.299   1.074  0.00  0.00    -0.073 A 
ATOM      7  C8  UNL d   1      -2.548  -2.638   2.425  0.00  0.00     0.078 C 
ENDROOT
BRANCH   1   8
ATOM      8  C1  UNL d   1      -0.449  -4.352   1.095  0.00  0.00     0.053 C 
ATOM      9  C   UNL d   1      -0.615  -5.581   0.214  0.00  0.00     0.018 C 
ENDBRANCH   1   8
TORSDOF 1
ENDMDL
