MODEL 1
REMARK minimizedAffinity 10.0273418
REMARK minimizedRMSD -1
REMARK  1 active torsions:
REMARK  status: ('A' for Active; 'I' for Inactive)
REMARK    1  A    between atoms: C1_2  and  C2_3 
ROOT
ATOM      1  C2  UNL d   1      -4.100   5.034  -0.355  0.00  0.00    -0.076 A 
ATOM      2  C3  UNL d   1      -5.117   5.999  -0.249  0.00  0.00     0.004 A 
ATOM      3  C4  UNL d   1      -6.000   5.996   0.829  0.00  0.00    -0.003 A 
ATOM      4  C5  UNL d   1      -5.880   5.028   1.820  0.00  0.00     0.000 A 
ATOM      5  C6  UNL d   1      -4.866   4.073   1.740  0.00  0.00     0.000 A 
ATOM      6  C7  UNL d   1      -3.958   4.073   0.668  0.00  0.00    -0.073 A 
ATOM      7  C8  UNL d   1      -2.888   3.016   0.629  0.00  0.00     0.078 C 
ENDROOT
BRANCH   1   8
ATOM      8  C1  UNL d   1      -3.190   5.071  -1.562  0.00  0.00     0.053 C 
ATOM      9  C   UNL d   1      -3.707   5.995  -2.654  0.00  0.00     0.018 C 
ENDBRANCH   1   8
TORSDOF 1
ENDMDL
