MODEL 1
REMARK minimizedAffinity 18.7908974
REMARK minimizedRMSD -1
REMARK  1 active torsions:
REMARK  status: ('A' for Active; 'I' for Inactive)
REMARK    1  A    between atoms: C1_2  and  C2_3 
ROOT
ATOM      1  C2  UNL d   1      -0.462  -3.557  -0.093  0.00  0.00    -0.076 A 
ATOM      2  C3  UNL d   1      -0.073  -3.121   1.186  0.00  0.00     0.004 A 
ATOM      3  C4  UNL d   1       0.324  -4.031   2.165  0.00  0.00    -0.003 A 
ATOM      4  C5  UNL d   1       0.339  -5.392   1.880  0.00  0.00     0.000 A 
ATOM      5  C6  UNL d   1      -0.026  -5.841   0.611  0.00  0.00     0.000 A 
ATOM      6  C7  UNL d   1      -0.413  -4.936  -0.392  0.00  0.00    -0.073 A 
ATOM      7  C8  UNL d   1      -0.803  -5.476  -1.740  0.00  0.00     0.078 C 
ENDROOT
BRANCH   1   8
ATOM      8  C1  UNL d   1      -0.908  -2.527  -1.105  0.00  0.00     0.053 C 
ATOM      9  C   UNL d   1      -2.054  -1.666  -0.594  0.00  0.00     0.018 C 
ENDBRANCH   1   8
TORSDOF 1
ENDMDL
