MODEL 1
REMARK minimizedAffinity 16.2674885
REMARK minimizedRMSD -1
REMARK  1 active torsions:
REMARK  status: ('A' for Active; 'I' for Inactive)
REMARK    1  A    between atoms: C1_2  and  C2_3 
ROOT
ATOM      1  C2  UNL d   1      -3.357   1.382   2.331  0.00  0.00    -0.076 A 
ATOM      2  C3  UNL d   1      -3.500   1.741   3.682  0.00  0.00     0.004 A 
ATOM      3  C4  UNL d   1      -3.531   0.771   4.683  0.00  0.00    -0.003 A 
ATOM      4  C5  UNL d   1      -3.418  -0.574   4.348  0.00  0.00     0.000 A 
ATOM      5  C6  UNL d   1      -3.258  -0.947   3.014  0.00  0.00     0.000 A 
ATOM      6  C7  UNL d   1      -3.209   0.020   1.994  0.00  0.00    -0.073 A 
ATOM      7  C8  UNL d   1      -3.040  -0.439   0.572  0.00  0.00     0.078 C 
ENDROOT
BRANCH   1   8
ATOM      8  C1  UNL d   1      -3.358   2.476   1.287  0.00  0.00     0.053 C 
ATOM      9  C   UNL d   1      -4.719   3.139   1.138  0.00  0.00     0.018 C 
ENDBRANCH   1   8
TORSDOF 1
ENDMDL
