MODEL 1
REMARK minimizedAffinity 18.8708076
REMARK minimizedRMSD -1
REMARK  1 active torsions:
REMARK  status: ('A' for Active; 'I' for Inactive)
REMARK    1  A    between atoms: C1_2  and  C2_3 
ROOT
ATOM      1  C2  UNL d   1      -1.324  -2.069  -1.975  0.00  0.00    -0.076 A 
ATOM      2  C3  UNL d   1      -0.839  -3.304  -2.440  0.00  0.00     0.004 A 
ATOM      3  C4  UNL d   1      -0.566  -4.346  -1.556  0.00  0.00    -0.003 A 
ATOM      4  C5  UNL d   1      -0.773  -4.170  -0.192  0.00  0.00     0.000 A 
ATOM      5  C6  UNL d   1      -1.271  -2.958   0.285  0.00  0.00     0.000 A 
ATOM      6  C7  UNL d   1      -1.567  -1.903  -0.595  0.00  0.00    -0.073 A 
ATOM      7  C8  UNL d   1      -2.095  -0.615  -0.025  0.00  0.00     0.078 C 
ENDROOT
BRANCH   1   8
ATOM      8  C1  UNL d   1      -1.577  -0.966  -2.978  0.00  0.00     0.053 C 
ATOM      9  C   UNL d   1      -3.058  -0.667  -3.155  0.00  0.00     0.018 C 
ENDBRANCH   1   8
TORSDOF 1
ENDMDL
