MODEL 1
REMARK minimizedAffinity 23.1631756
REMARK minimizedRMSD -1
REMARK  1 active torsions:
REMARK  status: ('A' for Active; 'I' for Inactive)
REMARK    1  A    between atoms: C1_2  and  C2_3 
ROOT
ATOM      1  C2  UNL d   1       4.771   0.899  -3.369  0.00  0.00    -0.076 A 
ATOM      2  C3  UNL d   1       3.694   1.497  -2.691  0.00  0.00     0.004 A 
ATOM      3  C4  UNL d   1       2.529   0.781  -2.423  0.00  0.00    -0.003 A 
ATOM      4  C5  UNL d   1       2.421  -0.545  -2.828  0.00  0.00     0.000 A 
ATOM      5  C6  UNL d   1       3.486  -1.160  -3.486  0.00  0.00     0.000 A 
ATOM      6  C7  UNL d   1       4.674  -0.457  -3.749  0.00  0.00    -0.073 A 
ATOM      7  C8  UNL d   1       5.789  -1.168  -4.467  0.00  0.00     0.078 C 
ENDROOT
BRANCH   1   8
ATOM      8  C1  UNL d   1       5.999   1.732  -3.655  0.00  0.00     0.053 C 
ATOM      9  C   UNL d   1       5.940   2.408  -5.016  0.00  0.00     0.018 C 
ENDBRANCH   1   8
TORSDOF 1
ENDMDL
