MODEL 1
REMARK minimizedAffinity 6.73591232
REMARK minimizedRMSD -1
REMARK  0 active torsions:
REMARK  status: ('A' for Active; 'I' for Inactive)
ROOT
ATOM      1  C   UNL d   1       5.073  -5.985   5.380  0.00  0.00    -0.002 A 
ATOM      2  C1  UNL d   1       6.000  -5.920   4.349  0.00  0.00     0.010 A 
ATOM      3  C2  UNL d   1       5.579  -5.868   3.019  0.00  0.00     0.041 A 
ATOM      4  C3  UNL d   1       4.199  -5.880   2.740  0.00  0.00    -0.075 A 
ATOM      5  S   UNL d   1       3.452  -5.822   1.187  0.00  0.00     0.015 SA
ATOM      6  C4  UNL d   1       1.885  -5.881   1.856  0.00  0.00     0.022 A 
ATOM      7  C5  UNL d   1       1.913  -5.944   3.229  0.00  0.00     0.026 A 
ATOM      8  C6  UNL d   1       3.246  -5.943   3.761  0.00  0.00    -0.082 A 
ATOM      9  C7  UNL d   1       3.705  -5.996   5.099  0.00  0.00     0.045 A 
ENDROOT
TORSDOF 0
ENDMDL
