MODEL 1
REMARK minimizedAffinity 8.48154545
REMARK minimizedRMSD -1
REMARK  0 active torsions:
REMARK  status: ('A' for Active; 'I' for Inactive)
ROOT
ATOM      1  C   UNL d   1      -3.929  -1.424  -5.996  0.00  0.00    -0.002 A 
ATOM      2  C1  UNL d   1      -5.105  -2.160  -5.997  0.00  0.00     0.010 A 
ATOM      3  C2  UNL d   1      -5.070  -3.556  -5.998  0.00  0.00     0.041 A 
ATOM      4  C3  UNL d   1      -3.820  -4.206  -5.997  0.00  0.00    -0.075 A 
ATOM      5  S   UNL d   1      -3.532  -5.906  -5.997  0.00  0.00     0.015 SA
ATOM      6  C4  UNL d   1      -1.841  -5.695  -5.995  0.00  0.00     0.022 A 
ATOM      7  C5  UNL d   1      -1.487  -4.367  -5.995  0.00  0.00     0.026 A 
ATOM      8  C6  UNL d   1      -2.621  -3.487  -5.995  0.00  0.00    -0.082 A 
ATOM      9  C7  UNL d   1      -2.691  -2.073  -5.995  0.00  0.00     0.045 A 
ENDROOT
TORSDOF 0
ENDMDL
