MODEL 1
REMARK minimizedAffinity 6.5722146
REMARK minimizedRMSD -1
REMARK  0 active torsions:
REMARK  status: ('A' for Active; 'I' for Inactive)
ROOT
ATOM      1  C   UNL d   1      -4.253   1.809   1.744  0.00  0.00    -0.002 A 
ATOM      2  C1  UNL d   1      -3.990   1.065   0.603  0.00  0.00     0.010 A 
ATOM      3  C2  UNL d   1      -2.780   0.381   0.464  0.00  0.00     0.041 A 
ATOM      4  C3  UNL d   1      -1.832   0.456   1.503  0.00  0.00    -0.075 A 
ATOM      5  S   UNL d   1      -0.283  -0.299   1.553  0.00  0.00     0.015 SA
ATOM      6  C4  UNL d   1       0.066   0.347   3.091  0.00  0.00     0.022 A 
ATOM      7  C5  UNL d   1      -0.963   1.123   3.570  0.00  0.00     0.026 A 
ATOM      8  C6  UNL d   1      -2.074   1.199   2.662  0.00  0.00    -0.082 A 
ATOM      9  C7  UNL d   1      -3.309   1.882   2.773  0.00  0.00     0.045 A 
ENDROOT
TORSDOF 0
ENDMDL
