MODEL 1
REMARK minimizedAffinity 8.80162334
REMARK minimizedRMSD -1
REMARK  0 active torsions:
REMARK  status: ('A' for Active; 'I' for Inactive)
ROOT
ATOM      1  C   UNL d   1      -3.884   1.070   1.795  0.00  0.00    -0.002 A 
ATOM      2  C1  UNL d   1      -2.564   1.102   2.220  0.00  0.00     0.010 A 
ATOM      3  C2  UNL d   1      -1.697   0.048   1.925  0.00  0.00     0.041 A 
ATOM      4  C3  UNL d   1      -2.183  -1.048   1.186  0.00  0.00    -0.075 A 
ATOM      5  S   UNL d   1      -1.304  -2.451   0.706  0.00  0.00     0.015 SA
ATOM      6  C4  UNL d   1      -2.660  -3.126  -0.076  0.00  0.00     0.022 A 
ATOM      7  C5  UNL d   1      -3.765  -2.314   0.018  0.00  0.00     0.026 A 
ATOM      8  C6  UNL d   1      -3.509  -1.103   0.746  0.00  0.00    -0.082 A 
ATOM      9  C7  UNL d   1      -4.363  -0.019   1.062  0.00  0.00     0.045 A 
ENDROOT
TORSDOF 0
ENDMDL
