MODEL 1
REMARK minimizedAffinity 7.01663876
REMARK minimizedRMSD -1
REMARK  0 active torsions:
REMARK  status: ('A' for Active; 'I' for Inactive)
ROOT
ATOM      1  C   UNL d   1      -0.528   1.608   2.919  0.00  0.00    -0.002 A 
ATOM      2  C1  UNL d   1      -0.083   0.334   2.596  0.00  0.00     0.010 A 
ATOM      3  C2  UNL d   1      -0.936  -0.581   1.976  0.00  0.00     0.041 A 
ATOM      4  C3  UNL d   1      -2.257  -0.190   1.683  0.00  0.00    -0.075 A 
ATOM      5  S   UNL d   1      -3.480  -1.142   0.926  0.00  0.00     0.015 SA
ATOM      6  C4  UNL d   1      -4.622   0.120   1.014  0.00  0.00     0.022 A 
ATOM      7  C5  UNL d   1      -4.100   1.247   1.603  0.00  0.00     0.026 A 
ATOM      8  C6  UNL d   1      -2.729   1.088   1.998  0.00  0.00    -0.082 A 
ATOM      9  C7  UNL d   1      -1.840   1.992   2.626  0.00  0.00     0.045 A 
ENDROOT
TORSDOF 0
ENDMDL
