MODEL 1
REMARK minimizedAffinity 12.976141
REMARK minimizedRMSD -1
REMARK  0 active torsions:
REMARK  status: ('A' for Active; 'I' for Inactive)
ROOT
ATOM      1  C   UNL d   1      -4.836   1.151   5.213  0.00  0.00    -0.002 A 
ATOM      2  C1  UNL d   1      -5.151   1.043   3.866  0.00  0.00     0.010 A 
ATOM      3  C2  UNL d   1      -5.292  -0.211   3.268  0.00  0.00     0.041 A 
ATOM      4  C3  UNL d   1      -5.112  -1.365   4.055  0.00  0.00    -0.075 A 
ATOM      5  S   UNL d   1      -5.236  -3.005   3.538  0.00  0.00     0.015 SA
ATOM      6  C4  UNL d   1      -4.875  -3.601   5.094  0.00  0.00     0.022 A 
ATOM      7  C5  UNL d   1      -4.662  -2.587   5.998  0.00  0.00     0.026 A 
ATOM      8  C6  UNL d   1      -4.795  -1.282   5.414  0.00  0.00    -0.082 A 
ATOM      9  C7  UNL d   1      -4.658   0.004   5.991  0.00  0.00     0.045 A 
ENDROOT
TORSDOF 0
ENDMDL
