MODEL 1
REMARK minimizedAffinity 2.25297213
REMARK minimizedRMSD -1
REMARK  0 active torsions:
REMARK  status: ('A' for Active; 'I' for Inactive)
ROOT
ATOM      1  C   UNL d   1       4.485  -0.098   0.693  0.00  0.00    -0.002 A 
ATOM      2  C1  UNL d   1       3.636   0.254  -0.347  0.00  0.00     0.010 A 
ATOM      3  C2  UNL d   1       2.294   0.547  -0.099  0.00  0.00     0.041 A 
ATOM      4  C3  UNL d   1       1.815   0.482   1.224  0.00  0.00    -0.075 A 
ATOM      5  S   UNL d   1       0.209   0.800   1.765  0.00  0.00     0.015 SA
ATOM      6  C4  UNL d   1       0.612   0.477   3.389  0.00  0.00     0.022 A 
ATOM      7  C5  UNL d   1       1.935   0.133   3.533  0.00  0.00     0.026 A 
ATOM      8  C6  UNL d   1       2.650   0.131   2.288  0.00  0.00    -0.082 A 
ATOM      9  C7  UNL d   1       4.006  -0.162   2.004  0.00  0.00     0.045 A 
ENDROOT
TORSDOF 0
ENDMDL
