MODEL 1
REMARK minimizedAffinity 9.24135017
REMARK minimizedRMSD -1
REMARK  0 active torsions:
REMARK  status: ('A' for Active; 'I' for Inactive)
ROOT
ATOM      1  C   UNL d   1      -0.814   2.729   3.373  0.00  0.00    -0.002 A 
ATOM      2  C1  UNL d   1       0.142   1.733   3.513  0.00  0.00     0.010 A 
ATOM      3  C2  UNL d   1      -0.021   0.498   2.883  0.00  0.00     0.041 A 
ATOM      4  C3  UNL d   1      -1.171   0.279   2.099  0.00  0.00    -0.075 A 
ATOM      5  S   UNL d   1      -1.582  -1.154   1.234  0.00  0.00     0.015 SA
ATOM      6  C4  UNL d   1      -3.036  -0.477   0.656  0.00  0.00     0.022 A 
ATOM      7  C5  UNL d   1      -3.220   0.810   1.104  0.00  0.00     0.026 A 
ATOM      8  C6  UNL d   1      -2.147   1.267   1.942  0.00  0.00    -0.082 A 
ATOM      9  C7  UNL d   1      -1.954   2.508   2.595  0.00  0.00     0.045 A 
ENDROOT
TORSDOF 0
ENDMDL
