MODEL 1
REMARK minimizedAffinity 10.9230833
REMARK minimizedRMSD -1
REMARK  0 active torsions:
REMARK  status: ('A' for Active; 'I' for Inactive)
ROOT
ATOM      1  C   UNL d   1      -1.728   2.129   3.355  0.00  0.00    -0.002 A 
ATOM      2  C1  UNL d   1      -0.703   2.296   4.276  0.00  0.00     0.010 A 
ATOM      3  C2  UNL d   1       0.585   1.837   3.996  0.00  0.00     0.041 A 
ATOM      4  C3  UNL d   1       0.830   1.203   2.761  0.00  0.00    -0.075 A 
ATOM      5  S   UNL d   1       2.329   0.562   2.201  0.00  0.00     0.015 SA
ATOM      6  C4  UNL d   1       1.644   0.053   0.725  0.00  0.00     0.022 A 
ATOM      7  C5  UNL d   1       0.306   0.356   0.646  0.00  0.00     0.026 A 
ATOM      8  C6  UNL d   1      -0.186   1.025   1.818  0.00  0.00    -0.082 A 
ATOM      9  C7  UNL d   1      -1.482   1.500   2.132  0.00  0.00     0.045 A 
ENDROOT
TORSDOF 0
ENDMDL
