MODEL 1
REMARK minimizedAffinity -3.32407856
REMARK minimizedRMSD -1
REMARK  0 active torsions:
REMARK  status: ('A' for Active; 'I' for Inactive)
ROOT
ATOM      1  C   UNL d   1      -0.980   1.169   2.947  0.00  0.00     0.077 C 
ATOM      2  C1  UNL d   1      -0.546   0.573   1.641  0.00  0.00    -0.074 A 
ATOM      3  C2  UNL d   1      -1.392   0.591   0.527  0.00  0.00    -0.005 A 
ATOM      4  C3  UNL d   1      -0.971   0.041  -0.684  0.00  0.00     0.006 A 
ATOM      5  C4  UNL d   1       0.297  -0.531  -0.793  0.00  0.00    -0.005 A 
ATOM      6  C5  UNL d   1       1.156  -0.558   0.310  0.00  0.00    -0.074 A 
ATOM      7  C6  UNL d   1       2.526  -1.160   0.206  0.00  0.00     0.077 C 
ATOM      8  C7  UNL d   1       0.729   0.003   1.521  0.00  0.00    -0.001 A 
ENDROOT
TORSDOF 0
ENDMDL
