MODEL 1
REMARK minimizedAffinity -2.83852291
REMARK minimizedRMSD -1
REMARK  0 active torsions:
REMARK  status: ('A' for Active; 'I' for Inactive)
ROOT
ATOM      1  C   UNL d   1      -1.113  -2.100  -4.937  0.00  0.00     0.077 C 
ATOM      2  C1  UNL d   1      -0.336  -1.134  -4.093  0.00  0.00    -0.074 A 
ATOM      3  C2  UNL d   1       0.392  -0.093  -4.679  0.00  0.00    -0.005 A 
ATOM      4  C3  UNL d   1       1.103   0.804  -3.881  0.00  0.00     0.006 A 
ATOM      5  C4  UNL d   1       1.092   0.669  -2.492  0.00  0.00    -0.005 A 
ATOM      6  C5  UNL d   1       0.369  -0.365  -1.889  0.00  0.00    -0.074 A 
ATOM      7  C6  UNL d   1       0.340  -0.517  -0.397  0.00  0.00     0.077 C 
ATOM      8  C7  UNL d   1      -0.348  -1.258  -2.697  0.00  0.00    -0.001 A 
ENDROOT
TORSDOF 0
ENDMDL
