MODEL 1
REMARK minimizedAffinity -4.10953856
REMARK minimizedRMSD -1
REMARK  0 active torsions:
REMARK  status: ('A' for Active; 'I' for Inactive)
ROOT
ATOM      1  C   UNL d   1      -0.509   1.899   2.589  0.00  0.00     0.077 C 
ATOM      2  C1  UNL d   1       0.204   0.865   1.769  0.00  0.00    -0.074 A 
ATOM      3  C2  UNL d   1       1.401   0.294   2.214  0.00  0.00    -0.005 A 
ATOM      4  C3  UNL d   1       2.048  -0.673   1.445  0.00  0.00     0.006 A 
ATOM      5  C4  UNL d   1       1.506  -1.078   0.225  0.00  0.00    -0.005 A 
ATOM      6  C5  UNL d   1       0.310  -0.519  -0.236  0.00  0.00    -0.074 A 
ATOM      7  C6  UNL d   1      -0.291  -0.951  -1.541  0.00  0.00     0.077 C 
ATOM      8  C7  UNL d   1      -0.338   0.447   0.546  0.00  0.00    -0.001 A 
ENDROOT
TORSDOF 0
ENDMDL
