MODEL 1
REMARK minimizedAffinity -4.24938965
REMARK minimizedRMSD -1
REMARK  0 active torsions:
REMARK  status: ('A' for Active; 'I' for Inactive)
ROOT
ATOM      1  C   UNL d   1       0.022   1.611   3.342  0.00  0.00     0.077 C 
ATOM      2  C1  UNL d   1      -0.377   1.121   1.981  0.00  0.00    -0.074 A 
ATOM      3  C2  UNL d   1      -1.705   1.196   1.551  0.00  0.00    -0.005 A 
ATOM      4  C3  UNL d   1      -2.059   0.746   0.279  0.00  0.00     0.006 A 
ATOM      5  C4  UNL d   1      -1.090   0.217  -0.574  0.00  0.00    -0.005 A 
ATOM      6  C5  UNL d   1       0.244   0.135  -0.161  0.00  0.00    -0.074 A 
ATOM      7  C6  UNL d   1       1.300  -0.422  -1.070  0.00  0.00     0.077 C 
ATOM      8  C7  UNL d   1       0.593   0.596   1.115  0.00  0.00    -0.001 A 
ENDROOT
TORSDOF 0
ENDMDL
