MODEL 1
REMARK minimizedAffinity -2.39435983
REMARK minimizedRMSD -1
REMARK  0 active torsions:
REMARK  status: ('A' for Active; 'I' for Inactive)
ROOT
ATOM      1  C   UNL d   1      -0.618   1.858   3.469  0.00  0.00     0.077 C 
ATOM      2  C1  UNL d   1      -0.518   1.110   2.173  0.00  0.00    -0.074 A 
ATOM      3  C2  UNL d   1       0.693   1.035   1.478  0.00  0.00    -0.005 A 
ATOM      4  C3  UNL d   1       0.773   0.327   0.279  0.00  0.00     0.006 A 
ATOM      5  C4  UNL d   1      -0.356  -0.311  -0.237  0.00  0.00    -0.005 A 
ATOM      6  C5  UNL d   1      -1.575  -0.248   0.444  0.00  0.00    -0.074 A 
ATOM      7  C6  UNL d   1      -2.795  -0.936  -0.091  0.00  0.00     0.077 C 
ATOM      8  C7  UNL d   1      -1.646   0.459   1.652  0.00  0.00    -0.001 A 
ENDROOT
TORSDOF 0
ENDMDL
