MODEL 1
REMARK minimizedAffinity -2.59358835
REMARK minimizedRMSD -1
REMARK  0 active torsions:
REMARK  status: ('A' for Active; 'I' for Inactive)
ROOT
ATOM      1  C   UNL d   1       1.919  -0.801  -0.699  0.00  0.00     0.077 C 
ATOM      2  C1  UNL d   1       0.567  -0.325  -0.259  0.00  0.00    -0.074 A 
ATOM      3  C2  UNL d   1      -0.582  -0.654  -0.986  0.00  0.00    -0.005 A 
ATOM      4  C3  UNL d   1      -1.835  -0.212  -0.560  0.00  0.00     0.006 A 
ATOM      5  C4  UNL d   1      -1.951   0.562   0.595  0.00  0.00    -0.005 A 
ATOM      6  C5  UNL d   1      -0.814   0.900   1.335  0.00  0.00    -0.074 A 
ATOM      7  C6  UNL d   1      -0.922   1.723   2.585  0.00  0.00     0.077 C 
ATOM      8  C7  UNL d   1       0.441   0.447   0.905  0.00  0.00    -0.001 A 
ENDROOT
TORSDOF 0
ENDMDL
