MODEL 1
REMARK minimizedAffinity -4.38720226
REMARK minimizedRMSD -1
REMARK  0 active torsions:
REMARK  status: ('A' for Active; 'I' for Inactive)
ROOT
ATOM      1  C   UNL d   1      -0.366   0.768   3.386  0.00  0.00     0.077 C 
ATOM      2  C1  UNL d   1      -0.275   0.268   1.975  0.00  0.00    -0.074 A 
ATOM      3  C2  UNL d   1       0.963  -0.033   1.398  0.00  0.00    -0.005 A 
ATOM      4  C3  UNL d   1       1.031  -0.507   0.087  0.00  0.00     0.006 A 
ATOM      5  C4  UNL d   1      -0.136  -0.683  -0.658  0.00  0.00    -0.005 A 
ATOM      6  C5  UNL d   1      -1.382  -0.388  -0.097  0.00  0.00    -0.074 A 
ATOM      7  C6  UNL d   1      -2.647  -0.581  -0.880  0.00  0.00     0.077 C 
ATOM      8  C7  UNL d   1      -1.443   0.081   1.223  0.00  0.00    -0.001 A 
ENDROOT
TORSDOF 0
ENDMDL
