MODEL 1
REMARK minimizedAffinity -2.38549256
REMARK minimizedRMSD -1
REMARK  0 active torsions:
REMARK  status: ('A' for Active; 'I' for Inactive)
ROOT
ATOM      1  C   UNL d   1      -2.500  -1.023   3.970  0.00  0.00     0.077 C 
ATOM      2  C1  UNL d   1      -1.840  -0.175   2.924  0.00  0.00    -0.074 A 
ATOM      3  C2  UNL d   1      -1.232   1.039   3.260  0.00  0.00    -0.005 A 
ATOM      4  C3  UNL d   1      -0.613   1.812   2.278  0.00  0.00     0.006 A 
ATOM      5  C4  UNL d   1      -0.597   1.380   0.951  0.00  0.00    -0.005 A 
ATOM      6  C5  UNL d   1      -1.199   0.169   0.596  0.00  0.00    -0.074 A 
ATOM      7  C6  UNL d   1      -1.182  -0.314  -0.824  0.00  0.00     0.077 C 
ATOM      8  C7  UNL d   1      -1.812  -0.605   1.590  0.00  0.00    -0.001 A 
ENDROOT
TORSDOF 0
ENDMDL
