MODEL 1
REMARK minimizedAffinity -5.56613684
REMARK minimizedRMSD -1
REMARK  0 active torsions:
REMARK  status: ('A' for Active; 'I' for Inactive)
ROOT
ATOM      1  C   UNL d   1       0.039  -1.181  -1.269  0.00  0.00     0.077 C 
ATOM      2  C1  UNL d   1      -0.375  -0.566   0.034  0.00  0.00    -0.074 A 
ATOM      3  C2  UNL d   1      -1.725  -0.479   0.391  0.00  0.00    -0.005 A 
ATOM      4  C3  UNL d   1      -2.095   0.087   1.611  0.00  0.00     0.006 A 
ATOM      5  C4  UNL d   1      -1.121   0.572   2.485  0.00  0.00    -0.005 A 
ATOM      6  C5  UNL d   1       0.234   0.493   2.145  0.00  0.00    -0.074 A 
ATOM      7  C6  UNL d   1       1.294   1.000   3.077  0.00  0.00     0.077 C 
ATOM      8  C7  UNL d   1       0.598  -0.084   0.921  0.00  0.00    -0.001 A 
ENDROOT
TORSDOF 0
ENDMDL
