MODEL 1
REMARK minimizedAffinity -3.72469664
REMARK minimizedRMSD -1
REMARK  0 active torsions:
REMARK  status: ('A' for Active; 'I' for Inactive)
ROOT
ATOM      1  C   UNL d   1      -0.321   2.336   2.790  0.00  0.00     0.077 C 
ATOM      2  C1  UNL d   1      -0.535   1.215   1.817  0.00  0.00    -0.074 A 
ATOM      3  C2  UNL d   1      -1.604   0.326   1.967  0.00  0.00    -0.005 A 
ATOM      4  C3  UNL d   1      -1.795  -0.706   1.049  0.00  0.00     0.006 A 
ATOM      5  C4  UNL d   1      -0.921  -0.859  -0.028  0.00  0.00    -0.005 A 
ATOM      6  C5  UNL d   1       0.153   0.020  -0.195  0.00  0.00    -0.074 A 
ATOM      7  C6  UNL d   1       1.097  -0.124  -1.352  0.00  0.00     0.077 C 
ATOM      8  C7  UNL d   1       0.335   1.059   0.728  0.00  0.00    -0.001 A 
ENDROOT
TORSDOF 0
ENDMDL
