MODEL 1
REMARK minimizedAffinity -3.61498547
REMARK minimizedRMSD -1
REMARK  0 active torsions:
REMARK  status: ('A' for Active; 'I' for Inactive)
ROOT
ATOM      1  C   UNL d   1      -2.430   0.761   2.136  0.00  0.00     0.077 C 
ATOM      2  C1  UNL d   1      -1.082   0.619   1.494  0.00  0.00    -0.074 A 
ATOM      3  C2  UNL d   1       0.085   0.950   2.191  0.00  0.00    -0.005 A 
ATOM      4  C3  UNL d   1       1.332   0.803   1.584  0.00  0.00     0.006 A 
ATOM      5  C4  UNL d   1       1.426   0.325   0.276  0.00  0.00    -0.005 A 
ATOM      6  C5  UNL d   1       0.270  -0.011  -0.436  0.00  0.00    -0.074 A 
ATOM      7  C6  UNL d   1       0.354  -0.536  -1.839  0.00  0.00     0.077 C 
ATOM      8  C7  UNL d   1      -0.979   0.132   0.183  0.00  0.00    -0.001 A 
ENDROOT
TORSDOF 0
ENDMDL
