MODEL 1
REMARK minimizedAffinity 1.68882608
REMARK minimizedRMSD -1
REMARK  0 active torsions:
REMARK  status: ('A' for Active; 'I' for Inactive)
ROOT
ATOM      1  C   UNL d   1       0.401  -1.505  -0.278  0.00  0.00     0.023 A 
ATOM      2  C1  UNL d   1       1.681  -2.004  -0.038  0.00  0.00     0.003 A 
ATOM      3  C2  UNL d   1       1.845  -3.293   0.474  0.00  0.00     0.048 A 
ATOM      4  C3  UNL d   1       0.724  -4.078   0.741  0.00  0.00     0.023 A 
ATOM      5  C4  UNL d   1      -0.559  -3.583   0.501  0.00  0.00     0.048 A 
ATOM      6  C5  UNL d   1      -0.718  -2.294  -0.009  0.00  0.00     0.003 A 
ATOM      7  I   UNL d   1       0.965  -5.997   1.502  0.00  0.00    -0.146 I 
ENDROOT
TORSDOF 0
ENDMDL
