MODEL 1
REMARK minimizedAffinity -2.71818519
REMARK minimizedRMSD -1
REMARK  0 active torsions:
REMARK  status: ('A' for Active; 'I' for Inactive)
ROOT
ATOM      1  C   UNL d   1      -0.049   0.094  -0.761  0.00  0.00     0.023 A 
ATOM      2  C1  UNL d   1       1.262  -0.286  -1.048  0.00  0.00     0.003 A 
ATOM      3  C2  UNL d   1       1.667  -1.607  -0.849  0.00  0.00     0.048 A 
ATOM      4  C3  UNL d   1       0.756  -2.544  -0.363  0.00  0.00     0.023 A 
ATOM      5  C4  UNL d   1      -0.557  -2.168  -0.075  0.00  0.00     0.048 A 
ATOM      6  C5  UNL d   1      -0.958  -0.846  -0.275  0.00  0.00     0.003 A 
ATOM      7  I   UNL d   1       1.356  -4.511  -0.065  0.00  0.00    -0.146 I 
ENDROOT
TORSDOF 0
ENDMDL
