MODEL 1
REMARK minimizedAffinity 0.396881312
REMARK minimizedRMSD -1
REMARK  0 active torsions:
REMARK  status: ('A' for Active; 'I' for Inactive)
ROOT
ATOM      1  C   UNL d   1       0.960  -0.525  -1.120  0.00  0.00     0.023 A 
ATOM      2  C1  UNL d   1      -0.226  -1.030  -0.586  0.00  0.00     0.003 A 
ATOM      3  C2  UNL d   1      -0.241  -2.289   0.017  0.00  0.00     0.048 A 
ATOM      4  C3  UNL d   1       0.934  -3.038   0.085  0.00  0.00     0.023 A 
ATOM      5  C4  UNL d   1       2.123  -2.536  -0.446  0.00  0.00     0.048 A 
ATOM      6  C5  UNL d   1       2.133  -1.277  -1.049  0.00  0.00     0.003 A 
ATOM      7  I   UNL d   1       0.914  -4.912   0.984  0.00  0.00    -0.146 I 
ENDROOT
TORSDOF 0
ENDMDL
