MODEL 1
REMARK minimizedAffinity 7.97949314
REMARK minimizedRMSD -1
REMARK  0 active torsions:
REMARK  status: ('A' for Active; 'I' for Inactive)
ROOT
ATOM      1  C   UNL d   1      -0.227  -5.899   1.107  0.00  0.00     0.023 A 
ATOM      2  C1  UNL d   1       1.164  -5.946   1.028  0.00  0.00     0.003 A 
ATOM      3  C2  UNL d   1       1.875  -4.850   0.535  0.00  0.00     0.048 A 
ATOM      4  C3  UNL d   1       1.187  -3.708   0.123  0.00  0.00     0.023 A 
ATOM      5  C4  UNL d   1      -0.206  -3.656   0.202  0.00  0.00     0.048 A 
ATOM      6  C5  UNL d   1      -0.912  -4.755   0.694  0.00  0.00     0.003 A 
ATOM      7  I   UNL d   1       2.242  -2.075  -0.611  0.00  0.00    -0.146 I 
ENDROOT
TORSDOF 0
ENDMDL
