MODEL 1
REMARK minimizedAffinity -1.0052315
REMARK minimizedRMSD -1
REMARK  0 active torsions:
REMARK  status: ('A' for Active; 'I' for Inactive)
ROOT
ATOM      1  C   UNL d   1       0.831  -0.299  -1.081  0.00  0.00     0.023 A 
ATOM      2  C1  UNL d   1       1.923  -1.106  -1.401  0.00  0.00     0.003 A 
ATOM      3  C2  UNL d   1       2.093  -2.338  -0.765  0.00  0.00     0.048 A 
ATOM      4  C3  UNL d   1       1.166  -2.756   0.189  0.00  0.00     0.023 A 
ATOM      5  C4  UNL d   1       0.072  -1.953   0.512  0.00  0.00     0.048 A 
ATOM      6  C5  UNL d   1      -0.094  -0.722  -0.126  0.00  0.00     0.003 A 
ATOM      7  I   UNL d   1       1.417  -4.589   1.137  0.00  0.00    -0.146 I 
ENDROOT
TORSDOF 0
ENDMDL
