MODEL 1
REMARK minimizedAffinity 4.1203742
REMARK minimizedRMSD -1
REMARK  0 active torsions:
REMARK  status: ('A' for Active; 'I' for Inactive)
ROOT
ATOM      1  C   UNL d   1       0.667  -0.808  -0.903  0.00  0.00     0.023 A 
ATOM      2  C1  UNL d   1      -0.418  -1.401  -0.258  0.00  0.00     0.003 A 
ATOM      3  C2  UNL d   1      -0.272  -2.648   0.354  0.00  0.00     0.048 A 
ATOM      4  C3  UNL d   1       0.963  -3.295   0.318  0.00  0.00     0.023 A 
ATOM      5  C4  UNL d   1       2.051  -2.705  -0.326  0.00  0.00     0.048 A 
ATOM      6  C5  UNL d   1       1.900  -1.459  -0.937  0.00  0.00     0.003 A 
ATOM      7  I   UNL d   1       1.183  -5.151   1.228  0.00  0.00    -0.146 I 
ENDROOT
TORSDOF 0
ENDMDL
