MODEL 1
REMARK minimizedAffinity -2.83081484
REMARK minimizedRMSD -1
REMARK  0 active torsions:
REMARK  status: ('A' for Active; 'I' for Inactive)
ROOT
ATOM      1  C   UNL d   1       1.647   0.069  -0.771  0.00  0.00     0.023 A 
ATOM      2  C1  UNL d   1       0.424  -0.556  -1.015  0.00  0.00     0.003 A 
ATOM      3  C2  UNL d   1       0.202  -1.859  -0.563  0.00  0.00     0.048 A 
ATOM      4  C3  UNL d   1       1.206  -2.530   0.133  0.00  0.00     0.023 A 
ATOM      5  C4  UNL d   1       2.431  -1.908   0.380  0.00  0.00     0.048 A 
ATOM      6  C5  UNL d   1       2.649  -0.606  -0.074  0.00  0.00     0.003 A 
ATOM      7  I   UNL d   1       0.878  -4.468   0.807  0.00  0.00    -0.146 I 
ENDROOT
TORSDOF 0
ENDMDL
