MODEL 1
REMARK minimizedAffinity -5.28377104
REMARK minimizedRMSD -1
REMARK  0 active torsions:
REMARK  status: ('A' for Active; 'I' for Inactive)
ROOT
ATOM      1  C   UNL d   1       0.957  -0.440  -0.261  0.00  0.00     0.023 A 
ATOM      2  C1  UNL d   1      -0.160  -1.242  -0.497  0.00  0.00     0.003 A 
ATOM      3  C2  UNL d   1      -0.086  -2.621  -0.293  0.00  0.00     0.048 A 
ATOM      4  C3  UNL d   1       1.108  -3.192   0.146  0.00  0.00     0.023 A 
ATOM      5  C4  UNL d   1       2.228  -2.394   0.384  0.00  0.00     0.048 A 
ATOM      6  C5  UNL d   1       2.149  -1.015   0.178  0.00  0.00     0.003 A 
ATOM      7  I   UNL d   1       1.220  -5.245   0.450  0.00  0.00    -0.146 I 
ENDROOT
TORSDOF 0
ENDMDL
