MODEL 1
REMARK minimizedAffinity 7.5825386
REMARK minimizedRMSD -1
REMARK  0 active torsions:
REMARK  status: ('A' for Active; 'I' for Inactive)
ROOT
ATOM      1  C   UNL d   1      -0.682  -0.527  -1.633  0.00  0.00     0.023 A 
ATOM      2  C1  UNL d   1      -0.802  -1.774  -1.020  0.00  0.00     0.003 A 
ATOM      3  C2  UNL d   1       0.274  -2.309  -0.308  0.00  0.00     0.048 A 
ATOM      4  C3  UNL d   1       1.466  -1.592  -0.214  0.00  0.00     0.023 A 
ATOM      5  C4  UNL d   1       1.590  -0.344  -0.826  0.00  0.00     0.048 A 
ATOM      6  C5  UNL d   1       0.512   0.187  -1.536  0.00  0.00     0.003 A 
ATOM      7  I   UNL d   1       3.069  -2.387   0.844  0.00  0.00    -0.146 I 
ENDROOT
TORSDOF 0
ENDMDL
