MODEL 1
REMARK minimizedAffinity -1.06769907
REMARK minimizedRMSD -1
REMARK  0 active torsions:
REMARK  status: ('A' for Active; 'I' for Inactive)
ROOT
ATOM      1  C   UNL d   1       1.145  -0.866  -1.365  0.00  0.00     0.023 A 
ATOM      2  C1  UNL d   1      -0.246  -0.813  -1.283  0.00  0.00     0.003 A 
ATOM      3  C2  UNL d   1      -0.950  -1.847  -0.662  0.00  0.00     0.048 A 
ATOM      4  C3  UNL d   1      -0.256  -2.931  -0.125  0.00  0.00     0.023 A 
ATOM      5  C4  UNL d   1       1.136  -2.988  -0.204  0.00  0.00     0.048 A 
ATOM      6  C5  UNL d   1       1.836  -1.952  -0.826  0.00  0.00     0.003 A 
ATOM      7  I   UNL d   1      -1.302  -4.471   0.800  0.00  0.00    -0.146 I 
ENDROOT
TORSDOF 0
ENDMDL
