MODEL 1
REMARK minimizedAffinity -1.47979212
REMARK minimizedRMSD -1
REMARK  0 active torsions:
REMARK  status: ('A' for Active; 'I' for Inactive)
ROOT
ATOM      1  C   UNL d   1       0.559  -1.151  -0.350  0.00  0.00     0.023 A 
ATOM      2  C1  UNL d   1      -0.537  -1.912   0.055  0.00  0.00     0.003 A 
ATOM      3  C2  UNL d   1      -0.366  -3.250   0.414  0.00  0.00     0.048 A 
ATOM      4  C3  UNL d   1       0.906  -3.821   0.366  0.00  0.00     0.023 A 
ATOM      5  C4  UNL d   1       2.006  -3.063  -0.038  0.00  0.00     0.048 A 
ATOM      6  C5  UNL d   1       1.829  -1.726  -0.396  0.00  0.00     0.003 A 
ATOM      7  I   UNL d   1       1.164  -5.813   0.900  0.00  0.00    -0.146 I 
ENDROOT
TORSDOF 0
ENDMDL
