MODEL 1
REMARK minimizedAffinity -1.31702971
REMARK minimizedRMSD -1
REMARK  0 active torsions:
REMARK  status: ('A' for Active; 'I' for Inactive)
ROOT
ATOM      1  C   UNL d   1       0.776  -0.818  -1.122  0.00  0.00     0.023 A 
ATOM      2  C1  UNL d   1       1.956  -1.552  -1.001  0.00  0.00     0.003 A 
ATOM      3  C2  UNL d   1       1.961  -2.759  -0.299  0.00  0.00     0.048 A 
ATOM      4  C3  UNL d   1       0.781  -3.226   0.280  0.00  0.00     0.023 A 
ATOM      5  C4  UNL d   1      -0.402  -2.495   0.162  0.00  0.00     0.048 A 
ATOM      6  C5  UNL d   1      -0.401  -1.289  -0.541  0.00  0.00     0.003 A 
ATOM      7  I   UNL d   1       0.785  -5.022   1.327  0.00  0.00    -0.146 I 
ENDROOT
TORSDOF 0
ENDMDL
