MODEL 1
REMARK minimizedAffinity 2.00599575
REMARK minimizedRMSD -1
REMARK  0 active torsions:
REMARK  status: ('A' for Active; 'I' for Inactive)
ROOT
ATOM      1  C   UNL d   1       0.226  -4.731   1.006  0.00  0.00     0.023 A 
ATOM      2  C1  UNL d   1      -0.746  -3.834   0.560  0.00  0.00     0.003 A 
ATOM      3  C2  UNL d   1      -0.380  -2.741  -0.227  0.00  0.00     0.048 A 
ATOM      4  C3  UNL d   1       0.959  -2.550  -0.566  0.00  0.00     0.023 A 
ATOM      5  C4  UNL d   1       1.935  -3.446  -0.124  0.00  0.00     0.048 A 
ATOM      6  C5  UNL d   1       1.564  -4.537   0.664  0.00  0.00     0.003 A 
ATOM      7  I   UNL d   1       1.506  -0.924  -1.739  0.00  0.00    -0.146 I 
ENDROOT
TORSDOF 0
ENDMDL
