MODEL 1
REMARK minimizedAffinity -1.47330236
REMARK minimizedRMSD -1
REMARK  0 active torsions:
REMARK  status: ('A' for Active; 'I' for Inactive)
ROOT
ATOM      1  C   UNL d   1       0.645  -5.163   1.359  0.00  0.00     0.023 A 
ATOM      2  C1  UNL d   1       1.840  -4.584   0.931  0.00  0.00     0.003 A 
ATOM      3  C2  UNL d   1       1.833  -3.319   0.341  0.00  0.00     0.048 A 
ATOM      4  C3  UNL d   1       0.627  -2.637   0.183  0.00  0.00     0.023 A 
ATOM      5  C4  UNL d   1      -0.571  -3.211   0.611  0.00  0.00     0.048 A 
ATOM      6  C5  UNL d   1      -0.559  -4.477   1.199  0.00  0.00     0.003 A 
ATOM      7  I   UNL d   1       0.613  -0.753  -0.695  0.00  0.00    -0.146 I 
ENDROOT
TORSDOF 0
ENDMDL
