MODEL 1
REMARK minimizedAffinity 7.28752422
REMARK minimizedRMSD -1
REMARK  0 active torsions:
REMARK  status: ('A' for Active; 'I' for Inactive)
ROOT
ATOM      1  C   UNL d   1       2.196   1.130   3.125  0.00  0.00     0.078 C 
ATOM      2  C1  UNL d   1       1.872  -0.113   3.899  0.00  0.00    -0.077 A 
ATOM      3  C2  UNL d   1       1.848  -1.366   3.275  0.00  0.00    -0.001 A 
ATOM      4  C3  UNL d   1       1.535  -2.513   4.006  0.00  0.00     0.003 A 
ATOM      5  C4  UNL d   1       1.243  -2.418   5.365  0.00  0.00    -0.005 A 
ATOM      6  C5  UNL d   1       1.262  -1.175   5.995  0.00  0.00     0.003 A 
ATOM      7  C6  UNL d   1       1.575  -0.027   5.265  0.00  0.00    -0.001 A 
ENDROOT
TORSDOF 0
ENDMDL
