MODEL 1
REMARK minimizedAffinity 7.49858713
REMARK minimizedRMSD -1
REMARK  0 active torsions:
REMARK  status: ('A' for Active; 'I' for Inactive)
ROOT
ATOM      1  C   UNL d   1      -1.498   6.000  -2.719  0.00  0.00     0.078 C 
ATOM      2  C1  UNL d   1      -0.901   5.201  -1.600  0.00  0.00    -0.077 A 
ATOM      3  C2  UNL d   1      -0.491   3.876  -1.797  0.00  0.00    -0.001 A 
ATOM      4  C3  UNL d   1       0.054   3.141  -0.743  0.00  0.00     0.003 A 
ATOM      5  C4  UNL d   1       0.193   3.721   0.516  0.00  0.00    -0.005 A 
ATOM      6  C5  UNL d   1      -0.214   5.038   0.723  0.00  0.00     0.003 A 
ATOM      7  C6  UNL d   1      -0.759   5.775  -0.330  0.00  0.00    -0.001 A 
ENDROOT
TORSDOF 0
ENDMDL
