MODEL 1
REMARK minimizedAffinity 0.0252110101
REMARK minimizedRMSD -1
REMARK  0 active torsions:
REMARK  status: ('A' for Active; 'I' for Inactive)
ROOT
ATOM      1  C   UNL d   1       0.011   3.171   0.713  0.00  0.00     0.078 C 
ATOM      2  C1  UNL d   1      -0.426   4.046  -0.424  0.00  0.00    -0.077 A 
ATOM      3  C2  UNL d   1      -1.186   5.200  -0.196  0.00  0.00    -0.001 A 
ATOM      4  C3  UNL d   1      -1.594   5.999  -1.264  0.00  0.00     0.003 A 
ATOM      5  C4  UNL d   1      -1.249   5.653  -2.569  0.00  0.00    -0.005 A 
ATOM      6  C5  UNL d   1      -0.495   4.505  -2.807  0.00  0.00     0.003 A 
ATOM      7  C6  UNL d   1      -0.085   3.705  -1.739  0.00  0.00    -0.001 A 
ENDROOT
TORSDOF 0
ENDMDL
