MODEL 1
REMARK minimizedAffinity 7.21112633
REMARK minimizedRMSD -1
REMARK  0 active torsions:
REMARK  status: ('A' for Active; 'I' for Inactive)
ROOT
ATOM      1  C   UNL d   1       0.115   3.362  -0.171  0.00  0.00     0.078 C 
ATOM      2  C1  UNL d   1       0.076   2.619   1.131  0.00  0.00    -0.077 A 
ATOM      3  C2  UNL d   1       1.254   2.306   1.818  0.00  0.00    -0.001 A 
ATOM      4  C3  UNL d   1       1.203   1.605   3.024  0.00  0.00     0.003 A 
ATOM      5  C4  UNL d   1      -0.024   1.210   3.552  0.00  0.00    -0.005 A 
ATOM      6  C5  UNL d   1      -1.202   1.514   2.874  0.00  0.00     0.003 A 
ATOM      7  C6  UNL d   1      -1.153   2.215   1.668  0.00  0.00    -0.001 A 
ENDROOT
TORSDOF 0
ENDMDL
