MODEL 1
REMARK minimizedAffinity 9.88902187
REMARK minimizedRMSD -1
REMARK  0 active torsions:
REMARK  status: ('A' for Active; 'I' for Inactive)
ROOT
ATOM      1  C   UNL d   1      -5.907   1.619  -4.189  0.00  0.00     0.078 C 
ATOM      2  C1  UNL d   1      -5.875   2.139  -2.783  0.00  0.00    -0.077 A 
ATOM      3  C2  UNL d   1      -5.992   1.271  -1.690  0.00  0.00    -0.001 A 
ATOM      4  C3  UNL d   1      -5.970   1.770  -0.387  0.00  0.00     0.003 A 
ATOM      5  C4  UNL d   1      -5.832   3.139  -0.164  0.00  0.00    -0.005 A 
ATOM      6  C5  UNL d   1      -5.716   4.010  -1.245  0.00  0.00     0.003 A 
ATOM      7  C6  UNL d   1      -5.738   3.513  -2.549  0.00  0.00    -0.001 A 
ENDROOT
TORSDOF 0
ENDMDL
