MODEL 1
REMARK minimizedAffinity 6.20394373
REMARK minimizedRMSD -1
REMARK  0 active torsions:
REMARK  status: ('A' for Active; 'I' for Inactive)
ROOT
ATOM      1  C   UNL d   1       0.011   2.332  -0.010  0.00  0.00     0.078 C 
ATOM      2  C1  UNL d   1      -0.347   3.590  -0.742  0.00  0.00    -0.077 A 
ATOM      3  C2  UNL d   1      -0.698   3.562  -2.098  0.00  0.00    -0.001 A 
ATOM      4  C3  UNL d   1      -1.019   4.743  -2.768  0.00  0.00     0.003 A 
ATOM      5  C4  UNL d   1      -0.992   5.961  -2.093  0.00  0.00    -0.005 A 
ATOM      6  C5  UNL d   1      -0.643   6.000  -0.744  0.00  0.00     0.003 A 
ATOM      7  C6  UNL d   1      -0.321   4.820  -0.072  0.00  0.00    -0.001 A 
ENDROOT
TORSDOF 0
ENDMDL
