MODEL 1
REMARK minimizedAffinity -1.90755975
REMARK minimizedRMSD -1
REMARK  0 active torsions:
REMARK  status: ('A' for Active; 'I' for Inactive)
ROOT
ATOM      1  C   UNL d   1       0.059   3.989  -0.458  0.00  0.00     0.078 C 
ATOM      2  C1  UNL d   1       0.605   3.653   0.897  0.00  0.00    -0.077 A 
ATOM      3  C2  UNL d   1       1.983   3.681   1.146  0.00  0.00    -0.001 A 
ATOM      4  C3  UNL d   1       2.478   3.357   2.410  0.00  0.00     0.003 A 
ATOM      5  C4  UNL d   1       1.603   3.002   3.435  0.00  0.00    -0.005 A 
ATOM      6  C5  UNL d   1       0.230   2.970   3.196  0.00  0.00     0.003 A 
ATOM      7  C6  UNL d   1      -0.267   3.293   1.932  0.00  0.00    -0.001 A 
ENDROOT
TORSDOF 0
ENDMDL
