MODEL 1
REMARK minimizedAffinity -3.95889568
REMARK minimizedRMSD -1
REMARK  1 active torsions:
REMARK  status: ('A' for Active; 'I' for Inactive)
REMARK    1  A    between atoms: C1_2  and  C2_3 
ROOT
ATOM      1  C2  UNL d   1      -0.150   0.278   0.721  0.00  0.00    -0.077 A 
ATOM      2  C3  UNL d   1      -0.940   1.395   1.027  0.00  0.00     0.002 A 
ATOM      3  C4  UNL d   1      -0.679   2.153   2.170  0.00  0.00     0.002 A 
ATOM      4  C5  UNL d   1       0.374   1.804   3.014  0.00  0.00    -0.004 A 
ATOM      5  C6  UNL d   1       1.164   0.694   2.719  0.00  0.00     0.002 A 
ATOM      6  C7  UNL d   1       0.904  -0.065   1.578  0.00  0.00     0.002 A 
ENDROOT
BRANCH   1   7
ATOM      7  C1  UNL d   1      -0.398  -0.512  -0.538  0.00  0.00     0.055 C 
ATOM      8  C   UNL d   1       0.872  -1.195  -1.023  0.00  0.00     0.019 C 
ENDBRANCH   1   7
TORSDOF 1
ENDMDL
