MODEL 1
REMARK minimizedAffinity -5.85853386
REMARK minimizedRMSD -1
REMARK  1 active torsions:
REMARK  status: ('A' for Active; 'I' for Inactive)
REMARK    1  A    between atoms: C1_2  and  C2_3 
ROOT
ATOM      1  C2  UNL d   1       0.117  -0.087   0.269  0.00  0.00    -0.077 A 
ATOM      2  C3  UNL d   1      -0.686   0.941  -0.245  0.00  0.00     0.002 A 
ATOM      3  C4  UNL d   1      -1.208   1.920   0.603  0.00  0.00     0.002 A 
ATOM      4  C5  UNL d   1      -0.928   1.884   1.968  0.00  0.00    -0.004 A 
ATOM      5  C6  UNL d   1      -0.132   0.864   2.488  0.00  0.00     0.002 A 
ATOM      6  C7  UNL d   1       0.389  -0.116   1.643  0.00  0.00     0.002 A 
ENDROOT
BRANCH   1   7
ATOM      7  C1  UNL d   1       0.720  -1.116  -0.651  0.00  0.00     0.055 C 
ATOM      8  C   UNL d   1      -0.253  -2.254  -0.923  0.00  0.00     0.019 C 
ENDBRANCH   1   7
TORSDOF 1
ENDMDL
