MODEL 1
REMARK minimizedAffinity -3.69971657
REMARK minimizedRMSD -1
REMARK  1 active torsions:
REMARK  status: ('A' for Active; 'I' for Inactive)
REMARK    1  A    between atoms: C1_2  and  C2_3 
ROOT
ATOM      1  C2  UNL d   1       0.237  -0.427   0.177  0.00  0.00    -0.077 A 
ATOM      2  C3  UNL d   1      -0.742   0.485  -0.242  0.00  0.00     0.002 A 
ATOM      3  C4  UNL d   1      -1.143   1.526   0.597  0.00  0.00     0.002 A 
ATOM      4  C5  UNL d   1      -0.568   1.667   1.858  0.00  0.00    -0.004 A 
ATOM      5  C6  UNL d   1       0.405   0.764   2.285  0.00  0.00     0.002 A 
ATOM      6  C7  UNL d   1       0.807  -0.277   1.448  0.00  0.00     0.002 A 
ENDROOT
BRANCH   1   7
ATOM      7  C1  UNL d   1       0.707  -1.521  -0.746  0.00  0.00     0.055 C 
ATOM      8  C   UNL d   1      -0.425  -2.477  -1.093  0.00  0.00     0.019 C 
ENDBRANCH   1   7
TORSDOF 1
ENDMDL
