MODEL 1
REMARK minimizedAffinity -4.26257706
REMARK minimizedRMSD -1
REMARK  1 active torsions:
REMARK  status: ('A' for Active; 'I' for Inactive)
REMARK    1  A    between atoms: C1_2  and  C2_3 
ROOT
ATOM      1  C2  UNL d   1       0.266  -0.616   0.049  0.00  0.00    -0.077 A 
ATOM      2  C3  UNL d   1      -0.680   0.410  -0.087  0.00  0.00     0.002 A 
ATOM      3  C4  UNL d   1      -0.858   1.347   0.933  0.00  0.00     0.002 A 
ATOM      4  C5  UNL d   1      -0.092   1.269   2.094  0.00  0.00    -0.004 A 
ATOM      5  C6  UNL d   1       0.850   0.251   2.240  0.00  0.00     0.002 A 
ATOM      6  C7  UNL d   1       1.029  -0.687   1.222  0.00  0.00     0.002 A 
ENDROOT
BRANCH   1   7
ATOM      7  C1  UNL d   1       0.494  -1.597  -1.070  0.00  0.00     0.055 C 
ATOM      8  C   UNL d   1      -0.607  -2.648  -1.118  0.00  0.00     0.019 C 
ENDBRANCH   1   7
TORSDOF 1
ENDMDL
