MODEL 1
REMARK minimizedAffinity -2.66158605
REMARK minimizedRMSD -1
REMARK  1 active torsions:
REMARK  status: ('A' for Active; 'I' for Inactive)
REMARK    1  A    between atoms: C1_2  and  C2_3 
ROOT
ATOM      1  C2  UNL d   1       0.482   0.085   0.588  0.00  0.00    -0.077 A 
ATOM      2  C3  UNL d   1       0.223   1.462   0.542  0.00  0.00     0.002 A 
ATOM      3  C4  UNL d   1       0.029   2.184   1.722  0.00  0.00     0.002 A 
ATOM      4  C5  UNL d   1       0.097   1.539   2.955  0.00  0.00    -0.004 A 
ATOM      5  C6  UNL d   1       0.352   0.169   3.011  0.00  0.00     0.002 A 
ATOM      6  C7  UNL d   1       0.544  -0.554   1.833  0.00  0.00     0.002 A 
ENDROOT
BRANCH   1   7
ATOM      7  C1  UNL d   1       0.740  -0.686  -0.680  0.00  0.00     0.055 C 
ATOM      8  C   UNL d   1       0.313  -2.140  -0.540  0.00  0.00     0.019 C 
ENDBRANCH   1   7
TORSDOF 1
ENDMDL
