MODEL 1
REMARK minimizedAffinity -1.7015332
REMARK minimizedRMSD -1
REMARK  1 active torsions:
REMARK  status: ('A' for Active; 'I' for Inactive)
REMARK    1  A    between atoms: C1_2  and  C2_3 
ROOT
ATOM      1  C2  UNL d   1       0.081  -1.530  -0.684  0.00  0.00    -0.077 A 
ATOM      2  C3  UNL d   1      -1.007  -1.713  -1.548  0.00  0.00     0.002 A 
ATOM      3  C4  UNL d   1      -1.424  -2.999  -1.896  0.00  0.00     0.002 A 
ATOM      4  C5  UNL d   1      -0.763  -4.112  -1.380  0.00  0.00    -0.004 A 
ATOM      5  C6  UNL d   1       0.322  -3.940  -0.521  0.00  0.00     0.002 A 
ATOM      6  C7  UNL d   1       0.742  -2.655  -0.173  0.00  0.00     0.002 A 
ENDROOT
BRANCH   1   7
ATOM      7  C1  UNL d   1       0.502  -0.144  -0.269  0.00  0.00     0.055 C 
ATOM      8  C   UNL d   1       0.439   0.025   1.242  0.00  0.00     0.019 C 
ENDBRANCH   1   7
TORSDOF 1
ENDMDL
