MODEL 1
REMARK minimizedAffinity 3.07238936
REMARK minimizedRMSD -1
REMARK  1 active torsions:
REMARK  status: ('A' for Active; 'I' for Inactive)
REMARK    1  A    between atoms: C1_2  and  C2_3 
ROOT
ATOM      1  C2  UNL d   1      -2.169   2.518  -1.048  0.00  0.00    -0.077 A 
ATOM      2  C3  UNL d   1      -1.025   3.212  -0.629  0.00  0.00     0.002 A 
ATOM      3  C4  UNL d   1       0.208   2.560  -0.553  0.00  0.00     0.002 A 
ATOM      4  C5  UNL d   1       0.308   1.214  -0.898  0.00  0.00    -0.004 A 
ATOM      5  C6  UNL d   1      -0.825   0.515  -1.314  0.00  0.00     0.002 A 
ATOM      6  C7  UNL d   1      -2.057   1.165  -1.389  0.00  0.00     0.002 A 
ENDROOT
BRANCH   1   7
ATOM      7  C1  UNL d   1      -3.489   3.232  -1.177  0.00  0.00     0.055 C 
ATOM      8  C   UNL d   1      -3.681   3.791  -2.580  0.00  0.00     0.019 C 
ENDBRANCH   1   7
TORSDOF 1
ENDMDL
