MODEL 1
REMARK minimizedAffinity 2.96304536
REMARK minimizedRMSD -1
REMARK  1 active torsions:
REMARK  status: ('A' for Active; 'I' for Inactive)
REMARK    1  A    between atoms: C1_2  and  C2_3 
ROOT
ATOM      1  C2  UNL d   1       3.454  -1.344  -0.465  0.00  0.00    -0.077 A 
ATOM      2  C3  UNL d   1       4.300  -0.523  -1.223  0.00  0.00     0.002 A 
ATOM      3  C4  UNL d   1       5.457  -1.046  -1.804  0.00  0.00     0.002 A 
ATOM      4  C5  UNL d   1       5.776  -2.392  -1.637  0.00  0.00    -0.004 A 
ATOM      5  C6  UNL d   1       4.941  -3.216  -0.883  0.00  0.00     0.002 A 
ATOM      6  C7  UNL d   1       3.785  -2.695  -0.300  0.00  0.00     0.002 A 
ENDROOT
BRANCH   1   7
ATOM      7  C1  UNL d   1       2.180  -0.794   0.122  0.00  0.00     0.055 C 
ATOM      8  C   UNL d   1       1.347  -0.082  -0.934  0.00  0.00     0.019 C 
ENDBRANCH   1   7
TORSDOF 1
ENDMDL
