MODEL 1
REMARK minimizedAffinity 4.24111128
REMARK minimizedRMSD -1
REMARK  1 active torsions:
REMARK  status: ('A' for Active; 'I' for Inactive)
REMARK    1  A    between atoms: C1_2  and  C2_3 
ROOT
ATOM      1  C2  UNL d   1      -3.509   2.105  -1.623  0.00  0.00    -0.077 A 
ATOM      2  C3  UNL d   1      -4.495   1.489  -2.406  0.00  0.00     0.002 A 
ATOM      3  C4  UNL d   1      -5.211   2.228  -3.350  0.00  0.00     0.002 A 
ATOM      4  C5  UNL d   1      -4.945   3.585  -3.522  0.00  0.00    -0.004 A 
ATOM      5  C6  UNL d   1      -3.968   4.207  -2.746  0.00  0.00     0.002 A 
ATOM      6  C7  UNL d   1      -3.252   3.470  -1.802  0.00  0.00     0.002 A 
ENDROOT
BRANCH   1   7
ATOM      7  C1  UNL d   1      -2.701   1.299  -0.639  0.00  0.00     0.055 C 
ATOM      8  C   UNL d   1      -1.273   1.103  -1.125  0.00  0.00     0.019 C 
ENDBRANCH   1   7
TORSDOF 1
ENDMDL
