MODEL 1
REMARK minimizedAffinity 11.2723579
REMARK minimizedRMSD -1
REMARK  0 active torsions:
REMARK  status: ('A' for Active; 'I' for Inactive)
ROOT
ATOM      1  C4' PXY d   1       5.998  -4.765  -5.848  0.00  0.00     0.077 C 
ATOM      2  C1' PXY d   1       3.212   0.299  -5.960  0.00  0.00     0.077 C 
ATOM      3  C1  PXY d   1       3.953  -1.023  -5.937  0.00  0.00    -0.082 A 
ATOM      4  C2  PXY d   1       3.271  -2.154  -5.849  0.00  0.00     0.003 A 
ATOM      5  C3  PXY d   1       3.926  -3.357  -5.795  0.00  0.00     0.003 A 
ATOM      6  C4  PXY d   1       5.292  -3.407  -5.884  0.00  0.00    -0.082 A 
ATOM      7  C5  PXY d   1       5.994  -2.258  -5.985  0.00  0.00     0.003 A 
ATOM      8  C6  PXY d   1       5.312  -1.045  -5.997  0.00  0.00     0.003 A 
ENDROOT
TORSDOF 0
ENDMDL
