MODEL 1
REMARK minimizedAffinity 20.9856644
REMARK minimizedRMSD -1
REMARK  0 active torsions:
REMARK  status: ('A' for Active; 'I' for Inactive)
ROOT
ATOM      1  C4' PXY d   1      -1.245   0.021  -2.277  0.00  0.00     0.077 C 
ATOM      2  C1' PXY d   1       3.542  -2.839  -0.754  0.00  0.00     0.077 C 
ATOM      3  C1  PXY d   1       2.292  -2.077  -1.150  0.00  0.00    -0.082 A 
ATOM      4  C2  PXY d   1       1.126  -2.701  -1.171  0.00  0.00     0.003 A 
ATOM      5  C3  PXY d   1      -0.010  -2.036  -1.558  0.00  0.00     0.003 A 
ATOM      6  C4  PXY d   1       0.041  -0.705  -1.874  0.00  0.00    -0.082 A 
ATOM      7  C5  PXY d   1       1.226  -0.059  -1.845  0.00  0.00     0.003 A 
ATOM      8  C6  PXY d   1       2.373  -0.762  -1.490  0.00  0.00     0.003 A 
ENDROOT
TORSDOF 0
ENDMDL
