MODEL 1
REMARK minimizedAffinity 12.255497
REMARK minimizedRMSD -1
REMARK  0 active torsions:
REMARK  status: ('A' for Active; 'I' for Inactive)
ROOT
ATOM      1  C4' PXY d   1       0.617  -4.937  -3.464  0.00  0.00     0.077 C 
ATOM      2  C1' PXY d   1       2.143  -0.030  -0.817  0.00  0.00     0.077 C 
ATOM      3  C1  PXY d   1       1.735  -1.320  -1.501  0.00  0.00    -0.082 A 
ATOM      4  C2  PXY d   1       2.530  -1.856  -2.412  0.00  0.00     0.003 A 
ATOM      5  C3  PXY d   1       2.162  -3.005  -3.064  0.00  0.00     0.003 A 
ATOM      6  C4  PXY d   1       0.993  -3.640  -2.741  0.00  0.00    -0.082 A 
ATOM      7  C5  PXY d   1       0.181  -3.105  -1.804  0.00  0.00     0.003 A 
ATOM      8  C6  PXY d   1       0.554  -1.916  -1.184  0.00  0.00     0.003 A 
ENDROOT
TORSDOF 0
ENDMDL
