MODEL 1
REMARK minimizedAffinity 10.6384668
REMARK minimizedRMSD -1
REMARK  0 active torsions:
REMARK  status: ('A' for Active; 'I' for Inactive)
ROOT
ATOM      1  C4' PXY d   1      -4.129  -2.731   4.790  0.00  0.00     0.077 C 
ATOM      2  C1' PXY d   1      -3.845   3.043   4.842  0.00  0.00     0.077 C 
ATOM      3  C1  PXY d   1      -3.912   1.528   4.840  0.00  0.00    -0.082 A 
ATOM      4  C2  PXY d   1      -4.136   0.886   3.705  0.00  0.00     0.003 A 
ATOM      5  C3  PXY d   1      -4.232  -0.482   3.690  0.00  0.00     0.003 A 
ATOM      6  C4  PXY d   1      -4.044  -1.203   4.839  0.00  0.00    -0.082 A 
ATOM      7  C5  PXY d   1      -3.804  -0.555   5.999  0.00  0.00     0.003 A 
ATOM      8  C6  PXY d   1      -3.752   0.836   6.000  0.00  0.00     0.003 A 
ENDROOT
TORSDOF 0
ENDMDL
