MODEL 1
REMARK minimizedAffinity 12.3060226
REMARK minimizedRMSD -1
REMARK  0 active torsions:
REMARK  status: ('A' for Active; 'I' for Inactive)
ROOT
ATOM      1  C4' PXY d   1       3.020  -4.022  -0.183  0.00  0.00     0.077 C 
ATOM      2  C1' PXY d   1       1.624   1.348  -1.806  0.00  0.00     0.077 C 
ATOM      3  C1  PXY d   1       1.978  -0.064  -1.381  0.00  0.00    -0.082 A 
ATOM      4  C2  PXY d   1       3.070  -0.278  -0.665  0.00  0.00     0.003 A 
ATOM      5  C3  PXY d   1       3.421  -1.552  -0.300  0.00  0.00     0.003 A 
ATOM      6  C4  PXY d   1       2.619  -2.612  -0.626  0.00  0.00    -0.082 A 
ATOM      7  C5  PXY d   1       1.498  -2.401  -1.347  0.00  0.00     0.003 A 
ATOM      8  C6  PXY d   1       1.180  -1.105  -1.744  0.00  0.00     0.003 A 
ENDROOT
TORSDOF 0
ENDMDL
