MODEL 1
REMARK minimizedAffinity 5.95260906
REMARK minimizedRMSD -1
REMARK  0 active torsions:
REMARK  status: ('A' for Active; 'I' for Inactive)
ROOT
ATOM      1  C4' PXY d   1      -0.457  -5.656  -3.741  0.00  0.00     0.077 C 
ATOM      2  C1' PXY d   1      -4.887  -2.709  -5.999  0.00  0.00     0.077 C 
ATOM      3  C1  PXY d   1      -3.730  -3.492  -5.412  0.00  0.00    -0.082 A 
ATOM      4  C2  PXY d   1      -3.114  -3.040  -4.333  0.00  0.00     0.003 A 
ATOM      5  C3  PXY d   1      -2.045  -3.719  -3.808  0.00  0.00     0.003 A 
ATOM      6  C4  PXY d   1      -1.636  -4.902  -4.362  0.00  0.00    -0.082 A 
ATOM      7  C5  PXY d   1      -2.266  -5.377  -5.458  0.00  0.00     0.003 A 
ATOM      8  C6  PXY d   1      -3.323  -4.650  -6.000  0.00  0.00     0.003 A 
ENDROOT
TORSDOF 0
ENDMDL
