MODEL 1
REMARK minimizedAffinity 7.75575256
REMARK minimizedRMSD -1
REMARK  0 active torsions:
REMARK  status: ('A' for Active; 'I' for Inactive)
ROOT
ATOM      1  C4' PXY d   1      -4.806  -2.388  -5.990  0.00  0.00     0.077 C 
ATOM      2  C1' PXY d   1      -0.710  -5.502  -3.356  0.00  0.00     0.077 C 
ATOM      3  C1  PXY d   1      -1.783  -4.693  -4.058  0.00  0.00    -0.082 A 
ATOM      4  C2  PXY d   1      -2.050  -3.464  -3.645  0.00  0.00     0.003 A 
ATOM      5  C3  PXY d   1      -3.039  -2.730  -4.248  0.00  0.00     0.003 A 
ATOM      6  C4  PXY d   1      -3.725  -3.238  -5.318  0.00  0.00    -0.082 A 
ATOM      7  C5  PXY d   1      -3.451  -4.487  -5.752  0.00  0.00     0.003 A 
ATOM      8  C6  PXY d   1      -2.472  -5.231  -5.100  0.00  0.00     0.003 A 
ENDROOT
TORSDOF 0
ENDMDL
