MODEL 1
REMARK minimizedAffinity -0.465399832
REMARK minimizedRMSD -1
REMARK  0 active torsions:
REMARK  status: ('A' for Active; 'I' for Inactive)
ROOT
ATOM      1  C4' PXY d   1      -4.885  -2.636  -6.000  0.00  0.00     0.077 C 
ATOM      2  C1' PXY d   1       0.054  -4.882  -4.007  0.00  0.00     0.077 C 
ATOM      3  C1  PXY d   1      -1.243  -4.287  -4.518  0.00  0.00    -0.082 A 
ATOM      4  C2  PXY d   1      -1.920  -4.912  -5.467  0.00  0.00     0.003 A 
ATOM      5  C3  PXY d   1      -3.078  -4.371  -5.964  0.00  0.00     0.003 A 
ATOM      6  C4  PXY d   1      -3.576  -3.205  -5.447  0.00  0.00    -0.082 A 
ATOM      7  C5  PXY d   1      -2.896  -2.567  -4.471  0.00  0.00     0.003 A 
ATOM      8  C6  PXY d   1      -1.701  -3.111  -4.009  0.00  0.00     0.003 A 
ENDROOT
TORSDOF 0
ENDMDL
