MODEL 1
REMARK minimizedAffinity 3.69005585
REMARK minimizedRMSD -1
REMARK  0 active torsions:
REMARK  status: ('A' for Active; 'I' for Inactive)
ROOT
ATOM      1  C4' PXY d   1      -5.228  -2.540  -6.000  0.00  0.00     0.077 C 
ATOM      2  C1' PXY d   1      -1.193  -5.998  -3.725  0.00  0.00     0.077 C 
ATOM      3  C1  PXY d   1      -2.251  -5.098  -4.332  0.00  0.00    -0.082 A 
ATOM      4  C2  PXY d   1      -2.419  -3.874  -3.859  0.00  0.00     0.003 A 
ATOM      5  C3  PXY d   1      -3.392  -3.058  -4.375  0.00  0.00     0.003 A 
ATOM      6  C4  PXY d   1      -4.166  -3.480  -5.423  0.00  0.00    -0.082 A 
ATOM      7  C5  PXY d   1      -3.993  -4.724  -5.919  0.00  0.00     0.003 A 
ATOM      8  C6  PXY d   1      -3.028  -5.552  -5.353  0.00  0.00     0.003 A 
ENDROOT
TORSDOF 0
ENDMDL
