MODEL 1
REMARK minimizedAffinity 10.7931242
REMARK minimizedRMSD -1
REMARK  0 active torsions:
REMARK  status: ('A' for Active; 'I' for Inactive)
ROOT
ATOM      1  C4' PXY d   1       4.363  -2.543  -0.075  0.00  0.00     0.077 C 
ATOM      2  C1' PXY d   1       2.887   2.837  -1.589  0.00  0.00     0.077 C 
ATOM      3  C1  PXY d   1       3.287   1.430  -1.191  0.00  0.00    -0.082 A 
ATOM      4  C2  PXY d   1       2.537   0.406  -1.566  0.00  0.00     0.003 A 
ATOM      5  C3  PXY d   1       2.866  -0.870  -1.188  0.00  0.00     0.003 A 
ATOM      6  C4  PXY d   1       4.003  -1.106  -0.462  0.00  0.00    -0.082 A 
ATOM      7  C5  PXY d   1       4.779  -0.068  -0.085  0.00  0.00     0.003 A 
ATOM      8  C6  PXY d   1       4.405   1.223  -0.444  0.00  0.00     0.003 A 
ENDROOT
TORSDOF 0
ENDMDL
