MODEL 1
REMARK minimizedAffinity 1.41595101
REMARK minimizedRMSD -1
REMARK  0 active torsions:
REMARK  status: ('A' for Active; 'I' for Inactive)
ROOT
ATOM      1  C4' PXY d   1      -4.954  -2.575  -6.000  0.00  0.00     0.077 C 
ATOM      2  C1' PXY d   1      -0.725  -5.522  -3.384  0.00  0.00     0.077 C 
ATOM      3  C1  PXY d   1      -1.831  -4.755  -4.082  0.00  0.00    -0.082 A 
ATOM      4  C2  PXY d   1      -2.225  -3.589  -3.597  0.00  0.00     0.003 A 
ATOM      5  C3  PXY d   1      -3.246  -2.897  -4.196  0.00  0.00     0.003 A 
ATOM      6  C4  PXY d   1      -3.834  -3.379  -5.334  0.00  0.00    -0.082 A 
ATOM      7  C5  PXY d   1      -3.432  -4.564  -5.841  0.00  0.00     0.003 A 
ATOM      8  C6  PXY d   1      -2.422  -5.270  -5.194  0.00  0.00     0.003 A 
ENDROOT
TORSDOF 0
ENDMDL
