MODEL 1
REMARK minimizedAffinity -3.54722214
REMARK minimizedRMSD -1
REMARK  0 active torsions:
REMARK  status: ('A' for Active; 'I' for Inactive)
ROOT
ATOM      1  C4' PXY d   1      -4.884  -3.379  -6.000  0.00  0.00     0.077 C 
ATOM      2  C1' PXY d   1       0.033  -5.023  -3.444  0.00  0.00     0.077 C 
ATOM      3  C1  PXY d   1      -1.254  -4.600  -4.124  0.00  0.00    -0.082 A 
ATOM      4  C2  PXY d   1      -1.764  -3.405  -3.874  0.00  0.00     0.003 A 
ATOM      5  C3  PXY d   1      -2.944  -3.019  -4.456  0.00  0.00     0.003 A 
ATOM      6  C4  PXY d   1      -3.582  -3.845  -5.343  0.00  0.00    -0.082 A 
ATOM      7  C5  PXY d   1      -3.062  -5.061  -5.612  0.00  0.00     0.003 A 
ATOM      8  C6  PXY d   1      -1.885  -5.450  -4.979  0.00  0.00     0.003 A 
ENDROOT
TORSDOF 0
ENDMDL
