MODEL 1
REMARK minimizedAffinity 1.17713559
REMARK minimizedRMSD -1
REMARK  0 active torsions:
REMARK  status: ('A' for Active; 'I' for Inactive)
ROOT
ATOM      1  C4' PXY d   1      -0.067  -5.250  -3.001  0.00  0.00     0.077 C 
ATOM      2  C1' PXY d   1      -4.772  -3.736  -6.000  0.00  0.00     0.077 C 
ATOM      3  C1  PXY d   1      -3.539  -4.123  -5.206  0.00  0.00    -0.082 A 
ATOM      4  C2  PXY d   1      -2.607  -4.874  -5.769  0.00  0.00     0.003 A 
ATOM      5  C3  PXY d   1      -1.502  -5.259  -5.055  0.00  0.00     0.003 A 
ATOM      6  C4  PXY d   1      -1.323  -4.827  -3.768  0.00  0.00    -0.082 A 
ATOM      7  C5  PXY d   1      -2.265  -4.052  -3.190  0.00  0.00     0.003 A 
ATOM      8  C6  PXY d   1      -3.399  -3.706  -3.918  0.00  0.00     0.003 A 
ENDROOT
TORSDOF 0
ENDMDL
