MODEL 1
REMARK minimizedAffinity 7.00554323
REMARK minimizedRMSD -1
REMARK  0 active torsions:
REMARK  status: ('A' for Active; 'I' for Inactive)
ROOT
ATOM      1  C4' PXY d   1      -5.286  -2.622  -6.000  0.00  0.00     0.077 C 
ATOM      2  C1' PXY d   1      -0.869  -5.686  -3.873  0.00  0.00     0.077 C 
ATOM      3  C1  PXY d   1      -2.026  -4.889  -4.442  0.00  0.00    -0.082 A 
ATOM      4  C2  PXY d   1      -2.318  -3.704  -3.931  0.00  0.00     0.003 A 
ATOM      5  C3  PXY d   1      -3.381  -2.984  -4.413  0.00  0.00     0.003 A 
ATOM      6  C4  PXY d   1      -4.120  -3.458  -5.463  0.00  0.00    -0.082 A 
ATOM      7  C5  PXY d   1      -3.822  -4.661  -5.997  0.00  0.00     0.003 A 
ATOM      8  C6  PXY d   1      -2.765  -5.395  -5.467  0.00  0.00     0.003 A 
ENDROOT
TORSDOF 0
ENDMDL
