MODEL 1
REMARK minimizedAffinity 3.97851872
REMARK minimizedRMSD -1
REMARK  0 active torsions:
REMARK  status: ('A' for Active; 'I' for Inactive)
ROOT
ATOM      1  C4' PXY d   1      -4.582  -2.998  -6.000  0.00  0.00     0.077 C 
ATOM      2  C1' PXY d   1      -0.443  -5.692  -2.996  0.00  0.00     0.077 C 
ATOM      3  C1  PXY d   1      -1.524  -4.992  -3.795  0.00  0.00    -0.082 A 
ATOM      4  C2  PXY d   1      -2.024  -3.848  -3.356  0.00  0.00     0.003 A 
ATOM      5  C3  PXY d   1      -3.025  -3.218  -4.049  0.00  0.00     0.003 A 
ATOM      6  C4  PXY d   1      -3.482  -3.736  -5.231  0.00  0.00    -0.082 A 
ATOM      7  C5  PXY d   1      -2.969  -4.896  -5.691  0.00  0.00     0.003 A 
ATOM      8  C6  PXY d   1      -1.983  -5.542  -4.952  0.00  0.00     0.003 A 
ENDROOT
TORSDOF 0
ENDMDL
