MODEL 1
REMARK minimizedAffinity -2.49948668
REMARK minimizedRMSD -1
REMARK  0 active torsions:
REMARK  status: ('A' for Active; 'I' for Inactive)
ROOT
ATOM      1  C4' PXY d   1      -4.125  -2.791  -6.000  0.00  0.00     0.077 C 
ATOM      2  C1' PXY d   1      -0.054  -6.000  -3.440  0.00  0.00     0.077 C 
ATOM      3  C1  PXY d   1      -1.121  -5.166  -4.122  0.00  0.00    -0.082 A 
ATOM      4  C2  PXY d   1      -1.313  -3.912  -3.744  0.00  0.00     0.003 A 
ATOM      5  C3  PXY d   1      -2.295  -3.154  -4.328  0.00  0.00     0.003 A 
ATOM      6  C4  PXY d   1      -3.053  -3.667  -5.346  0.00  0.00    -0.082 A 
ATOM      7  C5  PXY d   1      -2.857  -4.942  -5.744  0.00  0.00     0.003 A 
ATOM      8  C6  PXY d   1      -1.883  -5.708  -5.111  0.00  0.00     0.003 A 
ENDROOT
TORSDOF 0
ENDMDL
