MODEL 1
REMARK minimizedAffinity -0.254452914
REMARK minimizedRMSD -1
REMARK  0 active torsions:
REMARK  status: ('A' for Active; 'I' for Inactive)
ROOT
ATOM      1  C4' PXY d   1      -0.598  -5.622  -3.952  0.00  0.00     0.077 C 
ATOM      2  C1' PXY d   1      -5.305  -2.962  -6.000  0.00  0.00     0.077 C 
ATOM      3  C1  PXY d   1      -4.075  -3.671  -5.467  0.00  0.00    -0.082 A 
ATOM      4  C2  PXY d   1      -3.376  -3.121  -4.488  0.00  0.00     0.003 A 
ATOM      5  C3  PXY d   1      -2.243  -3.733  -4.016  0.00  0.00     0.003 A 
ATOM      6  C4  PXY d   1      -1.852  -4.947  -4.515  0.00  0.00    -0.082 A 
ATOM      7  C5  PXY d   1      -2.567  -5.520  -5.507  0.00  0.00     0.003 A 
ATOM      8  C6  PXY d   1      -3.690  -4.863  -6.000  0.00  0.00     0.003 A 
ENDROOT
TORSDOF 0
ENDMDL
