MODEL 1
REMARK minimizedAffinity 0.990816891
REMARK minimizedRMSD -1
REMARK  0 active torsions:
REMARK  status: ('A' for Active; 'I' for Inactive)
ROOT
ATOM      1  C4' PXY d   1      -4.917  -5.987  -6.000  0.00  0.00     0.077 C 
ATOM      2  C1' PXY d   1      -0.290  -3.921  -3.218  0.00  0.00     0.077 C 
ATOM      3  C1  PXY d   1      -1.500  -4.456  -3.958  0.00  0.00    -0.082 A 
ATOM      4  C2  PXY d   1      -2.533  -4.919  -3.273  0.00  0.00     0.003 A 
ATOM      5  C3  PXY d   1      -3.623  -5.436  -3.926  0.00  0.00     0.003 A 
ATOM      6  C4  PXY d   1      -3.678  -5.429  -5.294  0.00  0.00    -0.082 A 
ATOM      7  C5  PXY d   1      -2.632  -4.948  -6.000  0.00  0.00     0.003 A 
ATOM      8  C6  PXY d   1      -1.519  -4.466  -5.318  0.00  0.00     0.003 A 
ENDROOT
TORSDOF 0
ENDMDL
