MODEL 1
REMARK minimizedAffinity -3.28295517
REMARK minimizedRMSD -1
REMARK  1 active torsions:
REMARK  status: ('A' for Active; 'I' for Inactive)
REMARK    1  A    between atoms: C1_2  and  C2_3 
ROOT
ATOM      1  C2  UNL d   1      -0.081  -0.225   0.682  0.00  0.00    -0.073 A 
ATOM      2  C3  UNL d   1       0.935  -1.010   0.125  0.00  0.00    -0.002 A 
ATOM      3  C4  UNL d   1       1.223  -0.927  -1.238  0.00  0.00     0.004 A 
ATOM      4  C5  UNL d   1       0.504  -0.055  -2.056  0.00  0.00    -0.004 A 
ATOM      5  C6  UNL d   1      -0.507   0.746  -1.516  0.00  0.00    -0.075 A 
ATOM      6  C7  UNL d   1      -1.292   1.687  -2.382  0.00  0.00     0.076 C 
ATOM      7  C8  UNL d   1      -0.792   0.655  -0.146  0.00  0.00     0.001 A 
ENDROOT
BRANCH   1   8
ATOM      8  C1  UNL d   1      -0.391  -0.307   2.154  0.00  0.00     0.053 C 
ATOM      9  C   UNL d   1       0.521  -1.287   2.875  0.00  0.00     0.018 C 
ENDBRANCH   1   8
TORSDOF 1
ENDMDL
