MODEL 1
REMARK minimizedAffinity -3.76711893
REMARK minimizedRMSD -1
REMARK  1 active torsions:
REMARK  status: ('A' for Active; 'I' for Inactive)
REMARK    1  A    between atoms: C1_2  and  C2_3 
ROOT
ATOM      1  C2  UNL d   1       0.174  -0.247   0.081  0.00  0.00    -0.073 A 
ATOM      2  C3  UNL d   1      -1.111   0.026   0.565  0.00  0.00    -0.002 A 
ATOM      3  C4  UNL d   1      -1.376  -0.038   1.934  0.00  0.00     0.004 A 
ATOM      4  C5  UNL d   1      -0.361  -0.370   2.831  0.00  0.00    -0.004 A 
ATOM      5  C6  UNL d   1       0.931  -0.635   2.367  0.00  0.00    -0.075 A 
ATOM      6  C7  UNL d   1       2.034  -0.995   3.320  0.00  0.00     0.076 C 
ATOM      7  C8  UNL d   1       1.190  -0.571   0.992  0.00  0.00     0.001 A 
ENDROOT
BRANCH   1   8
ATOM      8  C1  UNL d   1       0.467  -0.173  -1.395  0.00  0.00     0.053 C 
ATOM      9  C   UNL d   1      -0.349   0.910  -2.084  0.00  0.00     0.018 C 
ENDBRANCH   1   8
TORSDOF 1
ENDMDL
