MODEL 1
REMARK minimizedAffinity -1.20675588
REMARK minimizedRMSD -1
REMARK  1 active torsions:
REMARK  status: ('A' for Active; 'I' for Inactive)
REMARK    1  A    between atoms: C1_2  and  C2_3 
ROOT
ATOM      1  C2  UNL d   1      -0.314   0.574   0.059  0.00  0.00    -0.073 A 
ATOM      2  C3  UNL d   1      -0.152   1.735   0.823  0.00  0.00    -0.002 A 
ATOM      3  C4  UNL d   1      -0.033   1.655   2.211  0.00  0.00     0.004 A 
ATOM      4  C5  UNL d   1      -0.067   0.415   2.848  0.00  0.00    -0.004 A 
ATOM      5  C6  UNL d   1      -0.216  -0.758   2.101  0.00  0.00    -0.075 A 
ATOM      6  C7  UNL d   1      -0.258  -2.100   2.772  0.00  0.00     0.076 C 
ATOM      7  C8  UNL d   1      -0.338  -0.669   0.708  0.00  0.00     0.001 A 
ENDROOT
BRANCH   1   8
ATOM      8  C1  UNL d   1      -0.437   0.654  -1.441  0.00  0.00     0.053 C 
ATOM      9  C   UNL d   1      -0.922   2.020  -1.900  0.00  0.00     0.018 C 
ENDBRANCH   1   8
TORSDOF 1
ENDMDL
