MODEL 1
REMARK minimizedAffinity -4.82192373
REMARK minimizedRMSD -1
REMARK  1 active torsions:
REMARK  status: ('A' for Active; 'I' for Inactive)
REMARK    1  A    between atoms: C3_4  and  O_7 
ROOT
ATOM      1  C   UNL d   1      -1.936   2.292   0.761  0.00  0.00    -0.033 A 
ATOM      2  C1  UNL d   1      -1.164   2.590   1.886  0.00  0.00     0.039 A 
ATOM      3  C2  UNL d   1      -0.036   1.824   2.183  0.00  0.00    -0.080 A 
ATOM      4  C3  UNL d   1       0.311   0.764   1.349  0.00  0.00     0.150 A 
ATOM      5  C4  UNL d   1      -0.452   0.464   0.225  0.00  0.00    -0.007 A 
ATOM      6  C5  UNL d   1      -1.579   1.230  -0.070  0.00  0.00     0.039 A 
ENDROOT
BRANCH   4   7
ATOM      7  O   UNL d   1       1.400  -0.014   1.601  0.00  0.00    -0.526 OA
ATOM      8  H5  UNL d   1       1.814   0.292   2.425  0.00  0.00     0.418 HD
ENDBRANCH   4   7
TORSDOF 1
ENDMDL
