MODEL 1
REMARK minimizedAffinity -3.50084376
REMARK minimizedRMSD -1
REMARK  1 active torsions:
REMARK  status: ('A' for Active; 'I' for Inactive)
REMARK    1  A    between atoms: C3_4  and  O_7 
ROOT
ATOM      1  C   UNL d   1      -1.528   2.158  -0.068  0.00  0.00    -0.033 A 
ATOM      2  C1  UNL d   1      -1.335   1.139   0.867  0.00  0.00     0.039 A 
ATOM      3  C2  UNL d   1      -0.539   0.038   0.547  0.00  0.00    -0.080 A 
ATOM      4  C3  UNL d   1       0.059  -0.032  -0.708  0.00  0.00     0.150 A 
ATOM      5  C4  UNL d   1      -0.126   0.982  -1.643  0.00  0.00    -0.007 A 
ATOM      6  C5  UNL d   1      -0.922   2.080  -1.322  0.00  0.00     0.039 A 
ENDROOT
BRANCH   4   7
ATOM      7  O   UNL d   1       0.840  -1.090  -1.067  0.00  0.00    -0.526 OA
ATOM      8  H5  UNL d   1       0.854  -1.726  -0.333  0.00  0.00     0.418 HD
ENDBRANCH   4   7
TORSDOF 1
ENDMDL
