MODEL 1
REMARK minimizedAffinity -3.3227067
REMARK minimizedRMSD -1
REMARK  1 active torsions:
REMARK  status: ('A' for Active; 'I' for Inactive)
REMARK    1  A    between atoms: C3_4  and  O_7 
ROOT
ATOM      1  C   UNL d   1      -0.002  -0.413   0.256  0.00  0.00    -0.033 A 
ATOM      2  C1  UNL d   1       0.785  -0.269   1.400  0.00  0.00     0.039 A 
ATOM      3  C2  UNL d   1       0.655   0.868   2.200  0.00  0.00    -0.080 A 
ATOM      4  C3  UNL d   1      -0.265   1.851   1.846  0.00  0.00     0.150 A 
ATOM      5  C4  UNL d   1      -1.056   1.712   0.710  0.00  0.00    -0.007 A 
ATOM      6  C5  UNL d   1      -0.924   0.576  -0.088  0.00  0.00     0.039 A 
ENDROOT
BRANCH   4   7
ATOM      7  O   UNL d   1      -0.425   2.981   2.593  0.00  0.00    -0.526 OA
ATOM      8  H5  UNL d   1       0.207   2.953   3.330  0.00  0.00     0.418 HD
ENDBRANCH   4   7
TORSDOF 1
ENDMDL
