MODEL 1
REMARK minimizedAffinity -4.03569174
REMARK minimizedRMSD -1
REMARK  1 active torsions:
REMARK  status: ('A' for Active; 'I' for Inactive)
REMARK    1  A    between atoms: C3_4  and  O_7 
ROOT
ATOM      1  C   UNL d   1       0.040   0.345  -0.728  0.00  0.00    -0.033 A 
ATOM      2  C1  UNL d   1       0.487   0.308   0.594  0.00  0.00     0.039 A 
ATOM      3  C2  UNL d   1      -0.040   1.194   1.536  0.00  0.00    -0.080 A 
ATOM      4  C3  UNL d   1      -1.013   2.109   1.143  0.00  0.00     0.150 A 
ATOM      5  C4  UNL d   1      -1.466   2.149  -0.172  0.00  0.00    -0.007 A 
ATOM      6  C5  UNL d   1      -0.937   1.264  -1.111  0.00  0.00     0.039 A 
ENDROOT
BRANCH   4   7
ATOM      7  O   UNL d   1      -1.554   2.997   2.025  0.00  0.00    -0.526 OA
ATOM      8  H5  UNL d   1      -1.125   2.873   2.889  0.00  0.00     0.418 HD
ENDBRANCH   4   7
TORSDOF 1
ENDMDL
