MODEL 1
REMARK minimizedAffinity -1.76332736
REMARK minimizedRMSD -1
REMARK  1 active torsions:
REMARK  status: ('A' for Active; 'I' for Inactive)
REMARK    1  A    between atoms: C3_4  and  O_7 
ROOT
ATOM      1  C   UNL d   1       0.761  -0.285  -1.649  0.00  0.00    -0.033 A 
ATOM      2  C1  UNL d   1       0.314   0.790  -2.419  0.00  0.00     0.039 A 
ATOM      3  C2  UNL d   1      -0.549   1.737  -1.865  0.00  0.00    -0.080 A 
ATOM      4  C3  UNL d   1      -0.956   1.599  -0.541  0.00  0.00     0.150 A 
ATOM      5  C4  UNL d   1      -0.511   0.533   0.234  0.00  0.00    -0.007 A 
ATOM      6  C5  UNL d   1       0.350  -0.413  -0.322  0.00  0.00     0.039 A 
ENDROOT
BRANCH   4   7
ATOM      7  O   UNL d   1      -1.801   2.495   0.042  0.00  0.00    -0.526 OA
ATOM      8  H5  UNL d   1      -2.048   3.162  -0.621  0.00  0.00     0.418 HD
ENDBRANCH   4   7
TORSDOF 1
ENDMDL
