MODEL 1
REMARK minimizedAffinity -5.11196184
REMARK minimizedRMSD -1
REMARK  1 active torsions:
REMARK  status: ('A' for Active; 'I' for Inactive)
REMARK    1  A    between atoms: C3_4  and  O_7 
ROOT
ATOM      1  C   UNL d   1      -1.129   3.250  -0.608  0.00  0.00    -0.033 A 
ATOM      2  C1  UNL d   1      -1.287   3.244   0.780  0.00  0.00     0.039 A 
ATOM      3  C2  UNL d   1      -0.834   2.158   1.531  0.00  0.00    -0.080 A 
ATOM      4  C3  UNL d   1      -0.225   1.086   0.884  0.00  0.00     0.150 A 
ATOM      5  C4  UNL d   1      -0.062   1.087  -0.498  0.00  0.00    -0.007 A 
ATOM      6  C5  UNL d   1      -0.516   2.172  -1.246  0.00  0.00     0.039 A 
ENDROOT
BRANCH   4   7
ATOM      7  O   UNL d   1       0.229   0.001   1.574  0.00  0.00    -0.526 OA
ATOM      8  H5  UNL d   1       0.023   0.127   2.515  0.00  0.00     0.418 HD
ENDBRANCH   4   7
TORSDOF 1
ENDMDL
