MODEL 1
REMARK minimizedAffinity -1.96466386
REMARK minimizedRMSD -1
REMARK  1 active torsions:
REMARK  status: ('A' for Active; 'I' for Inactive)
REMARK    1  A    between atoms: C3_4  and  O_7 
ROOT
ATOM      1  C   UNL d   1      -1.596   1.503   0.721  0.00  0.00    -0.033 A 
ATOM      2  C1  UNL d   1      -1.168   0.210   0.411  0.00  0.00     0.039 A 
ATOM      3  C2  UNL d   1      -0.315  -0.005  -0.673  0.00  0.00    -0.080 A 
ATOM      4  C3  UNL d   1       0.104   1.081  -1.437  0.00  0.00     0.150 A 
ATOM      5  C4  UNL d   1      -0.314   2.372  -1.133  0.00  0.00    -0.007 A 
ATOM      6  C5  UNL d   1      -1.167   2.584  -0.051  0.00  0.00     0.039 A 
ENDROOT
BRANCH   4   7
ATOM      7  O   UNL d   1       0.934   0.920  -2.508  0.00  0.00    -0.526 OA
ATOM      8  H5  UNL d   1       1.117  -0.028  -2.615  0.00  0.00     0.418 HD
ENDBRANCH   4   7
TORSDOF 1
ENDMDL
