MODEL 1
REMARK minimizedAffinity 0.676072896
REMARK minimizedRMSD -1
REMARK  1 active torsions:
REMARK  status: ('A' for Active; 'I' for Inactive)
REMARK    1  A    between atoms: C3_4  and  O_7 
ROOT
ATOM      1  C   UNL d   1      -0.549   0.318   1.036  0.00  0.00    -0.033 A 
ATOM      2  C1  UNL d   1      -0.204  -0.793   0.263  0.00  0.00     0.039 A 
ATOM      3  C2  UNL d   1       0.223  -0.623  -1.055  0.00  0.00    -0.080 A 
ATOM      4  C3  UNL d   1       0.302   0.661  -1.588  0.00  0.00     0.150 A 
ATOM      5  C4  UNL d   1      -0.036   1.772  -0.823  0.00  0.00    -0.007 A 
ATOM      6  C5  UNL d   1      -0.464   1.601   0.493  0.00  0.00     0.039 A 
ENDROOT
BRANCH   4   7
ATOM      7  O   UNL d   1       0.709   0.876  -2.871  0.00  0.00    -0.526 OA
ATOM      8  H5  UNL d   1       0.882   0.015  -3.288  0.00  0.00     0.418 HD
ENDBRANCH   4   7
TORSDOF 1
ENDMDL
