MODEL 1
REMARK minimizedAffinity -1.8979528
REMARK minimizedRMSD -1
REMARK  1 active torsions:
REMARK  status: ('A' for Active; 'I' for Inactive)
REMARK    1  A    between atoms: C3_4  and  O_7 
ROOT
ATOM      1  C   UNL d   1      -1.562   0.070   0.969  0.00  0.00    -0.033 A 
ATOM      2  C1  UNL d   1      -0.674  -0.834   0.381  0.00  0.00     0.039 A 
ATOM      3  C2  UNL d   1       0.056  -0.463  -0.749  0.00  0.00    -0.080 A 
ATOM      4  C3  UNL d   1      -0.109   0.813  -1.281  0.00  0.00     0.150 A 
ATOM      5  C4  UNL d   1      -0.989   1.720  -0.699  0.00  0.00    -0.007 A 
ATOM      6  C5  UNL d   1      -1.718   1.347   0.430  0.00  0.00     0.039 A 
ENDROOT
BRANCH   4   7
ATOM      7  O   UNL d   1       0.578   1.219  -2.386  0.00  0.00    -0.526 OA
ATOM      8  H5  UNL d   1       1.126   0.479  -2.697  0.00  0.00     0.418 HD
ENDBRANCH   4   7
TORSDOF 1
ENDMDL
