MODEL 1
REMARK minimizedAffinity -3.3855772
REMARK minimizedRMSD -1
REMARK  0 active torsions:
REMARK  status: ('A' for Active; 'I' for Inactive)
ROOT
ATOM      1  C   UNL d   1       1.140   2.804   0.785  0.00  0.00     0.077 C 
ATOM      2  C1  UNL d   1       1.148   1.443   0.155  0.00  0.00    -0.074 A 
ATOM      3  C2  UNL d   1       2.344   0.851  -0.263  0.00  0.00    -0.005 A 
ATOM      4  C3  UNL d   1       2.336  -0.419  -0.839  0.00  0.00     0.006 A 
ATOM      5  C4  UNL d   1       1.135  -1.109  -1.003  0.00  0.00    -0.005 A 
ATOM      6  C5  UNL d   1      -0.071  -0.534  -0.590  0.00  0.00    -0.074 A 
ATOM      7  C6  UNL d   1      -1.371  -1.266  -0.749  0.00  0.00     0.077 C 
ATOM      8  C7  UNL d   1      -0.055   0.740  -0.006  0.00  0.00    -0.001 A 
ENDROOT
TORSDOF 0
ENDMDL
