MODEL 1
REMARK minimizedAffinity -4.95419407
REMARK minimizedRMSD -1
REMARK  0 active torsions:
REMARK  status: ('A' for Active; 'I' for Inactive)
ROOT
ATOM      1  C   UNL d   1      -1.470  -1.525  -1.743  0.00  0.00     0.077 C 
ATOM      2  C1  UNL d   1      -0.235  -0.970  -1.098  0.00  0.00    -0.074 A 
ATOM      3  C2  UNL d   1       1.015  -1.557  -1.316  0.00  0.00    -0.005 A 
ATOM      4  C3  UNL d   1       2.156  -1.023  -0.717  0.00  0.00     0.006 A 
ATOM      5  C4  UNL d   1       2.059   0.100   0.105  0.00  0.00    -0.005 A 
ATOM      6  C5  UNL d   1       0.816   0.700   0.335  0.00  0.00    -0.074 A 
ATOM      7  C6  UNL d   1       0.695   1.914   1.207  0.00  0.00     0.077 C 
ATOM      8  C7  UNL d   1      -0.324   0.163  -0.277  0.00  0.00    -0.001 A 
ENDROOT
TORSDOF 0
ENDMDL
