MODEL 1
REMARK minimizedAffinity -2.1305685
REMARK minimizedRMSD -1
REMARK  0 active torsions:
REMARK  status: ('A' for Active; 'I' for Inactive)
ROOT
ATOM      1  C   UNL d   1      -0.048   1.632   1.441  0.00  0.00     0.077 C 
ATOM      2  C1  UNL d   1       0.189   0.586   0.392  0.00  0.00    -0.074 A 
ATOM      3  C2  UNL d   1       1.487   0.232   0.010  0.00  0.00    -0.005 A 
ATOM      4  C3  UNL d   1       1.692  -0.749  -0.959  0.00  0.00     0.006 A 
ATOM      5  C4  UNL d   1       0.603  -1.386  -1.556  0.00  0.00    -0.005 A 
ATOM      6  C5  UNL d   1      -0.702  -1.047  -1.186  0.00  0.00    -0.074 A 
ATOM      7  C6  UNL d   1      -1.883  -1.728  -1.810  0.00  0.00     0.077 C 
ATOM      8  C7  UNL d   1      -0.900  -0.064  -0.206  0.00  0.00    -0.001 A 
ENDROOT
TORSDOF 0
ENDMDL
