MODEL 1
REMARK minimizedAffinity -4.06084585
REMARK minimizedRMSD -1
REMARK  0 active torsions:
REMARK  status: ('A' for Active; 'I' for Inactive)
ROOT
ATOM      1  C   UNL d   1       1.853   2.735   0.625  0.00  0.00     0.077 C 
ATOM      2  C1  UNL d   1       0.876   1.634   0.911  0.00  0.00    -0.074 A 
ATOM      3  C2  UNL d   1       0.392   1.420   2.205  0.00  0.00    -0.005 A 
ATOM      4  C3  UNL d   1      -0.524   0.397   2.454  0.00  0.00     0.006 A 
ATOM      5  C4  UNL d   1      -0.965  -0.420   1.412  0.00  0.00    -0.005 A 
ATOM      6  C5  UNL d   1      -0.493  -0.220   0.111  0.00  0.00    -0.074 A 
ATOM      7  C6  UNL d   1      -0.964  -1.083  -1.022  0.00  0.00     0.077 C 
ATOM      8  C7  UNL d   1       0.422   0.814  -0.132  0.00  0.00    -0.001 A 
ENDROOT
TORSDOF 0
ENDMDL
