MODEL 1
REMARK minimizedAffinity -3.88114619
REMARK minimizedRMSD -1
REMARK  0 active torsions:
REMARK  status: ('A' for Active; 'I' for Inactive)
ROOT
ATOM      1  C   UNL d   1      -0.077  -1.209  -1.482  0.00  0.00     0.077 C 
ATOM      2  C1  UNL d   1       0.127  -0.109  -0.483  0.00  0.00    -0.074 A 
ATOM      3  C2  UNL d   1       1.223   0.754  -0.577  0.00  0.00    -0.005 A 
ATOM      4  C3  UNL d   1       1.394   1.778   0.354  0.00  0.00     0.006 A 
ATOM      5  C4  UNL d   1       0.472   1.950   1.387  0.00  0.00    -0.005 A 
ATOM      6  C5  UNL d   1      -0.631   1.097   1.497  0.00  0.00    -0.074 A 
ATOM      7  C6  UNL d   1      -1.637   1.274   2.595  0.00  0.00     0.077 C 
ATOM      8  C7  UNL d   1      -0.800   0.075   0.553  0.00  0.00    -0.001 A 
ENDROOT
TORSDOF 0
ENDMDL
