MODEL 1
REMARK minimizedAffinity -4.58130884
REMARK minimizedRMSD -1
REMARK  0 active torsions:
REMARK  status: ('A' for Active; 'I' for Inactive)
ROOT
ATOM      1  C   UNL d   1      -0.216  -1.229  -1.773  0.00  0.00     0.077 C 
ATOM      2  C1  UNL d   1      -0.293  -0.359  -0.554  0.00  0.00    -0.074 A 
ATOM      3  C2  UNL d   1      -0.995  -0.774   0.582  0.00  0.00    -0.005 A 
ATOM      4  C3  UNL d   1      -1.051   0.042   1.712  0.00  0.00     0.006 A 
ATOM      5  C4  UNL d   1      -0.405   1.280   1.717  0.00  0.00    -0.005 A 
ATOM      6  C5  UNL d   1       0.302   1.711   0.591  0.00  0.00    -0.074 A 
ATOM      7  C6  UNL d   1       1.010   3.034   0.584  0.00  0.00     0.077 C 
ATOM      8  C7  UNL d   1       0.359   0.882  -0.538  0.00  0.00    -0.001 A 
ENDROOT
TORSDOF 0
ENDMDL
