MODEL 1
REMARK minimizedAffinity -2.80326128
REMARK minimizedRMSD -1
REMARK  0 active torsions:
REMARK  status: ('A' for Active; 'I' for Inactive)
ROOT
ATOM      1  C   UNL d   1       2.843   0.027  -0.605  0.00  0.00     0.077 C 
ATOM      2  C1  UNL d   1       1.395  -0.057  -0.224  0.00  0.00    -0.074 A 
ATOM      3  C2  UNL d   1       0.887   0.690   0.844  0.00  0.00    -0.005 A 
ATOM      4  C3  UNL d   1      -0.464   0.608   1.180  0.00  0.00     0.006 A 
ATOM      5  C4  UNL d   1      -1.320  -0.220   0.453  0.00  0.00    -0.005 A 
ATOM      6  C5  UNL d   1      -0.831  -0.973  -0.619  0.00  0.00    -0.074 A 
ATOM      7  C6  UNL d   1      -1.740  -1.860  -1.417  0.00  0.00     0.077 C 
ATOM      8  C7  UNL d   1       0.527  -0.881  -0.955  0.00  0.00    -0.001 A 
ENDROOT
TORSDOF 0
ENDMDL
