MODEL 1
REMARK minimizedAffinity -3.39405274
REMARK minimizedRMSD -1
REMARK  0 active torsions:
REMARK  status: ('A' for Active; 'I' for Inactive)
ROOT
ATOM      1  C   UNL d   1       1.817   3.386   1.480  0.00  0.00     0.077 C 
ATOM      2  C1  UNL d   1       1.097   2.173   0.970  0.00  0.00    -0.074 A 
ATOM      3  C2  UNL d   1       1.512   1.530  -0.201  0.00  0.00    -0.005 A 
ATOM      4  C3  UNL d   1       0.838   0.397  -0.658  0.00  0.00     0.006 A 
ATOM      5  C4  UNL d   1      -0.255  -0.103   0.050  0.00  0.00    -0.005 A 
ATOM      6  C5  UNL d   1      -0.684   0.526   1.223  0.00  0.00    -0.074 A 
ATOM      7  C6  UNL d   1      -1.851  -0.005   2.002  0.00  0.00     0.077 C 
ATOM      8  C7  UNL d   1       0.003   1.659   1.680  0.00  0.00    -0.001 A 
ENDROOT
TORSDOF 0
ENDMDL
