MODEL 1
REMARK minimizedAffinity -4.09125662
REMARK minimizedRMSD -1
REMARK  0 active torsions:
REMARK  status: ('A' for Active; 'I' for Inactive)
ROOT
ATOM      1  C   UNL d   1       1.717  -1.176  -1.050  0.00  0.00     0.077 C 
ATOM      2  C1  UNL d   1       0.836  -0.285  -0.226  0.00  0.00    -0.074 A 
ATOM      3  C2  UNL d   1      -0.344  -0.770   0.347  0.00  0.00    -0.005 A 
ATOM      4  C3  UNL d   1      -1.148   0.068   1.118  0.00  0.00     0.006 A 
ATOM      5  C4  UNL d   1      -0.782   1.399   1.325  0.00  0.00    -0.005 A 
ATOM      6  C5  UNL d   1       0.395   1.902   0.761  0.00  0.00    -0.074 A 
ATOM      7  C6  UNL d   1       0.809   3.326   0.981  0.00  0.00     0.077 C 
ATOM      8  C7  UNL d   1       1.201   1.051  -0.008  0.00  0.00    -0.001 A 
ENDROOT
TORSDOF 0
ENDMDL
