MODEL 1
REMARK minimizedAffinity -3.9154458
REMARK minimizedRMSD -1
REMARK  0 active torsions:
REMARK  status: ('A' for Active; 'I' for Inactive)
ROOT
ATOM      1  C   UNL d   1       0.043   1.867   1.170  0.00  0.00     0.077 C 
ATOM      2  C1  UNL d   1       0.145   0.715   0.216  0.00  0.00    -0.074 A 
ATOM      3  C2  UNL d   1       1.351   0.026   0.047  0.00  0.00    -0.005 A 
ATOM      4  C3  UNL d   1       1.428  -1.049  -0.838  0.00  0.00     0.006 A 
ATOM      5  C4  UNL d   1       0.303  -1.446  -1.562  0.00  0.00    -0.005 A 
ATOM      6  C5  UNL d   1      -0.911  -0.770  -1.405  0.00  0.00    -0.074 A 
ATOM      7  C6  UNL d   1      -2.132  -1.190  -2.168  0.00  0.00     0.077 C 
ATOM      8  C7  UNL d   1      -0.983   0.306  -0.509  0.00  0.00    -0.001 A 
ENDROOT
TORSDOF 0
ENDMDL
