MODEL 1
REMARK minimizedAffinity -4.77042437
REMARK minimizedRMSD -1
REMARK  0 active torsions:
REMARK  status: ('A' for Active; 'I' for Inactive)
ROOT
ATOM      1  C   UNL d   1      -0.788   1.691   2.020  0.00  0.00     0.077 C 
ATOM      2  C1  UNL d   1      -0.294   0.808   0.913  0.00  0.00    -0.074 A 
ATOM      3  C2  UNL d   1       1.049   0.827   0.523  0.00  0.00    -0.005 A 
ATOM      4  C3  UNL d   1       1.496  -0.006  -0.502  0.00  0.00     0.006 A 
ATOM      5  C4  UNL d   1       0.605  -0.866  -1.147  0.00  0.00    -0.005 A 
ATOM      6  C5  UNL d   1      -0.741  -0.899  -0.770  0.00  0.00    -0.074 A 
ATOM      7  C6  UNL d   1      -1.709  -1.824  -1.447  0.00  0.00     0.077 C 
ATOM      8  C7  UNL d   1      -1.181  -0.063   0.265  0.00  0.00    -0.001 A 
ENDROOT
TORSDOF 0
ENDMDL
