MODEL 1
REMARK minimizedAffinity -2.81534052
REMARK minimizedRMSD -1
REMARK  0 active torsions:
REMARK  status: ('A' for Active; 'I' for Inactive)
ROOT
ATOM      1  C   UNL d   1      -1.224  -1.649  -1.182  0.00  0.00     0.077 C 
ATOM      2  C1  UNL d   1      -0.046  -0.828  -0.747  0.00  0.00    -0.074 A 
ATOM      3  C2  UNL d   1       1.254  -1.182  -1.121  0.00  0.00    -0.005 A 
ATOM      4  C3  UNL d   1       2.339  -0.404  -0.717  0.00  0.00     0.006 A 
ATOM      5  C4  UNL d   1       2.135   0.734   0.064  0.00  0.00    -0.005 A 
ATOM      6  C5  UNL d   1       0.842   1.104   0.448  0.00  0.00    -0.074 A 
ATOM      7  C6  UNL d   1       0.604   2.330   1.279  0.00  0.00     0.077 C 
ATOM      8  C7  UNL d   1      -0.243   0.321   0.031  0.00  0.00    -0.001 A 
ENDROOT
TORSDOF 0
ENDMDL
