MODEL 1
REMARK minimizedAffinity -2.3987875
REMARK minimizedRMSD -1
REMARK  0 active torsions:
REMARK  status: ('A' for Active; 'I' for Inactive)
ROOT
ATOM      1  C   UNL d   1       1.186   3.330   1.147  0.00  0.00     0.077 C 
ATOM      2  C1  UNL d   1       0.700   1.985   0.697  0.00  0.00    -0.074 A 
ATOM      3  C2  UNL d   1       1.370   1.277  -0.306  0.00  0.00    -0.005 A 
ATOM      4  C3  UNL d   1       0.911   0.022  -0.708  0.00  0.00     0.006 A 
ATOM      5  C4  UNL d   1      -0.220  -0.536  -0.112  0.00  0.00    -0.005 A 
ATOM      6  C5  UNL d   1      -0.903   0.156   0.893  0.00  0.00    -0.074 A 
ATOM      7  C6  UNL d   1      -2.114  -0.434   1.552  0.00  0.00     0.077 C 
ATOM      8  C7  UNL d   1      -0.432   1.413   1.296  0.00  0.00    -0.001 A 
ENDROOT
TORSDOF 0
ENDMDL
