MODEL 1
REMARK minimizedAffinity -5.02300835
REMARK minimizedRMSD -1
REMARK  0 active torsions:
REMARK  status: ('A' for Active; 'I' for Inactive)
ROOT
ATOM      1  C   UNL d   1      -2.393  -3.311  -1.150  0.00  0.00     0.077 C 
ATOM      2  C1  UNL d   1      -1.866  -1.990  -1.627  0.00  0.00    -0.074 A 
ATOM      3  C2  UNL d   1      -2.340  -1.411  -2.809  0.00  0.00    -0.005 A 
ATOM      4  C3  UNL d   1      -1.848  -0.178  -3.234  0.00  0.00     0.006 A 
ATOM      5  C4  UNL d   1      -0.879   0.489  -2.484  0.00  0.00    -0.005 A 
ATOM      6  C5  UNL d   1      -0.394  -0.073  -1.299  0.00  0.00    -0.074 A 
ATOM      7  C6  UNL d   1       0.640   0.635  -0.475  0.00  0.00     0.077 C 
ATOM      8  C7  UNL d   1      -0.899  -1.310  -0.874  0.00  0.00    -0.001 A 
ENDROOT
TORSDOF 0
ENDMDL
