MODEL 1
REMARK minimizedAffinity -5.31301069
REMARK minimizedRMSD -1
REMARK  0 active torsions:
REMARK  status: ('A' for Active; 'I' for Inactive)
ROOT
ATOM      1  C   UNL d   1      -2.025   0.422   2.202  0.00  0.00     0.077 C 
ATOM      2  C1  UNL d   1      -0.849   0.829   1.365  0.00  0.00    -0.074 A 
ATOM      3  C2  UNL d   1      -0.447   2.167   1.292  0.00  0.00    -0.005 A 
ATOM      4  C3  UNL d   1       0.654   2.529   0.517  0.00  0.00     0.006 A 
ATOM      5  C4  UNL d   1       1.364   1.559  -0.192  0.00  0.00    -0.005 A 
ATOM      6  C5  UNL d   1       0.978   0.217  -0.130  0.00  0.00    -0.074 A 
ATOM      7  C6  UNL d   1       1.737  -0.840  -0.877  0.00  0.00     0.077 C 
ATOM      8  C7  UNL d   1      -0.125  -0.141   0.657  0.00  0.00    -0.001 A 
ENDROOT
TORSDOF 0
ENDMDL
