MODEL 1
REMARK minimizedAffinity -6.28551102
REMARK minimizedRMSD -1
REMARK  0 active torsions:
REMARK  status: ('A' for Active; 'I' for Inactive)
ROOT
ATOM      1  C   UNL d   1      -1.211   1.224   1.295  0.00  0.00     0.077 C 
ATOM      2  C1  UNL d   1       0.237   1.559   1.094  0.00  0.00    -0.074 A 
ATOM      3  C2  UNL d   1       0.783   2.733   1.623  0.00  0.00    -0.005 A 
ATOM      4  C3  UNL d   1       2.134   3.027   1.435  0.00  0.00     0.006 A 
ATOM      5  C4  UNL d   1       2.951   2.151   0.719  0.00  0.00    -0.005 A 
ATOM      6  C5  UNL d   1       2.422   0.972   0.184  0.00  0.00    -0.074 A 
ATOM      7  C6  UNL d   1       3.289   0.015  -0.580  0.00  0.00     0.077 C 
ATOM      8  C7  UNL d   1       1.066   0.681   0.382  0.00  0.00    -0.001 A 
ENDROOT
TORSDOF 0
ENDMDL
