MODEL 1
REMARK minimizedAffinity -4.1763339
REMARK minimizedRMSD -1
REMARK  0 active torsions:
REMARK  status: ('A' for Active; 'I' for Inactive)
ROOT
ATOM      1  C   UNL d   1       1.683   3.188   1.202  0.00  0.00     0.077 C 
ATOM      2  C1  UNL d   1       0.760   2.008   1.129  0.00  0.00    -0.074 A 
ATOM      3  C2  UNL d   1      -0.056   1.666   2.213  0.00  0.00    -0.005 A 
ATOM      4  C3  UNL d   1      -0.917   0.572   2.127  0.00  0.00     0.006 A 
ATOM      5  C4  UNL d   1      -0.970  -0.190   0.960  0.00  0.00    -0.005 A 
ATOM      6  C5  UNL d   1      -0.163   0.137  -0.134  0.00  0.00    -0.074 A 
ATOM      7  C6  UNL d   1      -0.215  -0.666  -1.400  0.00  0.00     0.077 C 
ATOM      8  C7  UNL d   1       0.695   1.242  -0.043  0.00  0.00    -0.001 A 
ENDROOT
TORSDOF 0
ENDMDL
