MODEL 1
REMARK minimizedAffinity -4.85061264
REMARK minimizedRMSD -1
REMARK  0 active torsions:
REMARK  status: ('A' for Active; 'I' for Inactive)
ROOT
ATOM      1  C   UNL d   1      -2.143   0.443   1.810  0.00  0.00     0.077 C 
ATOM      2  C1  UNL d   1      -0.817   0.589   1.125  0.00  0.00    -0.074 A 
ATOM      3  C2  UNL d   1      -0.438  -0.283   0.099  0.00  0.00    -0.005 A 
ATOM      4  C3  UNL d   1       0.795  -0.129  -0.535  0.00  0.00     0.006 A 
ATOM      5  C4  UNL d   1       1.660   0.896  -0.150  0.00  0.00    -0.005 A 
ATOM      6  C5  UNL d   1       1.299   1.777   0.874  0.00  0.00    -0.074 A 
ATOM      7  C6  UNL d   1       2.213   2.889   1.294  0.00  0.00     0.077 C 
ATOM      8  C7  UNL d   1       0.055   1.620   1.502  0.00  0.00    -0.001 A 
ENDROOT
TORSDOF 0
ENDMDL
