MODEL 1
REMARK minimizedAffinity -3.49857354
REMARK minimizedRMSD -1
REMARK  0 active torsions:
REMARK  status: ('A' for Active; 'I' for Inactive)
ROOT
ATOM      1  C   UNL d   1       0.743   3.213   1.182  0.00  0.00     0.077 C 
ATOM      2  C1  UNL d   1       0.548   1.786   0.764  0.00  0.00    -0.074 A 
ATOM      3  C2  UNL d   1      -0.710   1.179   0.843  0.00  0.00    -0.005 A 
ATOM      4  C3  UNL d   1      -0.878  -0.146   0.442  0.00  0.00     0.006 A 
ATOM      5  C4  UNL d   1       0.208  -0.877  -0.043  0.00  0.00    -0.005 A 
ATOM      6  C5  UNL d   1       1.473  -0.286  -0.130  0.00  0.00    -0.074 A 
ATOM      7  C6  UNL d   1       2.648  -1.054  -0.658  0.00  0.00     0.077 C 
ATOM      8  C7  UNL d   1       1.632   1.048   0.269  0.00  0.00    -0.001 A 
ENDROOT
TORSDOF 0
ENDMDL
