MODEL 1
REMARK minimizedAffinity -4.63853168
REMARK minimizedRMSD -1
REMARK  0 active torsions:
REMARK  status: ('A' for Active; 'I' for Inactive)
ROOT
ATOM      1  C2' OXE d   1      -2.026   0.710   1.816  0.00  0.00     0.078 C 
ATOM      2  C1' OXE d   1      -0.099   1.317  -0.133  0.00  0.00     0.078 C 
ATOM      3  C1  OXE d   1      -0.188  -0.110   0.349  0.00  0.00    -0.078 A 
ATOM      4  C2  OXE d   1      -1.102  -0.388   1.336  0.00  0.00    -0.078 A 
ATOM      5  C3  OXE d   1      -1.262  -1.698   1.778  0.00  0.00     0.003 A 
ATOM      6  C4  OXE d   1      -0.397  -2.706   1.336  0.00  0.00    -0.002 A 
ATOM      7  C5  OXE d   1       0.568  -2.436   0.359  0.00  0.00    -0.002 A 
ATOM      8  C6  OXE d   1       0.657  -1.155  -0.175  0.00  0.00     0.003 A 
ENDROOT
TORSDOF 0
ENDMDL
