MODEL 1
REMARK minimizedAffinity -3.40533209
REMARK minimizedRMSD -1
REMARK  0 active torsions:
REMARK  status: ('A' for Active; 'I' for Inactive)
ROOT
ATOM      1  C2' OXE d   1       2.202  -1.139  -0.371  0.00  0.00     0.078 C 
ATOM      2  C1' OXE d   1       0.022   0.584   0.028  0.00  0.00     0.078 C 
ATOM      3  C1  OXE d   1      -0.229  -0.901   0.116  0.00  0.00    -0.078 A 
ATOM      4  C2  OXE d   1       0.834  -1.738  -0.127  0.00  0.00    -0.078 A 
ATOM      5  C3  OXE d   1       0.669  -3.114  -0.004  0.00  0.00     0.003 A 
ATOM      6  C4  OXE d   1      -0.602  -3.660   0.213  0.00  0.00    -0.002 A 
ATOM      7  C5  OXE d   1      -1.706  -2.826   0.423  0.00  0.00    -0.002 A 
ATOM      8  C6  OXE d   1      -1.528  -1.447   0.421  0.00  0.00     0.003 A 
ENDROOT
TORSDOF 0
ENDMDL
