MODEL 1
REMARK minimizedAffinity -4.92809391
REMARK minimizedRMSD -1
REMARK  0 active torsions:
REMARK  status: ('A' for Active; 'I' for Inactive)
ROOT
ATOM      1  C2' OXE d   1      -1.942   0.118   1.398  0.00  0.00     0.078 C 
ATOM      2  C1' OXE d   1      -0.033   0.885  -0.511  0.00  0.00     0.078 C 
ATOM      3  C1  OXE d   1      -0.053  -0.559  -0.078  0.00  0.00    -0.078 A 
ATOM      4  C2  OXE d   1      -0.960  -0.916   0.891  0.00  0.00    -0.078 A 
ATOM      5  C3  OXE d   1      -1.058  -2.247   1.287  0.00  0.00     0.003 A 
ATOM      6  C4  OXE d   1      -0.140  -3.195   0.820  0.00  0.00    -0.002 A 
ATOM      7  C5  OXE d   1       0.818  -2.844  -0.138  0.00  0.00    -0.002 A 
ATOM      8  C6  OXE d   1       0.847  -1.543  -0.628  0.00  0.00     0.003 A 
ENDROOT
TORSDOF 0
ENDMDL
