MODEL 1
REMARK minimizedAffinity -0.0468640551
REMARK minimizedRMSD -1
REMARK  0 active torsions:
REMARK  status: ('A' for Active; 'I' for Inactive)
ROOT
ATOM      1  C2' OXE d   1      -0.027   0.781  -0.105  0.00  0.00     0.078 C 
ATOM      2  C1' OXE d   1      -1.339  -0.370   2.093  0.00  0.00     0.078 C 
ATOM      3  C1  OXE d   1      -1.129  -1.228   0.870  0.00  0.00    -0.078 A 
ATOM      4  C2  OXE d   1      -0.527  -0.642  -0.218  0.00  0.00    -0.078 A 
ATOM      5  C3  OXE d   1      -0.260  -1.405  -1.351  0.00  0.00     0.003 A 
ATOM      6  C4  OXE d   1      -0.735  -2.718  -1.451  0.00  0.00    -0.002 A 
ATOM      7  C5  OXE d   1      -1.386  -3.321  -0.369  0.00  0.00    -0.002 A 
ATOM      8  C6  OXE d   1      -1.552  -2.606   0.811  0.00  0.00     0.003 A 
ENDROOT
TORSDOF 0
ENDMDL
