MODEL 1
REMARK minimizedAffinity -3.54116583
REMARK minimizedRMSD -1
REMARK  0 active torsions:
REMARK  status: ('A' for Active; 'I' for Inactive)
ROOT
ATOM      1  C2' OXE d   1       0.643   0.067  -1.813  0.00  0.00     0.078 C 
ATOM      2  C1' OXE d   1      -1.285   1.423  -0.288  0.00  0.00     0.078 C 
ATOM      3  C1  OXE d   1       0.131   1.942  -0.255  0.00  0.00    -0.078 A 
ATOM      4  C2  OXE d   1       1.077   1.244  -0.967  0.00  0.00    -0.078 A 
ATOM      5  C3  OXE d   1       2.387   1.712  -1.015  0.00  0.00     0.003 A 
ATOM      6  C4  OXE d   1       2.783   2.796  -0.222  0.00  0.00    -0.002 A 
ATOM      7  C5  OXE d   1       1.843   3.496   0.542  0.00  0.00    -0.002 A 
ATOM      8  C6  OXE d   1       0.508   3.109   0.503  0.00  0.00     0.003 A 
ENDROOT
TORSDOF 0
ENDMDL
