MODEL 1
REMARK minimizedAffinity -5.50924397
REMARK minimizedRMSD -1
REMARK  0 active torsions:
REMARK  status: ('A' for Active; 'I' for Inactive)
ROOT
ATOM      1  C2' OXE d   1      -2.023  -0.053   1.870  0.00  0.00     0.078 C 
ATOM      2  C1' OXE d   1      -0.268   1.071  -0.010  0.00  0.00     0.078 C 
ATOM      3  C1  OXE d   1      -0.186  -0.416   0.228  0.00  0.00    -0.078 A 
ATOM      4  C2  OXE d   1      -1.016  -0.950   1.183  0.00  0.00    -0.078 A 
ATOM      5  C3  OXE d   1      -1.020  -2.325   1.403  0.00  0.00     0.003 A 
ATOM      6  C4  OXE d   1      -0.078  -3.146   0.771  0.00  0.00    -0.002 A 
ATOM      7  C5  OXE d   1       0.804  -2.616  -0.177  0.00  0.00    -0.002 A 
ATOM      8  C6  OXE d   1       0.734  -1.263  -0.490  0.00  0.00     0.003 A 
ENDROOT
TORSDOF 0
ENDMDL
