MODEL 1
REMARK minimizedAffinity -3.78302479
REMARK minimizedRMSD -1
REMARK  0 active torsions:
REMARK  status: ('A' for Active; 'I' for Inactive)
ROOT
ATOM      1  C2' OXE d   1       1.252   3.865   0.036  0.00  0.00     0.078 C 
ATOM      2  C1' OXE d   1       2.878   2.247   1.654  0.00  0.00     0.078 C 
ATOM      3  C1  OXE d   1       1.792   1.574   0.853  0.00  0.00    -0.078 A 
ATOM      4  C2  OXE d   1       0.971   2.379   0.100  0.00  0.00    -0.078 A 
ATOM      5  C3  OXE d   1      -0.012   1.804  -0.701  0.00  0.00     0.003 A 
ATOM      6  C4  OXE d   1      -0.272   0.430  -0.629  0.00  0.00    -0.002 A 
ATOM      7  C5  OXE d   1       0.527  -0.402   0.162  0.00  0.00    -0.002 A 
ATOM      8  C6  OXE d   1       1.587   0.147   0.875  0.00  0.00     0.003 A 
ENDROOT
TORSDOF 0
ENDMDL
