MODEL 1
REMARK minimizedAffinity -4.6160965
REMARK minimizedRMSD -1
REMARK  0 active torsions:
REMARK  status: ('A' for Active; 'I' for Inactive)
ROOT
ATOM      1  C2' OXE d   1      -0.024   0.569  -0.026  0.00  0.00     0.078 C 
ATOM      2  C1' OXE d   1      -0.711  -1.533   1.703  0.00  0.00     0.078 C 
ATOM      3  C1  OXE d   1      -0.251  -1.889   0.311  0.00  0.00    -0.078 A 
ATOM      4  C2  OXE d   1       0.038  -0.852  -0.543  0.00  0.00    -0.078 A 
ATOM      5  C3  OXE d   1       0.518  -1.126  -1.821  0.00  0.00     0.003 A 
ATOM      6  C4  OXE d   1       0.563  -2.443  -2.294  0.00  0.00    -0.002 A 
ATOM      7  C5  OXE d   1       0.235  -3.511  -1.453  0.00  0.00    -0.002 A 
ATOM      8  C6  OXE d   1      -0.133  -3.254  -0.137  0.00  0.00     0.003 A 
ENDROOT
TORSDOF 0
ENDMDL
