MODEL 1
REMARK minimizedAffinity -4.63240671
REMARK minimizedRMSD -1
REMARK  0 active torsions:
REMARK  status: ('A' for Active; 'I' for Inactive)
ROOT
ATOM      1  C2' OXE d   1      -1.987  -0.305   1.832  0.00  0.00     0.078 C 
ATOM      2  C1' OXE d   1      -1.117  -2.752   0.766  0.00  0.00     0.078 C 
ATOM      3  C1  OXE d   1      -0.550  -1.485   0.175  0.00  0.00    -0.078 A 
ATOM      4  C2  OXE d   1      -1.016  -0.292   0.671  0.00  0.00    -0.078 A 
ATOM      5  C3  OXE d   1      -0.486   0.906   0.199  0.00  0.00     0.003 A 
ATOM      6  C4  OXE d   1       0.404   0.909  -0.881  0.00  0.00    -0.002 A 
ATOM      7  C5  OXE d   1       0.862  -0.294  -1.428  0.00  0.00    -0.002 A 
ATOM      8  C6  OXE d   1       0.428  -1.498  -0.885  0.00  0.00     0.003 A 
ENDROOT
TORSDOF 0
ENDMDL
