MODEL 1
REMARK minimizedAffinity -3.6880827
REMARK minimizedRMSD -1
REMARK  0 active torsions:
REMARK  status: ('A' for Active; 'I' for Inactive)
ROOT
ATOM      1  C2' OXE d   1      -0.364   1.110   0.074  0.00  0.00     0.078 C 
ATOM      2  C1' OXE d   1       0.372  -0.801  -1.845  0.00  0.00     0.078 C 
ATOM      3  C1  OXE d   1      -0.351  -1.285  -0.613  0.00  0.00    -0.078 A 
ATOM      4  C2  OXE d   1      -0.666  -0.349   0.343  0.00  0.00    -0.078 A 
ATOM      5  C3  OXE d   1      -1.381  -0.732   1.473  0.00  0.00     0.003 A 
ATOM      6  C4  OXE d   1      -1.647  -2.085   1.719  0.00  0.00    -0.002 A 
ATOM      7  C5  OXE d   1      -1.300  -3.059   0.777  0.00  0.00    -0.002 A 
ATOM      8  C6  OXE d   1      -0.690  -2.672  -0.411  0.00  0.00     0.003 A 
ENDROOT
TORSDOF 0
ENDMDL
