MODEL 1
REMARK minimizedAffinity -3.25076389
REMARK minimizedRMSD -1
REMARK  0 active torsions:
REMARK  status: ('A' for Active; 'I' for Inactive)
ROOT
ATOM      1  C2' OXE d   1      -0.042  -3.105   0.343  0.00  0.00     0.078 C 
ATOM      2  C1' OXE d   1       0.897  -1.780  -1.947  0.00  0.00     0.078 C 
ATOM      3  C1  OXE d   1       0.310  -0.941  -0.839  0.00  0.00    -0.078 A 
ATOM      4  C2  OXE d   1      -0.190  -1.601   0.257  0.00  0.00    -0.078 A 
ATOM      5  C3  OXE d   1      -0.693  -0.872   1.331  0.00  0.00     0.003 A 
ATOM      6  C4  OXE d   1      -0.835   0.517   1.240  0.00  0.00    -0.002 A 
ATOM      7  C5  OXE d   1      -0.369   1.206   0.115  0.00  0.00    -0.002 A 
ATOM      8  C6  OXE d   1       0.244   0.498  -0.913  0.00  0.00     0.003 A 
ENDROOT
TORSDOF 0
ENDMDL
