MODEL 1
REMARK minimizedAffinity -3.08073807
REMARK minimizedRMSD -1
REMARK  0 active torsions:
REMARK  status: ('A' for Active; 'I' for Inactive)
ROOT
ATOM      1  C2' OXE d   1       0.309   1.202  -0.582  0.00  0.00     0.078 C 
ATOM      2  C1' OXE d   1       0.659  -1.186  -2.017  0.00  0.00     0.078 C 
ATOM      3  C1  OXE d   1       0.025  -1.272  -0.651  0.00  0.00    -0.078 A 
ATOM      4  C2  OXE d   1      -0.099  -0.105   0.063  0.00  0.00    -0.078 A 
ATOM      5  C3  OXE d   1      -0.727  -0.121   1.306  0.00  0.00     0.003 A 
ATOM      6  C4  OXE d   1      -1.092  -1.335   1.900  0.00  0.00    -0.002 A 
ATOM      7  C5  OXE d   1      -0.938  -2.540   1.206  0.00  0.00    -0.002 A 
ATOM      8  C6  OXE d   1      -0.421  -2.521  -0.085  0.00  0.00     0.003 A 
ENDROOT
TORSDOF 0
ENDMDL
