MODEL 1
REMARK minimizedAffinity -2.35388207
REMARK minimizedRMSD -1
REMARK  0 active torsions:
REMARK  status: ('A' for Active; 'I' for Inactive)
ROOT
ATOM      1  C2' OXE d   1      -0.737   0.093   0.105  0.00  0.00     0.078 C 
ATOM      2  C1' OXE d   1       0.356   1.143  -2.257  0.00  0.00     0.078 C 
ATOM      3  C1  OXE d   1       0.668   1.851  -0.962  0.00  0.00    -0.078 A 
ATOM      4  C2  OXE d   1       0.091   1.357   0.183  0.00  0.00    -0.078 A 
ATOM      5  C3  OXE d   1       0.390   1.940   1.411  0.00  0.00     0.003 A 
ATOM      6  C4  OXE d   1       1.148   3.115   1.473  0.00  0.00    -0.002 A 
ATOM      7  C5  OXE d   1       1.713   3.657   0.314  0.00  0.00    -0.002 A 
ATOM      8  C6  OXE d   1       1.518   3.015  -0.904  0.00  0.00     0.003 A 
ENDROOT
TORSDOF 0
ENDMDL
