MODEL 1
REMARK minimizedAffinity -2.57612562
REMARK minimizedRMSD -1
REMARK  0 active torsions:
REMARK  status: ('A' for Active; 'I' for Inactive)
ROOT
ATOM      1  C2' OXE d   1       0.066  -0.264  -2.499  0.00  0.00     0.078 C 
ATOM      2  C1' OXE d   1      -0.690  -2.956  -2.244  0.00  0.00     0.078 C 
ATOM      3  C1  OXE d   1      -0.634  -2.119  -0.991  0.00  0.00    -0.078 A 
ATOM      4  C2  OXE d   1      -0.217  -0.816  -1.119  0.00  0.00    -0.078 A 
ATOM      5  C3  OXE d   1      -0.199   0.015  -0.002  0.00  0.00     0.003 A 
ATOM      6  C4  OXE d   1      -0.453  -0.505   1.273  0.00  0.00    -0.002 A 
ATOM      7  C5  OXE d   1      -0.840  -1.840   1.430  0.00  0.00    -0.002 A 
ATOM      8  C6  OXE d   1      -0.976  -2.648   0.307  0.00  0.00     0.003 A 
ENDROOT
TORSDOF 0
ENDMDL
