MODEL 1
REMARK minimizedAffinity -1.02666283
REMARK minimizedRMSD -1
REMARK  0 active torsions:
REMARK  status: ('A' for Active; 'I' for Inactive)
ROOT
ATOM      1  C2' OXE d   1      -0.548   0.640   0.372  0.00  0.00     0.078 C 
ATOM      2  C1' OXE d   1       0.240   1.723  -2.095  0.00  0.00     0.078 C 
ATOM      3  C1  OXE d   1       0.921   2.237  -0.852  0.00  0.00    -0.078 A 
ATOM      4  C2  OXE d   1       0.497   1.736   0.355  0.00  0.00    -0.078 A 
ATOM      5  C3  OXE d   1       1.129   2.136   1.528  0.00  0.00     0.003 A 
ATOM      6  C4  OXE d   1       2.087   3.157   1.504  0.00  0.00    -0.002 A 
ATOM      7  C5  OXE d   1       2.506   3.710   0.289  0.00  0.00    -0.002 A 
ATOM      8  C6  OXE d   1       1.964   3.232  -0.899  0.00  0.00     0.003 A 
ENDROOT
TORSDOF 0
ENDMDL
