MODEL 1
REMARK minimizedAffinity 7.8302021
REMARK minimizedRMSD -1
REMARK  0 active torsions:
REMARK  status: ('A' for Active; 'I' for Inactive)
ROOT
ATOM      1  C2' OXE d   1       1.663   2.660   1.691  0.00  0.00     0.078 C 
ATOM      2  C1' OXE d   1      -0.652   2.554   0.108  0.00  0.00     0.078 C 
ATOM      3  C1  OXE d   1      -0.577   3.619   1.174  0.00  0.00    -0.078 A 
ATOM      4  C2  OXE d   1       0.540   3.633   1.974  0.00  0.00    -0.078 A 
ATOM      5  C3  OXE d   1       0.685   4.628   2.937  0.00  0.00     0.003 A 
ATOM      6  C4  OXE d   1      -0.364   5.518   3.200  0.00  0.00    -0.002 A 
ATOM      7  C5  OXE d   1      -1.526   5.495   2.422  0.00  0.00    -0.002 A 
ATOM      8  C6  OXE d   1      -1.631   4.581   1.379  0.00  0.00     0.003 A 
ENDROOT
TORSDOF 0
ENDMDL
