MODEL 1
REMARK minimizedAffinity -4.06997204
REMARK minimizedRMSD -1
REMARK  0 active torsions:
REMARK  status: ('A' for Active; 'I' for Inactive)
ROOT
ATOM      1  C2' OXE d   1       0.171   1.753   0.145  0.00  0.00     0.078 C 
ATOM      2  C1' OXE d   1       1.100   0.010  -1.850  0.00  0.00     0.078 C 
ATOM      3  C1  OXE d   1       0.351  -0.588  -0.686  0.00  0.00    -0.078 A 
ATOM      4  C2  OXE d   1      -0.059   0.266   0.309  0.00  0.00    -0.078 A 
ATOM      5  C3  OXE d   1      -0.801  -0.227   1.379  0.00  0.00     0.003 A 
ATOM      6  C4  OXE d   1      -1.000  -1.604   1.528  0.00  0.00    -0.002 A 
ATOM      7  C5  OXE d   1      -0.556  -2.496   0.546  0.00  0.00    -0.002 A 
ATOM      8  C6  OXE d   1       0.083  -2.002  -0.586  0.00  0.00     0.003 A 
ENDROOT
TORSDOF 0
ENDMDL
