MODEL 1
REMARK minimizedAffinity 0.881194115
REMARK minimizedRMSD -1
REMARK  0 active torsions:
REMARK  status: ('A' for Active; 'I' for Inactive)
ROOT
ATOM      1  C   UNL d   1      -2.566  -2.550  -4.838  0.00  0.00     0.077 C 
ATOM      2  C1  UNL d   1      -2.321  -2.626  -3.361  0.00  0.00    -0.074 A 
ATOM      3  C2  UNL d   1      -2.494  -3.826  -2.663  0.00  0.00    -0.005 A 
ATOM      4  C3  UNL d   1      -2.252  -3.883  -1.291  0.00  0.00     0.006 A 
ATOM      5  C4  UNL d   1      -1.837  -2.742  -0.603  0.00  0.00    -0.005 A 
ATOM      6  C5  UNL d   1      -1.658  -1.534  -1.283  0.00  0.00    -0.074 A 
ATOM      7  C6  UNL d   1      -1.202  -0.301  -0.560  0.00  0.00     0.077 C 
ATOM      8  C7  UNL d   1      -1.895  -1.486  -2.663  0.00  0.00    -0.001 A 
ENDROOT
TORSDOF 0
ENDMDL
