MODEL 1
REMARK minimizedAffinity 5.48294735
REMARK minimizedRMSD -1
REMARK  0 active torsions:
REMARK  status: ('A' for Active; 'I' for Inactive)
ROOT
ATOM      1  C   UNL d   1       1.258   2.890   4.192  0.00  0.00     0.077 C 
ATOM      2  C1  UNL d   1       1.580   2.566   2.763  0.00  0.00    -0.074 A 
ATOM      3  C2  UNL d   1       1.102   1.394   2.167  0.00  0.00    -0.005 A 
ATOM      4  C3  UNL d   1       1.401   1.110   0.835  0.00  0.00     0.006 A 
ATOM      5  C4  UNL d   1       2.180   1.993   0.086  0.00  0.00    -0.005 A 
ATOM      6  C5  UNL d   1       2.666   3.170   0.665  0.00  0.00    -0.074 A 
ATOM      7  C6  UNL d   1       3.496   4.134  -0.129  0.00  0.00     0.077 C 
ATOM      8  C7  UNL d   1       2.355   3.452   2.002  0.00  0.00    -0.001 A 
ENDROOT
TORSDOF 0
ENDMDL
