MODEL 1
REMARK minimizedAffinity 0.840147614
REMARK minimizedRMSD -1
REMARK  0 active torsions:
REMARK  status: ('A' for Active; 'I' for Inactive)
ROOT
ATOM      1  C   UNL d   1      -4.197   4.874   5.380  0.00  0.00     0.077 C 
ATOM      2  C1  UNL d   1      -4.698   4.929   3.967  0.00  0.00    -0.074 A 
ATOM      3  C2  UNL d   1      -5.549   5.956   3.546  0.00  0.00    -0.005 A 
ATOM      4  C3  UNL d   1      -6.000   5.999   2.227  0.00  0.00     0.006 A 
ATOM      5  C4  UNL d   1      -5.604   5.018   1.317  0.00  0.00    -0.005 A 
ATOM      6  C5  UNL d   1      -4.753   3.985   1.719  0.00  0.00    -0.074 A 
ATOM      7  C6  UNL d   1      -4.310   2.928   0.751  0.00  0.00     0.077 C 
ATOM      8  C7  UNL d   1      -4.299   3.952   3.045  0.00  0.00    -0.001 A 
ENDROOT
TORSDOF 0
ENDMDL
