MODEL 1
REMARK minimizedAffinity -0.0260972232
REMARK minimizedRMSD -1
REMARK  0 active torsions:
REMARK  status: ('A' for Active; 'I' for Inactive)
ROOT
ATOM      1  C   UNL d   1      -0.670  -0.781  -0.270  0.00  0.00     0.077 C 
ATOM      2  C1  UNL d   1      -1.420  -1.291  -1.465  0.00  0.00    -0.074 A 
ATOM      3  C2  UNL d   1      -1.724  -0.446  -2.537  0.00  0.00    -0.005 A 
ATOM      4  C3  UNL d   1      -2.413  -0.936  -3.646  0.00  0.00     0.006 A 
ATOM      5  C4  UNL d   1      -2.804  -2.275  -3.695  0.00  0.00    -0.005 A 
ATOM      6  C5  UNL d   1      -2.508  -3.135  -2.633  0.00  0.00    -0.074 A 
ATOM      7  C6  UNL d   1      -2.912  -4.579  -2.673  0.00  0.00     0.077 C 
ATOM      8  C7  UNL d   1      -1.809  -2.637  -1.525  0.00  0.00    -0.001 A 
ENDROOT
TORSDOF 0
ENDMDL
