MODEL 1
REMARK minimizedAffinity 0.523708642
REMARK minimizedRMSD -1
REMARK  0 active torsions:
REMARK  status: ('A' for Active; 'I' for Inactive)
ROOT
ATOM      1  C   UNL d   1      -2.869  -2.343  -1.583  0.00  0.00     0.077 C 
ATOM      2  C1  UNL d   1      -2.287  -1.402  -0.570  0.00  0.00    -0.074 A 
ATOM      3  C2  UNL d   1      -1.096  -0.715  -0.827  0.00  0.00    -0.005 A 
ATOM      4  C3  UNL d   1      -0.573   0.164   0.120  0.00  0.00     0.006 A 
ATOM      5  C4  UNL d   1      -1.234   0.366   1.333  0.00  0.00    -0.005 A 
ATOM      6  C5  UNL d   1      -2.426  -0.311   1.607  0.00  0.00    -0.074 A 
ATOM      7  C6  UNL d   1      -3.155  -0.099   2.901  0.00  0.00     0.077 C 
ATOM      8  C7  UNL d   1      -2.950  -1.188   0.647  0.00  0.00    -0.001 A 
ENDROOT
TORSDOF 0
ENDMDL
