MODEL 1
REMARK minimizedAffinity -4.25641346
REMARK minimizedRMSD -1
REMARK  0 active torsions:
REMARK  status: ('A' for Active; 'I' for Inactive)
ROOT
ATOM      1  C   UNL d   1      -4.492   1.735   4.144  0.00  0.00     0.077 C 
ATOM      2  C1  UNL d   1      -4.701   3.220   4.122  0.00  0.00    -0.074 A 
ATOM      3  C2  UNL d   1      -4.845   3.944   5.311  0.00  0.00    -0.005 A 
ATOM      4  C3  UNL d   1      -5.028   5.326   5.275  0.00  0.00     0.006 A 
ATOM      5  C4  UNL d   1      -5.069   5.998   4.052  0.00  0.00    -0.005 A 
ATOM      6  C5  UNL d   1      -4.926   5.291   2.854  0.00  0.00    -0.074 A 
ATOM      7  C6  UNL d   1      -4.957   5.999   1.532  0.00  0.00     0.077 C 
ATOM      8  C7  UNL d   1      -4.735   3.903   2.899  0.00  0.00    -0.001 A 
ENDROOT
TORSDOF 0
ENDMDL
