MODEL 1
REMARK minimizedAffinity 1.13539743
REMARK minimizedRMSD -1
REMARK  0 active torsions:
REMARK  status: ('A' for Active; 'I' for Inactive)
ROOT
ATOM      1  C   UNL d   1      -1.960  -0.366  -1.384  0.00  0.00     0.077 C 
ATOM      2  C1  UNL d   1      -0.633  -0.396  -0.685  0.00  0.00    -0.074 A 
ATOM      3  C2  UNL d   1      -0.554  -0.583   0.699  0.00  0.00    -0.005 A 
ATOM      4  C3  UNL d   1       0.687  -0.618   1.334  0.00  0.00     0.006 A 
ATOM      5  C4  UNL d   1       1.860  -0.466   0.593  0.00  0.00    -0.005 A 
ATOM      6  C5  UNL d   1       1.801  -0.279  -0.792  0.00  0.00    -0.074 A 
ATOM      7  C6  UNL d   1       3.052  -0.124  -1.604  0.00  0.00     0.077 C 
ATOM      8  C7  UNL d   1       0.550  -0.252  -1.423  0.00  0.00    -0.001 A 
ENDROOT
TORSDOF 0
ENDMDL
