MODEL 1
REMARK minimizedAffinity 0.524238825
REMARK minimizedRMSD -1
REMARK  0 active torsions:
REMARK  status: ('A' for Active; 'I' for Inactive)
ROOT
ATOM      1  C   UNL d   1      -0.703   0.645  -1.423  0.00  0.00     0.077 C 
ATOM      2  C1  UNL d   1       0.559   0.244  -2.127  0.00  0.00    -0.074 A 
ATOM      3  C2  UNL d   1       1.699  -0.125  -1.404  0.00  0.00    -0.005 A 
ATOM      4  C3  UNL d   1       2.862  -0.504  -2.073  0.00  0.00     0.006 A 
ATOM      5  C4  UNL d   1       2.899  -0.519  -3.468  0.00  0.00    -0.005 A 
ATOM      6  C5  UNL d   1       1.769  -0.155  -4.207  0.00  0.00    -0.074 A 
ATOM      7  C6  UNL d   1       1.788  -0.174  -5.706  0.00  0.00     0.077 C 
ATOM      8  C7  UNL d   1       0.601   0.219  -3.528  0.00  0.00    -0.001 A 
ENDROOT
TORSDOF 0
ENDMDL
