MODEL 1
REMARK minimizedAffinity 5.29541874
REMARK minimizedRMSD -1
REMARK  0 active torsions:
REMARK  status: ('A' for Active; 'I' for Inactive)
ROOT
ATOM      1  C   UNL d   1      -4.302   5.272   0.092  0.00  0.00     0.077 C 
ATOM      2  C1  UNL d   1      -4.531   5.446   1.563  0.00  0.00    -0.074 A 
ATOM      3  C2  UNL d   1      -5.798   5.767   2.061  0.00  0.00    -0.005 A 
ATOM      4  C3  UNL d   1      -5.998   5.917   3.433  0.00  0.00     0.006 A 
ATOM      5  C4  UNL d   1      -4.935   5.748   4.320  0.00  0.00    -0.005 A 
ATOM      6  C5  UNL d   1      -3.660   5.427   3.842  0.00  0.00    -0.074 A 
ATOM      7  C6  UNL d   1      -2.509   5.233   4.783  0.00  0.00     0.077 C 
ATOM      8  C7  UNL d   1      -3.469   5.271   2.462  0.00  0.00    -0.001 A 
ENDROOT
TORSDOF 0
ENDMDL
