MODEL 1
REMARK minimizedAffinity 5.68834543
REMARK minimizedRMSD -1
REMARK  0 active torsions:
REMARK  status: ('A' for Active; 'I' for Inactive)
ROOT
ATOM      1  C   UNL d   1      -0.002   0.011  -0.775  0.00  0.00     0.077 C 
ATOM      2  C1  UNL d   1       1.056  -0.213  -1.814  0.00  0.00    -0.074 A 
ATOM      3  C2  UNL d   1       2.304  -0.741  -1.468  0.00  0.00    -0.005 A 
ATOM      4  C3  UNL d   1       3.274  -0.953  -2.447  0.00  0.00     0.006 A 
ATOM      5  C4  UNL d   1       3.007  -0.640  -3.781  0.00  0.00    -0.005 A 
ATOM      6  C5  UNL d   1       1.764  -0.113  -4.146  0.00  0.00    -0.074 A 
ATOM      7  C6  UNL d   1       1.456   0.219  -5.576  0.00  0.00     0.077 C 
ATOM      8  C7  UNL d   1       0.792   0.091  -3.157  0.00  0.00    -0.001 A 
ENDROOT
TORSDOF 0
ENDMDL
