MODEL 1
REMARK minimizedAffinity 11.1305752
REMARK minimizedRMSD -1
REMARK  0 active torsions:
REMARK  status: ('A' for Active; 'I' for Inactive)
ROOT
ATOM      1  C   UNL d   1      -0.124   0.955  -1.093  0.00  0.00     0.077 C 
ATOM      2  C1  UNL d   1      -0.801  -0.383  -1.136  0.00  0.00    -0.074 A 
ATOM      3  C2  UNL d   1      -0.964  -1.144   0.026  0.00  0.00    -0.005 A 
ATOM      4  C3  UNL d   1      -1.604  -2.382  -0.029  0.00  0.00     0.006 A 
ATOM      5  C4  UNL d   1      -2.087  -2.871  -1.243  0.00  0.00    -0.005 A 
ATOM      6  C5  UNL d   1      -1.934  -2.123  -2.415  0.00  0.00    -0.074 A 
ATOM      7  C6  UNL d   1      -2.455  -2.630  -3.727  0.00  0.00     0.077 C 
ATOM      8  C7  UNL d   1      -1.296  -0.877  -2.351  0.00  0.00    -0.001 A 
ENDROOT
TORSDOF 0
ENDMDL
