MODEL 1
REMARK minimizedAffinity -0.935535312
REMARK minimizedRMSD -1
REMARK  0 active torsions:
REMARK  status: ('A' for Active; 'I' for Inactive)
ROOT
ATOM      1  C   UNL d   1      -5.910   5.465   4.886  0.00  0.00     0.077 C 
ATOM      2  C1  UNL d   1      -5.224   5.501   3.553  0.00  0.00    -0.074 A 
ATOM      3  C2  UNL d   1      -3.916   5.982   3.431  0.00  0.00    -0.005 A 
ATOM      4  C3  UNL d   1      -3.287   6.000   2.186  0.00  0.00     0.006 A 
ATOM      5  C4  UNL d   1      -3.959   5.539   1.053  0.00  0.00    -0.005 A 
ATOM      6  C5  UNL d   1      -5.266   5.054   1.156  0.00  0.00    -0.074 A 
ATOM      7  C6  UNL d   1      -5.999   4.545  -0.050  0.00  0.00     0.077 C 
ATOM      8  C7  UNL d   1      -5.889   5.032   2.412  0.00  0.00    -0.001 A 
ENDROOT
TORSDOF 0
ENDMDL
