MODEL 1
REMARK minimizedAffinity 5.26538801
REMARK minimizedRMSD -1
REMARK  0 active torsions:
REMARK  status: ('A' for Active; 'I' for Inactive)
ROOT
ATOM      1  C   UNL d   1      -2.998  -2.844   5.999  0.00  0.00     0.077 C 
ATOM      2  C1  UNL d   1      -2.972  -1.544   5.253  0.00  0.00    -0.074 A 
ATOM      3  C2  UNL d   1      -2.711  -1.508   3.879  0.00  0.00    -0.005 A 
ATOM      4  C3  UNL d   1      -2.700  -0.292   3.196  0.00  0.00     0.006 A 
ATOM      5  C4  UNL d   1      -2.949   0.899   3.879  0.00  0.00    -0.005 A 
ATOM      6  C5  UNL d   1      -3.212   0.884   5.253  0.00  0.00    -0.074 A 
ATOM      7  C6  UNL d   1      -3.492   2.154   6.000  0.00  0.00     0.077 C 
ATOM      8  C7  UNL d   1      -3.229  -0.343   5.930  0.00  0.00    -0.001 A 
ENDROOT
TORSDOF 0
ENDMDL
