MODEL 1
REMARK minimizedAffinity 0.94333744
REMARK minimizedRMSD -1
REMARK  0 active torsions:
REMARK  status: ('A' for Active; 'I' for Inactive)
ROOT
ATOM      1  C   UNL d   1      -5.933   6.000   4.222  0.00  0.00     0.077 C 
ATOM      2  C1  UNL d   1      -5.330   5.546   2.926  0.00  0.00    -0.074 A 
ATOM      3  C2  UNL d   1      -4.209   4.710   2.908  0.00  0.00    -0.005 A 
ATOM      4  C3  UNL d   1      -3.666   4.288   1.695  0.00  0.00     0.006 A 
ATOM      5  C4  UNL d   1      -4.236   4.698   0.489  0.00  0.00    -0.005 A 
ATOM      6  C5  UNL d   1      -5.358   5.533   0.487  0.00  0.00    -0.074 A 
ATOM      7  C6  UNL d   1      -5.989   5.975  -0.800  0.00  0.00     0.077 C 
ATOM      8  C7  UNL d   1      -5.902   5.947   1.710  0.00  0.00    -0.001 A 
ENDROOT
TORSDOF 0
ENDMDL
