MODEL 1
REMARK minimizedAffinity -4.54701948
REMARK minimizedRMSD -1
REMARK  0 active torsions:
REMARK  status: ('A' for Active; 'I' for Inactive)
ROOT
ATOM      1  C   UNL d   1      -6.000  -4.500   1.885  0.00  0.00     0.077 C 
ATOM      2  C1  UNL d   1      -4.820  -4.479   0.959  0.00  0.00    -0.074 A 
ATOM      3  C2  UNL d   1      -4.257  -5.668   0.485  0.00  0.00    -0.005 A 
ATOM      4  C3  UNL d   1      -3.166  -5.633  -0.383  0.00  0.00     0.006 A 
ATOM      5  C4  UNL d   1      -2.628  -4.410  -0.786  0.00  0.00    -0.005 A 
ATOM      6  C5  UNL d   1      -3.178  -3.211  -0.323  0.00  0.00    -0.074 A 
ATOM      7  C6  UNL d   1      -2.618  -1.888  -0.753  0.00  0.00     0.077 C 
ATOM      8  C7  UNL d   1      -4.279  -3.254   0.544  0.00  0.00    -0.001 A 
ENDROOT
TORSDOF 0
ENDMDL
