MODEL 1
REMARK minimizedAffinity -6.02648544
REMARK minimizedRMSD -1
REMARK  0 active torsions:
REMARK  status: ('A' for Active; 'I' for Inactive)
ROOT
ATOM      1  C   UNL d   1      -5.512  -4.591   1.079  0.00  0.00     0.077 C 
ATOM      2  C1  UNL d   1      -4.439  -3.679   0.563  0.00  0.00    -0.074 A 
ATOM      3  C2  UNL d   1      -3.611  -4.068  -0.494  0.00  0.00    -0.005 A 
ATOM      4  C3  UNL d   1      -2.624  -3.205  -0.970  0.00  0.00     0.006 A 
ATOM      5  C4  UNL d   1      -2.455  -1.945  -0.393  0.00  0.00    -0.005 A 
ATOM      6  C5  UNL d   1      -3.274  -1.538   0.664  0.00  0.00    -0.074 A 
ATOM      7  C6  UNL d   1      -3.113  -0.184   1.289  0.00  0.00     0.077 C 
ATOM      8  C7  UNL d   1      -4.269  -2.408   1.132  0.00  0.00    -0.001 A 
ENDROOT
TORSDOF 0
ENDMDL
