MODEL 1
REMARK minimizedAffinity -2.05200291
REMARK minimizedRMSD -1
REMARK  0 active torsions:
REMARK  status: ('A' for Active; 'I' for Inactive)
ROOT
ATOM      1  C   UNL d   1      -5.099   4.889   1.699  0.00  0.00     0.077 C 
ATOM      2  C1  UNL d   1      -5.128   4.864   3.198  0.00  0.00    -0.074 A 
ATOM      3  C2  UNL d   1      -5.492   6.000   3.929  0.00  0.00    -0.005 A 
ATOM      4  C3  UNL d   1      -5.523   5.959   5.323  0.00  0.00     0.006 A 
ATOM      5  C4  UNL d   1      -5.190   4.784   5.999  0.00  0.00    -0.005 A 
ATOM      6  C5  UNL d   1      -4.825   3.638   5.285  0.00  0.00    -0.074 A 
ATOM      7  C6  UNL d   1      -4.474   2.365   5.996  0.00  0.00     0.077 C 
ATOM      8  C7  UNL d   1      -4.803   3.685   3.884  0.00  0.00    -0.001 A 
ENDROOT
TORSDOF 0
ENDMDL
