MODEL 1
REMARK minimizedAffinity 10.6918411
REMARK minimizedRMSD -1
REMARK  0 active torsions:
REMARK  status: ('A' for Active; 'I' for Inactive)
ROOT
ATOM      1  C   UNL d   1      -2.400  -2.342  -5.433  0.00  0.00     0.077 C 
ATOM      2  C1  UNL d   1      -2.279  -2.505  -3.947  0.00  0.00    -0.074 A 
ATOM      3  C2  UNL d   1      -2.763  -3.651  -3.308  0.00  0.00    -0.005 A 
ATOM      4  C3  UNL d   1      -2.635  -3.793  -1.927  0.00  0.00     0.006 A 
ATOM      5  C4  UNL d   1      -2.023  -2.792  -1.171  0.00  0.00    -0.005 A 
ATOM      6  C5  UNL d   1      -1.533  -1.639  -1.793  0.00  0.00    -0.074 A 
ATOM      7  C6  UNL d   1      -0.864  -0.558  -0.997  0.00  0.00     0.077 C 
ATOM      8  C7  UNL d   1      -1.659  -1.507  -3.182  0.00  0.00    -0.001 A 
ENDROOT
TORSDOF 0
ENDMDL
