MODEL 1
REMARK minimizedAffinity 3.48778272
REMARK minimizedRMSD -1
REMARK  0 active torsions:
REMARK  status: ('A' for Active; 'I' for Inactive)
ROOT
ATOM      1  C   UNL d   1       3.425   2.714   2.189  0.00  0.00     0.077 C 
ATOM      2  C1  UNL d   1       2.588   2.192   3.318  0.00  0.00    -0.074 A 
ATOM      3  C2  UNL d   1       1.589   2.982   3.897  0.00  0.00    -0.005 A 
ATOM      4  C3  UNL d   1       0.812   2.480   4.941  0.00  0.00     0.006 A 
ATOM      5  C4  UNL d   1       1.025   1.186   5.416  0.00  0.00    -0.005 A 
ATOM      6  C5  UNL d   1       2.019   0.381   4.849  0.00  0.00    -0.074 A 
ATOM      7  C6  UNL d   1       2.254  -1.016   5.341  0.00  0.00     0.077 C 
ATOM      8  C7  UNL d   1       2.791   0.890   3.796  0.00  0.00    -0.001 A 
ENDROOT
TORSDOF 0
ENDMDL
