MODEL 1
REMARK minimizedAffinity -1.28157961
REMARK minimizedRMSD -1
REMARK  0 active torsions:
REMARK  status: ('A' for Active; 'I' for Inactive)
ROOT
ATOM      1  C1  BNZ d   1       0.191  -0.184   1.314  0.00  0.00     0.000 A 
ATOM      2  C2  BNZ d   1      -1.150   0.094   1.309  0.00  0.00     0.000 A 
ATOM      3  C3  BNZ d   1      -1.830   0.240   0.133  0.00  0.00     0.000 A 
ATOM      4  C4  BNZ d   1      -1.163   0.148  -1.035  0.00  0.00     0.000 A 
ATOM      5  C5  BNZ d   1       0.191  -0.123  -1.047  0.00  0.00     0.000 A 
ATOM      6  C6  BNZ d   1       0.865  -0.308   0.138  0.00  0.00     0.000 A 
ENDROOT
TORSDOF 0
ENDMDL
