MODEL 1
REMARK minimizedAffinity -3.57354593
REMARK minimizedRMSD -1
REMARK  0 active torsions:
REMARK  status: ('A' for Active; 'I' for Inactive)
ROOT
ATOM      1  C1  BNZ d   1      -1.831   0.249   0.272  0.00  0.00     0.000 A 
ATOM      2  C2  BNZ d   1      -0.726  -0.108  -0.454  0.00  0.00     0.000 A 
ATOM      3  C3  BNZ d   1       0.429  -0.488   0.171  0.00  0.00     0.000 A 
ATOM      4  C4  BNZ d   1       0.490  -0.471   1.518  0.00  0.00     0.000 A 
ATOM      5  C5  BNZ d   1      -0.612  -0.104   2.264  0.00  0.00     0.000 A 
ATOM      6  C6  BNZ d   1      -1.785   0.240   1.632  0.00  0.00     0.000 A 
ENDROOT
TORSDOF 0
ENDMDL
