MODEL 1
REMARK minimizedAffinity -1.96391678
REMARK minimizedRMSD -1
REMARK  0 active torsions:
REMARK  status: ('A' for Active; 'I' for Inactive)
ROOT
ATOM      1  C1  BNZ d   1       0.730  -0.783   1.423  0.00  0.00     0.000 A 
ATOM      2  C2  BNZ d   1       0.663  -0.730   0.057  0.00  0.00     0.000 A 
ATOM      3  C3  BNZ d   1      -0.474  -0.305  -0.573  0.00  0.00     0.000 A 
ATOM      4  C4  BNZ d   1      -1.554   0.027   0.163  0.00  0.00     0.000 A 
ATOM      5  C5  BNZ d   1      -1.505  -0.030   1.542  0.00  0.00     0.000 A 
ATOM      6  C6  BNZ d   1      -0.347  -0.421   2.173  0.00  0.00     0.000 A 
ENDROOT
TORSDOF 0
ENDMDL
