MODEL 1
REMARK minimizedAffinity -3.87427688
REMARK minimizedRMSD -1
REMARK  0 active torsions:
REMARK  status: ('A' for Active; 'I' for Inactive)
ROOT
ATOM      1  C1  BNZ d   1      -0.031  -0.867   0.255  0.00  0.00     0.000 A 
ATOM      2  C2  BNZ d   1       0.098  -0.435   1.548  0.00  0.00     0.000 A 
ATOM      3  C3  BNZ d   1      -0.863   0.349   2.123  0.00  0.00     0.000 A 
ATOM      4  C4  BNZ d   1      -1.929   0.733   1.392  0.00  0.00     0.000 A 
ATOM      5  C5  BNZ d   1      -2.069   0.314   0.084  0.00  0.00     0.000 A 
ATOM      6  C6  BNZ d   1      -1.119  -0.508  -0.478  0.00  0.00     0.000 A 
ENDROOT
TORSDOF 0
ENDMDL
