MODEL 1
REMARK minimizedAffinity -2.9295857
REMARK minimizedRMSD -1
REMARK  0 active torsions:
REMARK  status: ('A' for Active; 'I' for Inactive)
ROOT
ATOM      1  C1  BNZ d   1      -1.293   0.745   2.645  0.00  0.00     0.000 A 
ATOM      2  C2  BNZ d   1      -0.451   0.452   3.684  0.00  0.00     0.000 A 
ATOM      3  C3  BNZ d   1       0.796  -0.060   3.452  0.00  0.00     0.000 A 
ATOM      4  C4  BNZ d   1       1.183  -0.314   2.186  0.00  0.00     0.000 A 
ATOM      5  C5  BNZ d   1       0.341  -0.033   1.128  0.00  0.00     0.000 A 
ATOM      6  C6  BNZ d   1      -0.898   0.518   1.362  0.00  0.00     0.000 A 
ENDROOT
TORSDOF 0
ENDMDL
