MODEL 1
REMARK minimizedAffinity 0.807829201
REMARK minimizedRMSD -1
REMARK  0 active torsions:
REMARK  status: ('A' for Active; 'I' for Inactive)
ROOT
ATOM      1  C1  BNZ d   1      -1.109  -0.698  -1.008  0.00  0.00     0.000 A 
ATOM      2  C2  BNZ d   1       0.040   0.021  -0.815  0.00  0.00     0.000 A 
ATOM      3  C3  BNZ d   1       0.344   0.538   0.414  0.00  0.00     0.000 A 
ATOM      4  C4  BNZ d   1      -0.520   0.369   1.436  0.00  0.00     0.000 A 
ATOM      5  C5  BNZ d   1      -1.687  -0.345   1.254  0.00  0.00     0.000 A 
ATOM      6  C6  BNZ d   1      -1.971  -0.897   0.026  0.00  0.00     0.000 A 
ENDROOT
TORSDOF 0
ENDMDL
