MODEL 1
REMARK minimizedAffinity -3.25547433
REMARK minimizedRMSD -1
REMARK  0 active torsions:
REMARK  status: ('A' for Active; 'I' for Inactive)
ROOT
ATOM      1  C1  BNZ d   1      -0.606  -0.471  -0.407  0.00  0.00     0.000 A 
ATOM      2  C2  BNZ d   1      -1.712   0.046   0.214  0.00  0.00     0.000 A 
ATOM      3  C3  BNZ d   1      -1.656   0.457   1.516  0.00  0.00     0.000 A 
ATOM      4  C4  BNZ d   1      -0.507   0.314   2.208  0.00  0.00     0.000 A 
ATOM      5  C5  BNZ d   1       0.614  -0.214   1.599  0.00  0.00     0.000 A 
ATOM      6  C6  BNZ d   1       0.565  -0.591   0.276  0.00  0.00     0.000 A 
ENDROOT
TORSDOF 0
ENDMDL
