MODEL 1
REMARK minimizedAffinity -4.94886255
REMARK minimizedRMSD -1
REMARK  1 active torsions:
REMARK  status: ('A' for Active; 'I' for Inactive)
REMARK    1  A    between atoms: C3_4  and  O_7 
ROOT
ATOM      1  C   UNL d   1       2.017  -1.041  -2.940  0.00  0.00    -0.033 A 
ATOM      2  C1  UNL d   1       1.611  -2.113  -2.143  0.00  0.00     0.039 A 
ATOM      3  C2  UNL d   1       0.739  -1.900  -1.074  0.00  0.00    -0.080 A 
ATOM      4  C3  UNL d   1       0.280  -0.611  -0.813  0.00  0.00     0.150 A 
ATOM      5  C4  UNL d   1       0.677   0.461  -1.606  0.00  0.00    -0.007 A 
ATOM      6  C5  UNL d   1       1.549   0.245  -2.672  0.00  0.00     0.039 A 
ENDROOT
BRANCH   4   7
ATOM      7  O   UNL d   1      -0.569  -0.353   0.222  0.00  0.00    -0.526 OA
ATOM      8  H5  UNL d   1      -0.734  -1.183   0.699  0.00  0.00     0.418 HD
ENDBRANCH   4   7
TORSDOF 1
ENDMDL
