MODEL 1
REMARK minimizedAffinity -3.80618691
REMARK minimizedRMSD -1
REMARK  1 active torsions:
REMARK  status: ('A' for Active; 'I' for Inactive)
REMARK    1  A    between atoms: C3_4  and  O_7 
ROOT
ATOM      1  C   UNL d   1       0.331  -1.733  -1.887  0.00  0.00    -0.033 A 
ATOM      2  C1  UNL d   1       0.095  -0.357  -1.869  0.00  0.00     0.039 A 
ATOM      3  C2  UNL d   1      -0.249   0.278  -0.675  0.00  0.00    -0.080 A 
ATOM      4  C3  UNL d   1      -0.353  -0.472   0.493  0.00  0.00     0.150 A 
ATOM      5  C4  UNL d   1      -0.116  -1.843   0.483  0.00  0.00    -0.007 A 
ATOM      6  C5  UNL d   1       0.226  -2.476  -0.711  0.00  0.00     0.039 A 
ENDROOT
BRANCH   4   7
ATOM      7  O   UNL d   1      -0.691   0.103   1.682  0.00  0.00    -0.526 OA
ATOM      8  H5  UNL d   1      -0.853   1.049   1.531  0.00  0.00     0.418 HD
ENDBRANCH   4   7
TORSDOF 1
ENDMDL
