MODEL 1
REMARK minimizedAffinity -4.72675037
REMARK minimizedRMSD -1
REMARK  1 active torsions:
REMARK  status: ('A' for Active; 'I' for Inactive)
REMARK    1  A    between atoms: C3_4  and  O_7 
ROOT
ATOM      1  C   UNL d   1       1.991  -0.831  -3.007  0.00  0.00    -0.033 A 
ATOM      2  C1  UNL d   1       1.665  -1.822  -2.080  0.00  0.00     0.039 A 
ATOM      3  C2  UNL d   1       0.987  -1.487  -0.907  0.00  0.00    -0.080 A 
ATOM      4  C3  UNL d   1       0.640  -0.159  -0.673  0.00  0.00     0.150 A 
ATOM      5  C4  UNL d   1       0.958   0.833  -1.595  0.00  0.00    -0.007 A 
ATOM      6  C5  UNL d   1       1.636   0.497  -2.765  0.00  0.00     0.039 A 
ENDROOT
BRANCH   4   7
ATOM      7  O   UNL d   1      -0.018   0.217   0.460  0.00  0.00    -0.526 OA
ATOM      8  H5  UNL d   1      -0.146  -0.569   1.017  0.00  0.00     0.418 HD
ENDBRANCH   4   7
TORSDOF 1
ENDMDL
