MODEL 1
REMARK minimizedAffinity -4.43647861
REMARK minimizedRMSD -1
REMARK  1 active torsions:
REMARK  status: ('A' for Active; 'I' for Inactive)
REMARK    1  A    between atoms: C3_4  and  O_7 
ROOT
ATOM      1  C   UNL d   1      -0.017  -0.987   0.242  0.00  0.00    -0.033 A 
ATOM      2  C1  UNL d   1       0.230  -1.965  -0.723  0.00  0.00     0.039 A 
ATOM      3  C2  UNL d   1       0.775  -1.609  -1.958  0.00  0.00    -0.080 A 
ATOM      4  C3  UNL d   1       1.070  -0.273  -2.215  0.00  0.00     0.150 A 
ATOM      5  C4  UNL d   1       0.830   0.707  -1.257  0.00  0.00    -0.007 A 
ATOM      6  C5  UNL d   1       0.284   0.349  -0.025  0.00  0.00     0.039 A 
ENDROOT
BRANCH   4   7
ATOM      7  O   UNL d   1       1.599   0.124  -3.407  0.00  0.00    -0.526 OA
ATOM      8  H5  UNL d   1       1.683  -0.655  -3.981  0.00  0.00     0.418 HD
ENDBRANCH   4   7
TORSDOF 1
ENDMDL
