MODEL 1
REMARK minimizedAffinity -5.72777796
REMARK minimizedRMSD -1
REMARK  1 active torsions:
REMARK  status: ('A' for Active; 'I' for Inactive)
REMARK    1  A    between atoms: C3_4  and  O_7 
ROOT
ATOM      1  C   UNL d   1       2.056  -1.240  -2.574  0.00  0.00    -0.033 A 
ATOM      2  C1  UNL d   1       1.448  -2.253  -1.829  0.00  0.00     0.039 A 
ATOM      3  C2  UNL d   1       0.491  -1.933  -0.863  0.00  0.00    -0.080 A 
ATOM      4  C3  UNL d   1       0.151  -0.600  -0.653  0.00  0.00     0.150 A 
ATOM      5  C4  UNL d   1       0.750   0.414  -1.394  0.00  0.00    -0.007 A 
ATOM      6  C5  UNL d   1       1.706   0.093  -2.357  0.00  0.00     0.039 A 
ENDROOT
BRANCH   4   7
ATOM      7  O   UNL d   1      -0.773  -0.239   0.282  0.00  0.00    -0.526 OA
ATOM      8  H5  UNL d   1      -1.081  -1.041   0.736  0.00  0.00     0.418 HD
ENDBRANCH   4   7
TORSDOF 1
ENDMDL
