MODEL 1
REMARK minimizedAffinity -4.91036224
REMARK minimizedRMSD -1
REMARK  1 active torsions:
REMARK  status: ('A' for Active; 'I' for Inactive)
REMARK    1  A    between atoms: C3_4  and  O_7 
ROOT
ATOM      1  C   UNL d   1       2.196  -1.402  -2.559  0.00  0.00    -0.033 A 
ATOM      2  C1  UNL d   1       1.653  -2.413  -1.764  0.00  0.00     0.039 A 
ATOM      3  C2  UNL d   1       0.734  -2.098  -0.761  0.00  0.00    -0.080 A 
ATOM      4  C3  UNL d   1       0.367  -0.770  -0.563  0.00  0.00     0.150 A 
ATOM      5  C4  UNL d   1       0.901   0.242  -1.353  0.00  0.00    -0.007 A 
ATOM      6  C5  UNL d   1       1.819  -0.074  -2.354  0.00  0.00     0.039 A 
ENDROOT
BRANCH   4   7
ATOM      7  O   UNL d   1      -0.522  -0.413   0.407  0.00  0.00    -0.526 OA
ATOM      8  H5  UNL d   1      -0.785  -1.213   0.892  0.00  0.00     0.418 HD
ENDBRANCH   4   7
TORSDOF 1
ENDMDL
