MODEL 1
REMARK minimizedAffinity -4.46393347
REMARK minimizedRMSD -1
REMARK  1 active torsions:
REMARK  status: ('A' for Active; 'I' for Inactive)
REMARK    1  A    between atoms: C3_4  and  O_7 
ROOT
ATOM      1  C   UNL d   1      -3.930   1.435  -5.996  0.00  0.00    -0.033 A 
ATOM      2  C1  UNL d   1      -2.923   2.387  -5.827  0.00  0.00     0.039 A 
ATOM      3  C2  UNL d   1      -3.254   3.732  -5.650  0.00  0.00    -0.080 A 
ATOM      4  C3  UNL d   1      -4.594   4.111  -5.643  0.00  0.00     0.150 A 
ATOM      5  C4  UNL d   1      -5.602   3.167  -5.806  0.00  0.00    -0.007 A 
ATOM      6  C5  UNL d   1      -5.270   1.825  -5.983  0.00  0.00     0.039 A 
ENDROOT
BRANCH   4   7
ATOM      7  O   UNL d   1      -4.965   5.412  -5.478  0.00  0.00    -0.526 OA
ATOM      8  H5  UNL d   1      -4.162   5.955  -5.406  0.00  0.00     0.418 HD
ENDBRANCH   4   7
TORSDOF 1
ENDMDL
