MODEL 1
REMARK minimizedAffinity -3.08606648
REMARK minimizedRMSD -1
REMARK  1 active torsions:
REMARK  status: ('A' for Active; 'I' for Inactive)
REMARK    1  A    between atoms: C3_4  and  O_7 
ROOT
ATOM      1  C   UNL d   1      -0.186   0.099   1.175  0.00  0.00    -0.033 A 
ATOM      2  C1  UNL d   1       0.031  -0.906   0.231  0.00  0.00     0.039 A 
ATOM      3  C2  UNL d   1       0.676  -0.611  -0.972  0.00  0.00    -0.080 A 
ATOM      4  C3  UNL d   1       1.101   0.692  -1.217  0.00  0.00     0.150 A 
ATOM      5  C4  UNL d   1       0.892   1.698  -0.279  0.00  0.00    -0.007 A 
ATOM      6  C5  UNL d   1       0.246   1.401   0.921  0.00  0.00     0.039 A 
ENDROOT
BRANCH   4   7
ATOM      7  O   UNL d   1       1.731   1.030  -2.377  0.00  0.00    -0.526 OA
ATOM      8  H5  UNL d   1       1.780   0.241  -2.942  0.00  0.00     0.418 HD
ENDBRANCH   4   7
TORSDOF 1
ENDMDL
