MODEL 1
REMARK minimizedAffinity -3.3311789
REMARK minimizedRMSD -1
REMARK  1 active torsions:
REMARK  status: ('A' for Active; 'I' for Inactive)
REMARK    1  A    between atoms: C3_4  and  O_7 
ROOT
ATOM      1  C   UNL d   1       0.156  -0.178   0.296  0.00  0.00    -0.033 A 
ATOM      2  C1  UNL d   1       0.809   1.017  -0.013  0.00  0.00     0.039 A 
ATOM      3  C2  UNL d   1       1.268   1.248  -1.311  0.00  0.00    -0.080 A 
ATOM      4  C3  UNL d   1       1.068   0.278  -2.290  0.00  0.00     0.150 A 
ATOM      5  C4  UNL d   1       0.415  -0.913  -1.990  0.00  0.00    -0.007 A 
ATOM      6  C5  UNL d   1      -0.042  -1.143  -0.693  0.00  0.00     0.039 A 
ENDROOT
BRANCH   4   7
ATOM      7  O   UNL d   1       1.502   0.457  -3.569  0.00  0.00    -0.526 OA
ATOM      8  H5  UNL d   1       1.960   1.312  -3.622  0.00  0.00     0.418 HD
ENDBRANCH   4   7
TORSDOF 1
ENDMDL
