MODEL 1
REMARK minimizedAffinity -3.84020376
REMARK minimizedRMSD -1
REMARK  1 active torsions:
REMARK  status: ('A' for Active; 'I' for Inactive)
REMARK    1  A    between atoms: C3_4  and  O_7 
ROOT
ATOM      1  C   UNL d   1      -4.290   0.973  -5.874  0.00  0.00    -0.033 A 
ATOM      2  C1  UNL d   1      -3.349   2.005  -5.886  0.00  0.00     0.039 A 
ATOM      3  C2  UNL d   1      -3.733   3.306  -5.553  0.00  0.00    -0.080 A 
ATOM      4  C3  UNL d   1      -5.058   3.561  -5.211  0.00  0.00     0.150 A 
ATOM      5  C4  UNL d   1      -6.000   2.537  -5.194  0.00  0.00    -0.007 A 
ATOM      6  C5  UNL d   1      -5.615   1.239  -5.526  0.00  0.00     0.039 A 
ENDROOT
BRANCH   4   7
ATOM      7  O   UNL d   1      -5.481   4.815  -4.884  0.00  0.00    -0.526 OA
ATOM      8  H5  UNL d   1      -4.729   5.425  -4.967  0.00  0.00     0.418 HD
ENDBRANCH   4   7
TORSDOF 1
ENDMDL
