MODEL 1
REMARK minimizedAffinity -2.03811383
REMARK minimizedRMSD -1
REMARK  1 active torsions:
REMARK  status: ('A' for Active; 'I' for Inactive)
REMARK    1  A    between atoms: C3_4  and  O_7 
ROOT
ATOM      1  C   UNL d   1       0.414   0.477   0.466  0.00  0.00    -0.033 A 
ATOM      2  C1  UNL d   1      -0.566   0.953  -0.407  0.00  0.00     0.039 A 
ATOM      3  C2  UNL d   1      -1.881   1.109   0.035  0.00  0.00    -0.080 A 
ATOM      4  C3  UNL d   1      -2.202   0.787   1.351  0.00  0.00     0.150 A 
ATOM      5  C4  UNL d   1      -1.230   0.316   2.227  0.00  0.00    -0.007 A 
ATOM      6  C5  UNL d   1       0.083   0.160   1.784  0.00  0.00     0.039 A 
ENDROOT
BRANCH   4   7
ATOM      7  O   UNL d   1      -3.473   0.918   1.827  0.00  0.00    -0.526 OA
ATOM      8  H5  UNL d   1      -4.043   1.226   1.102  0.00  0.00     0.418 HD
ENDBRANCH   4   7
TORSDOF 1
ENDMDL
