MODEL 1
REMARK minimizedAffinity -1.87032938
REMARK minimizedRMSD -1
REMARK  1 active torsions:
REMARK  status: ('A' for Active; 'I' for Inactive)
REMARK    1  A    between atoms: C3_4  and  O_7 
ROOT
ATOM      1  C   UNL d   1       2.394   1.419  -2.173  0.00  0.00    -0.033 A 
ATOM      2  C1  UNL d   1       2.621   0.164  -1.604  0.00  0.00     0.039 A 
ATOM      3  C2  UNL d   1       2.006  -0.181  -0.399  0.00  0.00    -0.080 A 
ATOM      4  C3  UNL d   1       1.165   0.737   0.225  0.00  0.00     0.150 A 
ATOM      5  C4  UNL d   1       0.931   1.987  -0.338  0.00  0.00    -0.007 A 
ATOM      6  C5  UNL d   1       1.547   2.330  -1.540  0.00  0.00     0.039 A 
ENDROOT
BRANCH   4   7
ATOM      7  O   UNL d   1       0.546   0.447   1.405  0.00  0.00    -0.526 OA
ATOM      8  H5  UNL d   1       0.824  -0.440   1.689  0.00  0.00     0.418 HD
ENDBRANCH   4   7
TORSDOF 1
ENDMDL
