MODEL 1
REMARK minimizedAffinity -3.23376703
REMARK minimizedRMSD -1
REMARK  1 active torsions:
REMARK  status: ('A' for Active; 'I' for Inactive)
REMARK    1  A    between atoms: C3_4  and  O_7 
ROOT
ATOM      1  C   UNL d   1       0.332  -1.870  -0.513  0.00  0.00    -0.033 A 
ATOM      2  C1  UNL d   1       1.125  -2.490  -1.480  0.00  0.00     0.039 A 
ATOM      3  C2  UNL d   1       1.840  -1.719  -2.399  0.00  0.00    -0.080 A 
ATOM      4  C3  UNL d   1       1.753  -0.330  -2.339  0.00  0.00     0.150 A 
ATOM      5  C4  UNL d   1       0.968   0.294  -1.375  0.00  0.00    -0.007 A 
ATOM      6  C5  UNL d   1       0.254  -0.478  -0.459  0.00  0.00     0.039 A 
ENDROOT
BRANCH   4   7
ATOM      7  O   UNL d   1       2.428   0.464  -3.217  0.00  0.00    -0.526 OA
ATOM      8  H5  UNL d   1       2.906  -0.105  -3.843  0.00  0.00     0.418 HD
ENDBRANCH   4   7
TORSDOF 1
ENDMDL
