MODEL 1
REMARK minimizedAffinity -5.4625926
REMARK minimizedRMSD -1
REMARK  1 active torsions:
REMARK  status: ('A' for Active; 'I' for Inactive)
REMARK    1  A    between atoms: C3_4  and  O_7 
ROOT
ATOM      1  C   UNL d   1       0.417  -2.162  -0.460  0.00  0.00    -0.033 A 
ATOM      2  C1  UNL d   1       0.209  -0.787  -0.336  0.00  0.00     0.039 A 
ATOM      3  C2  UNL d   1       0.824   0.098  -1.224  0.00  0.00    -0.080 A 
ATOM      4  C3  UNL d   1       1.643  -0.405  -2.231  0.00  0.00     0.150 A 
ATOM      5  C4  UNL d   1       1.852  -1.774  -2.364  0.00  0.00    -0.007 A 
ATOM      6  C5  UNL d   1       1.237  -2.655  -1.475  0.00  0.00     0.039 A 
ENDROOT
BRANCH   4   7
ATOM      7  O   UNL d   1       2.269   0.419  -3.119  0.00  0.00    -0.526 OA
ATOM      8  H5  UNL d   1       2.055   1.339  -2.888  0.00  0.00     0.418 HD
ENDBRANCH   4   7
TORSDOF 1
ENDMDL
