MODEL 1
REMARK minimizedAffinity -4.26955605
REMARK minimizedRMSD -1
REMARK  1 active torsions:
REMARK  status: ('A' for Active; 'I' for Inactive)
REMARK    1  A    between atoms: C3_4  and  O_7 
ROOT
ATOM      1  C   UNL d   1       0.040  -0.819   0.033  0.00  0.00    -0.033 A 
ATOM      2  C1  UNL d   1       0.718   0.384  -0.171  0.00  0.00     0.039 A 
ATOM      3  C2  UNL d   1       1.393   0.612  -1.371  0.00  0.00    -0.080 A 
ATOM      4  C3  UNL d   1       1.383  -0.369  -2.358  0.00  0.00     0.150 A 
ATOM      5  C4  UNL d   1       0.707  -1.569  -2.163  0.00  0.00    -0.007 A 
ATOM      6  C5  UNL d   1       0.033  -1.795  -0.964  0.00  0.00     0.039 A 
ENDROOT
BRANCH   4   7
ATOM      7  O   UNL d   1       2.032  -0.195  -3.544  0.00  0.00    -0.526 OA
ATOM      8  H5  UNL d   1       2.479   0.668  -3.526  0.00  0.00     0.418 HD
ENDBRANCH   4   7
TORSDOF 1
ENDMDL
