MODEL 1
REMARK minimizedAffinity -1.37923467
REMARK minimizedRMSD -1
REMARK  1 active torsions:
REMARK  status: ('A' for Active; 'I' for Inactive)
REMARK    1  A    between atoms: C1_2  and  C2_3 
ROOT
ATOM      1  C2  UNL d   1       0.640  -0.824  -0.555  0.00  0.00    -0.081 A 
ATOM      2  C3  UNL d   1       0.170  -1.302   0.674  0.00  0.00     0.006 A 
ATOM      3  C4  UNL d   1      -0.541  -0.463   1.535  0.00  0.00     0.002 A 
ATOM      4  C5  UNL d   1      -0.801   0.865   1.178  0.00  0.00    -0.080 A 
ATOM      5  C6  UNL d   1      -1.589   1.767   2.080  0.00  0.00     0.076 C 
ATOM      6  C7  UNL d   1      -0.316   1.347  -0.042  0.00  0.00     0.002 A 
ATOM      7  C8  UNL d   1       0.396   0.509  -0.903  0.00  0.00     0.006 A 
ENDROOT
BRANCH   1   8
ATOM      8  C1  UNL d   1       1.351  -1.744  -1.515  0.00  0.00     0.054 C 
ATOM      9  C   UNL d   1       1.154  -3.204  -1.130  0.00  0.00     0.018 C 
ENDBRANCH   1   8
TORSDOF 1
ENDMDL
