MODEL 1
REMARK minimizedAffinity -4.95088291
REMARK minimizedRMSD -1
REMARK  1 active torsions:
REMARK  status: ('A' for Active; 'I' for Inactive)
REMARK    1  A    between atoms: C1_2  and  C2_3 
ROOT
ATOM      1  C2  UNL d   1       0.221  -0.454  -0.677  0.00  0.00    -0.081 A 
ATOM      2  C3  UNL d   1       0.459   0.914  -0.859  0.00  0.00     0.006 A 
ATOM      3  C4  UNL d   1      -0.287   1.863  -0.157  0.00  0.00     0.002 A 
ATOM      4  C5  UNL d   1      -1.278   1.460   0.745  0.00  0.00    -0.080 A 
ATOM      5  C6  UNL d   1      -2.066   2.468   1.528  0.00  0.00     0.076 C 
ATOM      6  C7  UNL d   1      -1.528   0.094   0.914  0.00  0.00     0.002 A 
ATOM      7  C8  UNL d   1      -0.783  -0.855   0.211  0.00  0.00     0.006 A 
ENDROOT
BRANCH   1   8
ATOM      8  C1  UNL d   1       1.068  -1.480  -1.384  0.00  0.00     0.054 C 
ATOM      9  C   UNL d   1       0.212  -2.430  -2.210  0.00  0.00     0.018 C 
ENDBRANCH   1   8
TORSDOF 1
ENDMDL
