MODEL 1
REMARK minimizedAffinity 0.711956739
REMARK minimizedRMSD -1
REMARK  1 active torsions:
REMARK  status: ('A' for Active; 'I' for Inactive)
REMARK    1  A    between atoms: C1_2  and  C2_3 
ROOT
ATOM      1  C2  UNL d   1      -0.047   0.161  -0.133  0.00  0.00    -0.081 A 
ATOM      2  C3  UNL d   1       0.903   0.945  -0.799  0.00  0.00     0.006 A 
ATOM      3  C4  UNL d   1       0.502   2.015  -1.603  0.00  0.00     0.002 A 
ATOM      4  C5  UNL d   1      -0.855   2.323  -1.747  0.00  0.00    -0.080 A 
ATOM      5  C6  UNL d   1      -1.299   3.488  -2.582  0.00  0.00     0.076 C 
ATOM      6  C7  UNL d   1      -1.805   1.530  -1.095  0.00  0.00     0.002 A 
ATOM      7  C8  UNL d   1      -1.404   0.460  -0.292  0.00  0.00     0.006 A 
ENDROOT
BRANCH   1   8
ATOM      8  C1  UNL d   1       0.387  -0.952   0.786  0.00  0.00     0.054 C 
ATOM      9  C   UNL d   1       0.486  -0.474   2.227  0.00  0.00     0.018 C 
ENDBRANCH   1   8
TORSDOF 1
ENDMDL
