MODEL 1
REMARK minimizedAffinity -2.96559572
REMARK minimizedRMSD -1
REMARK  1 active torsions:
REMARK  status: ('A' for Active; 'I' for Inactive)
REMARK    1  A    between atoms: C1_2  and  C2_3 
ROOT
ATOM      1  C2  UNL d   1      -0.245  -0.914  -1.045  0.00  0.00    -0.081 A 
ATOM      2  C3  UNL d   1       0.353  -1.173   0.194  0.00  0.00     0.006 A 
ATOM      3  C4  UNL d   1       0.206  -0.275   1.254  0.00  0.00     0.002 A 
ATOM      4  C5  UNL d   1      -0.548   0.893   1.094  0.00  0.00    -0.080 A 
ATOM      5  C6  UNL d   1      -0.739   1.851   2.232  0.00  0.00     0.076 C 
ATOM      6  C7  UNL d   1      -1.131   1.161  -0.149  0.00  0.00     0.002 A 
ATOM      7  C8  UNL d   1      -0.983   0.263  -1.209  0.00  0.00     0.006 A 
ENDROOT
BRANCH   1   8
ATOM      8  C1  UNL d   1      -0.142  -1.912  -2.170  0.00  0.00     0.054 C 
ATOM      9  C   UNL d   1      -0.269  -3.339  -1.656  0.00  0.00     0.018 C 
ENDBRANCH   1   8
TORSDOF 1
ENDMDL
