MODEL 1
REMARK minimizedAffinity -0.724989772
REMARK minimizedRMSD -1
REMARK  1 active torsions:
REMARK  status: ('A' for Active; 'I' for Inactive)
REMARK    1  A    between atoms: C1_2  and  C2_3 
ROOT
ATOM      1  C2  UNL d   1      -0.584   1.035   1.052  0.00  0.00    -0.081 A 
ATOM      2  C3  UNL d   1      -0.029  -0.167   1.507  0.00  0.00     0.006 A 
ATOM      3  C4  UNL d   1       0.599  -1.040   0.616  0.00  0.00     0.002 A 
ATOM      4  C5  UNL d   1       0.689  -0.722  -0.744  0.00  0.00    -0.080 A 
ATOM      5  C6  UNL d   1       1.387  -1.636  -1.707  0.00  0.00     0.076 C 
ATOM      6  C7  UNL d   1       0.120   0.471  -1.202  0.00  0.00     0.002 A 
ATOM      7  C8  UNL d   1      -0.508   1.344  -0.310  0.00  0.00     0.006 A 
ENDROOT
BRANCH   1   8
ATOM      8  C1  UNL d   1      -1.204   2.008   2.022  0.00  0.00     0.054 C 
ATOM      9  C   UNL d   1      -0.328   2.199   3.252  0.00  0.00     0.018 C 
ENDBRANCH   1   8
TORSDOF 1
ENDMDL
