MODEL 1
REMARK minimizedAffinity -1.52570677
REMARK minimizedRMSD -1
REMARK  1 active torsions:
REMARK  status: ('A' for Active; 'I' for Inactive)
REMARK    1  A    between atoms: C1_2  and  C2_3 
ROOT
ATOM      1  C2  UNL d   1       0.098  -1.054  -0.638  0.00  0.00    -0.081 A 
ATOM      2  C3  UNL d   1      -0.547  -1.461   0.536  0.00  0.00     0.006 A 
ATOM      3  C4  UNL d   1      -0.809  -0.543   1.555  0.00  0.00     0.002 A 
ATOM      4  C5  UNL d   1      -0.438   0.799   1.414  0.00  0.00    -0.080 A 
ATOM      5  C6  UNL d   1      -0.740   1.801   2.488  0.00  0.00     0.076 C 
ATOM      6  C7  UNL d   1       0.222   1.202   0.249  0.00  0.00     0.002 A 
ATOM      7  C8  UNL d   1       0.485   0.284  -0.770  0.00  0.00     0.006 A 
ENDROOT
BRANCH   1   8
ATOM      8  C1  UNL d   1       0.324  -2.028  -1.766  0.00  0.00     0.054 C 
ATOM      9  C   UNL d   1      -0.515  -1.668  -2.984  0.00  0.00     0.018 C 
ENDBRANCH   1   8
TORSDOF 1
ENDMDL
