MODEL 1
REMARK minimizedAffinity -4.15759134
REMARK minimizedRMSD -1
REMARK  1 active torsions:
REMARK  status: ('A' for Active; 'I' for Inactive)
REMARK    1  A    between atoms: C1_2  and  C2_3 
ROOT
ATOM      1  C2  UNL d   1       0.388  -0.563  -0.329  0.00  0.00    -0.081 A 
ATOM      2  C3  UNL d   1      -0.232  -0.734   0.914  0.00  0.00     0.006 A 
ATOM      3  C4  UNL d   1      -0.976   0.302   1.483  0.00  0.00     0.002 A 
ATOM      4  C5  UNL d   1      -1.119   1.523   0.815  0.00  0.00    -0.080 A 
ATOM      5  C6  UNL d   1      -1.940   2.634   1.401  0.00  0.00     0.076 C 
ATOM      6  C7  UNL d   1      -0.485   1.700  -0.419  0.00  0.00     0.002 A 
ATOM      7  C8  UNL d   1       0.259   0.665  -0.988  0.00  0.00     0.006 A 
ENDROOT
BRANCH   1   8
ATOM      8  C1  UNL d   1       1.137  -1.701  -0.975  0.00  0.00     0.054 C 
ATOM      9  C   UNL d   1       0.236  -2.496  -1.910  0.00  0.00     0.018 C 
ENDBRANCH   1   8
TORSDOF 1
ENDMDL
