MODEL 1
REMARK minimizedAffinity -5.53350639
REMARK minimizedRMSD -1
REMARK  1 active torsions:
REMARK  status: ('A' for Active; 'I' for Inactive)
REMARK    1  A    between atoms: C1_2  and  C2_3 
ROOT
ATOM      1  C2  UNL d   1       0.310   0.027  -0.421  0.00  0.00    -0.081 A 
ATOM      2  C3  UNL d   1      -0.002   1.290  -0.938  0.00  0.00     0.006 A 
ATOM      3  C4  UNL d   1      -0.846   2.154  -0.236  0.00  0.00     0.002 A 
ATOM      4  C5  UNL d   1      -1.385   1.773   0.997  0.00  0.00    -0.080 A 
ATOM      5  C6  UNL d   1      -2.269   2.703   1.775  0.00  0.00     0.076 C 
ATOM      6  C7  UNL d   1      -1.088   0.504   1.506  0.00  0.00     0.002 A 
ATOM      7  C8  UNL d   1      -0.244  -0.360   0.804  0.00  0.00     0.006 A 
ENDROOT
BRANCH   1   8
ATOM      8  C1  UNL d   1       1.271  -0.881  -1.144  0.00  0.00     0.054 C 
ATOM      9  C   UNL d   1       0.593  -2.174  -1.574  0.00  0.00     0.018 C 
ENDBRANCH   1   8
TORSDOF 1
ENDMDL
