MODEL 1
REMARK minimizedAffinity -5.28815556
REMARK minimizedRMSD -1
REMARK  1 active torsions:
REMARK  status: ('A' for Active; 'I' for Inactive)
REMARK    1  A    between atoms: C1_2  and  C2_3 
ROOT
ATOM      1  C2  UNL d   1       0.597   0.034  -0.458  0.00  0.00    -0.081 A 
ATOM      2  C3  UNL d   1       0.108  -0.546   0.719  0.00  0.00     0.006 A 
ATOM      3  C4  UNL d   1      -0.901   0.083   1.452  0.00  0.00     0.002 A 
ATOM      4  C5  UNL d   1      -1.445   1.296   1.016  0.00  0.00    -0.080 A 
ATOM      5  C6  UNL d   1      -2.550   1.966   1.778  0.00  0.00     0.076 C 
ATOM      6  C7  UNL d   1      -0.945   1.884  -0.151  0.00  0.00     0.002 A 
ATOM      7  C8  UNL d   1       0.065   1.257  -0.883  0.00  0.00     0.006 A 
ENDROOT
BRANCH   1   8
ATOM      8  C1  UNL d   1       1.640  -0.673  -1.285  0.00  0.00     0.054 C 
ATOM      9  C   UNL d   1       1.181  -2.070  -1.678  0.00  0.00     0.018 C 
ENDBRANCH   1   8
TORSDOF 1
ENDMDL
