MODEL 1
REMARK minimizedAffinity -0.837297022
REMARK minimizedRMSD -1
REMARK  1 active torsions:
REMARK  status: ('A' for Active; 'I' for Inactive)
REMARK    1  A    between atoms: C1_2  and  C2_3 
ROOT
ATOM      1  C2  UNL d   1       0.026  -1.034  -0.049  0.00  0.00    -0.081 A 
ATOM      2  C3  UNL d   1      -0.302  -0.962   1.310  0.00  0.00     0.006 A 
ATOM      3  C4  UNL d   1      -1.037   0.117   1.805  0.00  0.00     0.002 A 
ATOM      4  C5  UNL d   1      -1.463   1.138   0.949  0.00  0.00    -0.080 A 
ATOM      5  C6  UNL d   1      -2.279   2.287   1.461  0.00  0.00     0.076 C 
ATOM      6  C7  UNL d   1      -1.120   1.075  -0.406  0.00  0.00     0.002 A 
ATOM      7  C8  UNL d   1      -0.384  -0.004  -0.901  0.00  0.00     0.006 A 
ENDROOT
BRANCH   1   8
ATOM      8  C1  UNL d   1       0.763  -2.230  -0.597  0.00  0.00     0.054 C 
ATOM      9  C   UNL d   1      -0.136  -3.072  -1.491  0.00  0.00     0.018 C 
ENDBRANCH   1   8
TORSDOF 1
ENDMDL
