MODEL 1
REMARK minimizedAffinity -1.37126672
REMARK minimizedRMSD -1
REMARK  1 active torsions:
REMARK  status: ('A' for Active; 'I' for Inactive)
REMARK    1  A    between atoms: C1_2  and  C2_3 
ROOT
ATOM      1  C2  UNL d   1      -0.025   0.598  -0.285  0.00  0.00    -0.081 A 
ATOM      2  C3  UNL d   1      -1.411   0.800  -0.256  0.00  0.00     0.006 A 
ATOM      3  C4  UNL d   1      -1.976   1.926  -0.859  0.00  0.00     0.002 A 
ATOM      4  C5  UNL d   1      -1.166   2.864  -1.508  0.00  0.00    -0.080 A 
ATOM      5  C6  UNL d   1      -1.763   4.062  -2.186  0.00  0.00     0.076 C 
ATOM      6  C7  UNL d   1       0.219   2.672  -1.522  0.00  0.00     0.002 A 
ATOM      7  C8  UNL d   1       0.785   1.547  -0.919  0.00  0.00     0.006 A 
ENDROOT
BRANCH   1   8
ATOM      8  C1  UNL d   1       0.581  -0.648   0.308  0.00  0.00     0.054 C 
ATOM      9  C   UNL d   1      -0.252  -1.169   1.471  0.00  0.00     0.018 C 
ENDBRANCH   1   8
TORSDOF 1
ENDMDL
