MODEL 1
REMARK minimizedAffinity -2.26452374
REMARK minimizedRMSD -1
REMARK  1 active torsions:
REMARK  status: ('A' for Active; 'I' for Inactive)
REMARK    1  A    between atoms: C1_2  and  C2_3 
ROOT
ATOM      1  C2  UNL d   1       0.336  -0.554  -0.313  0.00  0.00    -0.081 A 
ATOM      2  C3  UNL d   1       0.217  -0.530   1.082  0.00  0.00     0.006 A 
ATOM      3  C4  UNL d   1      -0.639   0.382   1.704  0.00  0.00     0.002 A 
ATOM      4  C5  UNL d   1      -1.395   1.279   0.943  0.00  0.00    -0.080 A 
ATOM      5  C6  UNL d   1      -2.341   2.243   1.596  0.00  0.00     0.076 C 
ATOM      6  C7  UNL d   1      -1.263   1.267  -0.450  0.00  0.00     0.002 A 
ATOM      7  C8  UNL d   1      -0.407   0.356  -1.073  0.00  0.00     0.006 A 
ENDROOT
BRANCH   1   8
ATOM      8  C1  UNL d   1       1.209  -1.580  -0.990  0.00  0.00     0.054 C 
ATOM      9  C   UNL d   1       0.401  -2.456  -1.936  0.00  0.00     0.018 C 
ENDBRANCH   1   8
TORSDOF 1
ENDMDL
