MODEL 1
REMARK minimizedAffinity -5.01335716
REMARK minimizedRMSD -1
REMARK  1 active torsions:
REMARK  status: ('A' for Active; 'I' for Inactive)
REMARK    1  A    between atoms: C1_2  and  C2_3 
ROOT
ATOM      1  C2  UNL d   1       0.290  -0.803  -0.427  0.00  0.00    -0.081 A 
ATOM      2  C3  UNL d   1      -0.240  -1.134   0.826  0.00  0.00     0.006 A 
ATOM      3  C4  UNL d   1      -0.932  -0.180   1.576  0.00  0.00     0.002 A 
ATOM      4  C5  UNL d   1      -1.112   1.117   1.083  0.00  0.00    -0.080 A 
ATOM      5  C6  UNL d   1      -1.879   2.142   1.865  0.00  0.00     0.076 C 
ATOM      6  C7  UNL d   1      -0.566   1.453  -0.160  0.00  0.00     0.002 A 
ATOM      7  C8  UNL d   1       0.126   0.500  -0.911  0.00  0.00     0.006 A 
ENDROOT
BRANCH   1   8
ATOM      8  C1  UNL d   1       0.981  -1.847  -1.266  0.00  0.00     0.054 C 
ATOM      9  C   UNL d   1       0.051  -2.400  -2.337  0.00  0.00     0.018 C 
ENDBRANCH   1   8
TORSDOF 1
ENDMDL
