MODEL 1
REMARK minimizedAffinity -4.00939369
REMARK minimizedRMSD -1
REMARK  1 active torsions:
REMARK  status: ('A' for Active; 'I' for Inactive)
REMARK    1  A    between atoms: C1_2  and  C2_3 
ROOT
ATOM      1  C2  UNL d   1       0.008  -0.377   0.479  0.00  0.00    -0.081 A 
ATOM      2  C3  UNL d   1      -0.996   0.567   0.727  0.00  0.00     0.006 A 
ATOM      3  C4  UNL d   1      -1.055   1.750  -0.014  0.00  0.00     0.002 A 
ATOM      4  C5  UNL d   1      -0.117   2.005  -1.020  0.00  0.00    -0.080 A 
ATOM      5  C6  UNL d   1      -0.187   3.256  -1.844  0.00  0.00     0.076 C 
ATOM      6  C7  UNL d   1       0.897   1.070  -1.256  0.00  0.00     0.002 A 
ATOM      7  C8  UNL d   1       0.957  -0.112  -0.515  0.00  0.00     0.006 A 
ENDROOT
BRANCH   1   8
ATOM      8  C1  UNL d   1       0.036  -1.682   1.232  0.00  0.00     0.054 C 
ATOM      9  C   UNL d   1       0.313  -1.461   2.712  0.00  0.00     0.018 C 
ENDBRANCH   1   8
TORSDOF 1
ENDMDL
