MODEL 1
REMARK minimizedAffinity 5.00312185
REMARK minimizedRMSD -1
REMARK  1 active torsions:
REMARK  status: ('A' for Active; 'I' for Inactive)
REMARK    1  A    between atoms: N_2  and  C1_3 
ROOT
ATOM      1  C1  UNL d   1      -0.461   3.099   0.797  0.00  0.00     0.143 A 
ATOM      2  C2  UNL d   1      -1.648   3.074   1.537  0.00  0.00    -0.057 A 
ATOM      3  C3  UNL d   1      -1.696   2.498   2.813  0.00  0.00     0.033 A 
ATOM      4  C4  UNL d   1      -0.560   1.910   3.360  0.00  0.00    -0.042 A 
ATOM      5  C5  UNL d   1       0.624   1.902   2.632  0.00  0.00     0.033 A 
ATOM      6  C6  UNL d   1       0.667   2.484   1.362  0.00  0.00    -0.057 A 
ENDROOT
BRANCH   1   7
ATOM      7  N   UNL d   1      -0.373   3.569  -0.516  0.00  0.00    -0.732 N 
ATOM      8  C   UNL d   1      -1.278   3.082  -1.535  0.00  0.00     0.284 C 
ATOM      9  H3  UNL d   1      -0.197   4.570  -0.559  0.00  0.00     0.395 HD
ENDBRANCH   1   7
TORSDOF 1
ENDMDL
