MODEL 1
REMARK minimizedAffinity 3.59357262
REMARK minimizedRMSD -1
REMARK  1 active torsions:
REMARK  status: ('A' for Active; 'I' for Inactive)
REMARK    1  A    between atoms: N_2  and  C1_3 
ROOT
ATOM      1  C1  UNL d   1       2.883  -1.956  -1.094  0.00  0.00     0.143 A 
ATOM      2  C2  UNL d   1       4.162  -1.651  -1.572  0.00  0.00    -0.057 A 
ATOM      3  C3  UNL d   1       5.117  -2.654  -1.781  0.00  0.00     0.033 A 
ATOM      4  C4  UNL d   1       4.818  -3.980  -1.487  0.00  0.00    -0.042 A 
ATOM      5  C5  UNL d   1       3.561  -4.303  -0.987  0.00  0.00     0.033 A 
ATOM      6  C6  UNL d   1       2.609  -3.298  -0.788  0.00  0.00    -0.057 A 
ENDROOT
BRANCH   1   7
ATOM      7  N   UNL d   1       1.923  -0.993  -0.773  0.00  0.00    -0.732 N 
ATOM      8  C   UNL d   1       0.658  -0.950  -1.476  0.00  0.00     0.284 C 
ATOM      9  H3  UNL d   1       1.846  -0.841   0.230  0.00  0.00     0.395 HD
ENDBRANCH   1   7
TORSDOF 1
ENDMDL
