MODEL 1
REMARK minimizedAffinity -0.256509304
REMARK minimizedRMSD -1
REMARK  1 active torsions:
REMARK  status: ('A' for Active; 'I' for Inactive)
REMARK    1  A    between atoms: N_2  and  C1_3 
ROOT
ATOM      1  C1  UNL d   1      -0.441   2.453   1.062  0.00  0.00     0.143 A 
ATOM      2  C2  UNL d   1      -0.377   3.711   0.454  0.00  0.00    -0.057 A 
ATOM      3  C3  UNL d   1      -0.371   3.844  -0.940  0.00  0.00     0.033 A 
ATOM      4  C4  UNL d   1      -0.398   2.716  -1.753  0.00  0.00    -0.042 A 
ATOM      5  C5  UNL d   1      -0.436   1.454  -1.170  0.00  0.00     0.033 A 
ATOM      6  C6  UNL d   1      -0.449   1.328   0.223  0.00  0.00    -0.057 A 
ENDROOT
BRANCH   1   7
ATOM      7  N   UNL d   1      -0.351   2.250   2.442  0.00  0.00    -0.732 N 
ATOM      8  C   UNL d   1      -0.157   0.921   2.980  0.00  0.00     0.284 C 
ATOM      9  H3  UNL d   1       0.197   2.971   2.905  0.00  0.00     0.395 HD
ENDBRANCH   1   7
TORSDOF 1
ENDMDL
