MODEL 1
REMARK minimizedAffinity 4.53689098
REMARK minimizedRMSD -1
REMARK  1 active torsions:
REMARK  status: ('A' for Active; 'I' for Inactive)
REMARK    1  A    between atoms: N_2  and  C1_3 
ROOT
ATOM      1  C1  UNL d   1      -0.945   1.768  -1.628  0.00  0.00     0.143 A 
ATOM      2  C2  UNL d   1      -0.235   0.914  -2.479  0.00  0.00    -0.057 A 
ATOM      3  C3  UNL d   1      -0.774  -0.308  -2.897  0.00  0.00     0.033 A 
ATOM      4  C4  UNL d   1      -2.026  -0.713  -2.446  0.00  0.00    -0.042 A 
ATOM      5  C5  UNL d   1      -2.740   0.108  -1.580  0.00  0.00     0.033 A 
ATOM      6  C6  UNL d   1      -2.198   1.330  -1.171  0.00  0.00    -0.057 A 
ENDROOT
BRANCH   1   7
ATOM      7  N   UNL d   1      -0.422   2.950  -1.098  0.00  0.00    -0.732 N 
ATOM      8  C   UNL d   1      -0.535   3.238   0.316  0.00  0.00     0.284 C 
ATOM      9  H3  UNL d   1       0.481   3.190  -1.500  0.00  0.00     0.395 HD
ENDBRANCH   1   7
TORSDOF 1
ENDMDL
