MODEL 1
REMARK minimizedAffinity 1.09533036
REMARK minimizedRMSD -1
REMARK  1 active torsions:
REMARK  status: ('A' for Active; 'I' for Inactive)
REMARK    1  A    between atoms: N_2  and  C1_3 
ROOT
ATOM      1  C1  UNL d   1      -0.044  -0.053   2.936  0.00  0.00     0.143 A 
ATOM      2  C2  UNL d   1       0.347   0.078   1.599  0.00  0.00    -0.057 A 
ATOM      3  C3  UNL d   1       0.440   1.335   0.990  0.00  0.00     0.033 A 
ATOM      4  C4  UNL d   1       0.114   2.485   1.701  0.00  0.00    -0.042 A 
ATOM      5  C5  UNL d   1      -0.301   2.377   3.023  0.00  0.00     0.033 A 
ATOM      6  C6  UNL d   1      -0.386   1.119   3.628  0.00  0.00    -0.057 A 
ENDROOT
BRANCH   1   7
ATOM      7  N   UNL d   1      -0.251  -1.281   3.569  0.00  0.00    -0.732 N 
ATOM      8  C   UNL d   1       0.545  -1.663   4.715  0.00  0.00     0.284 C 
ATOM      9  H3  UNL d   1      -1.238  -1.514   3.652  0.00  0.00     0.395 HD
ENDBRANCH   1   7
TORSDOF 1
ENDMDL
