MODEL 1
REMARK minimizedAffinity 7.35407352
REMARK minimizedRMSD -1
REMARK  1 active torsions:
REMARK  status: ('A' for Active; 'I' for Inactive)
REMARK    1  A    between atoms: N_2  and  C1_3 
ROOT
ATOM      1  C1  UNL d   1      -0.968   1.639  -0.099  0.00  0.00     0.143 A 
ATOM      2  C2  UNL d   1      -2.185   2.318   0.024  0.00  0.00    -0.057 A 
ATOM      3  C3  UNL d   1      -2.409   3.224   1.068  0.00  0.00     0.033 A 
ATOM      4  C4  UNL d   1      -1.427   3.444   2.028  0.00  0.00    -0.042 A 
ATOM      5  C5  UNL d   1      -0.219   2.761   1.941  0.00  0.00     0.033 A 
ATOM      6  C6  UNL d   1       0.001   1.863   0.892  0.00  0.00    -0.057 A 
ENDROOT
BRANCH   1   7
ATOM      7  N   UNL d   1      -0.721   0.654  -1.058  0.00  0.00    -0.732 N 
ATOM      8  C   UNL d   1      -1.643  -0.447  -1.238  0.00  0.00     0.284 C 
ATOM      9  H3  UNL d   1      -0.358   1.039  -1.926  0.00  0.00     0.395 HD
ENDBRANCH   1   7
TORSDOF 1
ENDMDL
