MODEL 1
REMARK minimizedAffinity 3.69809389
REMARK minimizedRMSD -1
REMARK  1 active torsions:
REMARK  status: ('A' for Active; 'I' for Inactive)
REMARK    1  A    between atoms: N_2  and  C1_3 
ROOT
ATOM      1  C1  UNL d   1       1.611  -1.586  -1.101  0.00  0.00     0.143 A 
ATOM      2  C2  UNL d   1       0.565  -2.495  -0.910  0.00  0.00    -0.057 A 
ATOM      3  C3  UNL d   1      -0.716  -2.244  -1.417  0.00  0.00     0.033 A 
ATOM      4  C4  UNL d   1      -0.981  -1.061  -2.101  0.00  0.00    -0.042 A 
ATOM      5  C5  UNL d   1       0.038  -0.132  -2.280  0.00  0.00     0.033 A 
ATOM      6  C6  UNL d   1       1.317  -0.392  -1.777  0.00  0.00    -0.057 A 
ENDROOT
BRANCH   1   7
ATOM      7  N   UNL d   1       2.881  -1.733  -0.536  0.00  0.00    -0.732 N 
ATOM      8  C   UNL d   1       4.042  -1.936  -1.376  0.00  0.00     0.284 C 
ATOM      9  H3  UNL d   1       3.037  -1.095   0.241  0.00  0.00     0.395 HD
ENDBRANCH   1   7
TORSDOF 1
ENDMDL
