MODEL 1
REMARK minimizedAffinity 5.61355495
REMARK minimizedRMSD -1
REMARK  1 active torsions:
REMARK  status: ('A' for Active; 'I' for Inactive)
REMARK    1  A    between atoms: N_2  and  C1_3 
ROOT
ATOM      1  C1  UNL d   1      -0.444   1.287   3.209  0.00  0.00     0.143 A 
ATOM      2  C2  UNL d   1       0.395   1.969   2.321  0.00  0.00    -0.057 A 
ATOM      3  C3  UNL d   1      -0.124   2.845   1.360  0.00  0.00     0.033 A 
ATOM      4  C4  UNL d   1      -1.498   3.033   1.251  0.00  0.00    -0.042 A 
ATOM      5  C5  UNL d   1      -2.352   2.347   2.106  0.00  0.00     0.033 A 
ATOM      6  C6  UNL d   1      -1.828   1.478   3.068  0.00  0.00    -0.057 A 
ENDROOT
BRANCH   1   7
ATOM      7  N   UNL d   1       0.004   0.328   4.121  0.00  0.00    -0.732 N 
ATOM      8  C   UNL d   1       0.873  -0.747   3.693  0.00  0.00     0.284 C 
ATOM      9  H3  UNL d   1       0.255   0.733   5.019  0.00  0.00     0.395 HD
ENDBRANCH   1   7
TORSDOF 1
ENDMDL
