MODEL 1
REMARK minimizedAffinity -1.07330167
REMARK minimizedRMSD -1
REMARK  1 active torsions:
REMARK  status: ('A' for Active; 'I' for Inactive)
REMARK    1  A    between atoms: C1_2  and  C2_3 
ROOT
ATOM      1  C2  UNL d   1      -1.501   1.773   2.301  0.00  0.00    -0.077 A 
ATOM      2  C3  UNL d   1      -1.284   0.417   2.582  0.00  0.00     0.002 A 
ATOM      3  C4  UNL d   1      -0.270  -0.287   1.928  0.00  0.00     0.002 A 
ATOM      4  C5  UNL d   1       0.535   0.358   0.992  0.00  0.00    -0.004 A 
ATOM      5  C6  UNL d   1       0.325   1.706   0.704  0.00  0.00     0.002 A 
ATOM      6  C7  UNL d   1      -0.688   2.410   1.356  0.00  0.00     0.002 A 
ENDROOT
BRANCH   1   7
ATOM      7  C1  UNL d   1      -2.562   2.546   3.041  0.00  0.00     0.055 C 
ATOM      8  C   UNL d   1      -3.490   1.616   3.808  0.00  0.00     0.019 C 
ENDBRANCH   1   7
TORSDOF 1
ENDMDL
