MODEL 1
REMARK minimizedAffinity -5.85361814
REMARK minimizedRMSD -1
REMARK  1 active torsions:
REMARK  status: ('A' for Active; 'I' for Inactive)
REMARK    1  A    between atoms: C1_2  and  C2_3 
ROOT
ATOM      1  C2  UNL d   1      -2.000   1.354   2.379  0.00  0.00    -0.077 A 
ATOM      2  C3  UNL d   1      -0.817   2.033   2.053  0.00  0.00     0.002 A 
ATOM      3  C4  UNL d   1       0.265   1.344   1.503  0.00  0.00     0.002 A 
ATOM      4  C5  UNL d   1       0.174  -0.027   1.269  0.00  0.00    -0.004 A 
ATOM      5  C6  UNL d   1      -0.997  -0.712   1.592  0.00  0.00     0.002 A 
ATOM      6  C7  UNL d   1      -2.079  -0.025   2.143  0.00  0.00     0.002 A 
ENDROOT
BRANCH   1   7
ATOM      7  C1  UNL d   1      -3.186   2.104   2.926  0.00  0.00     0.055 C 
ATOM      8  C   UNL d   1      -3.707   1.460   4.203  0.00  0.00     0.019 C 
ENDBRANCH   1   7
TORSDOF 1
ENDMDL
