MODEL 1
REMARK minimizedAffinity -1.09349692
REMARK minimizedRMSD -1
REMARK  1 active torsions:
REMARK  status: ('A' for Active; 'I' for Inactive)
REMARK    1  A    between atoms: C1_2  and  C2_3 
ROOT
ATOM      1  C2  UNL d   1      -1.156   1.597   1.988  0.00  0.00    -0.077 A 
ATOM      2  C3  UNL d   1      -1.665   0.299   2.140  0.00  0.00     0.002 A 
ATOM      3  C4  UNL d   1      -0.978  -0.795   1.610  0.00  0.00     0.002 A 
ATOM      4  C5  UNL d   1       0.223  -0.603   0.930  0.00  0.00    -0.004 A 
ATOM      5  C6  UNL d   1       0.736   0.684   0.772  0.00  0.00     0.002 A 
ATOM      6  C7  UNL d   1       0.050   1.779   1.299  0.00  0.00     0.002 A 
ENDROOT
BRANCH   1   7
ATOM      7  C1  UNL d   1      -1.871   2.773   2.601  0.00  0.00     0.055 C 
ATOM      8  C   UNL d   1      -2.890   2.323   3.637  0.00  0.00     0.019 C 
ENDBRANCH   1   7
TORSDOF 1
ENDMDL
