MODEL 1
REMARK minimizedAffinity -1.23820889
REMARK minimizedRMSD -1
REMARK  1 active torsions:
REMARK  status: ('A' for Active; 'I' for Inactive)
REMARK    1  A    between atoms: C1_2  and  C2_3 
ROOT
ATOM      1  C2  UNL d   1      -2.388   1.309   2.647  0.00  0.00    -0.077 A 
ATOM      2  C3  UNL d   1      -1.499   0.271   2.335  0.00  0.00     0.002 A 
ATOM      3  C4  UNL d   1      -0.317   0.537   1.641  0.00  0.00     0.002 A 
ATOM      4  C5  UNL d   1      -0.012   1.841   1.257  0.00  0.00    -0.004 A 
ATOM      5  C6  UNL d   1      -0.890   2.881   1.561  0.00  0.00     0.002 A 
ATOM      6  C7  UNL d   1      -2.073   2.616   2.254  0.00  0.00     0.002 A 
ENDROOT
BRANCH   1   7
ATOM      7  C1  UNL d   1      -3.639   1.031   3.439  0.00  0.00     0.055 C 
ATOM      8  C   UNL d   1      -3.992   2.202   4.345  0.00  0.00     0.019 C 
ENDBRANCH   1   7
TORSDOF 1
ENDMDL
