MODEL 1
REMARK minimizedAffinity 1.22987866
REMARK minimizedRMSD -1
REMARK  1 active torsions:
REMARK  status: ('A' for Active; 'I' for Inactive)
REMARK    1  A    between atoms: C1_2  and  C2_3 
ROOT
ATOM      1  C2  UNL d   1      -0.926  -0.130   1.996  0.00  0.00    -0.077 A 
ATOM      2  C3  UNL d   1      -1.562   1.006   2.514  0.00  0.00     0.002 A 
ATOM      3  C4  UNL d   1      -1.053   2.281   2.256  0.00  0.00     0.002 A 
ATOM      4  C5  UNL d   1       0.091   2.431   1.476  0.00  0.00    -0.004 A 
ATOM      5  C6  UNL d   1       0.732   1.307   0.957  0.00  0.00     0.002 A 
ATOM      6  C7  UNL d   1       0.226   0.032   1.215  0.00  0.00     0.002 A 
ENDROOT
BRANCH   1   7
ATOM      7  C1  UNL d   1      -1.501  -1.502   2.232  0.00  0.00     0.055 C 
ATOM      8  C   UNL d   1      -2.841  -1.424   2.949  0.00  0.00     0.019 C 
ENDBRANCH   1   7
TORSDOF 1
ENDMDL
