MODEL 1
REMARK minimizedAffinity 0.953061938
REMARK minimizedRMSD -1
REMARK  1 active torsions:
REMARK  status: ('A' for Active; 'I' for Inactive)
REMARK    1  A    between atoms: C1_2  and  C2_3 
ROOT
ATOM      1  C2  UNL d   1       1.195   0.059   1.083  0.00  0.00    -0.077 A 
ATOM      2  C3  UNL d   1       0.732  -1.054   1.800  0.00  0.00     0.002 A 
ATOM      3  C4  UNL d   1      -0.579  -1.090   2.279  0.00  0.00     0.002 A 
ATOM      4  C5  UNL d   1      -1.439  -0.019   2.042  0.00  0.00    -0.004 A 
ATOM      5  C6  UNL d   1      -0.987   1.092   1.332  0.00  0.00     0.002 A 
ATOM      6  C7  UNL d   1       0.323   1.131   0.854  0.00  0.00     0.002 A 
ENDROOT
BRANCH   1   7
ATOM      7  C1  UNL d   1       2.593   0.078   0.524  0.00  0.00     0.055 C 
ATOM      8  C   UNL d   1       2.625   0.698  -0.866  0.00  0.00     0.019 C 
ENDBRANCH   1   7
TORSDOF 1
ENDMDL
