MODEL 1
REMARK minimizedAffinity -2.18740535
REMARK minimizedRMSD -1
REMARK  1 active torsions:
REMARK  status: ('A' for Active; 'I' for Inactive)
REMARK    1  A    between atoms: C1_2  and  C2_3 
ROOT
ATOM      1  C2  UNL d   1      -1.667   0.807   2.410  0.00  0.00    -0.077 A 
ATOM      2  C3  UNL d   1      -0.857  -0.211   1.887  0.00  0.00     0.002 A 
ATOM      3  C4  UNL d   1       0.379   0.093   1.314  0.00  0.00     0.002 A 
ATOM      4  C5  UNL d   1       0.819   1.414   1.263  0.00  0.00    -0.004 A 
ATOM      5  C6  UNL d   1       0.020   2.435   1.778  0.00  0.00     0.002 A 
ATOM      6  C7  UNL d   1      -1.216   2.133   2.349  0.00  0.00     0.002 A 
ENDROOT
BRANCH   1   7
ATOM      7  C1  UNL d   1      -2.978   0.476   3.072  0.00  0.00     0.055 C 
ATOM      8  C   UNL d   1      -3.524   1.667   3.847  0.00  0.00     0.019 C 
ENDBRANCH   1   7
TORSDOF 1
ENDMDL
