MODEL 1
REMARK minimizedAffinity -0.50105238
REMARK minimizedRMSD -1
REMARK  1 active torsions:
REMARK  status: ('A' for Active; 'I' for Inactive)
REMARK    1  A    between atoms: C1_2  and  C2_3 
ROOT
ATOM      1  C2  UNL d   1      -0.946   1.851   2.139  0.00  0.00    -0.077 A 
ATOM      2  C3  UNL d   1      -0.158   2.319   1.079  0.00  0.00     0.002 A 
ATOM      3  C4  UNL d   1       1.046   1.687   0.761  0.00  0.00     0.002 A 
ATOM      4  C5  UNL d   1       1.470   0.583   1.497  0.00  0.00    -0.004 A 
ATOM      5  C6  UNL d   1       0.695   0.111   2.555  0.00  0.00     0.002 A 
ATOM      6  C7  UNL d   1      -0.509   0.742   2.874  0.00  0.00     0.002 A 
ENDROOT
BRANCH   1   7
ATOM      7  C1  UNL d   1      -2.269   2.501   2.452  0.00  0.00     0.055 C 
ATOM      8  C   UNL d   1      -3.075   1.668   3.439  0.00  0.00     0.019 C 
ENDBRANCH   1   7
TORSDOF 1
ENDMDL
