MODEL 1
REMARK minimizedAffinity -4.06716204
REMARK minimizedRMSD -1
REMARK  1 active torsions:
REMARK  status: ('A' for Active; 'I' for Inactive)
REMARK    1  A    between atoms: C1_2  and  C2_3 
ROOT
ATOM      1  C2  UNL d   1      -1.007   0.383   1.272  0.00  0.00    -0.077 A 
ATOM      2  C3  UNL d   1      -1.658   1.336   2.068  0.00  0.00     0.002 A 
ATOM      3  C4  UNL d   1      -1.235   2.667   2.063  0.00  0.00     0.002 A 
ATOM      4  C5  UNL d   1      -0.164   3.056   1.263  0.00  0.00    -0.004 A 
ATOM      5  C6  UNL d   1       0.491   2.115   0.470  0.00  0.00     0.002 A 
ATOM      6  C7  UNL d   1       0.071   0.784   0.473  0.00  0.00     0.002 A 
ENDROOT
BRANCH   1   7
ATOM      7  C1  UNL d   1      -1.493  -1.043   1.238  0.00  0.00     0.055 C 
ATOM      8  C   UNL d   1      -0.349  -2.023   1.455  0.00  0.00     0.019 C 
ENDBRANCH   1   7
TORSDOF 1
ENDMDL
