MODEL 1
REMARK minimizedAffinity 2.24215674
REMARK minimizedRMSD -1
REMARK  0 active torsions:
REMARK  status: ('A' for Active; 'I' for Inactive)
ROOT
ATOM      1  C   UNL d   1       1.123   3.251  -1.806  0.00  0.00     0.078 C 
ATOM      2  C1  UNL d   1       1.193   1.988  -0.999  0.00  0.00    -0.077 A 
ATOM      3  C2  UNL d   1       1.208   2.026   0.400  0.00  0.00    -0.001 A 
ATOM      4  C3  UNL d   1       1.283   0.844   1.138  0.00  0.00     0.003 A 
ATOM      5  C4  UNL d   1       1.344  -0.385   0.485  0.00  0.00    -0.005 A 
ATOM      6  C5  UNL d   1       1.331  -0.433  -0.908  0.00  0.00     0.003 A 
ATOM      7  C6  UNL d   1       1.257   0.748  -1.647  0.00  0.00    -0.001 A 
ENDROOT
TORSDOF 0
ENDMDL
