MODEL 1
REMARK minimizedAffinity 3.31664014
REMARK minimizedRMSD -1
REMARK  0 active torsions:
REMARK  status: ('A' for Active; 'I' for Inactive)
ROOT
ATOM      1  C   UNL d   1       1.771  -0.117  -1.506  0.00  0.00     0.078 C 
ATOM      2  C1  UNL d   1       1.387   1.270  -1.082  0.00  0.00    -0.077 A 
ATOM      3  C2  UNL d   1       1.029   2.240  -2.026  0.00  0.00    -0.001 A 
ATOM      4  C3  UNL d   1       0.684   3.529  -1.618  0.00  0.00     0.003 A 
ATOM      5  C4  UNL d   1       0.693   3.860  -0.264  0.00  0.00    -0.005 A 
ATOM      6  C5  UNL d   1       1.050   2.902   0.683  0.00  0.00     0.003 A 
ATOM      7  C6  UNL d   1       1.396   1.612   0.276  0.00  0.00    -0.001 A 
ENDROOT
TORSDOF 0
ENDMDL
