MODEL 1
REMARK minimizedAffinity -2.38432407
REMARK minimizedRMSD -1
REMARK  0 active torsions:
REMARK  status: ('A' for Active; 'I' for Inactive)
ROOT
ATOM      1  C   UNL d   1       0.790   3.366  -1.896  0.00  0.00     0.078 C 
ATOM      2  C1  UNL d   1       0.974   2.009  -1.285  0.00  0.00    -0.077 A 
ATOM      3  C2  UNL d   1       0.957   1.835   0.104  0.00  0.00    -0.001 A 
ATOM      4  C3  UNL d   1       1.140   0.568   0.659  0.00  0.00     0.003 A 
ATOM      5  C4  UNL d   1       1.342  -0.536  -0.168  0.00  0.00    -0.005 A 
ATOM      6  C5  UNL d   1       1.362  -0.372  -1.551  0.00  0.00     0.003 A 
ATOM      7  C6  UNL d   1       1.180   0.894  -2.108  0.00  0.00    -0.001 A 
ENDROOT
TORSDOF 0
ENDMDL
