MODEL 1
REMARK minimizedAffinity 3.2822547
REMARK minimizedRMSD -1
REMARK  0 active torsions:
REMARK  status: ('A' for Active; 'I' for Inactive)
ROOT
ATOM      1  C   UNL d   1       0.810   4.055  -1.190  0.00  0.00     0.078 C 
ATOM      2  C1  UNL d   1       0.907   2.574  -1.404  0.00  0.00    -0.077 A 
ATOM      3  C2  UNL d   1       1.509   1.745  -0.449  0.00  0.00    -0.001 A 
ATOM      4  C3  UNL d   1       1.600   0.369  -0.665  0.00  0.00     0.003 A 
ATOM      5  C4  UNL d   1       1.092  -0.190  -1.836  0.00  0.00    -0.005 A 
ATOM      6  C5  UNL d   1       0.493   0.627  -2.793  0.00  0.00     0.003 A 
ATOM      7  C6  UNL d   1       0.401   2.003  -2.578  0.00  0.00    -0.001 A 
ENDROOT
TORSDOF 0
ENDMDL
