MODEL 1
REMARK minimizedAffinity -3.17384386
REMARK minimizedRMSD -1
REMARK  0 active torsions:
REMARK  status: ('A' for Active; 'I' for Inactive)
ROOT
ATOM      1  C   UNL d   1       1.619   4.181  -1.443  0.00  0.00     0.078 C 
ATOM      2  C1  UNL d   1       1.333   2.834  -0.851  0.00  0.00    -0.077 A 
ATOM      3  C2  UNL d   1       1.135   2.679   0.527  0.00  0.00    -0.001 A 
ATOM      4  C3  UNL d   1       0.879   1.417   1.066  0.00  0.00     0.003 A 
ATOM      5  C4  UNL d   1       0.820   0.300   0.235  0.00  0.00    -0.005 A 
ATOM      6  C5  UNL d   1       1.019   0.444  -1.137  0.00  0.00     0.003 A 
ATOM      7  C6  UNL d   1       1.274   1.705  -1.678  0.00  0.00    -0.001 A 
ENDROOT
TORSDOF 0
ENDMDL
