MODEL 1
REMARK minimizedAffinity -4.55331898
REMARK minimizedRMSD -1
REMARK  0 active torsions:
REMARK  status: ('A' for Active; 'I' for Inactive)
ROOT
ATOM      1  C   UNL d   1       1.236  -1.226  -0.713  0.00  0.00     0.078 C 
ATOM      2  C1  UNL d   1       1.093   0.248  -0.476  0.00  0.00    -0.077 A 
ATOM      3  C2  UNL d   1       1.092   1.153  -1.545  0.00  0.00    -0.001 A 
ATOM      4  C3  UNL d   1       0.967   2.523  -1.309  0.00  0.00     0.003 A 
ATOM      5  C4  UNL d   1       0.844   3.000  -0.006  0.00  0.00    -0.005 A 
ATOM      6  C5  UNL d   1       0.846   2.107   1.064  0.00  0.00     0.003 A 
ATOM      7  C6  UNL d   1       0.971   0.737   0.830  0.00  0.00    -0.001 A 
ENDROOT
TORSDOF 0
ENDMDL
