MODEL 1
REMARK minimizedAffinity -3.50608921
REMARK minimizedRMSD -1
REMARK  0 active torsions:
REMARK  status: ('A' for Active; 'I' for Inactive)
ROOT
ATOM      1  C   UNL d   1      -4.034   1.167   1.982  0.00  0.00     0.078 C 
ATOM      2  C1  UNL d   1      -3.350   1.567   3.255  0.00  0.00    -0.077 A 
ATOM      3  C2  UNL d   1      -2.015   1.219   3.497  0.00  0.00    -0.001 A 
ATOM      4  C3  UNL d   1      -1.395   1.590   4.691  0.00  0.00     0.003 A 
ATOM      5  C4  UNL d   1      -2.102   2.308   5.653  0.00  0.00    -0.005 A 
ATOM      6  C5  UNL d   1      -3.431   2.656   5.423  0.00  0.00     0.003 A 
ATOM      7  C6  UNL d   1      -4.053   2.287   4.229  0.00  0.00    -0.001 A 
ENDROOT
TORSDOF 0
ENDMDL
