MODEL 1
REMARK minimizedAffinity -0.440173686
REMARK minimizedRMSD -1
REMARK  0 active torsions:
REMARK  status: ('A' for Active; 'I' for Inactive)
ROOT
ATOM      1  C   UNL d   1       0.757   0.358  -1.593  0.00  0.00     0.078 C 
ATOM      2  C1  UNL d   1       1.114   0.715  -0.181  0.00  0.00    -0.077 A 
ATOM      3  C2  UNL d   1       0.486   1.781   0.474  0.00  0.00    -0.001 A 
ATOM      4  C3  UNL d   1       0.835   2.108   1.786  0.00  0.00     0.003 A 
ATOM      5  C4  UNL d   1       1.815   1.375   2.453  0.00  0.00    -0.005 A 
ATOM      6  C5  UNL d   1       2.447   0.314   1.808  0.00  0.00     0.003 A 
ATOM      7  C6  UNL d   1       2.099  -0.015   0.497  0.00  0.00    -0.001 A 
ENDROOT
TORSDOF 0
ENDMDL
