MODEL 1
REMARK minimizedAffinity -3.92861867
REMARK minimizedRMSD -1
REMARK  0 active torsions:
REMARK  status: ('A' for Active; 'I' for Inactive)
ROOT
ATOM      1  C   UNL d   1       0.815   2.382   0.648  0.00  0.00     0.078 C 
ATOM      2  C1  UNL d   1       0.837   1.566  -0.610  0.00  0.00    -0.077 A 
ATOM      3  C2  UNL d   1      -0.232   1.603  -1.513  0.00  0.00    -0.001 A 
ATOM      4  C3  UNL d   1      -0.202   0.831  -2.675  0.00  0.00     0.003 A 
ATOM      5  C4  UNL d   1       0.895   0.015  -2.945  0.00  0.00    -0.005 A 
ATOM      6  C5  UNL d   1       1.963  -0.030  -2.051  0.00  0.00     0.003 A 
ATOM      7  C6  UNL d   1       1.935   0.742  -0.888  0.00  0.00    -0.001 A 
ENDROOT
TORSDOF 0
ENDMDL
