MODEL 1
REMARK minimizedAffinity -2.63883638
REMARK minimizedRMSD -1
REMARK  0 active torsions:
REMARK  status: ('A' for Active; 'I' for Inactive)
ROOT
ATOM      1  C   UNL d   1       1.000  -1.272  -0.538  0.00  0.00     0.078 C 
ATOM      2  C1  UNL d   1       1.062   0.222  -0.421  0.00  0.00    -0.077 A 
ATOM      3  C2  UNL d   1       0.816   0.860   0.801  0.00  0.00    -0.001 A 
ATOM      4  C3  UNL d   1       0.868   2.252   0.894  0.00  0.00     0.003 A 
ATOM      5  C4  UNL d   1       1.164   3.018  -0.233  0.00  0.00    -0.005 A 
ATOM      6  C5  UNL d   1       1.407   2.392  -1.453  0.00  0.00     0.003 A 
ATOM      7  C6  UNL d   1       1.356   1.000  -1.548  0.00  0.00    -0.001 A 
ENDROOT
TORSDOF 0
ENDMDL
