MODEL 1
REMARK minimizedAffinity -4.30539417
REMARK minimizedRMSD -1
REMARK  0 active torsions:
REMARK  status: ('A' for Active; 'I' for Inactive)
ROOT
ATOM      1  C   UNL d   1       1.070  -0.490  -1.955  0.00  0.00     0.078 C 
ATOM      2  C1  UNL d   1       1.068   0.747  -1.107  0.00  0.00    -0.077 A 
ATOM      3  C2  UNL d   1       1.265   2.011  -1.676  0.00  0.00    -0.001 A 
ATOM      4  C3  UNL d   1       1.270   3.153  -0.874  0.00  0.00     0.003 A 
ATOM      5  C4  UNL d   1       1.079   3.043   0.502  0.00  0.00    -0.005 A 
ATOM      6  C5  UNL d   1       0.884   1.789   1.077  0.00  0.00     0.003 A 
ATOM      7  C6  UNL d   1       0.879   0.645   0.277  0.00  0.00    -0.001 A 
ENDROOT
TORSDOF 0
ENDMDL
