MODEL 1
REMARK minimizedAffinity -5.35380077
REMARK minimizedRMSD -1
REMARK  0 active torsions:
REMARK  status: ('A' for Active; 'I' for Inactive)
ROOT
ATOM      1  C   UNL d   1       0.603   3.695  -1.498  0.00  0.00     0.078 C 
ATOM      2  C1  UNL d   1       0.747   2.287  -1.004  0.00  0.00    -0.077 A 
ATOM      3  C2  UNL d   1       0.512   1.966   0.339  0.00  0.00    -0.001 A 
ATOM      4  C3  UNL d   1       0.660   0.652   0.786  0.00  0.00     0.003 A 
ATOM      5  C4  UNL d   1       1.043  -0.351  -0.102  0.00  0.00    -0.005 A 
ATOM      6  C5  UNL d   1       1.280  -0.041  -1.439  0.00  0.00     0.003 A 
ATOM      7  C6  UNL d   1       1.133   1.272  -1.889  0.00  0.00    -0.001 A 
ENDROOT
TORSDOF 0
ENDMDL
