MODEL 1
REMARK minimizedAffinity 2.15275025
REMARK minimizedRMSD -1
REMARK  0 active torsions:
REMARK  status: ('A' for Active; 'I' for Inactive)
ROOT
ATOM      1  C   UNL d   1       1.227   3.071  -2.213  0.00  0.00     0.078 C 
ATOM      2  C1  UNL d   1       1.121   1.917  -1.262  0.00  0.00    -0.077 A 
ATOM      3  C2  UNL d   1       1.432   2.070   0.095  0.00  0.00    -0.001 A 
ATOM      4  C3  UNL d   1       1.338   0.985   0.968  0.00  0.00     0.003 A 
ATOM      5  C4  UNL d   1       0.935  -0.262   0.493  0.00  0.00    -0.005 A 
ATOM      6  C5  UNL d   1       0.626  -0.425  -0.856  0.00  0.00     0.003 A 
ATOM      7  C6  UNL d   1       0.719   0.660  -1.730  0.00  0.00    -0.001 A 
ENDROOT
TORSDOF 0
ENDMDL
