MODEL 1
REMARK minimizedAffinity -1.9131192
REMARK minimizedRMSD -1
REMARK  0 active torsions:
REMARK  status: ('A' for Active; 'I' for Inactive)
ROOT
ATOM      1  C   UNL d   1       1.185  -2.037  -0.739  0.00  0.00     0.078 C 
ATOM      2  C1  UNL d   1       1.168  -0.547  -0.574  0.00  0.00    -0.077 A 
ATOM      3  C2  UNL d   1       1.566   0.050   0.628  0.00  0.00    -0.001 A 
ATOM      4  C3  UNL d   1       1.536   1.438   0.771  0.00  0.00     0.003 A 
ATOM      5  C4  UNL d   1       1.108   2.241  -0.285  0.00  0.00    -0.005 A 
ATOM      6  C5  UNL d   1       0.708   1.656  -1.484  0.00  0.00     0.003 A 
ATOM      7  C6  UNL d   1       0.737   0.268  -1.629  0.00  0.00    -0.001 A 
ENDROOT
TORSDOF 0
ENDMDL
