MODEL 1
REMARK minimizedAffinity -0.388923973
REMARK minimizedRMSD -1
REMARK  0 active torsions:
REMARK  status: ('A' for Active; 'I' for Inactive)
ROOT
ATOM      1  C   UNL d   1       0.563   3.741   0.473  0.00  0.00     0.078 C 
ATOM      2  C1  UNL d   1       0.763   2.398  -0.162  0.00  0.00    -0.077 A 
ATOM      3  C2  UNL d   1       0.510   1.218   0.549  0.00  0.00    -0.001 A 
ATOM      4  C3  UNL d   1       0.709  -0.025  -0.052  0.00  0.00     0.003 A 
ATOM      5  C4  UNL d   1       1.165  -0.102  -1.367  0.00  0.00    -0.005 A 
ATOM      6  C5  UNL d   1       1.422   1.066  -2.082  0.00  0.00     0.003 A 
ATOM      7  C6  UNL d   1       1.223   2.311  -1.483  0.00  0.00    -0.001 A 
ENDROOT
TORSDOF 0
ENDMDL
