MODEL 1
REMARK minimizedAffinity -5.44109964
REMARK minimizedRMSD -1
REMARK  0 active torsions:
REMARK  status: ('A' for Active; 'I' for Inactive)
ROOT
ATOM      1  C4' PXY d   1      -3.053  -0.895  -0.659  0.00  0.00     0.077 C 
ATOM      2  C1' PXY d   1       1.934   0.507   1.905  0.00  0.00     0.077 C 
ATOM      3  C1  PXY d   1       0.621   0.138   1.244  0.00  0.00    -0.082 A 
ATOM      4  C2  PXY d   1       0.619  -0.323   0.004  0.00  0.00     0.003 A 
ATOM      5  C3  PXY d   1      -0.562  -0.632  -0.620  0.00  0.00     0.003 A 
ATOM      6  C4  PXY d   1      -1.750  -0.518   0.051  0.00  0.00    -0.082 A 
ATOM      7  C5  PXY d   1      -1.756  -0.059   1.320  0.00  0.00     0.003 A 
ATOM      8  C6  PXY d   1      -0.550   0.288   1.922  0.00  0.00     0.003 A 
ENDROOT
TORSDOF 0
ENDMDL
