MODEL 1
REMARK minimizedAffinity -1.44225192
REMARK minimizedRMSD -1
REMARK  0 active torsions:
REMARK  status: ('A' for Active; 'I' for Inactive)
ROOT
ATOM      1  C4' PXY d   1       0.519  -0.900  -2.362  0.00  0.00     0.077 C 
ATOM      2  C1' PXY d   1      -0.981   1.314   2.763  0.00  0.00     0.077 C 
ATOM      3  C1  PXY d   1      -0.576   0.738   1.420  0.00  0.00    -0.082 A 
ATOM      4  C2  PXY d   1      -1.500   0.502   0.504  0.00  0.00     0.003 A 
ATOM      5  C3  PXY d   1      -1.155  -0.049  -0.704  0.00  0.00     0.003 A 
ATOM      6  C4  PXY d   1       0.157  -0.311  -0.996  0.00  0.00    -0.082 A 
ATOM      7  C5  PXY d   1       1.107  -0.062  -0.070  0.00  0.00     0.003 A 
ATOM      8  C6  PXY d   1       0.731   0.458   1.165  0.00  0.00     0.003 A 
ENDROOT
TORSDOF 0
ENDMDL
