MODEL 1
REMARK minimizedAffinity -0.278342396
REMARK minimizedRMSD -1
REMARK  0 active torsions:
REMARK  status: ('A' for Active; 'I' for Inactive)
ROOT
ATOM      1  C4' PXY d   1       2.221  -2.110   4.497  0.00  0.00     0.077 C 
ATOM      2  C1' PXY d   1      -2.185   0.680   2.004  0.00  0.00     0.077 C 
ATOM      3  C1  PXY d   1      -1.038  -0.060   2.663  0.00  0.00    -0.082 A 
ATOM      4  C2  PXY d   1       0.115   0.559   2.856  0.00  0.00     0.003 A 
ATOM      5  C3  PXY d   1       1.173  -0.105   3.422  0.00  0.00     0.003 A 
ATOM      6  C4  PXY d   1       1.032  -1.400   3.843  0.00  0.00    -0.082 A 
ATOM      7  C5  PXY d   1      -0.144  -2.035   3.660  0.00  0.00     0.003 A 
ATOM      8  C6  PXY d   1      -1.193  -1.356   3.046  0.00  0.00     0.003 A 
ENDROOT
TORSDOF 0
ENDMDL
