MODEL 1
REMARK minimizedAffinity 6.01178932
REMARK minimizedRMSD -1
REMARK  0 active torsions:
REMARK  status: ('A' for Active; 'I' for Inactive)
ROOT
ATOM      1  C4' PXY d   1      -3.622  -2.632  -6.000  0.00  0.00     0.077 C 
ATOM      2  C1' PXY d   1       0.894   0.379  -4.010  0.00  0.00     0.077 C 
ATOM      3  C1  PXY d   1      -0.285  -0.422  -4.527  0.00  0.00    -0.082 A 
ATOM      4  C2  PXY d   1      -1.001   0.046  -5.536  0.00  0.00     0.003 A 
ATOM      5  C3  PXY d   1      -2.090  -0.649  -5.996  0.00  0.00     0.003 A 
ATOM      6  C4  PXY d   1      -2.417  -1.862  -5.451  0.00  0.00    -0.082 A 
ATOM      7  C5  PXY d   1      -1.685  -2.352  -4.428  0.00  0.00     0.003 A 
ATOM      8  C6  PXY d   1      -0.609  -1.611  -3.949  0.00  0.00     0.003 A 
ENDROOT
TORSDOF 0
ENDMDL
