MODEL 1
REMARK minimizedAffinity -1.78964126
REMARK minimizedRMSD -1
REMARK  0 active torsions:
REMARK  status: ('A' for Active; 'I' for Inactive)
ROOT
ATOM      1  C4' PXY d   1      -4.261  -1.528   3.581  0.00  0.00     0.077 C 
ATOM      2  C1' PXY d   1       1.500  -1.127   3.851  0.00  0.00     0.077 C 
ATOM      3  C1  PXY d   1      -0.012  -1.219   3.777  0.00  0.00    -0.082 A 
ATOM      4  C2  PXY d   1      -0.638  -2.204   4.401  0.00  0.00     0.003 A 
ATOM      5  C3  PXY d   1      -2.002  -2.321   4.318  0.00  0.00     0.003 A 
ATOM      6  C4  PXY d   1      -2.737  -1.390   3.635  0.00  0.00    -0.082 A 
ATOM      7  C5  PXY d   1      -2.106  -0.376   3.005  0.00  0.00     0.003 A 
ATOM      8  C6  PXY d   1      -0.718  -0.299   3.067  0.00  0.00     0.003 A 
ENDROOT
TORSDOF 0
ENDMDL
