MODEL 1
REMARK minimizedAffinity 1.14821219
REMARK minimizedRMSD -1
REMARK  0 active torsions:
REMARK  status: ('A' for Active; 'I' for Inactive)
ROOT
ATOM      1  C4' PXY d   1       5.999   6.000   3.747  0.00  0.00     0.077 C 
ATOM      2  C1' PXY d   1       2.098   2.637   1.122  0.00  0.00     0.077 C 
ATOM      3  C1  PXY d   1       3.118   3.529   1.803  0.00  0.00    -0.082 A 
ATOM      4  C2  PXY d   1       4.122   2.983   2.469  0.00  0.00     0.003 A 
ATOM      5  C3  PXY d   1       5.036   3.774   3.117  0.00  0.00     0.003 A 
ATOM      6  C4  PXY d   1       4.951   5.139   3.037  0.00  0.00    -0.082 A 
ATOM      7  C5  PXY d   1       3.935   5.703   2.350  0.00  0.00     0.003 A 
ATOM      8  C6  PXY d   1       2.994   4.882   1.734  0.00  0.00     0.003 A 
ENDROOT
TORSDOF 0
ENDMDL
