MODEL 1
REMARK minimizedAffinity 2.21412873
REMARK minimizedRMSD -1
REMARK  0 active torsions:
REMARK  status: ('A' for Active; 'I' for Inactive)
ROOT
ATOM      1  C4' PXY d   1       1.109  -1.086   3.550  0.00  0.00     0.077 C 
ATOM      2  C1' PXY d   1      -2.602   0.875  -0.425  0.00  0.00     0.077 C 
ATOM      3  C1  PXY d   1      -1.635   0.368   0.626  0.00  0.00    -0.082 A 
ATOM      4  C2  PXY d   1      -0.456  -0.107   0.256  0.00  0.00     0.003 A 
ATOM      5  C3  PXY d   1       0.418  -0.599   1.191  0.00  0.00     0.003 A 
ATOM      6  C4  PXY d   1       0.104  -0.555   2.523  0.00  0.00    -0.082 A 
ATOM      7  C5  PXY d   1      -1.092  -0.062   2.909  0.00  0.00     0.003 A 
ATOM      8  C6  PXY d   1      -1.981   0.395   1.941  0.00  0.00     0.003 A 
ENDROOT
TORSDOF 0
ENDMDL
