MODEL 1
REMARK minimizedAffinity 3.04778051
REMARK minimizedRMSD -1
REMARK  0 active torsions:
REMARK  status: ('A' for Active; 'I' for Inactive)
ROOT
ATOM      1  C4' PXY d   1       0.547  -1.143   4.473  0.00  0.00     0.077 C 
ATOM      2  C1' PXY d   1      -2.508   0.766  -0.048  0.00  0.00     0.077 C 
ATOM      3  C1  PXY d   1      -1.698   0.260   1.130  0.00  0.00    -0.082 A 
ATOM      4  C2  PXY d   1      -2.288   0.079   2.300  0.00  0.00     0.003 A 
ATOM      5  C3  PXY d   1      -1.564  -0.347   3.384  0.00  0.00     0.003 A 
ATOM      6  C4  PXY d   1      -0.233  -0.643   3.254  0.00  0.00    -0.082 A 
ATOM      7  C5  PXY d   1       0.374  -0.471   2.061  0.00  0.00     0.003 A 
ATOM      8  C6  PXY d   1      -0.370   0.002   0.984  0.00  0.00     0.003 A 
ENDROOT
TORSDOF 0
ENDMDL
