MODEL 1
REMARK minimizedAffinity 7.03857279
REMARK minimizedRMSD -1
REMARK  0 active torsions:
REMARK  status: ('A' for Active; 'I' for Inactive)
ROOT
ATOM      1  C4' PXY d   1       5.689   4.241   4.723  0.00  0.00     0.077 C 
ATOM      2  C1' PXY d   1       1.972   3.130   0.438  0.00  0.00     0.077 C 
ATOM      3  C1  PXY d   1       2.950   3.433   1.556  0.00  0.00    -0.082 A 
ATOM      4  C2  PXY d   1       3.459   2.439   2.266  0.00  0.00     0.003 A 
ATOM      5  C3  PXY d   1       4.320   2.697   3.301  0.00  0.00     0.003 A 
ATOM      6  C4  PXY d   1       4.706   3.981   3.578  0.00  0.00    -0.082 A 
ATOM      7  C5  PXY d   1       4.199   5.000   2.851  0.00  0.00     0.003 A 
ATOM      8  C6  PXY d   1       3.294   4.720   1.831  0.00  0.00     0.003 A 
ENDROOT
TORSDOF 0
ENDMDL
