MODEL 1
REMARK minimizedAffinity 3.85331464
REMARK minimizedRMSD -1
REMARK  0 active torsions:
REMARK  status: ('A' for Active; 'I' for Inactive)
ROOT
ATOM      1  C   UNL d   1      -2.856   5.629   5.993  0.00  0.00     0.020 A 
ATOM      2  C1  UNL d   1      -3.351   4.784   5.001  0.00  0.00     0.020 A 
ATOM      3  C2  UNL d   1      -2.498   4.298   4.008  0.00  0.00     0.034 A 
ATOM      4  C3  UNL d   1      -1.145   4.658   4.005  0.00  0.00     0.017 A 
ATOM      5  C4  UNL d   1      -0.650   5.506   5.001  0.00  0.00     0.017 A 
ATOM      6  C5  UNL d   1      -1.508   5.990   5.993  0.00  0.00     0.034 A 
ATOM      7 Cl   UNL d   1       1.007   5.994   5.063  0.00  0.00    -0.070 Cl
ATOM      8 Cl1  UNL d   1      -0.148   4.020   2.746  0.00  0.00    -0.070 Cl
ENDROOT
TORSDOF 0
ENDMDL
