MODEL 1
REMARK minimizedAffinity 3.79954529
REMARK minimizedRMSD -1
REMARK  0 active torsions:
REMARK  status: ('A' for Active; 'I' for Inactive)
ROOT
ATOM      1  C   UNL d   1       0.531  -1.719   1.216  0.00  0.00     0.020 A 
ATOM      2  C1  UNL d   1       0.817  -3.057   1.483  0.00  0.00     0.020 A 
ATOM      3  C2  UNL d   1       2.116  -3.540   1.314  0.00  0.00     0.034 A 
ATOM      4  C3  UNL d   1       3.134  -2.685   0.876  0.00  0.00     0.017 A 
ATOM      5  C4  UNL d   1       2.846  -1.342   0.608  0.00  0.00     0.017 A 
ATOM      6  C5  UNL d   1       1.543  -0.863   0.779  0.00  0.00     0.034 A 
ATOM      7 Cl   UNL d   1       4.049  -0.227   0.064  0.00  0.00    -0.070 Cl
ATOM      8 Cl1  UNL d   1       4.717  -3.351   0.688  0.00  0.00    -0.070 Cl
ENDROOT
TORSDOF 0
ENDMDL
