MODEL 1
REMARK minimizedAffinity 1.61979723
REMARK minimizedRMSD -1
REMARK  0 active torsions:
REMARK  status: ('A' for Active; 'I' for Inactive)
ROOT
ATOM      1  C   UNL d   1       2.413  -1.949   0.889  0.00  0.00     0.020 A 
ATOM      2  C1  UNL d   1       1.056  -2.246   1.011  0.00  0.00     0.020 A 
ATOM      3  C2  UNL d   1       0.652  -3.392   1.699  0.00  0.00     0.034 A 
ATOM      4  C3  UNL d   1       1.605  -4.245   2.267  0.00  0.00     0.017 A 
ATOM      5  C4  UNL d   1       2.967  -3.946   2.144  0.00  0.00     0.017 A 
ATOM      6  C5  UNL d   1       3.366  -2.797   1.455  0.00  0.00     0.034 A 
ATOM      7 Cl   UNL d   1       4.201  -4.950   2.819  0.00  0.00    -0.070 Cl
ATOM      8 Cl1  UNL d   1       1.033  -5.645   3.104  0.00  0.00    -0.070 Cl
ENDROOT
TORSDOF 0
ENDMDL
