MODEL 1
REMARK minimizedAffinity 2.60825443
REMARK minimizedRMSD -1
REMARK  0 active torsions:
REMARK  status: ('A' for Active; 'I' for Inactive)
ROOT
ATOM      1  C   UNL d   1      -1.516   5.946   6.000  0.00  0.00     0.020 A 
ATOM      2  C1  UNL d   1      -2.190   5.338   4.941  0.00  0.00     0.020 A 
ATOM      3  C2  UNL d   1      -1.469   4.783   3.882  0.00  0.00     0.034 A 
ATOM      4  C3  UNL d   1      -0.070   4.836   3.878  0.00  0.00     0.017 A 
ATOM      5  C4  UNL d   1       0.605   5.446   4.941  0.00  0.00     0.017 A 
ATOM      6  C5  UNL d   1      -0.121   6.000   6.000  0.00  0.00     0.034 A 
ATOM      7 Cl   UNL d   1       2.329   5.549   5.007  0.00  0.00    -0.070 Cl
ATOM      8 Cl1  UNL d   1       0.757   4.129   2.535  0.00  0.00    -0.070 Cl
ENDROOT
TORSDOF 0
ENDMDL
