MODEL 1
REMARK minimizedAffinity -2.41619158
REMARK minimizedRMSD -1
REMARK  0 active torsions:
REMARK  status: ('A' for Active; 'I' for Inactive)
ROOT
ATOM      1  C   UNL d   1       1.740   5.613   5.654  0.00  0.00     0.020 A 
ATOM      2  C1  UNL d   1       1.540   4.499   4.840  0.00  0.00     0.020 A 
ATOM      3  C2  UNL d   1       2.635   3.771   4.371  0.00  0.00     0.034 A 
ATOM      4  C3  UNL d   1       3.936   4.157   4.715  0.00  0.00     0.017 A 
ATOM      5  C4  UNL d   1       4.136   5.275   5.532  0.00  0.00     0.017 A 
ATOM      6  C5  UNL d   1       3.035   6.000   6.000  0.00  0.00     0.034 A 
ATOM      7 Cl   UNL d   1       5.711   5.812   6.000  0.00  0.00    -0.070 Cl
ATOM      8 Cl1  UNL d   1       5.244   3.211   4.099  0.00  0.00    -0.070 Cl
ENDROOT
TORSDOF 0
ENDMDL
