MODEL 1
REMARK minimizedAffinity 0.736571074
REMARK minimizedRMSD -1
REMARK  0 active torsions:
REMARK  status: ('A' for Active; 'I' for Inactive)
ROOT
ATOM      1  C   UNL d   1      -2.247   5.476   4.909  0.00  0.00     0.020 A 
ATOM      2  C1  UNL d   1      -1.551   5.998   5.999  0.00  0.00     0.020 A 
ATOM      3  C2  UNL d   1      -0.155   5.999   6.000  0.00  0.00     0.034 A 
ATOM      4  C3  UNL d   1       0.550   5.477   4.909  0.00  0.00     0.017 A 
ATOM      5  C4  UNL d   1      -0.149   4.954   3.815  0.00  0.00     0.017 A 
ATOM      6  C5  UNL d   1      -1.548   4.955   3.820  0.00  0.00     0.034 A 
ATOM      7 Cl   UNL d   1       0.651   4.293   2.433  0.00  0.00    -0.070 Cl
ATOM      8 Cl1  UNL d   1       2.276   5.511   4.977  0.00  0.00    -0.070 Cl
ENDROOT
TORSDOF 0
ENDMDL
