MODEL 1
REMARK minimizedAffinity 14.1636553
REMARK minimizedRMSD -1
REMARK  2 active torsions:
REMARK  status: ('A' for Active; 'I' for Inactive)
REMARK    1  A    between atoms: C2'_3  and  C1'_4 
REMARK    2  A    between atoms: C1'_4  and  C1_5 
ROOT
ATOM      1  C1  I4B d   1      -3.098  -2.878  -1.585  0.00  0.00    -0.075 A 
ATOM      2  C2  I4B d   1      -4.205  -3.670  -1.413  0.00  0.00     0.003 A 
ATOM      3  C3  I4B d   1      -4.908  -4.168  -2.537  0.00  0.00     0.002 A 
ATOM      4  C4  I4B d   1      -4.500  -3.810  -3.806  0.00  0.00    -0.004 A 
ATOM      5  C5  I4B d   1      -3.364  -3.025  -3.980  0.00  0.00     0.002 A 
ATOM      6  C6  I4B d   1      -2.651  -2.566  -2.863  0.00  0.00     0.003 A 
ENDROOT
BRANCH   1   7
ATOM      7  C1' I4B d   1      -2.400  -2.342  -0.376  0.00  0.00     0.060 C 
BRANCH   7   8
ATOM      8  C2' I4B d   1      -1.444  -3.407   0.122  0.00  0.00    -0.013 C 
ATOM      9  C4' I4B d   1      -0.015  -3.045  -0.186  0.00  0.00     0.013 C 
ATOM     10  C3' I4B d   1      -1.657  -3.566   1.598  0.00  0.00     0.013 C 
ENDBRANCH   7   8
ENDBRANCH   1   7
TORSDOF 2
ENDMDL
