MODEL 1
REMARK minimizedAffinity 22.9904385
REMARK minimizedRMSD -1
REMARK  2 active torsions:
REMARK  status: ('A' for Active; 'I' for Inactive)
REMARK    1  A    between atoms: C2'_3  and  C1'_4 
REMARK    2  A    between atoms: C1'_4  and  C1_5 
ROOT
ATOM      1  C1  I4B d   1       3.716   3.084   1.425  0.00  0.00    -0.075 A 
ATOM      2  C2  I4B d   1       2.413   3.049   1.854  0.00  0.00     0.003 A 
ATOM      3  C3  I4B d   1       1.676   1.841   1.798  0.00  0.00     0.002 A 
ATOM      4  C4  I4B d   1       2.262   0.712   1.262  0.00  0.00    -0.004 A 
ATOM      5  C5  I4B d   1       3.591   0.744   0.849  0.00  0.00     0.002 A 
ATOM      6  C6  I4B d   1       4.327   1.934   0.942  0.00  0.00     0.003 A 
ENDROOT
BRANCH   1   7
ATOM      7  C1' I4B d   1       4.454   4.385   1.468  0.00  0.00     0.060 C 
BRANCH   7   8
ATOM      8  C2' I4B d   1       4.238   5.000   2.836  0.00  0.00    -0.013 C 
ATOM      9  C4' I4B d   1       5.498   5.645   3.349  0.00  0.00     0.013 C 
ATOM     10  C3' I4B d   1       3.125   5.998   2.723  0.00  0.00     0.013 C 
ENDBRANCH   7   8
ENDBRANCH   1   7
TORSDOF 2
ENDMDL
