MODEL 1
REMARK minimizedAffinity 19.0546494
REMARK minimizedRMSD -1
REMARK  2 active torsions:
REMARK  status: ('A' for Active; 'I' for Inactive)
REMARK    1  A    between atoms: C2'_3  and  C1'_4 
REMARK    2  A    between atoms: C1'_4  and  C1_5 
ROOT
ATOM      1  C1  I4B d   1       0.287  -0.128   2.895  0.00  0.00    -0.075 A 
ATOM      2  C2  I4B d   1      -0.609  -1.122   3.200  0.00  0.00     0.003 A 
ATOM      3  C3  I4B d   1      -1.070  -1.282   4.530  0.00  0.00     0.002 A 
ATOM      4  C4  I4B d   1      -0.573  -0.465   5.524  0.00  0.00    -0.004 A 
ATOM      5  C5  I4B d   1       0.318   0.557   5.209  0.00  0.00     0.002 A 
ATOM      6  C6  I4B d   1       0.742   0.735   3.884  0.00  0.00     0.003 A 
ENDROOT
BRANCH   1   7
ATOM      7  C1' I4B d   1       0.778  -0.008   1.487  0.00  0.00     0.060 C 
BRANCH   7   8
ATOM      8  C2' I4B d   1       2.074   0.775   1.509  0.00  0.00    -0.013 C 
ATOM      9  C4' I4B d   1       3.237  -0.082   1.085  0.00  0.00     0.013 C 
ATOM     10  C3' I4B d   1       1.916   1.959   0.603  0.00  0.00     0.013 C 
ENDBRANCH   7   8
ENDBRANCH   1   7
TORSDOF 2
ENDMDL
