MODEL 1
REMARK minimizedAffinity 11.5856476
REMARK minimizedRMSD -1
REMARK  2 active torsions:
REMARK  status: ('A' for Active; 'I' for Inactive)
REMARK    1  A    between atoms: C2'_3  and  C1'_4 
REMARK    2  A    between atoms: C1'_4  and  C1_5 
ROOT
ATOM      1  C1  I4B d   1       1.593   1.369   1.643  0.00  0.00    -0.075 A 
ATOM      2  C2  I4B d   1       2.626   0.468   1.561  0.00  0.00     0.003 A 
ATOM      3  C3  I4B d   1       2.904  -0.399   2.645  0.00  0.00     0.002 A 
ATOM      4  C4  I4B d   1       2.161  -0.298   3.804  0.00  0.00    -0.004 A 
ATOM      5  C5  I4B d   1       1.100   0.599   3.877  0.00  0.00     0.002 A 
ATOM      6  C6  I4B d   1       0.806   1.430   2.786  0.00  0.00     0.003 A 
ENDROOT
BRANCH   1   7
ATOM      7  C1' I4B d   1       1.349   2.292   0.492  0.00  0.00     0.060 C 
BRANCH   7   8
ATOM      8  C2' I4B d   1       1.286   3.706   1.033  0.00  0.00    -0.013 C 
ATOM      9  C4' I4B d   1       2.518   4.487   0.661  0.00  0.00     0.013 C 
ATOM     10  C3' I4B d   1       0.048   4.355   0.490  0.00  0.00     0.013 C 
ENDBRANCH   7   8
ENDBRANCH   1   7
TORSDOF 2
ENDMDL
