MODEL 1
REMARK minimizedAffinity 8.35192013
REMARK minimizedRMSD -1
REMARK  2 active torsions:
REMARK  status: ('A' for Active; 'I' for Inactive)
REMARK    1  A    between atoms: C2'_3  and  C1'_4 
REMARK    2  A    between atoms: C1'_4  and  C1_5 
ROOT
ATOM      1  C1  I4B d   1      -4.039  -3.801  -2.476  0.00  0.00    -0.075 A 
ATOM      2  C2  I4B d   1      -4.013  -5.015  -1.835  0.00  0.00     0.003 A 
ATOM      3  C3  I4B d   1      -4.986  -6.000  -2.135  0.00  0.00     0.002 A 
ATOM      4  C4  I4B d   1      -5.989  -5.712  -3.038  0.00  0.00    -0.004 A 
ATOM      5  C5  I4B d   1      -6.000  -4.489  -3.703  0.00  0.00     0.002 A 
ATOM      6  C6  I4B d   1      -5.012  -3.532  -3.429  0.00  0.00     0.003 A 
ENDROOT
BRANCH   1   7
ATOM      7  C1' I4B d   1      -3.016  -2.772  -2.111  0.00  0.00     0.060 C 
BRANCH   7   8
ATOM      8  C2' I4B d   1      -1.809  -2.977  -3.003  0.00  0.00    -0.013 C 
ATOM      9  C4' I4B d   1      -1.410  -4.428  -3.055  0.00  0.00     0.013 C 
ATOM     10  C3' I4B d   1      -2.150  -2.460  -4.369  0.00  0.00     0.013 C 
ENDBRANCH   7   8
ENDBRANCH   1   7
TORSDOF 2
ENDMDL
