MODEL 1
REMARK minimizedAffinity 17.2388687
REMARK minimizedRMSD -1
REMARK  2 active torsions:
REMARK  status: ('A' for Active; 'I' for Inactive)
REMARK    1  A    between atoms: C2'_3  and  C1'_4 
REMARK    2  A    between atoms: C1'_4  and  C1_5 
ROOT
ATOM      1  C1  I4B d   1       2.329   2.258  -0.971  0.00  0.00    -0.075 A 
ATOM      2  C2  I4B d   1       3.522   1.802  -1.473  0.00  0.00     0.003 A 
ATOM      3  C3  I4B d   1       3.717   1.708  -2.872  0.00  0.00     0.002 A 
ATOM      4  C4  I4B d   1       2.683   2.031  -3.726  0.00  0.00    -0.004 A 
ATOM      5  C5  I4B d   1       1.482   2.515  -3.216  0.00  0.00     0.002 A 
ATOM      6  C6  I4B d   1       1.307   2.642  -1.830  0.00  0.00     0.003 A 
ENDROOT
BRANCH   1   7
ATOM      7  C1' I4B d   1       2.145   2.314   0.513  0.00  0.00     0.060 C 
BRANCH   7   8
ATOM      8  C2' I4B d   1       1.534   3.657   0.857  0.00  0.00    -0.013 C 
ATOM      9  C4' I4B d   1       0.361   3.499   1.789  0.00  0.00     0.013 C 
ATOM     10  C3' I4B d   1       2.604   4.507   1.474  0.00  0.00     0.013 C 
ENDBRANCH   7   8
ENDBRANCH   1   7
TORSDOF 2
ENDMDL
