MODEL 1
REMARK minimizedAffinity 3.04215884
REMARK minimizedRMSD -1
REMARK  2 active torsions:
REMARK  status: ('A' for Active; 'I' for Inactive)
REMARK    1  A    between atoms: C2'_3  and  C1'_4 
REMARK    2  A    between atoms: C1'_4  and  C1_5 
ROOT
ATOM      1  C1  I4B d   1       3.051   3.384  -5.275  0.00  0.00    -0.075 A 
ATOM      2  C2  I4B d   1       2.191   3.615  -4.231  0.00  0.00     0.003 A 
ATOM      3  C3  I4B d   1       1.873   4.941  -3.849  0.00  0.00     0.002 A 
ATOM      4  C4  I4B d   1       2.474   5.998  -4.501  0.00  0.00    -0.004 A 
ATOM      5  C5  I4B d   1       3.329   5.763  -5.574  0.00  0.00     0.002 A 
ATOM      6  C6  I4B d   1       3.610   4.448  -5.972  0.00  0.00     0.003 A 
ENDROOT
BRANCH   1   7
ATOM      7  C1' I4B d   1       3.390   1.971  -5.631  0.00  0.00     0.060 C 
BRANCH   7   8
ATOM      8  C2' I4B d   1       4.741   1.648  -5.025  0.00  0.00    -0.013 C 
ATOM      9  C4' I4B d   1       4.755   1.927  -3.546  0.00  0.00     0.013 C 
ATOM     10  C3' I4B d   1       5.042   0.207  -5.307  0.00  0.00     0.013 C 
ENDBRANCH   7   8
ENDBRANCH   1   7
TORSDOF 2
ENDMDL
