MODEL 1
REMARK minimizedAffinity 9.47766685
REMARK minimizedRMSD -1
REMARK  2 active torsions:
REMARK  status: ('A' for Active; 'I' for Inactive)
REMARK    1  A    between atoms: C2'_3  and  C1'_4 
REMARK    2  A    between atoms: C1'_4  and  C1_5 
ROOT
ATOM      1  C1  I4B d   1      -5.464   1.338   4.026  0.00  0.00    -0.075 A 
ATOM      2  C2  I4B d   1      -4.504   0.828   3.189  0.00  0.00     0.003 A 
ATOM      3  C3  I4B d   1      -4.000  -0.479   3.394  0.00  0.00     0.002 A 
ATOM      4  C4  I4B d   1      -4.445  -1.217   4.472  0.00  0.00    -0.004 A 
ATOM      5  C5  I4B d   1      -5.436  -0.708   5.306  0.00  0.00     0.002 A 
ATOM      6  C6  I4B d   1      -5.958   0.573   5.076  0.00  0.00     0.003 A 
ENDROOT
BRANCH   1   7
ATOM      7  C1' I4B d   1      -5.950   2.735   3.800  0.00  0.00     0.060 C 
BRANCH   7   8
ATOM      8  C2' I4B d   1      -5.945   3.453   5.135  0.00  0.00    -0.013 C 
ATOM      9  C4' I4B d   1      -4.791   3.003   5.991  0.00  0.00     0.013 C 
ATOM     10  C3' I4B d   1      -5.879   4.927   4.867  0.00  0.00     0.013 C 
ENDBRANCH   7   8
ENDBRANCH   1   7
TORSDOF 2
ENDMDL
