MODEL 1
REMARK minimizedAffinity 19.9479332
REMARK minimizedRMSD -1
REMARK  2 active torsions:
REMARK  status: ('A' for Active; 'I' for Inactive)
REMARK    1  A    between atoms: C2'_3  and  C1'_4 
REMARK    2  A    between atoms: C1'_4  and  C1_5 
ROOT
ATOM      1  C1  I4B d   1       0.768   0.069   1.470  0.00  0.00    -0.075 A 
ATOM      2  C2  I4B d   1       0.847   1.193   2.254  0.00  0.00     0.003 A 
ATOM      3  C3  I4B d   1       1.854   2.159   2.016  0.00  0.00     0.002 A 
ATOM      4  C4  I4B d   1       2.786   1.938   1.022  0.00  0.00    -0.004 A 
ATOM      5  C5  I4B d   1       2.691   0.810   0.213  0.00  0.00     0.002 A 
ATOM      6  C6  I4B d   1       1.668  -0.125   0.430  0.00  0.00     0.003 A 
ENDROOT
BRANCH   1   7
ATOM      7  C1' I4B d   1      -0.288  -0.946   1.770  0.00  0.00     0.060 C 
BRANCH   7   8
ATOM      8  C2' I4B d   1      -0.434  -1.842   0.557  0.00  0.00    -0.013 C 
ATOM      9  C4' I4B d   1       0.372  -3.105   0.712  0.00  0.00     0.013 C 
ATOM     10  C3' I4B d   1      -1.891  -2.148   0.379  0.00  0.00     0.013 C 
ENDBRANCH   7   8
ENDBRANCH   1   7
TORSDOF 2
ENDMDL
