MODEL 1
REMARK minimizedAffinity 7.62334442
REMARK minimizedRMSD -1
REMARK  2 active torsions:
REMARK  status: ('A' for Active; 'I' for Inactive)
REMARK    1  A    between atoms: C2'_3  and  C1'_4 
REMARK    2  A    between atoms: C1'_4  and  C1_5 
ROOT
ATOM      1  C1  I4B d   1      -5.488   3.370   5.200  0.00  0.00    -0.075 A 
ATOM      2  C2  I4B d   1      -5.348   4.584   5.825  0.00  0.00     0.003 A 
ATOM      3  C3  I4B d   1      -5.514   5.785   5.095  0.00  0.00     0.002 A 
ATOM      4  C4  I4B d   1      -5.768   5.727   3.740  0.00  0.00    -0.004 A 
ATOM      5  C5  I4B d   1      -5.932   4.495   3.112  0.00  0.00     0.002 A 
ATOM      6  C6  I4B d   1      -5.804   3.309   3.849  0.00  0.00     0.003 A 
ENDROOT
BRANCH   1   7
ATOM      7  C1' I4B d   1      -5.274   2.121   5.995  0.00  0.00     0.060 C 
BRANCH   7   8
ATOM      8  C2' I4B d   1      -5.519   0.938   5.081  0.00  0.00    -0.013 C 
ATOM      9  C4' I4B d   1      -4.399   0.776   4.087  0.00  0.00     0.013 C 
ATOM     10  C3' I4B d   1      -5.664  -0.286   5.935  0.00  0.00     0.013 C 
ENDBRANCH   7   8
ENDBRANCH   1   7
TORSDOF 2
ENDMDL
