MODEL 1
REMARK minimizedAffinity -5.42185593
REMARK minimizedRMSD -1
REMARK  0 active torsions:
REMARK  status: ('A' for Active; 'I' for Inactive)
ROOT
ATOM      1  C   UNL d   1       3.424  -1.038  -0.897  0.00  0.00     0.077 C 
ATOM      2  C1  UNL d   1       2.092  -0.350  -0.864  0.00  0.00    -0.074 A 
ATOM      3  C2  UNL d   1       1.065  -0.810  -0.033  0.00  0.00    -0.005 A 
ATOM      4  C3  UNL d   1      -0.166  -0.154  -0.007  0.00  0.00     0.006 A 
ATOM      5  C4  UNL d   1      -0.382   0.966  -0.809  0.00  0.00    -0.005 A 
ATOM      6  C5  UNL d   1       0.633   1.441  -1.646  0.00  0.00    -0.074 A 
ATOM      7  C6  UNL d   1       0.420   2.651  -2.508  0.00  0.00     0.077 C 
ATOM      8  C7  UNL d   1       1.869   0.781  -1.662  0.00  0.00    -0.001 A 
ENDROOT
TORSDOF 0
ENDMDL
