MODEL 1
REMARK minimizedAffinity -5.98095179
REMARK minimizedRMSD -1
REMARK  0 active torsions:
REMARK  status: ('A' for Active; 'I' for Inactive)
ROOT
ATOM      1  C   UNL d   1      -1.075   0.394   1.079  0.00  0.00     0.077 C 
ATOM      2  C1  UNL d   1      -0.027  -0.214   0.194  0.00  0.00    -0.074 A 
ATOM      3  C2  UNL d   1       0.219  -1.590   0.212  0.00  0.00    -0.005 A 
ATOM      4  C3  UNL d   1       1.190  -2.142  -0.624  0.00  0.00     0.006 A 
ATOM      5  C4  UNL d   1       1.924  -1.324  -1.484  0.00  0.00    -0.005 A 
ATOM      6  C5  UNL d   1       1.691   0.054  -1.517  0.00  0.00    -0.074 A 
ATOM      7  C6  UNL d   1       2.463   0.946  -2.443  0.00  0.00     0.077 C 
ATOM      8  C7  UNL d   1       0.708   0.600  -0.679  0.00  0.00    -0.001 A 
ENDROOT
TORSDOF 0
ENDMDL
