MODEL 1
REMARK minimizedAffinity -3.8527298
REMARK minimizedRMSD -1
REMARK  0 active torsions:
REMARK  status: ('A' for Active; 'I' for Inactive)
ROOT
ATOM      1  C   UNL d   1       2.779  -0.509  -1.697  0.00  0.00     0.077 C 
ATOM      2  C1  UNL d   1       1.407  -0.595  -1.097  0.00  0.00    -0.074 A 
ATOM      3  C2  UNL d   1       0.710   0.560  -0.729  0.00  0.00    -0.005 A 
ATOM      4  C3  UNL d   1      -0.570   0.464  -0.181  0.00  0.00     0.006 A 
ATOM      5  C4  UNL d   1      -1.164  -0.785   0.003  0.00  0.00    -0.005 A 
ATOM      6  C5  UNL d   1      -0.482  -1.951  -0.360  0.00  0.00    -0.074 A 
ATOM      7  C6  UNL d   1      -1.110  -3.300  -0.178  0.00  0.00     0.077 C 
ATOM      8  C7  UNL d   1       0.800  -1.846  -0.916  0.00  0.00    -0.001 A 
ENDROOT
TORSDOF 0
ENDMDL
