MODEL 1
REMARK minimizedAffinity -3.28306246
REMARK minimizedRMSD -1
REMARK  0 active torsions:
REMARK  status: ('A' for Active; 'I' for Inactive)
ROOT
ATOM      1  C   UNL d   1      -2.103   0.264   1.862  0.00  0.00     0.077 C 
ATOM      2  C1  UNL d   1      -1.250   0.434   0.640  0.00  0.00    -0.074 A 
ATOM      3  C2  UNL d   1      -1.619   1.322  -0.376  0.00  0.00    -0.005 A 
ATOM      4  C3  UNL d   1      -0.810   1.477  -1.502  0.00  0.00     0.006 A 
ATOM      5  C4  UNL d   1       0.373   0.747  -1.623  0.00  0.00    -0.005 A 
ATOM      6  C5  UNL d   1       0.759  -0.144  -0.616  0.00  0.00    -0.074 A 
ATOM      7  C6  UNL d   1       2.032  -0.928  -0.726  0.00  0.00     0.077 C 
ATOM      8  C7  UNL d   1      -0.056  -0.289   0.515  0.00  0.00    -0.001 A 
ENDROOT
TORSDOF 0
ENDMDL
