MODEL 1
REMARK minimizedAffinity -5.95133114
REMARK minimizedRMSD -1
REMARK  0 active torsions:
REMARK  status: ('A' for Active; 'I' for Inactive)
ROOT
ATOM      1  C   UNL d   1      -1.291   0.270   0.963  0.00  0.00     0.077 C 
ATOM      2  C1  UNL d   1      -0.237  -0.136  -0.023  0.00  0.00    -0.074 A 
ATOM      3  C2  UNL d   1       0.357  -1.401   0.039  0.00  0.00    -0.005 A 
ATOM      4  C3  UNL d   1       1.329  -1.768  -0.891  0.00  0.00     0.006 A 
ATOM      5  C4  UNL d   1       1.717  -0.875  -1.891  0.00  0.00    -0.005 A 
ATOM      6  C5  UNL d   1       1.134   0.393  -1.970  0.00  0.00    -0.074 A 
ATOM      7  C6  UNL d   1       1.532   1.360  -3.045  0.00  0.00     0.077 C 
ATOM      8  C7  UNL d   1       0.152   0.752  -1.036  0.00  0.00    -0.001 A 
ENDROOT
TORSDOF 0
ENDMDL
