MODEL 1
REMARK minimizedAffinity -4.7850132
REMARK minimizedRMSD -1
REMARK  0 active torsions:
REMARK  status: ('A' for Active; 'I' for Inactive)
ROOT
ATOM      1  C   UNL d   1      -0.894   0.648   0.799  0.00  0.00     0.077 C 
ATOM      2  C1  UNL d   1       0.289   0.118   0.045  0.00  0.00    -0.074 A 
ATOM      3  C2  UNL d   1       1.514   0.794   0.060  0.00  0.00    -0.005 A 
ATOM      4  C3  UNL d   1       2.608   0.283  -0.638  0.00  0.00     0.006 A 
ATOM      5  C4  UNL d   1       2.489  -0.906  -1.357  0.00  0.00    -0.005 A 
ATOM      6  C5  UNL d   1       1.274  -1.597  -1.384  0.00  0.00    -0.074 A 
ATOM      7  C6  UNL d   1       1.132  -2.882  -2.144  0.00  0.00     0.077 C 
ATOM      8  C7  UNL d   1       0.181  -1.081  -0.674  0.00  0.00    -0.001 A 
ENDROOT
TORSDOF 0
ENDMDL
