MODEL 1
REMARK minimizedAffinity -3.5874176
REMARK minimizedRMSD -1
REMARK  0 active torsions:
REMARK  status: ('A' for Active; 'I' for Inactive)
ROOT
ATOM      1  C   UNL d   1       0.745   2.165  -2.362  0.00  0.00     0.077 C 
ATOM      2  C1  UNL d   1       1.172   0.762  -2.047  0.00  0.00    -0.074 A 
ATOM      3  C2  UNL d   1       2.298   0.200  -2.657  0.00  0.00    -0.005 A 
ATOM      4  C3  UNL d   1       2.689  -1.103  -2.347  0.00  0.00     0.006 A 
ATOM      5  C4  UNL d   1       1.960  -1.854  -1.425  0.00  0.00    -0.005 A 
ATOM      6  C5  UNL d   1       0.832  -1.308  -0.804  0.00  0.00    -0.074 A 
ATOM      7  C6  UNL d   1       0.042  -2.099   0.197  0.00  0.00     0.077 C 
ATOM      8  C7  UNL d   1       0.449   0.004  -1.116  0.00  0.00    -0.001 A 
ENDROOT
TORSDOF 0
ENDMDL
