MODEL 1
REMARK minimizedAffinity -2.4855485
REMARK minimizedRMSD -1
REMARK  0 active torsions:
REMARK  status: ('A' for Active; 'I' for Inactive)
ROOT
ATOM      1  C   UNL d   1       1.291   1.574  -3.197  0.00  0.00     0.077 C 
ATOM      2  C1  UNL d   1       1.132   0.485  -2.178  0.00  0.00    -0.074 A 
ATOM      3  C2  UNL d   1       1.852  -0.710  -2.285  0.00  0.00    -0.005 A 
ATOM      4  C3  UNL d   1       1.701  -1.710  -1.325  0.00  0.00     0.006 A 
ATOM      5  C4  UNL d   1       0.831  -1.527  -0.250  0.00  0.00    -0.005 A 
ATOM      6  C5  UNL d   1       0.104  -0.338  -0.125  0.00  0.00    -0.074 A 
ATOM      7  C6  UNL d   1      -0.828  -0.121   1.030  0.00  0.00     0.077 C 
ATOM      8  C7  UNL d   1       0.266   0.665  -1.090  0.00  0.00    -0.001 A 
ENDROOT
TORSDOF 0
ENDMDL
