MODEL 1
REMARK minimizedAffinity -0.420375854
REMARK minimizedRMSD -1
REMARK  0 active torsions:
REMARK  status: ('A' for Active; 'I' for Inactive)
ROOT
ATOM      1  C   UNL d   1      -0.411  -0.889  -0.272  0.00  0.00     0.077 C 
ATOM      2  C1  UNL d   1      -0.876  -0.073   0.898  0.00  0.00    -0.074 A 
ATOM      3  C2  UNL d   1      -0.244   1.129   1.233  0.00  0.00    -0.005 A 
ATOM      4  C3  UNL d   1      -0.693   1.881   2.318  0.00  0.00     0.006 A 
ATOM      5  C4  UNL d   1      -1.778   1.441   3.077  0.00  0.00    -0.005 A 
ATOM      6  C5  UNL d   1      -2.423   0.242   2.757  0.00  0.00    -0.074 A 
ATOM      7  C6  UNL d   1      -3.596  -0.241   3.557  0.00  0.00     0.077 C 
ATOM      8  C7  UNL d   1      -1.970  -0.505   1.661  0.00  0.00    -0.001 A 
ENDROOT
TORSDOF 0
ENDMDL
