MODEL 1
REMARK minimizedAffinity 4.15662479
REMARK minimizedRMSD -1
REMARK  0 active torsions:
REMARK  status: ('A' for Active; 'I' for Inactive)
ROOT
ATOM      1  C   UNL d   1      -0.381   2.648  -2.227  0.00  0.00     0.077 C 
ATOM      2  C1  UNL d   1       0.159   1.253  -2.115  0.00  0.00    -0.074 A 
ATOM      3  C2  UNL d   1       1.090   0.766  -3.037  0.00  0.00    -0.005 A 
ATOM      4  C3  UNL d   1       1.590  -0.530  -2.914  0.00  0.00     0.006 A 
ATOM      5  C4  UNL d   1       1.164  -1.351  -1.870  0.00  0.00    -0.005 A 
ATOM      6  C5  UNL d   1       0.234  -0.881  -0.937  0.00  0.00    -0.074 A 
ATOM      7  C6  UNL d   1      -0.227  -1.747   0.197  0.00  0.00     0.077 C 
ATOM      8  C7  UNL d   1      -0.259   0.425  -1.063  0.00  0.00    -0.001 A 
ENDROOT
TORSDOF 0
ENDMDL
