MODEL 1
REMARK minimizedAffinity -4.14814949
REMARK minimizedRMSD -1
REMARK  0 active torsions:
REMARK  status: ('A' for Active; 'I' for Inactive)
ROOT
ATOM      1  C   UNL d   1       1.625  -2.861  -2.708  0.00  0.00     0.077 C 
ATOM      2  C1  UNL d   1       1.642  -1.606  -1.887  0.00  0.00    -0.074 A 
ATOM      3  C2  UNL d   1       2.829  -0.894  -1.687  0.00  0.00    -0.005 A 
ATOM      4  C3  UNL d   1       2.827   0.277  -0.930  0.00  0.00     0.006 A 
ATOM      5  C4  UNL d   1       1.641   0.748  -0.366  0.00  0.00    -0.005 A 
ATOM      6  C5  UNL d   1       0.444   0.050  -0.556  0.00  0.00    -0.074 A 
ATOM      7  C6  UNL d   1      -0.842   0.547   0.036  0.00  0.00     0.077 C 
ATOM      8  C7  UNL d   1       0.452  -1.123  -1.324  0.00  0.00    -0.001 A 
ENDROOT
TORSDOF 0
ENDMDL
