MODEL 1
REMARK minimizedAffinity -5.12099314
REMARK minimizedRMSD -1
REMARK  0 active torsions:
REMARK  status: ('A' for Active; 'I' for Inactive)
ROOT
ATOM      1  C   UNL d   1      -1.899   0.407   0.054  0.00  0.00     0.077 C 
ATOM      2  C1  UNL d   1      -2.109   0.360   1.539  0.00  0.00    -0.074 A 
ATOM      3  C2  UNL d   1      -1.970   1.511   2.321  0.00  0.00    -0.005 A 
ATOM      4  C3  UNL d   1      -2.178   1.455   3.699  0.00  0.00     0.006 A 
ATOM      5  C4  UNL d   1      -2.526   0.249   4.308  0.00  0.00    -0.005 A 
ATOM      6  C5  UNL d   1      -2.670  -0.913   3.542  0.00  0.00    -0.074 A 
ATOM      7  C6  UNL d   1      -3.053  -2.215   4.179  0.00  0.00     0.077 C 
ATOM      8  C7  UNL d   1      -2.466  -0.846   2.157  0.00  0.00    -0.001 A 
ENDROOT
TORSDOF 0
ENDMDL
