MODEL 1
REMARK minimizedAffinity -0.0822952315
REMARK minimizedRMSD -1
REMARK  0 active torsions:
REMARK  status: ('A' for Active; 'I' for Inactive)
ROOT
ATOM      1  C   UNL d   1      -1.720   0.161   3.585  0.00  0.00     0.077 C 
ATOM      2  C1  UNL d   1      -1.291   0.220   2.149  0.00  0.00    -0.074 A 
ATOM      3  C2  UNL d   1      -1.698   1.270   1.320  0.00  0.00    -0.005 A 
ATOM      4  C3  UNL d   1      -1.284   1.317  -0.011  0.00  0.00     0.006 A 
ATOM      5  C4  UNL d   1      -0.460   0.316  -0.526  0.00  0.00    -0.005 A 
ATOM      6  C5  UNL d   1      -0.041  -0.742   0.288  0.00  0.00    -0.074 A 
ATOM      7  C6  UNL d   1       0.853  -1.821  -0.246  0.00  0.00     0.077 C 
ATOM      8  C7  UNL d   1      -0.456  -0.778   1.626  0.00  0.00    -0.001 A 
ENDROOT
TORSDOF 0
ENDMDL
