MODEL 1
REMARK minimizedAffinity -4.4489603
REMARK minimizedRMSD -1
REMARK  0 active torsions:
REMARK  status: ('A' for Active; 'I' for Inactive)
ROOT
ATOM      1  C   UNL d   1       1.253  -3.026  -2.511  0.00  0.00     0.077 C 
ATOM      2  C1  UNL d   1       1.173  -1.715  -1.786  0.00  0.00    -0.074 A 
ATOM      3  C2  UNL d   1       2.188  -0.762  -1.910  0.00  0.00    -0.005 A 
ATOM      4  C3  UNL d   1       2.095   0.456  -1.238  0.00  0.00     0.006 A 
ATOM      5  C4  UNL d   1       0.988   0.733  -0.435  0.00  0.00    -0.005 A 
ATOM      6  C5  UNL d   1      -0.038  -0.208  -0.299  0.00  0.00    -0.074 A 
ATOM      7  C6  UNL d   1      -1.239   0.077   0.552  0.00  0.00     0.077 C 
ATOM      8  C7  UNL d   1       0.060  -1.427  -0.984  0.00  0.00    -0.001 A 
ENDROOT
TORSDOF 0
ENDMDL
