MODEL 1
REMARK minimizedAffinity -4.31014299
REMARK minimizedRMSD -1
REMARK  0 active torsions:
REMARK  status: ('A' for Active; 'I' for Inactive)
ROOT
ATOM      1  C   UNL d   1       3.499  -0.042  -1.556  0.00  0.00     0.077 C 
ATOM      2  C1  UNL d   1       2.156  -0.316  -0.945  0.00  0.00    -0.074 A 
ATOM      3  C2  UNL d   1       1.288   0.730  -0.618  0.00  0.00    -0.005 A 
ATOM      4  C3  UNL d   1       0.039   0.459  -0.059  0.00  0.00     0.006 A 
ATOM      5  C4  UNL d   1      -0.353  -0.859   0.178  0.00  0.00    -0.005 A 
ATOM      6  C5  UNL d   1       0.501  -1.918  -0.143  0.00  0.00    -0.074 A 
ATOM      7  C6  UNL d   1       0.090  -3.341   0.096  0.00  0.00     0.077 C 
ATOM      8  C7  UNL d   1       1.751  -1.638  -0.711  0.00  0.00    -0.001 A 
ENDROOT
TORSDOF 0
ENDMDL
