MODEL 1
REMARK minimizedAffinity 3.07467055
REMARK minimizedRMSD -1
REMARK  2 active torsions:
REMARK  status: ('A' for Active; 'I' for Inactive)
REMARK    1  A    between atoms: C1_2  and  C2_3 
REMARK    2  A    between atoms: C2_3  and  C3_4 
ROOT
ATOM      1  C3  UNL d   1       1.935   0.857  -0.476  0.00  0.00    -0.075 A 
ATOM      2  C4  UNL d   1       3.163   0.303  -0.085  0.00  0.00     0.002 A 
ATOM      3  C5  UNL d   1       4.308   1.097  -0.018  0.00  0.00     0.002 A 
ATOM      4  C6  UNL d   1       4.244   2.449  -0.349  0.00  0.00    -0.004 A 
ATOM      5  C7  UNL d   1       3.033   3.005  -0.754  0.00  0.00     0.002 A 
ATOM      6  C8  UNL d   1       1.884   2.215  -0.819  0.00  0.00     0.002 A 
ENDROOT
BRANCH   1   7
ATOM      7  C2  UNL d   1       0.686   0.010  -0.523  0.00  0.00     0.056 C 
BRANCH   7   8
ATOM      8  C1  UNL d   1      -0.587   0.753  -0.104  0.00  0.00     0.007 C 
ATOM      9  C   UNL d   1      -1.141   0.287   1.236  0.00  0.00     0.009 C 
ENDBRANCH   7   8
ENDBRANCH   1   7
TORSDOF 2
ENDMDL
