MODEL 1
REMARK minimizedAffinity -4.53116512
REMARK minimizedRMSD -1
REMARK  2 active torsions:
REMARK  status: ('A' for Active; 'I' for Inactive)
REMARK    1  A    between atoms: C1_2  and  C2_3 
REMARK    2  A    between atoms: C2_3  and  C3_4 
ROOT
ATOM      1  C3  UNL d   1       2.153  -2.818   2.656  0.00  0.00    -0.075 A 
ATOM      2  C4  UNL d   1       2.419  -2.453   1.328  0.00  0.00     0.002 A 
ATOM      3  C5  UNL d   1       1.654  -1.472   0.696  0.00  0.00     0.002 A 
ATOM      4  C6  UNL d   1       0.610  -0.852   1.379  0.00  0.00    -0.004 A 
ATOM      5  C7  UNL d   1       0.326  -1.218   2.692  0.00  0.00     0.002 A 
ATOM      6  C8  UNL d   1       1.092  -2.196   3.328  0.00  0.00     0.002 A 
ENDROOT
BRANCH   1   7
ATOM      7  C2  UNL d   1       2.995  -3.858   3.355  0.00  0.00     0.056 C 
BRANCH   7   8
ATOM      8  C1  UNL d   1       3.667  -3.357   4.638  0.00  0.00     0.007 C 
ATOM      9  C   UNL d   1       4.075  -4.481   5.580  0.00  0.00     0.009 C 
ENDBRANCH   7   8
ENDBRANCH   1   7
TORSDOF 2
ENDMDL
