MODEL 1
REMARK minimizedAffinity 2.27208853
REMARK minimizedRMSD -1
REMARK  2 active torsions:
REMARK  status: ('A' for Active; 'I' for Inactive)
REMARK    1  A    between atoms: C1_2  and  C2_3 
REMARK    2  A    between atoms: C2_3  and  C3_4 
ROOT
ATOM      1  C3  UNL d   1       3.606  -4.372   2.948  0.00  0.00    -0.075 A 
ATOM      2  C4  UNL d   1       3.974  -4.260   1.599  0.00  0.00     0.002 A 
ATOM      3  C5  UNL d   1       3.059  -3.802   0.651  0.00  0.00     0.002 A 
ATOM      4  C6  UNL d   1       1.765  -3.460   1.035  0.00  0.00    -0.004 A 
ATOM      5  C7  UNL d   1       1.383  -3.583   2.369  0.00  0.00     0.002 A 
ATOM      6  C8  UNL d   1       2.297  -4.037   3.321  0.00  0.00     0.002 A 
ENDROOT
BRANCH   1   7
ATOM      7  C2  UNL d   1       4.600  -4.839   3.984  0.00  0.00     0.056 C 
BRANCH   7   8
ATOM      8  C1  UNL d   1       4.393  -4.220   5.370  0.00  0.00     0.007 C 
ATOM      9  C   UNL d   1       5.249  -2.984   5.610  0.00  0.00     0.009 C 
ENDBRANCH   7   8
ENDBRANCH   1   7
TORSDOF 2
ENDMDL
