MODEL 1
REMARK minimizedAffinity 1.08373201
REMARK minimizedRMSD -1
REMARK  2 active torsions:
REMARK  status: ('A' for Active; 'I' for Inactive)
REMARK    1  A    between atoms: C1_2  and  C2_3 
REMARK    2  A    between atoms: C2_3  and  C3_4 
ROOT
ATOM      1  C3  UNL d   1       1.120  -0.983   1.576  0.00  0.00    -0.075 A 
ATOM      2  C4  UNL d   1      -0.146  -0.549   1.996  0.00  0.00     0.002 A 
ATOM      3  C5  UNL d   1      -0.992  -1.406   2.699  0.00  0.00     0.002 A 
ATOM      4  C6  UNL d   1      -0.588  -2.709   2.983  0.00  0.00    -0.004 A 
ATOM      5  C7  UNL d   1       0.660  -3.157   2.557  0.00  0.00     0.002 A 
ATOM      6  C8  UNL d   1       1.511  -2.299   1.857  0.00  0.00     0.002 A 
ENDROOT
BRANCH   1   7
ATOM      7  C2  UNL d   1       2.052  -0.051   0.840  0.00  0.00     0.056 C 
BRANCH   7   8
ATOM      8  C1  UNL d   1       1.607   0.276  -0.589  0.00  0.00     0.007 C 
ATOM      9  C   UNL d   1       2.577   1.189  -1.326  0.00  0.00     0.009 C 
ENDBRANCH   7   8
ENDBRANCH   1   7
TORSDOF 2
ENDMDL
