MODEL 1
REMARK minimizedAffinity 4.38545799
REMARK minimizedRMSD -1
REMARK  2 active torsions:
REMARK  status: ('A' for Active; 'I' for Inactive)
REMARK    1  A    between atoms: C1_2  and  C2_3 
REMARK    2  A    between atoms: C2_3  and  C3_4 
ROOT
ATOM      1  C3  UNL d   1       1.576  -2.504   0.949  0.00  0.00    -0.075 A 
ATOM      2  C4  UNL d   1       1.158  -3.263   2.052  0.00  0.00     0.002 A 
ATOM      3  C5  UNL d   1       0.143  -2.798   2.888  0.00  0.00     0.002 A 
ATOM      4  C6  UNL d   1      -0.460  -1.567   2.638  0.00  0.00    -0.004 A 
ATOM      5  C7  UNL d   1      -0.041  -0.797   1.555  0.00  0.00     0.002 A 
ATOM      6  C8  UNL d   1       0.972  -1.262   0.715  0.00  0.00     0.002 A 
ENDROOT
BRANCH   1   7
ATOM      7  C2  UNL d   1       2.654  -3.016   0.023  0.00  0.00     0.056 C 
BRANCH   7   8
ATOM      8  C1  UNL d   1       3.783  -3.769   0.736  0.00  0.00     0.007 C 
ATOM      9  C   UNL d   1       4.686  -4.539  -0.217  0.00  0.00     0.009 C 
ENDBRANCH   7   8
ENDBRANCH   1   7
TORSDOF 2
ENDMDL
