MODEL 1
REMARK minimizedAffinity -3.08703566
REMARK minimizedRMSD -1
REMARK  2 active torsions:
REMARK  status: ('A' for Active; 'I' for Inactive)
REMARK    1  A    between atoms: C1_2  and  C2_3 
REMARK    2  A    between atoms: C2_3  and  C3_4 
ROOT
ATOM      1  C3  UNL d   1       2.890  -2.810   1.551  0.00  0.00    -0.075 A 
ATOM      2  C4  UNL d   1       3.306  -3.234   2.822  0.00  0.00     0.002 A 
ATOM      3  C5  UNL d   1       4.494  -3.948   2.976  0.00  0.00     0.002 A 
ATOM      4  C6  UNL d   1       5.275  -4.257   1.864  0.00  0.00    -0.004 A 
ATOM      5  C7  UNL d   1       4.862  -3.855   0.595  0.00  0.00     0.002 A 
ATOM      6  C8  UNL d   1       3.676  -3.136   0.438  0.00  0.00     0.002 A 
ENDROOT
BRANCH   1   7
ATOM      7  C2  UNL d   1       1.620  -2.011   1.381  0.00  0.00     0.056 C 
BRANCH   7   8
ATOM      8  C1  UNL d   1       1.481  -1.345   0.008  0.00  0.00     0.007 C 
ATOM      9  C   UNL d   1       1.905   0.118   0.004  0.00  0.00     0.009 C 
ENDBRANCH   7   8
ENDBRANCH   1   7
TORSDOF 2
ENDMDL
