MODEL 1
REMARK minimizedAffinity 3.3950026
REMARK minimizedRMSD -1
REMARK  2 active torsions:
REMARK  status: ('A' for Active; 'I' for Inactive)
REMARK    1  A    between atoms: C1_2  and  C2_3 
REMARK    2  A    between atoms: C2_3  and  C3_4 
ROOT
ATOM      1  C3  UNL d   1       0.403  -1.890   1.773  0.00  0.00    -0.075 A 
ATOM      2  C4  UNL d   1      -0.749  -1.156   2.092  0.00  0.00     0.002 A 
ATOM      3  C5  UNL d   1      -1.191  -0.132   1.254  0.00  0.00     0.002 A 
ATOM      4  C6  UNL d   1      -0.484   0.178   0.095  0.00  0.00    -0.004 A 
ATOM      5  C7  UNL d   1       0.671  -0.533  -0.224  0.00  0.00     0.002 A 
ATOM      6  C8  UNL d   1       1.113  -1.561   0.610  0.00  0.00     0.002 A 
ENDROOT
BRANCH   1   7
ATOM      7  C2  UNL d   1       0.870  -3.019   2.660  0.00  0.00     0.056 C 
BRANCH   7   8
ATOM      8  C1  UNL d   1      -0.090  -4.212   2.709  0.00  0.00     0.007 C 
ATOM      9  C   UNL d   1      -1.305  -3.969   3.595  0.00  0.00     0.009 C 
ENDBRANCH   7   8
ENDBRANCH   1   7
TORSDOF 2
ENDMDL
