MODEL 1
REMARK minimizedAffinity -1.91764283
REMARK minimizedRMSD -1
REMARK  2 active torsions:
REMARK  status: ('A' for Active; 'I' for Inactive)
REMARK    1  A    between atoms: C1_2  and  C2_3 
REMARK    2  A    between atoms: C2_3  and  C3_4 
ROOT
ATOM      1  C3  UNL d   1       0.665  -3.491   2.565  0.00  0.00    -0.075 A 
ATOM      2  C4  UNL d   1       0.727  -2.090   2.563  0.00  0.00     0.002 A 
ATOM      3  C5  UNL d   1      -0.366  -1.332   2.984  0.00  0.00     0.002 A 
ATOM      4  C6  UNL d   1      -1.536  -1.963   3.401  0.00  0.00    -0.004 A 
ATOM      5  C7  UNL d   1      -1.615  -3.354   3.392  0.00  0.00     0.002 A 
ATOM      6  C8  UNL d   1      -0.521  -4.115   2.976  0.00  0.00     0.002 A 
ENDROOT
BRANCH   1   7
ATOM      7  C2  UNL d   1       1.855  -4.318   2.139  0.00  0.00     0.056 C 
BRANCH   7   8
ATOM      8  C1  UNL d   1       2.494  -3.859   0.824  0.00  0.00     0.007 C 
ATOM      9  C   UNL d   1       3.797  -4.581   0.506  0.00  0.00     0.009 C 
ENDBRANCH   7   8
ENDBRANCH   1   7
TORSDOF 2
ENDMDL
