MODEL 1
REMARK minimizedAffinity -0.675088942
REMARK minimizedRMSD -1
REMARK  2 active torsions:
REMARK  status: ('A' for Active; 'I' for Inactive)
REMARK    1  A    between atoms: C1_2  and  C2_3 
REMARK    2  A    between atoms: C2_3  and  C3_4 
ROOT
ATOM      1  C3  UNL d   1       2.254  -0.917  -0.110  0.00  0.00    -0.075 A 
ATOM      2  C4  UNL d   1       3.400  -0.219   0.298  0.00  0.00     0.002 A 
ATOM      3  C5  UNL d   1       3.886   0.849  -0.458  0.00  0.00     0.002 A 
ATOM      4  C6  UNL d   1       3.240   1.225  -1.633  0.00  0.00    -0.004 A 
ATOM      5  C7  UNL d   1       2.111   0.528  -2.057  0.00  0.00     0.002 A 
ATOM      6  C8  UNL d   1       1.620  -0.538  -1.301  0.00  0.00     0.002 A 
ENDROOT
BRANCH   1   7
ATOM      7  C2  UNL d   1       1.706  -2.054   0.718  0.00  0.00     0.056 C 
BRANCH   7   8
ATOM      8  C1  UNL d   1       1.144  -1.622   2.076  0.00  0.00     0.007 C 
ATOM      9  C   UNL d   1      -0.065  -0.703   1.960  0.00  0.00     0.009 C 
ENDBRANCH   7   8
ENDBRANCH   1   7
TORSDOF 2
ENDMDL
