MODEL 1
REMARK minimizedAffinity -3.65120411
REMARK minimizedRMSD -1
REMARK  2 active torsions:
REMARK  status: ('A' for Active; 'I' for Inactive)
REMARK    1  A    between atoms: C1_2  and  C2_3 
REMARK    2  A    between atoms: C2_3  and  C3_4 
ROOT
ATOM      1  C3  UNL d   1       0.195  -0.742  -0.859  0.00  0.00    -0.075 A 
ATOM      2  C4  UNL d   1      -0.264  -0.354   0.408  0.00  0.00     0.002 A 
ATOM      3  C5  UNL d   1      -0.833   0.905   0.600  0.00  0.00     0.002 A 
ATOM      4  C6  UNL d   1      -0.941   1.795  -0.466  0.00  0.00    -0.004 A 
ATOM      5  C7  UNL d   1      -0.473   1.426  -1.726  0.00  0.00     0.002 A 
ATOM      6  C8  UNL d   1       0.093   0.165  -1.922  0.00  0.00     0.002 A 
ENDROOT
BRANCH   1   7
ATOM      7  C2  UNL d   1       0.785  -2.114  -1.081  0.00  0.00     0.056 C 
BRANCH   7   8
ATOM      8  C1  UNL d   1      -0.204  -3.262  -0.853  0.00  0.00     0.007 C 
ATOM      9  C   UNL d   1      -0.877  -3.738  -2.134  0.00  0.00     0.009 C 
ENDBRANCH   7   8
ENDBRANCH   1   7
TORSDOF 2
ENDMDL
