MODEL 1
REMARK minimizedAffinity -5.32068968
REMARK minimizedRMSD -1
REMARK  2 active torsions:
REMARK  status: ('A' for Active; 'I' for Inactive)
REMARK    1  A    between atoms: C1_2  and  C2_3 
REMARK    2  A    between atoms: C2_3  and  C3_4 
ROOT
ATOM      1  C3  UNL d   1       0.125   0.133  -0.092  0.00  0.00    -0.075 A 
ATOM      2  C4  UNL d   1      -0.850   1.127  -0.258  0.00  0.00     0.002 A 
ATOM      3  C5  UNL d   1      -1.141   2.014   0.779  0.00  0.00     0.002 A 
ATOM      4  C6  UNL d   1      -0.468   1.913   1.995  0.00  0.00    -0.004 A 
ATOM      5  C7  UNL d   1       0.491   0.919   2.176  0.00  0.00     0.002 A 
ATOM      6  C8  UNL d   1       0.787   0.033   1.139  0.00  0.00     0.002 A 
ENDROOT
BRANCH   1   7
ATOM      7  C2  UNL d   1       0.465  -0.811  -1.221  0.00  0.00     0.056 C 
BRANCH   7   8
ATOM      8  C1  UNL d   1       0.082  -2.270  -0.950  0.00  0.00     0.007 C 
ATOM      9  C   UNL d   1      -1.001  -2.789  -1.886  0.00  0.00     0.009 C 
ENDBRANCH   7   8
ENDBRANCH   1   7
TORSDOF 2
ENDMDL
