MODEL 1
REMARK minimizedAffinity -4.3587203
REMARK minimizedRMSD -1
REMARK  2 active torsions:
REMARK  status: ('A' for Active; 'I' for Inactive)
REMARK    1  A    between atoms: C1_2  and  C2_3 
REMARK    2  A    between atoms: C2_3  and  C3_4 
ROOT
ATOM      1  C3  UNL d   1      -0.008  -0.251  -0.233  0.00  0.00    -0.075 A 
ATOM      2  C4  UNL d   1      -1.019   0.714  -0.348  0.00  0.00     0.002 A 
ATOM      3  C5  UNL d   1      -1.151   1.720   0.610  0.00  0.00     0.002 A 
ATOM      4  C6  UNL d   1      -0.282   1.768   1.698  0.00  0.00    -0.004 A 
ATOM      5  C7  UNL d   1       0.716   0.805   1.831  0.00  0.00     0.002 A 
ATOM      6  C8  UNL d   1       0.853  -0.200   0.872  0.00  0.00     0.002 A 
ENDROOT
BRANCH   1   7
ATOM      7  C2  UNL d   1       0.159  -1.325  -1.281  0.00  0.00     0.056 C 
BRANCH   7   8
ATOM      8  C1  UNL d   1       0.339  -2.734  -0.708  0.00  0.00     0.007 C 
ATOM      9  C   UNL d   1      -0.123  -3.832  -1.656  0.00  0.00     0.009 C 
ENDBRANCH   7   8
ENDBRANCH   1   7
TORSDOF 2
ENDMDL
