MODEL 1
REMARK minimizedAffinity -4.09783363
REMARK minimizedRMSD -1
REMARK  2 active torsions:
REMARK  status: ('A' for Active; 'I' for Inactive)
REMARK    1  A    between atoms: C2'_3  and  C1'_4 
REMARK    2  A    between atoms: C1'_4  and  C1_5 
ROOT
ATOM      1  C1  I4B d   1      -1.511  -0.542   0.101  0.00  0.00    -0.075 A 
ATOM      2  C2  I4B d   1      -2.655  -1.283  -0.057  0.00  0.00     0.003 A 
ATOM      3  C3  I4B d   1      -2.800  -2.521   0.614  0.00  0.00     0.002 A 
ATOM      4  C4  I4B d   1      -1.763  -3.001   1.387  0.00  0.00    -0.004 A 
ATOM      5  C5  I4B d   1      -0.613  -2.238   1.564  0.00  0.00     0.002 A 
ATOM      6  C6  I4B d   1      -0.491  -0.994   0.927  0.00  0.00     0.003 A 
ENDROOT
BRANCH   1   7
ATOM      7  C1' I4B d   1      -1.377   0.746  -0.648  0.00  0.00     0.060 C 
BRANCH   7   8
ATOM      8  C2' I4B d   1      -1.013   0.417  -2.082  0.00  0.00    -0.013 C 
ATOM      9  C4' I4B d   1      -1.342   1.560  -3.005  0.00  0.00     0.013 C 
ATOM     10  C3' I4B d   1       0.450   0.090  -2.124  0.00  0.00     0.013 C 
ENDBRANCH   7   8
ENDBRANCH   1   7
TORSDOF 2
ENDMDL
