MODEL 1
REMARK minimizedAffinity -3.70437455
REMARK minimizedRMSD -1
REMARK  2 active torsions:
REMARK  status: ('A' for Active; 'I' for Inactive)
REMARK    1  A    between atoms: C2'_3  and  C1'_4 
REMARK    2  A    between atoms: C1'_4  and  C1_5 
ROOT
ATOM      1  C1  I4B d   1      -1.235  -0.315  -0.376  0.00  0.00    -0.075 A 
ATOM      2  C2  I4B d   1      -0.641  -0.744   0.785  0.00  0.00     0.003 A 
ATOM      3  C3  I4B d   1       0.710  -0.418   1.056  0.00  0.00     0.002 A 
ATOM      4  C4  I4B d   1       1.439   0.292   0.124  0.00  0.00    -0.004 A 
ATOM      5  C5  I4B d   1       0.827   0.746  -1.042  0.00  0.00     0.002 A 
ATOM      6  C6  I4B d   1      -0.521   0.451  -1.288  0.00  0.00     0.003 A 
ENDROOT
BRANCH   1   7
ATOM      7  C1' I4B d   1      -2.654  -0.706  -0.646  0.00  0.00     0.060 C 
BRANCH   7   8
ATOM      8  C2' I4B d   1      -2.838  -2.139  -0.188  0.00  0.00    -0.013 C 
ATOM      9  C4' I4B d   1      -4.207  -2.350   0.403  0.00  0.00     0.013 C 
ATOM     10  C3' I4B d   1      -2.615  -3.035  -1.370  0.00  0.00     0.013 C 
ENDBRANCH   7   8
ENDBRANCH   1   7
TORSDOF 2
ENDMDL
