MODEL 1
REMARK minimizedAffinity -4.30240107
REMARK minimizedRMSD -1
REMARK  2 active torsions:
REMARK  status: ('A' for Active; 'I' for Inactive)
REMARK    1  A    between atoms: C2'_3  and  C1'_4 
REMARK    2  A    between atoms: C1'_4  and  C1_5 
ROOT
ATOM      1  C1  I4B d   1      -0.850  -0.136  -0.724  0.00  0.00    -0.075 A 
ATOM      2  C2  I4B d   1      -1.637  -0.004   0.393  0.00  0.00     0.003 A 
ATOM      3  C3  I4B d   1      -2.909  -0.623   0.445  0.00  0.00     0.002 A 
ATOM      4  C4  I4B d   1      -3.373  -1.317  -0.654  0.00  0.00    -0.004 A 
ATOM      5  C5  I4B d   1      -2.564  -1.468  -1.777  0.00  0.00     0.002 A 
ATOM      6  C6  I4B d   1      -1.290  -0.884  -1.808  0.00  0.00     0.003 A 
ENDROOT
BRANCH   1   7
ATOM      7  C1' I4B d   1       0.475   0.559  -0.758  0.00  0.00     0.060 C 
BRANCH   7   8
ATOM      8  C2' I4B d   1       1.119   0.402   0.604  0.00  0.00    -0.013 C 
ATOM      9  C4' I4B d   1       1.620  -1.004   0.812  0.00  0.00     0.013 C 
ATOM     10  C3' I4B d   1       2.238   1.395   0.704  0.00  0.00     0.013 C 
ENDBRANCH   7   8
ENDBRANCH   1   7
TORSDOF 2
ENDMDL
