MODEL 1
REMARK minimizedAffinity -3.44074273
REMARK minimizedRMSD -1
REMARK  2 active torsions:
REMARK  status: ('A' for Active; 'I' for Inactive)
REMARK    1  A    between atoms: C2'_3  and  C1'_4 
REMARK    2  A    between atoms: C1'_4  and  C1_5 
ROOT
ATOM      1  C1  I4B d   1       0.419  -0.022   0.264  0.00  0.00    -0.075 A 
ATOM      2  C2  I4B d   1       0.166   0.295  -1.047  0.00  0.00     0.003 A 
ATOM      3  C3  I4B d   1      -1.114   0.058  -1.604  0.00  0.00     0.002 A 
ATOM      4  C4  I4B d   1      -2.090  -0.542  -0.833  0.00  0.00    -0.004 A 
ATOM      5  C5  I4B d   1      -1.838  -0.842   0.502  0.00  0.00     0.002 A 
ATOM      6  C6  I4B d   1      -0.580  -0.569   1.059  0.00  0.00     0.003 A 
ENDROOT
BRANCH   1   7
ATOM      7  C1' I4B d   1       1.792   0.212   0.810  0.00  0.00     0.060 C 
BRANCH   7   8
ATOM      8  C2' I4B d   1       1.962   1.703   1.021  0.00  0.00    -0.013 C 
ATOM      9  C4' I4B d   1       2.181   2.026   2.475  0.00  0.00     0.013 C 
ATOM     10  C3' I4B d   1       3.120   2.159   0.184  0.00  0.00     0.013 C 
ENDBRANCH   7   8
ENDBRANCH   1   7
TORSDOF 2
ENDMDL
