MODEL 1
REMARK minimizedAffinity 0.89423275
REMARK minimizedRMSD -1
REMARK  2 active torsions:
REMARK  status: ('A' for Active; 'I' for Inactive)
REMARK    1  A    between atoms: C2'_3  and  C1'_4 
REMARK    2  A    between atoms: C1'_4  and  C1_5 
ROOT
ATOM      1  C1  I4B d   1      -2.798  -1.306   5.346  0.00  0.00    -0.075 A 
ATOM      2  C2  I4B d   1      -3.691  -0.494   6.000  0.00  0.00     0.003 A 
ATOM      3  C3  I4B d   1      -4.088   0.737   5.425  0.00  0.00     0.002 A 
ATOM      4  C4  I4B d   1      -3.533   1.139   4.227  0.00  0.00    -0.004 A 
ATOM      5  C5  I4B d   1      -2.645   0.304   3.555  0.00  0.00     0.002 A 
ATOM      6  C6  I4B d   1      -2.284  -0.931   4.111  0.00  0.00     0.003 A 
ENDROOT
BRANCH   1   7
ATOM      7  C1' I4B d   1      -2.375  -2.584   5.997  0.00  0.00     0.060 C 
BRANCH   7   8
ATOM      8  C2' I4B d   1      -3.488  -3.594   5.809  0.00  0.00    -0.013 C 
ATOM      9  C4' I4B d   1      -4.129  -3.453   4.454  0.00  0.00     0.013 C 
ATOM     10  C3' I4B d   1      -2.906  -4.964   5.993  0.00  0.00     0.013 C 
ENDBRANCH   7   8
ENDBRANCH   1   7
TORSDOF 2
ENDMDL
