MODEL 1
REMARK minimizedAffinity -4.77323198
REMARK minimizedRMSD -1
REMARK  2 active torsions:
REMARK  status: ('A' for Active; 'I' for Inactive)
REMARK    1  A    between atoms: C2'_3  and  C1'_4 
REMARK    2  A    between atoms: C1'_4  and  C1_5 
ROOT
ATOM      1  C1  I4B d   1      -0.358  -0.769  -0.032  0.00  0.00    -0.075 A 
ATOM      2  C2  I4B d   1      -1.562  -0.890  -0.680  0.00  0.00     0.003 A 
ATOM      3  C3  I4B d   1      -2.496  -1.872  -0.270  0.00  0.00     0.002 A 
ATOM      4  C4  I4B d   1      -2.167  -2.738   0.752  0.00  0.00    -0.004 A 
ATOM      5  C5  I4B d   1      -0.955  -2.599   1.423  0.00  0.00     0.002 A 
ATOM      6  C6  I4B d   1      -0.049  -1.600   1.037  0.00  0.00     0.003 A 
ENDROOT
BRANCH   1   7
ATOM      7  C1' I4B d   1       0.619   0.258  -0.512  0.00  0.00     0.060 C 
BRANCH   7   8
ATOM      8  C2' I4B d   1       1.841   0.193   0.381  0.00  0.00    -0.013 C 
ATOM      9  C4' I4B d   1       2.546  -1.132   0.245  0.00  0.00     0.013 C 
ATOM     10  C3' I4B d   1       2.747   1.328   0.009  0.00  0.00     0.013 C 
ENDBRANCH   7   8
ENDBRANCH   1   7
TORSDOF 2
ENDMDL
