MODEL 1
REMARK minimizedAffinity -3.8661797
REMARK minimizedRMSD -1
REMARK  2 active torsions:
REMARK  status: ('A' for Active; 'I' for Inactive)
REMARK    1  A    between atoms: C2'_3  and  C1'_4 
REMARK    2  A    between atoms: C1'_4  and  C1_5 
ROOT
ATOM      1  C1  I4B d   1       3.357   3.901  -0.851  0.00  0.00    -0.075 A 
ATOM      2  C2  I4B d   1       3.032   2.570  -0.945  0.00  0.00     0.003 A 
ATOM      3  C3  I4B d   1       2.678   1.839   0.215  0.00  0.00     0.002 A 
ATOM      4  C4  I4B d   1       2.711   2.460   1.446  0.00  0.00    -0.004 A 
ATOM      5  C5  I4B d   1       3.018   3.815   1.537  0.00  0.00     0.002 A 
ATOM      6  C6  I4B d   1       3.331   4.543   0.381  0.00  0.00     0.003 A 
ENDROOT
BRANCH   1   7
ATOM      7  C1' I4B d   1       3.758   4.634  -2.091  0.00  0.00     0.060 C 
BRANCH   7   8
ATOM      8  C2' I4B d   1       4.572   3.689  -2.950  0.00  0.00    -0.013 C 
ATOM      9  C4' I4B d   1       4.445   4.033  -4.411  0.00  0.00     0.013 C 
ATOM     10  C3' I4B d   1       5.999   3.765  -2.498  0.00  0.00     0.013 C 
ENDBRANCH   7   8
ENDBRANCH   1   7
TORSDOF 2
ENDMDL
