MODEL 1
REMARK minimizedAffinity -4.72624159
REMARK minimizedRMSD -1
REMARK  2 active torsions:
REMARK  status: ('A' for Active; 'I' for Inactive)
REMARK    1  A    between atoms: C2'_3  and  C1'_4 
REMARK    2  A    between atoms: C1'_4  and  C1_5 
ROOT
ATOM      1  C1  I4B d   1      -0.010  -0.121  -0.241  0.00  0.00    -0.075 A 
ATOM      2  C2  I4B d   1      -0.589   0.576  -1.271  0.00  0.00     0.003 A 
ATOM      3  C3  I4B d   1      -1.988   0.507  -1.481  0.00  0.00     0.002 A 
ATOM      4  C4  I4B d   1      -2.757  -0.307  -0.674  0.00  0.00    -0.004 A 
ATOM      5  C5  I4B d   1      -2.171  -0.995   0.385  0.00  0.00     0.002 A 
ATOM      6  C6  I4B d   1      -0.790  -0.892   0.611  0.00  0.00     0.003 A 
ENDROOT
BRANCH   1   7
ATOM      7  C1' I4B d   1       1.474  -0.051  -0.068  0.00  0.00     0.060 C 
BRANCH   7   8
ATOM      8  C2' I4B d   1       1.814   1.311   0.502  0.00  0.00    -0.013 C 
ATOM      9  C4' I4B d   1       1.995   1.247   1.996  0.00  0.00     0.013 C 
ATOM     10  C3' I4B d   1       3.062   1.797  -0.173  0.00  0.00     0.013 C 
ENDBRANCH   7   8
ENDBRANCH   1   7
TORSDOF 2
ENDMDL
