MODEL 1
REMARK minimizedAffinity -5.85810232
REMARK minimizedRMSD -1
REMARK  2 active torsions:
REMARK  status: ('A' for Active; 'I' for Inactive)
REMARK    1  A    between atoms: C2'_3  and  C1'_4 
REMARK    2  A    between atoms: C1'_4  and  C1_5 
ROOT
ATOM      1  C1  I4B d   1      -1.122  -0.942   0.800  0.00  0.00    -0.075 A 
ATOM      2  C2  I4B d   1      -0.787  -1.914   1.709  0.00  0.00     0.003 A 
ATOM      3  C3  I4B d   1      -1.587  -3.075   1.839  0.00  0.00     0.002 A 
ATOM      4  C4  I4B d   1      -2.733  -3.200   1.080  0.00  0.00    -0.004 A 
ATOM      5  C5  I4B d   1      -3.058  -2.224   0.142  0.00  0.00     0.002 A 
ATOM      6  C6  I4B d   1      -2.242  -1.094  -0.008  0.00  0.00     0.003 A 
ENDROOT
BRANCH   1   7
ATOM      7  C1' I4B d   1      -0.274   0.287   0.713  0.00  0.00     0.060 C 
BRANCH   7   8
ATOM      8  C2' I4B d   1       0.738   0.078  -0.395  0.00  0.00    -0.013 C 
ATOM      9  C4' I4B d   1       0.208   0.567  -1.717  0.00  0.00     0.013 C 
ATOM     10  C3' I4B d   1       1.996   0.800  -0.015  0.00  0.00     0.013 C 
ENDBRANCH   7   8
ENDBRANCH   1   7
TORSDOF 2
ENDMDL
