MODEL 1
REMARK minimizedAffinity -5.90266562
REMARK minimizedRMSD -1
REMARK  2 active torsions:
REMARK  status: ('A' for Active; 'I' for Inactive)
REMARK    1  A    between atoms: C2'_3  and  C1'_4 
REMARK    2  A    between atoms: C1'_4  and  C1_5 
ROOT
ATOM      1  C1  I4B d   1      -0.194  -0.240   0.378  0.00  0.00    -0.075 A 
ATOM      2  C2  I4B d   1      -0.592   0.207  -0.857  0.00  0.00     0.003 A 
ATOM      3  C3  I4B d   1      -1.947   0.099  -1.252  0.00  0.00     0.002 A 
ATOM      4  C4  I4B d   1      -2.856  -0.504  -0.406  0.00  0.00    -0.004 A 
ATOM      5  C5  I4B d   1      -2.455  -0.936   0.855  0.00  0.00     0.002 A 
ATOM      6  C6  I4B d   1      -1.118  -0.793   1.255  0.00  0.00     0.003 A 
ENDROOT
BRANCH   1   7
ATOM      7  C1' I4B d   1       1.252  -0.140   0.750  0.00  0.00     0.060 C 
BRANCH   7   8
ATOM      8  C2' I4B d   1       1.618   1.328   0.810  0.00  0.00    -0.013 C 
ATOM      9  C4' I4B d   1       1.909   1.761   2.222  0.00  0.00     0.013 C 
ATOM     10  C3' I4B d   1       2.806   1.546  -0.079  0.00  0.00     0.013 C 
ENDBRANCH   7   8
ENDBRANCH   1   7
TORSDOF 2
ENDMDL
