MODEL 1
REMARK minimizedAffinity -6.1488452
REMARK minimizedRMSD -1
REMARK  2 active torsions:
REMARK  status: ('A' for Active; 'I' for Inactive)
REMARK    1  A    between atoms: C2'_3  and  C1'_4 
REMARK    2  A    between atoms: C1'_4  and  C1_5 
ROOT
ATOM      1  C1  I4B d   1       0.202  -0.071   0.058  0.00  0.00    -0.075 A 
ATOM      2  C2  I4B d   1      -0.783  -0.472   0.926  0.00  0.00     0.003 A 
ATOM      3  C3  I4B d   1      -2.122  -0.587   0.481  0.00  0.00     0.002 A 
ATOM      4  C4  I4B d   1      -2.438  -0.244  -0.818  0.00  0.00    -0.004 A 
ATOM      5  C5  I4B d   1      -1.435   0.140  -1.703  0.00  0.00     0.002 A 
ATOM      6  C6  I4B d   1      -0.105   0.216  -1.266  0.00  0.00     0.003 A 
ENDROOT
BRANCH   1   7
ATOM      7  C1' I4B d   1       1.600   0.071   0.570  0.00  0.00     0.060 C 
BRANCH   7   8
ATOM      8  C2' I4B d   1       1.837   1.536   0.879  0.00  0.00    -0.013 C 
ATOM      9  C4' I4B d   1       2.128   1.744   2.342  0.00  0.00     0.013 C 
ATOM     10  C3' I4B d   1       2.977   2.009   0.027  0.00  0.00     0.013 C 
ENDBRANCH   7   8
ENDBRANCH   1   7
TORSDOF 2
ENDMDL
