MODEL 1
REMARK minimizedAffinity -0.251254201
REMARK minimizedRMSD -1
REMARK  0 active torsions:
REMARK  status: ('A' for Active; 'I' for Inactive)
ROOT
ATOM      1  C2' OXE d   1       2.737  -1.164   1.088  0.00  0.00     0.078 C 
ATOM      2  C1' OXE d   1       1.098  -2.883  -0.408  0.00  0.00     0.078 C 
ATOM      3  C1  OXE d   1       0.445  -1.713   0.283  0.00  0.00    -0.078 A 
ATOM      4  C2  OXE d   1       1.247  -0.904   1.051  0.00  0.00    -0.078 A 
ATOM      5  C3  OXE d   1       0.705   0.221   1.666  0.00  0.00     0.003 A 
ATOM      6  C4  OXE d   1      -0.677   0.449   1.635  0.00  0.00    -0.002 A 
ATOM      7  C5  OXE d   1      -1.518  -0.386   0.892  0.00  0.00    -0.002 A 
ATOM      8  C6  OXE d   1      -0.968  -1.444   0.177  0.00  0.00     0.003 A 
ENDROOT
TORSDOF 0
ENDMDL
