MODEL 1
REMARK minimizedAffinity -4.6923027
REMARK minimizedRMSD -1
REMARK  0 active torsions:
REMARK  status: ('A' for Active; 'I' for Inactive)
ROOT
ATOM      1  C2' OXE d   1       1.488  -3.425  -0.303  0.00  0.00     0.078 C 
ATOM      2  C1' OXE d   1       2.741  -1.084   0.608  0.00  0.00     0.078 C 
ATOM      3  C1  OXE d   1       1.239  -1.169   0.724  0.00  0.00    -0.078 A 
ATOM      4  C2  OXE d   1       0.631  -2.299   0.232  0.00  0.00    -0.078 A 
ATOM      5  C3  OXE d   1      -0.747  -2.452   0.363  0.00  0.00     0.003 A 
ATOM      6  C4  OXE d   1      -1.534  -1.402   0.850  0.00  0.00    -0.002 A 
ATOM      7  C5  OXE d   1      -0.937  -0.226   1.319  0.00  0.00    -0.002 A 
ATOM      8  C6  OXE d   1       0.448  -0.112   1.302  0.00  0.00     0.003 A 
ENDROOT
TORSDOF 0
ENDMDL
