MODEL 1
REMARK minimizedAffinity -1.79492009
REMARK minimizedRMSD -1
REMARK  0 active torsions:
REMARK  status: ('A' for Active; 'I' for Inactive)
ROOT
ATOM      1  C2' OXE d   1       2.048  -1.756   0.073  0.00  0.00     0.078 C 
ATOM      2  C1' OXE d   1       2.113  -0.029   2.285  0.00  0.00     0.078 C 
ATOM      3  C1  OXE d   1       0.817  -0.147   1.522  0.00  0.00    -0.078 A 
ATOM      4  C2  OXE d   1       0.808  -0.958   0.413  0.00  0.00    -0.078 A 
ATOM      5  C3  OXE d   1      -0.376  -1.145  -0.294  0.00  0.00     0.003 A 
ATOM      6  C4  OXE d   1      -1.517  -0.396   0.022  0.00  0.00    -0.002 A 
ATOM      7  C5  OXE d   1      -1.517   0.466   1.123  0.00  0.00    -0.002 A 
ATOM      8  C6  OXE d   1      -0.373   0.570   1.908  0.00  0.00     0.003 A 
ENDROOT
TORSDOF 0
ENDMDL
