MODEL 1
REMARK minimizedAffinity 11.4520111
REMARK minimizedRMSD -1
REMARK  0 active torsions:
REMARK  status: ('A' for Active; 'I' for Inactive)
ROOT
ATOM      1  C2' OXE d   1      -1.114   0.732   3.336  0.00  0.00     0.078 C 
ATOM      2  C1' OXE d   1      -2.317   2.955   2.116  0.00  0.00     0.078 C 
ATOM      3  C1  OXE d   1      -2.802   2.557   3.487  0.00  0.00    -0.078 A 
ATOM      4  C2  OXE d   1      -2.240   1.440   4.057  0.00  0.00    -0.078 A 
ATOM      5  C3  OXE d   1      -2.613   1.061   5.344  0.00  0.00     0.003 A 
ATOM      6  C4  OXE d   1      -3.663   1.716   6.000  0.00  0.00    -0.002 A 
ATOM      7  C5  OXE d   1      -4.276   2.831   5.420  0.00  0.00    -0.002 A 
ATOM      8  C6  OXE d   1      -3.829   3.290   4.186  0.00  0.00     0.003 A 
ENDROOT
TORSDOF 0
ENDMDL
