MODEL 1
REMARK minimizedAffinity 2.31965852
REMARK minimizedRMSD -1
REMARK  0 active torsions:
REMARK  status: ('A' for Active; 'I' for Inactive)
ROOT
ATOM      1  C2' OXE d   1       1.922  -3.414  -0.634  0.00  0.00     0.078 C 
ATOM      2  C1' OXE d   1       2.705  -0.808   0.053  0.00  0.00     0.078 C 
ATOM      3  C1  OXE d   1       1.289  -1.222   0.366  0.00  0.00    -0.078 A 
ATOM      4  C2  OXE d   1       0.901  -2.484  -0.016  0.00  0.00    -0.078 A 
ATOM      5  C3  OXE d   1      -0.378  -2.936   0.297  0.00  0.00     0.003 A 
ATOM      6  C4  OXE d   1      -1.320  -2.065   0.860  0.00  0.00    -0.002 A 
ATOM      7  C5  OXE d   1      -0.956  -0.763   1.220  0.00  0.00    -0.002 A 
ATOM      8  C6  OXE d   1       0.353  -0.341   1.019  0.00  0.00     0.003 A 
ENDROOT
TORSDOF 0
ENDMDL
