MODEL 1
REMARK minimizedAffinity 2.65932369
REMARK minimizedRMSD -1
REMARK  0 active torsions:
REMARK  status: ('A' for Active; 'I' for Inactive)
ROOT
ATOM      1  C2' OXE d   1       0.739  -3.449  -0.558  0.00  0.00     0.078 C 
ATOM      2  C1' OXE d   1       2.265  -1.290   0.385  0.00  0.00     0.078 C 
ATOM      3  C1  OXE d   1       0.788  -1.293   0.689  0.00  0.00    -0.078 A 
ATOM      4  C2  OXE d   1       0.040  -2.330   0.184  0.00  0.00    -0.078 A 
ATOM      5  C3  OXE d   1      -1.317  -2.410   0.482  0.00  0.00     0.003 A 
ATOM      6  C4  OXE d   1      -1.957  -1.366   1.160  0.00  0.00    -0.002 A 
ATOM      7  C5  OXE d   1      -1.222  -0.281   1.649  0.00  0.00    -0.002 A 
ATOM      8  C6  OXE d   1       0.156  -0.251   1.460  0.00  0.00     0.003 A 
ENDROOT
TORSDOF 0
ENDMDL
