MODEL 1
REMARK minimizedAffinity 5.86898756
REMARK minimizedRMSD -1
REMARK  0 active torsions:
REMARK  status: ('A' for Active; 'I' for Inactive)
ROOT
ATOM      1  C2' OXE d   1       0.034  -0.331   2.290  0.00  0.00     0.078 C 
ATOM      2  C1' OXE d   1       2.677  -0.751   1.442  0.00  0.00     0.078 C 
ATOM      3  C1  OXE d   1       1.600  -1.628   0.852  0.00  0.00    -0.078 A 
ATOM      4  C2  OXE d   1       0.317  -1.446   1.307  0.00  0.00    -0.078 A 
ATOM      5  C3  OXE d   1      -0.722  -2.190   0.755  0.00  0.00     0.003 A 
ATOM      6  C4  OXE d   1      -0.451  -3.227  -0.146  0.00  0.00    -0.002 A 
ATOM      7  C5  OXE d   1       0.855  -3.455  -0.593  0.00  0.00    -0.002 A 
ATOM      8  C6  OXE d   1       1.884  -2.638  -0.137  0.00  0.00     0.003 A 
ENDROOT
TORSDOF 0
ENDMDL
