MODEL 1
REMARK minimizedAffinity 1.62567127
REMARK minimizedRMSD -1
REMARK  0 active torsions:
REMARK  status: ('A' for Active; 'I' for Inactive)
ROOT
ATOM      1  C2' OXE d   1       0.961  -3.437  -0.763  0.00  0.00     0.078 C 
ATOM      2  C1' OXE d   1      -1.540  -2.597   0.196  0.00  0.00     0.078 C 
ATOM      3  C1  OXE d   1      -0.351  -1.708   0.460  0.00  0.00    -0.078 A 
ATOM      4  C2  OXE d   1       0.877  -2.149   0.028  0.00  0.00    -0.078 A 
ATOM      5  C3  OXE d   1       1.998  -1.342   0.198  0.00  0.00     0.003 A 
ATOM      6  C4  OXE d   1       1.914  -0.158   0.940  0.00  0.00    -0.002 A 
ATOM      7  C5  OXE d   1       0.680   0.290   1.423  0.00  0.00    -0.002 A 
ATOM      8  C6  OXE d   1      -0.467  -0.450   1.156  0.00  0.00     0.003 A 
ENDROOT
TORSDOF 0
ENDMDL
