MODEL 1
REMARK minimizedAffinity -1.2840153
REMARK minimizedRMSD -1
REMARK  0 active torsions:
REMARK  status: ('A' for Active; 'I' for Inactive)
ROOT
ATOM      1  C2' OXE d   1       1.746  -3.884  -0.353  0.00  0.00     0.078 C 
ATOM      2  C1' OXE d   1       2.941  -1.354  -0.577  0.00  0.00     0.078 C 
ATOM      3  C1  OXE d   1       1.589  -1.437   0.087  0.00  0.00    -0.078 A 
ATOM      4  C2  OXE d   1       0.991  -2.672   0.150  0.00  0.00    -0.078 A 
ATOM      5  C3  OXE d   1      -0.231  -2.814   0.801  0.00  0.00     0.003 A 
ATOM      6  C4  OXE d   1      -0.927  -1.687   1.255  0.00  0.00    -0.002 A 
ATOM      7  C5  OXE d   1      -0.354  -0.414   1.164  0.00  0.00    -0.002 A 
ATOM      8  C6  OXE d   1       0.919  -0.278   0.623  0.00  0.00     0.003 A 
ENDROOT
TORSDOF 0
ENDMDL
