MODEL 1
REMARK minimizedAffinity 2.5714469
REMARK minimizedRMSD -1
REMARK  0 active torsions:
REMARK  status: ('A' for Active; 'I' for Inactive)
ROOT
ATOM      1  C2' OXE d   1       3.564  -1.249   0.263  0.00  0.00     0.078 C 
ATOM      2  C1' OXE d   1       2.446   0.050   2.486  0.00  0.00     0.078 C 
ATOM      3  C1  OXE d   1       1.506  -0.634   1.525  0.00  0.00    -0.078 A 
ATOM      4  C2  OXE d   1       2.059  -1.227   0.415  0.00  0.00    -0.078 A 
ATOM      5  C3  OXE d   1       1.242  -1.919  -0.475  0.00  0.00     0.003 A 
ATOM      6  C4  OXE d   1      -0.150  -1.885  -0.333  0.00  0.00    -0.002 A 
ATOM      7  C5  OXE d   1      -0.736  -1.252   0.769  0.00  0.00    -0.002 A 
ATOM      8  C6  OXE d   1       0.079  -0.660   1.727  0.00  0.00     0.003 A 
ENDROOT
TORSDOF 0
ENDMDL
