MODEL 1
REMARK minimizedAffinity 1.36856389
REMARK minimizedRMSD -1
REMARK  0 active torsions:
REMARK  status: ('A' for Active; 'I' for Inactive)
ROOT
ATOM      1  C2' OXE d   1      -0.961  -1.346   0.659  0.00  0.00     0.078 C 
ATOM      2  C1' OXE d   1       1.324   0.058   1.489  0.00  0.00     0.078 C 
ATOM      3  C1  OXE d   1       1.524  -1.166   0.630  0.00  0.00    -0.078 A 
ATOM      4  C2  OXE d   1       0.403  -1.873   0.268  0.00  0.00    -0.078 A 
ATOM      5  C3  OXE d   1       0.526  -2.978  -0.570  0.00  0.00     0.003 A 
ATOM      6  C4  OXE d   1       1.792  -3.465  -0.919  0.00  0.00    -0.002 A 
ATOM      7  C5  OXE d   1       2.948  -2.782  -0.527  0.00  0.00    -0.002 A 
ATOM      8  C6  OXE d   1       2.830  -1.610   0.211  0.00  0.00     0.003 A 
ENDROOT
TORSDOF 0
ENDMDL
