MODEL 1
REMARK minimizedAffinity 4.8090663
REMARK minimizedRMSD -1
REMARK  0 active torsions:
REMARK  status: ('A' for Active; 'I' for Inactive)
ROOT
ATOM      1  C2' OXE d   1       0.561  -2.175  -1.595  0.00  0.00     0.078 C 
ATOM      2  C1' OXE d   1       2.513  -0.549  -0.402  0.00  0.00     0.078 C 
ATOM      3  C1  OXE d   1       1.168  -0.645   0.275  0.00  0.00    -0.078 A 
ATOM      4  C2  OXE d   1       0.204  -1.407  -0.341  0.00  0.00    -0.078 A 
ATOM      5  C3  OXE d   1      -1.036  -1.574   0.269  0.00  0.00     0.003 A 
ATOM      6  C4  OXE d   1      -1.361  -0.851   1.424  0.00  0.00    -0.002 A 
ATOM      7  C5  OXE d   1      -0.407  -0.039   2.046  0.00  0.00    -0.002 A 
ATOM      8  C6  OXE d   1       0.874   0.041   1.509  0.00  0.00     0.003 A 
ENDROOT
TORSDOF 0
ENDMDL
