MODEL 1
REMARK minimizedAffinity 1.73037755
REMARK minimizedRMSD -1
REMARK  0 active torsions:
REMARK  status: ('A' for Active; 'I' for Inactive)
ROOT
ATOM      1  C2' OXE d   1       0.162  -1.624   0.956  0.00  0.00     0.078 C 
ATOM      2  C1' OXE d   1       0.301  -0.944   3.676  0.00  0.00     0.078 C 
ATOM      3  C1  OXE d   1      -0.795  -0.319   2.850  0.00  0.00    -0.078 A 
ATOM      4  C2  OXE d   1      -0.827  -0.621   1.510  0.00  0.00    -0.078 A 
ATOM      5  C3  OXE d   1      -1.850  -0.115   0.714  0.00  0.00     0.003 A 
ATOM      6  C4  OXE d   1      -2.756   0.819   1.231  0.00  0.00    -0.002 A 
ATOM      7  C5  OXE d   1      -2.716   1.171   2.585  0.00  0.00    -0.002 A 
ATOM      8  C6  OXE d   1      -1.771   0.579   3.415  0.00  0.00     0.003 A 
ENDROOT
TORSDOF 0
ENDMDL
