MODEL 1
REMARK minimizedAffinity -5.33630657
REMARK minimizedRMSD -1
REMARK  0 active torsions:
REMARK  status: ('A' for Active; 'I' for Inactive)
ROOT
ATOM      1  C2' OXE d   1      -3.458   0.986   0.161  0.00  0.00     0.078 C 
ATOM      2  C1' OXE d   1      -1.801   1.486   2.371  0.00  0.00     0.078 C 
ATOM      3  C1  OXE d   1      -1.613   0.185   1.632  0.00  0.00    -0.078 A 
ATOM      4  C2  OXE d   1      -2.460  -0.072   0.580  0.00  0.00    -0.078 A 
ATOM      5  C3  OXE d   1      -2.295  -1.233  -0.170  0.00  0.00     0.003 A 
ATOM      6  C4  OXE d   1      -1.376  -2.211   0.231  0.00  0.00    -0.002 A 
ATOM      7  C5  OXE d   1      -0.531  -1.987   1.323  0.00  0.00    -0.002 A 
ATOM      8  C6  OXE d   1      -0.608  -0.778   2.007  0.00  0.00     0.003 A 
ENDROOT
TORSDOF 0
ENDMDL
