MODEL 1
REMARK minimizedAffinity 10.8502111
REMARK minimizedRMSD -1
REMARK  0 active torsions:
REMARK  status: ('A' for Active; 'I' for Inactive)
ROOT
ATOM      1  C2' OXE d   1       4.558   3.230  -2.118  0.00  0.00     0.078 C 
ATOM      2  C1' OXE d   1       5.126   0.555  -2.753  0.00  0.00     0.078 C 
ATOM      3  C1  OXE d   1       3.762   1.090  -3.113  0.00  0.00    -0.078 A 
ATOM      4  C2  OXE d   1       3.477   2.386  -2.757  0.00  0.00    -0.078 A 
ATOM      5  C3  OXE d   1       2.253   2.945  -3.114  0.00  0.00     0.003 A 
ATOM      6  C4  OXE d   1       1.255   2.155  -3.696  0.00  0.00    -0.002 A 
ATOM      7  C5  OXE d   1       1.511   0.821  -4.031  0.00  0.00    -0.002 A 
ATOM      8  C6  OXE d   1       2.771   0.287  -3.786  0.00  0.00     0.003 A 
ENDROOT
TORSDOF 0
ENDMDL
