MODEL 1
REMARK minimizedAffinity -1.99555659
REMARK minimizedRMSD -1
REMARK  0 active torsions:
REMARK  status: ('A' for Active; 'I' for Inactive)
ROOT
ATOM      1  C2' OXE d   1       1.146  -3.116  -0.371  0.00  0.00     0.078 C 
ATOM      2  C1' OXE d   1       2.278  -0.806   0.752  0.00  0.00     0.078 C 
ATOM      3  C1  OXE d   1       0.778  -0.953   0.808  0.00  0.00    -0.078 A 
ATOM      4  C2  OXE d   1       0.229  -2.065   0.215  0.00  0.00    -0.078 A 
ATOM      5  C3  OXE d   1      -1.145  -2.277   0.287  0.00  0.00     0.003 A 
ATOM      6  C4  OXE d   1      -1.987  -1.294   0.822  0.00  0.00    -0.002 A 
ATOM      7  C5  OXE d   1      -1.451  -0.136   1.396  0.00  0.00    -0.002 A 
ATOM      8  C6  OXE d   1      -0.071   0.030   1.435  0.00  0.00     0.003 A 
ENDROOT
TORSDOF 0
ENDMDL
