MODEL 1
REMARK minimizedAffinity 4.12381172
REMARK minimizedRMSD -1
REMARK  0 active torsions:
REMARK  status: ('A' for Active; 'I' for Inactive)
ROOT
ATOM      1  C   UNL d   1      -1.054   1.841  -0.067  0.00  0.00     0.077 C 
ATOM      2  C1  UNL d   1      -0.568   0.601  -0.756  0.00  0.00    -0.074 A 
ATOM      3  C2  UNL d   1       0.535   0.641  -1.615  0.00  0.00    -0.005 A 
ATOM      4  C3  UNL d   1       0.982  -0.523  -2.241  0.00  0.00     0.006 A 
ATOM      5  C4  UNL d   1       0.332  -1.737  -2.014  0.00  0.00    -0.005 A 
ATOM      6  C5  UNL d   1      -0.772  -1.796  -1.157  0.00  0.00    -0.074 A 
ATOM      7  C6  UNL d   1      -1.475  -3.095  -0.894  0.00  0.00     0.077 C 
ATOM      8  C7  UNL d   1      -1.210  -0.624  -0.526  0.00  0.00    -0.001 A 
ENDROOT
TORSDOF 0
ENDMDL
