MODEL 1
REMARK minimizedAffinity 6.2806077
REMARK minimizedRMSD -1
REMARK  0 active torsions:
REMARK  status: ('A' for Active; 'I' for Inactive)
ROOT
ATOM      1  C   UNL d   1      -2.918  -2.734  -1.347  0.00  0.00     0.077 C 
ATOM      2  C1  UNL d   1      -1.611  -2.057  -1.056  0.00  0.00    -0.074 A 
ATOM      3  C2  UNL d   1      -0.412  -2.555  -1.576  0.00  0.00    -0.005 A 
ATOM      4  C3  UNL d   1       0.794  -1.909  -1.305  0.00  0.00     0.006 A 
ATOM      5  C4  UNL d   1       0.814  -0.761  -0.512  0.00  0.00    -0.005 A 
ATOM      6  C5  UNL d   1      -0.375  -0.248   0.015  0.00  0.00    -0.074 A 
ATOM      7  C6  UNL d   1      -0.373   0.991   0.861  0.00  0.00     0.077 C 
ATOM      8  C7  UNL d   1      -1.584  -0.898  -0.267  0.00  0.00    -0.001 A 
ENDROOT
TORSDOF 0
ENDMDL
