MODEL 1
REMARK minimizedAffinity 9.60181141
REMARK minimizedRMSD -1
REMARK  0 active torsions:
REMARK  status: ('A' for Active; 'I' for Inactive)
ROOT
ATOM      1  C   UNL d   1       6.000  -4.027  -5.975  0.00  0.00     0.077 C 
ATOM      2  C1  UNL d   1       5.264  -3.565  -4.752  0.00  0.00    -0.074 A 
ATOM      3  C2  UNL d   1       3.909  -3.224  -4.815  0.00  0.00    -0.005 A 
ATOM      4  C3  UNL d   1       3.236  -2.805  -3.668  0.00  0.00     0.006 A 
ATOM      5  C4  UNL d   1       3.909  -2.723  -2.448  0.00  0.00    -0.005 A 
ATOM      6  C5  UNL d   1       5.263  -3.062  -2.366  0.00  0.00    -0.074 A 
ATOM      7  C6  UNL d   1       5.999  -2.990  -1.061  0.00  0.00     0.077 C 
ATOM      8  C7  UNL d   1       5.931  -3.489  -3.522  0.00  0.00    -0.001 A 
ENDROOT
TORSDOF 0
ENDMDL
