MODEL 1
REMARK minimizedAffinity 1.37519944
REMARK minimizedRMSD -1
REMARK  0 active torsions:
REMARK  status: ('A' for Active; 'I' for Inactive)
ROOT
ATOM      1  C   UNL d   1      -3.409  -3.117   6.000  0.00  0.00     0.077 C 
ATOM      2  C1  UNL d   1      -3.702  -1.787   5.371  0.00  0.00    -0.074 A 
ATOM      3  C2  UNL d   1      -4.550  -0.867   5.997  0.00  0.00    -0.005 A 
ATOM      4  C3  UNL d   1      -4.806   0.369   5.404  0.00  0.00     0.006 A 
ATOM      5  C4  UNL d   1      -4.217   0.698   4.182  0.00  0.00    -0.005 A 
ATOM      6  C5  UNL d   1      -3.366  -0.209   3.543  0.00  0.00    -0.074 A 
ATOM      7  C6  UNL d   1      -2.717   0.133   2.234  0.00  0.00     0.077 C 
ATOM      8  C7  UNL d   1      -3.108  -1.446   4.148  0.00  0.00    -0.001 A 
ENDROOT
TORSDOF 0
ENDMDL
