MODEL 1
REMARK minimizedAffinity 9.68759441
REMARK minimizedRMSD -1
REMARK  0 active torsions:
REMARK  status: ('A' for Active; 'I' for Inactive)
ROOT
ATOM      1  C   UNL d   1       3.688   3.743  -0.004  0.00  0.00     0.077 C 
ATOM      2  C1  UNL d   1       2.358   3.420   0.610  0.00  0.00    -0.074 A 
ATOM      3  C2  UNL d   1       1.741   2.186   0.380  0.00  0.00    -0.005 A 
ATOM      4  C3  UNL d   1       0.508   1.896   0.965  0.00  0.00     0.006 A 
ATOM      5  C4  UNL d   1      -0.118   2.836   1.784  0.00  0.00    -0.005 A 
ATOM      6  C5  UNL d   1       0.484   4.075   2.027  0.00  0.00    -0.074 A 
ATOM      7  C6  UNL d   1      -0.172   5.092   2.913  0.00  0.00     0.077 C 
ATOM      8  C7  UNL d   1       1.726   4.355   1.441  0.00  0.00    -0.001 A 
ENDROOT
TORSDOF 0
ENDMDL
