MODEL 1
REMARK minimizedAffinity 4.65900946
REMARK minimizedRMSD -1
REMARK  0 active torsions:
REMARK  status: ('A' for Active; 'I' for Inactive)
ROOT
ATOM      1  C   UNL d   1      -1.411  -3.707  -4.688  0.00  0.00     0.077 C 
ATOM      2  C1  UNL d   1      -1.801  -3.266  -3.309  0.00  0.00    -0.074 A 
ATOM      3  C2  UNL d   1      -2.983  -3.721  -2.716  0.00  0.00    -0.005 A 
ATOM      4  C3  UNL d   1      -3.328  -3.309  -1.428  0.00  0.00     0.006 A 
ATOM      5  C4  UNL d   1      -2.495  -2.441  -0.722  0.00  0.00    -0.005 A 
ATOM      6  C5  UNL d   1      -1.308  -1.977  -1.298  0.00  0.00    -0.074 A 
ATOM      7  C6  UNL d   1      -0.397  -1.051  -0.548  0.00  0.00     0.077 C 
ATOM      8  C7  UNL d   1      -0.965  -2.400  -2.589  0.00  0.00    -0.001 A 
ENDROOT
TORSDOF 0
ENDMDL
