MODEL 1
REMARK minimizedAffinity 6.14476156
REMARK minimizedRMSD -1
REMARK  0 active torsions:
REMARK  status: ('A' for Active; 'I' for Inactive)
ROOT
ATOM      1  C   UNL d   1       2.249  -2.452  -1.667  0.00  0.00     0.077 C 
ATOM      2  C1  UNL d   1       0.881  -1.886  -1.430  0.00  0.00    -0.074 A 
ATOM      3  C2  UNL d   1       0.714  -0.650  -0.795  0.00  0.00    -0.005 A 
ATOM      4  C3  UNL d   1      -0.565  -0.132  -0.590  0.00  0.00     0.006 A 
ATOM      5  C4  UNL d   1      -1.688  -0.843  -1.016  0.00  0.00    -0.005 A 
ATOM      6  C5  UNL d   1      -1.540  -2.079  -1.653  0.00  0.00    -0.074 A 
ATOM      7  C6  UNL d   1      -2.736  -2.851  -2.126  0.00  0.00     0.077 C 
ATOM      8  C7  UNL d   1      -0.252  -2.590  -1.862  0.00  0.00    -0.001 A 
ENDROOT
TORSDOF 0
ENDMDL
