MODEL 1
REMARK minimizedAffinity 0.392577559
REMARK minimizedRMSD -1
REMARK  0 active torsions:
REMARK  status: ('A' for Active; 'I' for Inactive)
ROOT
ATOM      1  C   UNL d   1       5.962  -3.732  -5.556  0.00  0.00     0.077 C 
ATOM      2  C1  UNL d   1       5.314  -3.368  -4.254  0.00  0.00    -0.074 A 
ATOM      3  C2  UNL d   1       4.096  -2.680  -4.224  0.00  0.00    -0.005 A 
ATOM      4  C3  UNL d   1       3.500  -2.357  -3.005  0.00  0.00     0.006 A 
ATOM      5  C4  UNL d   1       4.115  -2.718  -1.805  0.00  0.00    -0.005 A 
ATOM      6  C5  UNL d   1       5.331  -3.407  -1.815  0.00  0.00    -0.074 A 
ATOM      7  C6  UNL d   1       6.000  -3.812  -0.535  0.00  0.00     0.077 C 
ATOM      8  C7  UNL d   1       5.920  -3.734  -3.044  0.00  0.00    -0.001 A 
ENDROOT
TORSDOF 0
ENDMDL
