MODEL 1
REMARK minimizedAffinity 6.18142986
REMARK minimizedRMSD -1
REMARK  0 active torsions:
REMARK  status: ('A' for Active; 'I' for Inactive)
ROOT
ATOM      1  C   UNL d   1       0.695   2.093   1.102  0.00  0.00     0.077 C 
ATOM      2  C1  UNL d   1       0.473   1.038   0.059  0.00  0.00    -0.074 A 
ATOM      3  C2  UNL d   1       1.158   1.076  -1.159  0.00  0.00    -0.005 A 
ATOM      4  C3  UNL d   1       0.948   0.082  -2.115  0.00  0.00     0.006 A 
ATOM      5  C4  UNL d   1       0.052  -0.957  -1.864  0.00  0.00    -0.005 A 
ATOM      6  C5  UNL d   1      -0.642  -1.012  -0.651  0.00  0.00    -0.074 A 
ATOM      7  C6  UNL d   1      -1.601  -2.128  -0.360  0.00  0.00     0.077 C 
ATOM      8  C7  UNL d   1      -0.420  -0.014   0.308  0.00  0.00    -0.001 A 
ENDROOT
TORSDOF 0
ENDMDL
