MODEL 1
REMARK minimizedAffinity 8.14839268
REMARK minimizedRMSD -1
REMARK  0 active torsions:
REMARK  status: ('A' for Active; 'I' for Inactive)
ROOT
ATOM      1  C   UNL d   1      -2.411  -2.691  -1.398  0.00  0.00     0.077 C 
ATOM      2  C1  UNL d   1      -1.270  -1.789  -1.029  0.00  0.00    -0.074 A 
ATOM      3  C2  UNL d   1      -1.502  -0.488  -0.571  0.00  0.00    -0.005 A 
ATOM      4  C3  UNL d   1      -0.432   0.336  -0.223  0.00  0.00     0.006 A 
ATOM      5  C4  UNL d   1       0.879  -0.131  -0.330  0.00  0.00    -0.005 A 
ATOM      6  C5  UNL d   1       1.130  -1.429  -0.786  0.00  0.00    -0.074 A 
ATOM      7  C6  UNL d   1       2.532  -1.951  -0.898  0.00  0.00     0.077 C 
ATOM      8  C7  UNL d   1       0.049  -2.254  -1.127  0.00  0.00    -0.001 A 
ENDROOT
TORSDOF 0
ENDMDL
