MODEL 1
REMARK minimizedAffinity 13.7513304
REMARK minimizedRMSD -1
REMARK  0 active torsions:
REMARK  status: ('A' for Active; 'I' for Inactive)
ROOT
ATOM      1  C   UNL d   1       6.000  -1.553   1.263  0.00  0.00     0.077 C 
ATOM      2  C1  UNL d   1       5.992  -2.342  -0.012  0.00  0.00    -0.074 A 
ATOM      3  C2  UNL d   1       5.998  -1.700  -1.255  0.00  0.00    -0.005 A 
ATOM      4  C3  UNL d   1       6.000  -2.447  -2.432  0.00  0.00     0.006 A 
ATOM      5  C4  UNL d   1       5.997  -3.841  -2.380  0.00  0.00    -0.005 A 
ATOM      6  C5  UNL d   1       5.993  -4.501  -1.147  0.00  0.00    -0.074 A 
ATOM      7  C6  UNL d   1       6.000  -5.999  -1.073  0.00  0.00     0.077 C 
ATOM      8  C7  UNL d   1       5.997  -3.743   0.032  0.00  0.00    -0.001 A 
ENDROOT
TORSDOF 0
ENDMDL
