MODEL 1
REMARK minimizedAffinity 1.43890846
REMARK minimizedRMSD -1
REMARK  0 active torsions:
REMARK  status: ('A' for Active; 'I' for Inactive)
ROOT
ATOM      1  C   UNL d   1      -2.420  -2.988  -1.534  0.00  0.00     0.077 C 
ATOM      2  C1  UNL d   1      -1.800  -1.946  -0.650  0.00  0.00    -0.074 A 
ATOM      3  C2  UNL d   1      -0.522  -1.445  -0.918  0.00  0.00    -0.005 A 
ATOM      4  C3  UNL d   1       0.038  -0.470  -0.093  0.00  0.00     0.006 A 
ATOM      5  C4  UNL d   1      -0.672   0.013   1.007  0.00  0.00    -0.005 A 
ATOM      6  C5  UNL d   1      -1.951  -0.477   1.290  0.00  0.00    -0.074 A 
ATOM      7  C6  UNL d   1      -2.732   0.038   2.463  0.00  0.00     0.077 C 
ATOM      8  C7  UNL d   1      -2.510  -1.451   0.452  0.00  0.00    -0.001 A 
ENDROOT
TORSDOF 0
ENDMDL
