MODEL 1
REMARK minimizedAffinity 8.91798306
REMARK minimizedRMSD -1
REMARK  0 active torsions:
REMARK  status: ('A' for Active; 'I' for Inactive)
ROOT
ATOM      1  C   UNL d   1      -5.628   1.870   2.998  0.00  0.00     0.077 C 
ATOM      2  C1  UNL d   1      -4.435   0.972   2.857  0.00  0.00    -0.074 A 
ATOM      3  C2  UNL d   1      -4.073   0.091   3.881  0.00  0.00    -0.005 A 
ATOM      4  C3  UNL d   1      -2.967  -0.745   3.732  0.00  0.00     0.006 A 
ATOM      5  C4  UNL d   1      -2.212  -0.709   2.559  0.00  0.00    -0.005 A 
ATOM      6  C5  UNL d   1      -2.559   0.165   1.524  0.00  0.00    -0.074 A 
ATOM      7  C6  UNL d   1      -1.764   0.209   0.253  0.00  0.00     0.077 C 
ATOM      8  C7  UNL d   1      -3.676   0.997   1.678  0.00  0.00    -0.001 A 
ENDROOT
TORSDOF 0
ENDMDL
