MODEL 1
REMARK minimizedAffinity 5.16333389
REMARK minimizedRMSD -1
REMARK  0 active torsions:
REMARK  status: ('A' for Active; 'I' for Inactive)
ROOT
ATOM      1  C   UNL d   1      -0.753  -0.941  -0.450  0.00  0.00     0.077 C 
ATOM      2  C1  UNL d   1      -1.636  -1.877  -1.221  0.00  0.00    -0.074 A 
ATOM      3  C2  UNL d   1      -2.852  -2.320  -0.689  0.00  0.00    -0.005 A 
ATOM      4  C3  UNL d   1      -3.667  -3.183  -1.421  0.00  0.00     0.006 A 
ATOM      5  C4  UNL d   1      -3.276  -3.612  -2.690  0.00  0.00    -0.005 A 
ATOM      6  C5  UNL d   1      -2.064  -3.179  -3.238  0.00  0.00    -0.074 A 
ATOM      7  C6  UNL d   1      -1.633  -3.623  -4.604  0.00  0.00     0.077 C 
ATOM      8  C7  UNL d   1      -1.253  -2.307  -2.499  0.00  0.00    -0.001 A 
ENDROOT
TORSDOF 0
ENDMDL
