MODEL 1
REMARK minimizedAffinity 9.33393574
REMARK minimizedRMSD -1
REMARK  0 active torsions:
REMARK  status: ('A' for Active; 'I' for Inactive)
ROOT
ATOM      1  C   UNL d   1      -3.272  -3.708  -1.591  0.00  0.00     0.077 C 
ATOM      2  C1  UNL d   1      -2.150  -2.718  -1.484  0.00  0.00    -0.074 A 
ATOM      3  C2  UNL d   1      -1.248  -2.538  -2.537  0.00  0.00    -0.005 A 
ATOM      4  C3  UNL d   1      -0.215  -1.607  -2.427  0.00  0.00     0.006 A 
ATOM      5  C4  UNL d   1      -0.074  -0.848  -1.264  0.00  0.00    -0.005 A 
ATOM      6  C5  UNL d   1      -0.968  -1.014  -0.201  0.00  0.00    -0.074 A 
ATOM      7  C6  UNL d   1      -0.837  -0.199   1.051  0.00  0.00     0.077 C 
ATOM      8  C7  UNL d   1      -2.007  -1.946  -0.322  0.00  0.00    -0.001 A 
ENDROOT
TORSDOF 0
ENDMDL
