MODEL 1
REMARK minimizedAffinity 2.4552412
REMARK minimizedRMSD -1
REMARK  0 active torsions:
REMARK  status: ('A' for Active; 'I' for Inactive)
ROOT
ATOM      1  C   UNL d   1       1.553  -0.492  -2.178  0.00  0.00     0.077 C 
ATOM      2  C1  UNL d   1       0.457  -0.830  -1.212  0.00  0.00    -0.074 A 
ATOM      3  C2  UNL d   1       0.413  -0.248   0.059  0.00  0.00    -0.005 A 
ATOM      4  C3  UNL d   1      -0.618  -0.565   0.942  0.00  0.00     0.006 A 
ATOM      5  C4  UNL d   1      -1.615  -1.466   0.565  0.00  0.00    -0.005 A 
ATOM      6  C5  UNL d   1      -1.588  -2.057  -0.702  0.00  0.00    -0.074 A 
ATOM      7  C6  UNL d   1      -2.657  -3.019  -1.127  0.00  0.00     0.077 C 
ATOM      8  C7  UNL d   1      -0.553  -1.728  -1.587  0.00  0.00    -0.001 A 
ENDROOT
TORSDOF 0
ENDMDL
