MODEL 1
REMARK minimizedAffinity 10.0102816
REMARK minimizedRMSD -1
REMARK  0 active torsions:
REMARK  status: ('A' for Active; 'I' for Inactive)
ROOT
ATOM      1  C   UNL d   1      -2.396   0.072   0.469  0.00  0.00     0.077 C 
ATOM      2  C1  UNL d   1      -3.015   0.112   1.835  0.00  0.00    -0.074 A 
ATOM      3  C2  UNL d   1      -3.943   1.101   2.174  0.00  0.00    -0.005 A 
ATOM      4  C3  UNL d   1      -4.518   1.120   3.445  0.00  0.00     0.006 A 
ATOM      5  C4  UNL d   1      -4.170   0.152   4.388  0.00  0.00    -0.005 A 
ATOM      6  C5  UNL d   1      -3.245  -0.846   4.066  0.00  0.00    -0.074 A 
ATOM      7  C6  UNL d   1      -2.868  -1.900   5.064  0.00  0.00     0.077 C 
ATOM      8  C7  UNL d   1      -2.677  -0.862   2.784  0.00  0.00    -0.001 A 
ENDROOT
TORSDOF 0
ENDMDL
