MODEL 1
REMARK minimizedAffinity 6.04810524
REMARK minimizedRMSD -1
REMARK  0 active torsions:
REMARK  status: ('A' for Active; 'I' for Inactive)
ROOT
ATOM      1  C   UNL d   1      -4.461  -3.593  -1.446  0.00  0.00     0.077 C 
ATOM      2  C1  UNL d   1      -3.210  -2.810  -1.175  0.00  0.00    -0.074 A 
ATOM      3  C2  UNL d   1      -2.170  -2.772  -2.109  0.00  0.00    -0.005 A 
ATOM      4  C3  UNL d   1      -1.017  -2.032  -1.848  0.00  0.00     0.006 A 
ATOM      5  C4  UNL d   1      -0.893  -1.324  -0.652  0.00  0.00    -0.005 A 
ATOM      6  C5  UNL d   1      -1.923  -1.350   0.294  0.00  0.00    -0.074 A 
ATOM      7  C6  UNL d   1      -1.809  -0.586   1.580  0.00  0.00     0.077 C 
ATOM      8  C7  UNL d   1      -3.081  -2.090   0.021  0.00  0.00    -0.001 A 
ENDROOT
TORSDOF 0
ENDMDL
