MODEL 1
REMARK minimizedAffinity 0.40011701
REMARK minimizedRMSD -1
REMARK  0 active torsions:
REMARK  status: ('A' for Active; 'I' for Inactive)
ROOT
ATOM      1  C   UNL d   1      -2.195   0.051   1.865  0.00  0.00     0.077 C 
ATOM      2  C1  UNL d   1      -1.110   0.531   0.948  0.00  0.00    -0.074 A 
ATOM      3  C2  UNL d   1      -0.886  -0.089  -0.286  0.00  0.00    -0.005 A 
ATOM      4  C3  UNL d   1       0.120   0.375  -1.133  0.00  0.00     0.006 A 
ATOM      5  C4  UNL d   1       0.911   1.461  -0.756  0.00  0.00    -0.005 A 
ATOM      6  C5  UNL d   1       0.701   2.094   0.473  0.00  0.00    -0.074 A 
ATOM      7  C6  UNL d   1       1.535   3.269   0.889  0.00  0.00     0.077 C 
ATOM      8  C7  UNL d   1      -0.317   1.627   1.316  0.00  0.00    -0.001 A 
ENDROOT
TORSDOF 0
ENDMDL
