MODEL 1
REMARK minimizedAffinity 5.1739769
REMARK minimizedRMSD -1
REMARK  1 active torsions:
REMARK  status: ('A' for Active; 'I' for Inactive)
REMARK    1  A    between atoms: C1_2  and  C2_3 
ROOT
ATOM      1  C2  UNL d   1       2.337   0.431   1.447  0.00  0.00    -0.076 A 
ATOM      2  C3  UNL d   1       1.819  -0.862   1.253  0.00  0.00     0.004 A 
ATOM      3  C4  UNL d   1       1.724  -1.763   2.312  0.00  0.00    -0.003 A 
ATOM      4  C5  UNL d   1       2.145  -1.386   3.582  0.00  0.00     0.000 A 
ATOM      5  C6  UNL d   1       2.645  -0.102   3.797  0.00  0.00     0.000 A 
ATOM      6  C7  UNL d   1       2.732   0.824   2.743  0.00  0.00    -0.073 A 
ATOM      7  C8  UNL d   1       3.285   2.194   3.030  0.00  0.00     0.078 C 
ENDROOT
BRANCH   1   8
ATOM      8  C1  UNL d   1       2.441   1.356   0.255  0.00  0.00     0.053 C 
ATOM      9  C   UNL d   1       1.254   2.301   0.146  0.00  0.00     0.018 C 
ENDBRANCH   1   8
TORSDOF 1
ENDMDL
