MODEL 1
REMARK minimizedAffinity 4.8673811
REMARK minimizedRMSD -1
REMARK  1 active torsions:
REMARK  status: ('A' for Active; 'I' for Inactive)
REMARK    1  A    between atoms: C1_2  and  C2_3 
ROOT
ATOM      1  C2  UNL d   1       1.631  -0.585   1.679  0.00  0.00    -0.076 A 
ATOM      2  C3  UNL d   1       2.655  -0.679   2.637  0.00  0.00     0.004 A 
ATOM      3  C4  UNL d   1       2.787  -1.813   3.436  0.00  0.00    -0.003 A 
ATOM      4  C5  UNL d   1       1.897  -2.871   3.291  0.00  0.00     0.000 A 
ATOM      5  C6  UNL d   1       0.885  -2.802   2.333  0.00  0.00     0.000 A 
ATOM      6  C7  UNL d   1       0.748  -1.673   1.508  0.00  0.00    -0.073 A 
ATOM      7  C8  UNL d   1      -0.365  -1.649   0.496  0.00  0.00     0.078 C 
ENDROOT
BRANCH   1   8
ATOM      8  C1  UNL d   1       1.520   0.681   0.859  0.00  0.00     0.053 C 
ATOM      9  C   UNL d   1       2.876   1.300   0.558  0.00  0.00     0.018 C 
ENDBRANCH   1   8
TORSDOF 1
ENDMDL
