MODEL 1
REMARK minimizedAffinity 13.224164
REMARK minimizedRMSD -1
REMARK  1 active torsions:
REMARK  status: ('A' for Active; 'I' for Inactive)
REMARK    1  A    between atoms: C1_2  and  C2_3 
ROOT
ATOM      1  C2  UNL d   1      -3.719   2.723  -3.165  0.00  0.00    -0.076 A 
ATOM      2  C3  UNL d   1      -3.295   2.668  -4.503  0.00  0.00     0.004 A 
ATOM      3  C4  UNL d   1      -4.208   2.771  -5.551  0.00  0.00    -0.003 A 
ATOM      4  C5  UNL d   1      -5.562   2.931  -5.276  0.00  0.00     0.000 A 
ATOM      5  C6  UNL d   1      -5.999   3.006  -3.954  0.00  0.00     0.000 A 
ATOM      6  C7  UNL d   1      -5.089   2.920  -2.887  0.00  0.00    -0.073 A 
ATOM      7  C8  UNL d   1      -5.616   3.001  -1.480  0.00  0.00     0.078 C 
ENDROOT
BRANCH   1   8
ATOM      8  C1  UNL d   1      -2.686   2.579  -2.070  0.00  0.00     0.053 C 
ATOM      9  C   UNL d   1      -1.888   3.855  -1.850  0.00  0.00     0.018 C 
ENDBRANCH   1   8
TORSDOF 1
ENDMDL
