MODEL 1
REMARK minimizedAffinity -2.25332642
REMARK minimizedRMSD -1
REMARK  1 active torsions:
REMARK  status: ('A' for Active; 'I' for Inactive)
REMARK    1  A    between atoms: C1_2  and  C2_3 
ROOT
ATOM      1  C2  UNL d   1       2.904   5.525  -2.064  0.00  0.00    -0.076 A 
ATOM      2  C3  UNL d   1       4.179   5.370  -1.492  0.00  0.00     0.004 A 
ATOM      3  C4  UNL d   1       5.331   5.459  -2.271  0.00  0.00    -0.003 A 
ATOM      4  C5  UNL d   1       5.227   5.704  -3.636  0.00  0.00     0.000 A 
ATOM      5  C6  UNL d   1       3.972   5.878  -4.218  0.00  0.00     0.000 A 
ATOM      6  C7  UNL d   1       2.801   5.808  -3.443  0.00  0.00    -0.073 A 
ATOM      7  C8  UNL d   1       1.473   5.997  -4.124  0.00  0.00     0.078 C 
ENDROOT
BRANCH   1   8
ATOM      8  C1  UNL d   1       1.689   5.391  -1.174  0.00  0.00     0.053 C 
ATOM      9  C   UNL d   1       0.975   4.061  -1.359  0.00  0.00     0.018 C 
ENDBRANCH   1   8
TORSDOF 1
ENDMDL
