MODEL 1
REMARK minimizedAffinity 0.679551065
REMARK minimizedRMSD -1
REMARK  1 active torsions:
REMARK  status: ('A' for Active; 'I' for Inactive)
REMARK    1  A    between atoms: C1_2  and  C2_3 
ROOT
ATOM      1  C2  UNL d   1       1.673  -1.922   1.822  0.00  0.00    -0.076 A 
ATOM      2  C3  UNL d   1       1.526  -3.055   2.642  0.00  0.00     0.004 A 
ATOM      3  C4  UNL d   1       2.280  -3.200   3.805  0.00  0.00    -0.003 A 
ATOM      4  C5  UNL d   1       3.192  -2.216   4.168  0.00  0.00     0.000 A 
ATOM      5  C6  UNL d   1       3.338  -1.077   3.375  0.00  0.00     0.000 A 
ATOM      6  C7  UNL d   1       2.574  -0.907   2.208  0.00  0.00    -0.073 A 
ATOM      7  C8  UNL d   1       2.776   0.337   1.388  0.00  0.00     0.078 C 
ENDROOT
BRANCH   1   8
ATOM      8  C1  UNL d   1       0.848  -1.832   0.558  0.00  0.00     0.053 C 
ATOM      9  C   UNL d   1       1.165  -2.948  -0.426  0.00  0.00     0.018 C 
ENDBRANCH   1   8
TORSDOF 1
ENDMDL
