MODEL 1
REMARK minimizedAffinity 5.07605648
REMARK minimizedRMSD -1
REMARK  1 active torsions:
REMARK  status: ('A' for Active; 'I' for Inactive)
REMARK    1  A    between atoms: C1_2  and  C2_3 
ROOT
ATOM      1  C2  UNL d   1       0.057  -2.365  -0.839  0.00  0.00    -0.076 A 
ATOM      2  C3  UNL d   1      -0.974  -2.433  -1.792  0.00  0.00     0.004 A 
ATOM      3  C4  UNL d   1      -2.207  -1.824  -1.561  0.00  0.00    -0.003 A 
ATOM      4  C5  UNL d   1      -2.427  -1.136  -0.373  0.00  0.00     0.000 A 
ATOM      5  C6  UNL d   1      -1.409  -1.042   0.575  0.00  0.00     0.000 A 
ATOM      6  C7  UNL d   1      -0.156  -1.637   0.351  0.00  0.00    -0.073 A 
ATOM      7  C8  UNL d   1       0.904  -1.509   1.411  0.00  0.00     0.078 C 
ENDROOT
BRANCH   1   8
ATOM      8  C1  UNL d   1       1.363  -3.068  -1.134  0.00  0.00     0.053 C 
ATOM      9  C   UNL d   1       1.797  -2.909  -2.583  0.00  0.00     0.018 C 
ENDBRANCH   1   8
TORSDOF 1
ENDMDL
