MODEL 1
REMARK minimizedAffinity 9.86087608
REMARK minimizedRMSD -1
REMARK  1 active torsions:
REMARK  status: ('A' for Active; 'I' for Inactive)
REMARK    1  A    between atoms: C1_2  and  C2_3 
ROOT
ATOM      1  C2  UNL d   1       2.307  -0.577   2.351  0.00  0.00    -0.076 A 
ATOM      2  C3  UNL d   1       2.185   0.312   3.434  0.00  0.00     0.004 A 
ATOM      3  C4  UNL d   1       2.365   1.683   3.260  0.00  0.00    -0.003 A 
ATOM      4  C5  UNL d   1       2.669   2.188   2.000  0.00  0.00     0.000 A 
ATOM      5  C6  UNL d   1       2.776   1.323   0.912  0.00  0.00     0.000 A 
ATOM      6  C7  UNL d   1       2.582  -0.061   1.067  0.00  0.00    -0.073 A 
ATOM      7  C8  UNL d   1       2.716  -0.948  -0.140  0.00  0.00     0.078 C 
ENDROOT
BRANCH   1   8
ATOM      8  C1  UNL d   1       2.128  -2.057   2.606  0.00  0.00     0.053 C 
ATOM      9  C   UNL d   1       3.112  -2.595   3.633  0.00  0.00     0.018 C 
ENDBRANCH   1   8
TORSDOF 1
ENDMDL
