MODEL 1
REMARK minimizedAffinity 5.4729228
REMARK minimizedRMSD -1
REMARK  1 active torsions:
REMARK  status: ('A' for Active; 'I' for Inactive)
REMARK    1  A    between atoms: C1_2  and  C2_3 
ROOT
ATOM      1  C2  UNL d   1      -0.162  -0.818   0.278  0.00  0.00    -0.076 A 
ATOM      2  C3  UNL d   1      -0.926   0.011   1.119  0.00  0.00     0.004 A 
ATOM      3  C4  UNL d   1      -2.176   0.480   0.720  0.00  0.00    -0.003 A 
ATOM      4  C5  UNL d   1      -2.684   0.128  -0.525  0.00  0.00     0.000 A 
ATOM      5  C6  UNL d   1      -1.948  -0.707  -1.365  0.00  0.00     0.000 A 
ATOM      6  C7  UNL d   1      -0.693  -1.202  -0.972  0.00  0.00    -0.073 A 
ATOM      7  C8  UNL d   1       0.061  -2.094  -1.920  0.00  0.00     0.078 C 
ENDROOT
BRANCH   1   8
ATOM      8  C1  UNL d   1       1.199  -1.274   0.752  0.00  0.00     0.053 C 
ATOM      9  C   UNL d   1       1.499  -0.828   2.175  0.00  0.00     0.018 C 
ENDBRANCH   1   8
TORSDOF 1
ENDMDL
