MODEL 1
REMARK minimizedAffinity 3.45966101
REMARK minimizedRMSD -1
REMARK  1 active torsions:
REMARK  status: ('A' for Active; 'I' for Inactive)
REMARK    1  A    between atoms: C1_2  and  C2_3 
ROOT
ATOM      1  C2  UNL d   1       2.237  -1.754  -1.162  0.00  0.00    -0.076 A 
ATOM      2  C3  UNL d   1       3.578  -2.035  -1.474  0.00  0.00     0.004 A 
ATOM      3  C4  UNL d   1       3.909  -2.826  -2.572  0.00  0.00    -0.003 A 
ATOM      4  C5  UNL d   1       2.904  -3.349  -3.378  0.00  0.00     0.000 A 
ATOM      5  C6  UNL d   1       1.568  -3.066  -3.094  0.00  0.00     0.000 A 
ATOM      6  C7  UNL d   1       1.218  -2.257  -2.000  0.00  0.00    -0.073 A 
ATOM      7  C8  UNL d   1      -0.239  -1.989  -1.736  0.00  0.00     0.078 C 
ENDROOT
BRANCH   1   8
ATOM      8  C1  UNL d   1       1.937  -0.912   0.058  0.00  0.00     0.053 C 
ATOM      9  C   UNL d   1       3.088   0.012   0.425  0.00  0.00     0.018 C 
ENDBRANCH   1   8
TORSDOF 1
ENDMDL
