MODEL 1
REMARK minimizedAffinity -3.07427979
REMARK minimizedRMSD -1
REMARK  0 active torsions:
REMARK  status: ('A' for Active; 'I' for Inactive)
ROOT
ATOM      1  C   UNL d   1       1.004  -0.607   2.958  0.00  0.00    -0.002 A 
ATOM      2  C1  UNL d   1      -0.082   0.255   2.902  0.00  0.00     0.010 A 
ATOM      3  C2  UNL d   1      -0.614   0.647   1.672  0.00  0.00     0.041 A 
ATOM      4  C3  UNL d   1      -0.032   0.152   0.488  0.00  0.00    -0.075 A 
ATOM      5  S   UNL d   1      -0.516   0.494  -1.131  0.00  0.00     0.015 SA
ATOM      6  C4  UNL d   1       0.707  -0.497  -1.785  0.00  0.00     0.022 A 
ATOM      7  C5  UNL d   1       1.476  -1.081  -0.807  0.00  0.00     0.026 A 
ATOM      8  C6  UNL d   1       1.062  -0.718   0.520  0.00  0.00    -0.082 A 
ATOM      9  C7  UNL d   1       1.579  -1.096   1.782  0.00  0.00     0.045 A 
ENDROOT
TORSDOF 0
ENDMDL
