MODEL 1
REMARK minimizedAffinity -3.64709163
REMARK minimizedRMSD -1
REMARK  0 active torsions:
REMARK  status: ('A' for Active; 'I' for Inactive)
ROOT
ATOM      1  C   UNL d   1       0.194   0.324   2.529  0.00  0.00    -0.002 A 
ATOM      2  C1  UNL d   1      -0.958   0.786   1.908  0.00  0.00     0.010 A 
ATOM      3  C2  UNL d   1      -1.133   0.632   0.532  0.00  0.00     0.041 A 
ATOM      4  C3  UNL d   1      -0.124  -0.004  -0.217  0.00  0.00    -0.075 A 
ATOM      5  S   UNL d   1      -0.122  -0.305  -1.915  0.00  0.00     0.015 SA
ATOM      6  C4  UNL d   1       1.407  -1.056  -1.855  0.00  0.00     0.022 A 
ATOM      7  C5  UNL d   1       1.918  -1.085  -0.579  0.00  0.00     0.026 A 
ATOM      8  C6  UNL d   1       1.044  -0.479   0.386  0.00  0.00    -0.082 A 
ATOM      9  C7  UNL d   1       1.193  -0.306   1.783  0.00  0.00     0.045 A 
ENDROOT
TORSDOF 0
ENDMDL
