MODEL 1
REMARK minimizedAffinity -1.98441172
REMARK minimizedRMSD -1
REMARK  0 active torsions:
REMARK  status: ('A' for Active; 'I' for Inactive)
ROOT
ATOM      1  C   UNL d   1      -0.067  -0.255   1.990  0.00  0.00    -0.002 A 
ATOM      2  C1  UNL d   1       1.037  -0.893   1.443  0.00  0.00     0.010 A 
ATOM      3  C2  UNL d   1       1.279  -0.841   0.069  0.00  0.00     0.041 A 
ATOM      4  C3  UNL d   1       0.384  -0.130  -0.754  0.00  0.00    -0.075 A 
ATOM      5  S   UNL d   1       0.479   0.070  -2.464  0.00  0.00     0.015 SA
ATOM      6  C4  UNL d   1      -0.943   1.007  -2.509  0.00  0.00     0.022 A 
ATOM      7  C5  UNL d   1      -1.491   1.174  -1.259  0.00  0.00     0.026 A 
ATOM      8  C6  UNL d   1      -0.734   0.522  -0.227  0.00  0.00    -0.082 A 
ATOM      9  C7  UNL d   1      -0.952   0.450   1.170  0.00  0.00     0.045 A 
ENDROOT
TORSDOF 0
ENDMDL
