MODEL 1
REMARK minimizedAffinity -1.28087449
REMARK minimizedRMSD -1
REMARK  0 active torsions:
REMARK  status: ('A' for Active; 'I' for Inactive)
ROOT
ATOM      1  C   UNL d   1       0.218  -0.791  -1.970  0.00  0.00    -0.002 A 
ATOM      2  C1  UNL d   1       1.477  -1.186  -1.537  0.00  0.00     0.010 A 
ATOM      3  C2  UNL d   1       1.818  -1.114  -0.186  0.00  0.00     0.041 A 
ATOM      4  C3  UNL d   1       0.864  -0.636   0.734  0.00  0.00    -0.075 A 
ATOM      5  S   UNL d   1       1.059  -0.461   2.438  0.00  0.00     0.015 SA
ATOM      6  C4  UNL d   1      -0.524   0.140   2.633  0.00  0.00     0.022 A 
ATOM      7  C5  UNL d   1      -1.199   0.213   1.437  0.00  0.00     0.026 A 
ATOM      8  C6  UNL d   1      -0.410  -0.234   0.323  0.00  0.00    -0.082 A 
ATOM      9  C7  UNL d   1      -0.726  -0.318  -1.054  0.00  0.00     0.045 A 
ENDROOT
TORSDOF 0
ENDMDL
