MODEL 1
REMARK minimizedAffinity -4.37837315
REMARK minimizedRMSD -1
REMARK  0 active torsions:
REMARK  status: ('A' for Active; 'I' for Inactive)
ROOT
ATOM      1  C   UNL d   1       2.275  -1.965   1.636  0.00  0.00    -0.002 A 
ATOM      2  C1  UNL d   1       1.321  -1.781   2.627  0.00  0.00     0.010 A 
ATOM      3  C2  UNL d   1       0.111  -1.147   2.338  0.00  0.00     0.041 A 
ATOM      4  C3  UNL d   1      -0.127  -0.698   1.024  0.00  0.00    -0.075 A 
ATOM      5  S   UNL d   1      -1.537   0.104   0.439  0.00  0.00     0.015 SA
ATOM      6  C4  UNL d   1      -0.906   0.220  -1.140  0.00  0.00     0.022 A 
ATOM      7  C5  UNL d   1       0.348  -0.334  -1.236  0.00  0.00     0.026 A 
ATOM      8  C6  UNL d   1       0.818  -0.873   0.009  0.00  0.00    -0.082 A 
ATOM      9  C7  UNL d   1       2.035  -1.519   0.334  0.00  0.00     0.045 A 
ENDROOT
TORSDOF 0
ENDMDL
