MODEL 1
REMARK minimizedAffinity -1.49666834
REMARK minimizedRMSD -1
REMARK  0 active torsions:
REMARK  status: ('A' for Active; 'I' for Inactive)
ROOT
ATOM      1  C   UNL d   1       0.883  -0.646   3.252  0.00  0.00    -0.002 A 
ATOM      2  C1  UNL d   1       2.000  -0.246   2.533  0.00  0.00     0.010 A 
ATOM      3  C2  UNL d   1       1.900   0.052   1.173  0.00  0.00     0.041 A 
ATOM      4  C3  UNL d   1       0.646  -0.058   0.542  0.00  0.00    -0.075 A 
ATOM      5  S   UNL d   1       0.284   0.257  -1.115  0.00  0.00     0.015 SA
ATOM      6  C4  UNL d   1      -1.362  -0.132  -0.906  0.00  0.00     0.022 A 
ATOM      7  C5  UNL d   1      -1.647  -0.495   0.389  0.00  0.00     0.026 A 
ATOM      8  C6  UNL d   1      -0.494  -0.458   1.245  0.00  0.00    -0.082 A 
ATOM      9  C7  UNL d   1      -0.360  -0.754   2.623  0.00  0.00     0.045 A 
ENDROOT
TORSDOF 0
ENDMDL
