MODEL 1
REMARK minimizedAffinity -0.146190464
REMARK minimizedRMSD -1
REMARK  0 active torsions:
REMARK  status: ('A' for Active; 'I' for Inactive)
ROOT
ATOM      1  C   UNL d   1      -0.739  -0.549   2.773  0.00  0.00    -0.002 A 
ATOM      2  C1  UNL d   1       0.580  -0.979   2.736  0.00  0.00     0.010 A 
ATOM      3  C2  UNL d   1       1.272  -1.043   1.525  0.00  0.00     0.041 A 
ATOM      4  C3  UNL d   1       0.611  -0.663   0.341  0.00  0.00    -0.075 A 
ATOM      5  S   UNL d   1       1.260  -0.659  -1.257  0.00  0.00     0.015 SA
ATOM      6  C4  UNL d   1      -0.198  -0.086  -1.928  0.00  0.00     0.022 A 
ATOM      7  C5  UNL d   1      -1.167   0.103  -0.971  0.00  0.00     0.026 A 
ATOM      8  C6  UNL d   1      -0.717  -0.226   0.352  0.00  0.00    -0.082 A 
ATOM      9  C7  UNL d   1      -1.392  -0.173   1.596  0.00  0.00     0.045 A 
ENDROOT
TORSDOF 0
ENDMDL
