MODEL 1
REMARK minimizedAffinity 10.8802786
REMARK minimizedRMSD -1
REMARK  0 active torsions:
REMARK  status: ('A' for Active; 'I' for Inactive)
ROOT
ATOM      1  O1  BZF d   1       3.570  -6.000   1.534  0.00  0.00    -0.204 OA
ATOM      2  C2  BZF d   1       2.831  -5.753   0.393  0.00  0.00     0.174 A 
ATOM      3  C3  BZF d   1       1.649  -5.182   0.702  0.00  0.00    -0.012 A 
ATOM      4  C3A BZF d   1       1.689  -4.979   2.118  0.00  0.00    -0.107 A 
ATOM      5  C4  BZF d   1       0.813  -4.436   3.014  0.00  0.00     0.055 A 
ATOM      6  C5  BZF d   1       1.123  -4.456   4.337  0.00  0.00    -0.016 A 
ATOM      7  C6  BZF d   1       2.296  -5.015   4.799  0.00  0.00     0.022 A 
ATOM      8  C7  BZF d   1       3.199  -5.561   3.948  0.00  0.00     0.029 A 
ATOM      9  C7A BZF d   1       2.903  -5.513   2.608  0.00  0.00     0.058 A 
ENDROOT
TORSDOF 0
ENDMDL
