MODEL 1
REMARK minimizedAffinity -1.68597388
REMARK minimizedRMSD -1
REMARK  0 active torsions:
REMARK  status: ('A' for Active; 'I' for Inactive)
ROOT
ATOM      1  O1  BZF d   1       4.869  -1.450  -4.995  0.00  0.00    -0.204 OA
ATOM      2  C2  BZF d   1       3.873  -1.839  -4.120  0.00  0.00     0.174 A 
ATOM      3  C3  BZF d   1       3.149  -0.775  -3.716  0.00  0.00    -0.012 A 
ATOM      4  C3A BZF d   1       3.670   0.336  -4.453  0.00  0.00    -0.107 A 
ATOM      5  C4  BZF d   1       3.352   1.663  -4.500  0.00  0.00     0.055 A 
ATOM      6  C5  BZF d   1       4.102   2.495  -5.269  0.00  0.00    -0.016 A 
ATOM      7  C6  BZF d   1       5.179   2.036  -5.999  0.00  0.00     0.022 A 
ATOM      8  C7  BZF d   1       5.530   0.727  -5.987  0.00  0.00     0.029 A 
ATOM      9  C7A BZF d   1       4.754  -0.122  -5.237  0.00  0.00     0.058 A 
ENDROOT
TORSDOF 0
ENDMDL
