MODEL 1
REMARK minimizedAffinity -0.377916068
REMARK minimizedRMSD -1
REMARK  0 active torsions:
REMARK  status: ('A' for Active; 'I' for Inactive)
ROOT
ATOM      1  O1  BZF d   1       4.125  -5.957  -2.141  0.00  0.00    -0.204 OA
ATOM      2  C2  BZF d   1       2.951  -5.966  -1.413  0.00  0.00     0.174 A 
ATOM      3  C3  BZF d   1       1.880  -5.928  -2.233  0.00  0.00    -0.012 A 
ATOM      4  C3A BZF d   1       2.418  -5.986  -3.557  0.00  0.00    -0.107 A 
ATOM      5  C4  BZF d   1       1.852  -5.999  -4.800  0.00  0.00     0.055 A 
ATOM      6  C5  BZF d   1       2.660  -5.986  -5.893  0.00  0.00    -0.016 A 
ATOM      7  C6  BZF d   1       4.034  -5.956  -5.780  0.00  0.00     0.022 A 
ATOM      8  C7  BZF d   1       4.641  -5.947  -4.569  0.00  0.00     0.029 A 
ATOM      9  C7A BZF d   1       3.829  -5.993  -3.462  0.00  0.00     0.058 A 
ENDROOT
TORSDOF 0
ENDMDL
