MODEL 1
REMARK minimizedAffinity -0.543262541
REMARK minimizedRMSD -1
REMARK  0 active torsions:
REMARK  status: ('A' for Active; 'I' for Inactive)
ROOT
ATOM      1  O1  BZF d   1       1.840  -5.992  -2.066  0.00  0.00    -0.204 OA
ATOM      2  C2  BZF d   1       2.958  -5.974  -1.254  0.00  0.00     0.174 A 
ATOM      3  C3  BZF d   1       4.086  -6.000  -1.994  0.00  0.00    -0.012 A 
ATOM      4  C3A BZF d   1       3.646  -5.943  -3.354  0.00  0.00    -0.107 A 
ATOM      5  C4  BZF d   1       4.300  -5.922  -4.552  0.00  0.00     0.055 A 
ATOM      6  C5  BZF d   1       3.575  -5.939  -5.701  0.00  0.00    -0.016 A 
ATOM      7  C6  BZF d   1       2.196  -5.982  -5.689  0.00  0.00     0.022 A 
ATOM      8  C7  BZF d   1       1.502  -6.000  -4.525  0.00  0.00     0.029 A 
ATOM      9  C7A BZF d   1       2.232  -5.949  -3.362  0.00  0.00     0.058 A 
ENDROOT
TORSDOF 0
ENDMDL
