MODEL 1
REMARK minimizedAffinity 5.13072968
REMARK minimizedRMSD -1
REMARK  0 active torsions:
REMARK  status: ('A' for Active; 'I' for Inactive)
ROOT
ATOM      1  O1  BZF d   1       2.078  -5.983  -3.202  0.00  0.00    -0.204 OA
ATOM      2  C2  BZF d   1       1.116  -5.998  -4.193  0.00  0.00     0.174 A 
ATOM      3  C3  BZF d   1       1.685  -5.923  -5.414  0.00  0.00    -0.012 A 
ATOM      4  C3A BZF d   1       3.095  -5.950  -5.174  0.00  0.00    -0.107 A 
ATOM      5  C4  BZF d   1       4.188  -5.921  -5.993  0.00  0.00     0.055 A 
ATOM      6  C5  BZF d   1       5.428  -5.887  -5.438  0.00  0.00    -0.016 A 
ATOM      7  C6  BZF d   1       5.612  -5.877  -4.071  0.00  0.00     0.022 A 
ATOM      8  C7  BZF d   1       4.559  -5.911  -3.218  0.00  0.00     0.029 A 
ATOM      9  C7A BZF d   1       3.305  -5.978  -3.776  0.00  0.00     0.058 A 
ENDROOT
TORSDOF 0
ENDMDL
