MODEL 1
REMARK minimizedAffinity 0.386774361
REMARK minimizedRMSD -1
REMARK  0 active torsions:
REMARK  status: ('A' for Active; 'I' for Inactive)
ROOT
ATOM      1  O1  BZF d   1       1.821  -5.977  -4.697  0.00  0.00    -0.204 OA
ATOM      2  C2  BZF d   1       2.315  -5.958  -5.987  0.00  0.00     0.174 A 
ATOM      3  C3  BZF d   1       3.662  -5.887  -5.983  0.00  0.00    -0.012 A 
ATOM      4  C3A BZF d   1       4.038  -5.954  -4.604  0.00  0.00    -0.107 A 
ATOM      5  C4  BZF d   1       5.241  -5.946  -3.958  0.00  0.00     0.055 A 
ATOM      6  C5  BZF d   1       5.260  -5.951  -2.599  0.00  0.00    -0.016 A 
ATOM      7  C6  BZF d   1       4.098  -5.958  -1.856  0.00  0.00     0.022 A 
ATOM      8  C7  BZF d   1       2.881  -5.972  -2.453  0.00  0.00     0.029 A 
ATOM      9  C7A BZF d   1       2.858  -6.000  -3.826  0.00  0.00     0.058 A 
ENDROOT
TORSDOF 0
ENDMDL
