MODEL 1
REMARK minimizedAffinity 10.9068413
REMARK minimizedRMSD -1
REMARK  0 active torsions:
REMARK  status: ('A' for Active; 'I' for Inactive)
ROOT
ATOM      1  O1  BZF d   1      -2.104   3.598   1.671  0.00  0.00    -0.204 OA
ATOM      2  C2  BZF d   1      -1.603   2.791   0.668  0.00  0.00     0.174 A 
ATOM      3  C3  BZF d   1      -2.593   2.372  -0.147  0.00  0.00    -0.012 A 
ATOM      4  C3A BZF d   1      -3.773   3.030   0.325  0.00  0.00    -0.107 A 
ATOM      5  C4  BZF d   1      -5.075   3.029  -0.085  0.00  0.00     0.055 A 
ATOM      6  C5  BZF d   1      -5.995   3.721   0.637  0.00  0.00    -0.016 A 
ATOM      7  C6  BZF d   1      -5.649   4.419   1.775  0.00  0.00     0.022 A 
ATOM      8  C7  BZF d   1      -4.369   4.453   2.218  0.00  0.00     0.029 A 
ATOM      9  C7A BZF d   1      -3.431   3.782   1.472  0.00  0.00     0.058 A 
ENDROOT
TORSDOF 0
ENDMDL
