MODEL 1
REMARK minimizedAffinity 15.1979685
REMARK minimizedRMSD -1
REMARK  0 active torsions:
REMARK  status: ('A' for Active; 'I' for Inactive)
ROOT
ATOM      1  O1  BZF d   1      -2.707   1.493   0.838  0.00  0.00    -0.204 OA
ATOM      2  C2  BZF d   1      -2.002   1.729  -0.326  0.00  0.00     0.174 A 
ATOM      3  C3  BZF d   1      -2.709   2.517  -1.163  0.00  0.00    -0.012 A 
ATOM      4  C3A BZF d   1      -3.893   2.866  -0.440  0.00  0.00    -0.107 A 
ATOM      5  C4  BZF d   1      -4.978   3.640  -0.734  0.00  0.00     0.055 A 
ATOM      6  C5  BZF d   1      -5.998   3.717   0.162  0.00  0.00    -0.016 A 
ATOM      7  C6  BZF d   1      -5.967   3.028   1.357  0.00  0.00     0.022 A 
ATOM      8  C7  BZF d   1      -4.910   2.251   1.695  0.00  0.00     0.029 A 
ATOM      9  C7A BZF d   1      -3.864   2.198   0.807  0.00  0.00     0.058 A 
ENDROOT
TORSDOF 0
ENDMDL
