MODEL 1
REMARK minimizedAffinity 8.91681671
REMARK minimizedRMSD -1
REMARK  0 active torsions:
REMARK  status: ('A' for Active; 'I' for Inactive)
ROOT
ATOM      1  O1  BZF d   1       0.919  -2.430   2.787  0.00  0.00    -0.204 OA
ATOM      2  C2  BZF d   1       1.454  -1.280   2.240  0.00  0.00     0.174 A 
ATOM      3  C3  BZF d   1       2.731  -1.109   2.638  0.00  0.00    -0.012 A 
ATOM      4  C3A BZF d   1       3.042  -2.271   3.413  0.00  0.00    -0.107 A 
ATOM      5  C4  BZF d   1       4.165  -2.691   4.067  0.00  0.00     0.055 A 
ATOM      6  C5  BZF d   1       4.117  -3.839   4.792  0.00  0.00    -0.016 A 
ATOM      7  C6  BZF d   1       2.963  -4.589   4.889  0.00  0.00     0.022 A 
ATOM      8  C7  BZF d   1       1.825  -4.215   4.254  0.00  0.00     0.029 A 
ATOM      9  C7A BZF d   1       1.880  -3.073   3.494  0.00  0.00     0.058 A 
ENDROOT
TORSDOF 0
ENDMDL
