MODEL 1
REMARK minimizedAffinity -0.15047574
REMARK minimizedRMSD -1
REMARK  0 active torsions:
REMARK  status: ('A' for Active; 'I' for Inactive)
ROOT
ATOM      1  O1  BZF d   1       5.101  -1.434  -2.624  0.00  0.00    -0.204 OA
ATOM      2  C2  BZF d   1       4.269  -0.658  -1.841  0.00  0.00     0.174 A 
ATOM      3  C3  BZF d   1       3.918   0.471  -2.488  0.00  0.00    -0.012 A 
ATOM      4  C3A BZF d   1       4.497   0.353  -3.791  0.00  0.00    -0.107 A 
ATOM      5  C4  BZF d   1       4.488   1.152  -4.899  0.00  0.00     0.055 A 
ATOM      6  C5  BZF d   1       5.214   0.782  -5.986  0.00  0.00    -0.016 A 
ATOM      7  C6  BZF d   1       5.963  -0.377  -5.999  0.00  0.00     0.022 A 
ATOM      8  C7  BZF d   1       5.999  -1.204  -4.926  0.00  0.00     0.029 A 
ATOM      9  C7A BZF d   1       5.240  -0.849  -3.838  0.00  0.00     0.058 A 
ENDROOT
TORSDOF 0
ENDMDL
