MODEL 1
REMARK minimizedAffinity 2.12417698
REMARK minimizedRMSD -1
REMARK  0 active torsions:
REMARK  status: ('A' for Active; 'I' for Inactive)
ROOT
ATOM      1  O1  BZF d   1       1.174  -0.968   4.132  0.00  0.00    -0.204 OA
ATOM      2  C2  BZF d   1       1.875  -0.366   3.105  0.00  0.00     0.174 A 
ATOM      3  C3  BZF d   1       2.658  -1.262   2.471  0.00  0.00    -0.012 A 
ATOM      4  C3A BZF d   1       2.363  -2.521   3.085  0.00  0.00    -0.107 A 
ATOM      5  C4  BZF d   1       2.812  -3.794   2.879  0.00  0.00     0.055 A 
ATOM      6  C5  BZF d   1       2.379  -4.788   3.698  0.00  0.00    -0.016 A 
ATOM      7  C6  BZF d   1       1.503  -4.543   4.736  0.00  0.00     0.022 A 
ATOM      8  C7  BZF d   1       1.026  -3.297   4.976  0.00  0.00     0.029 A 
ATOM      9  C7A BZF d   1       1.436  -2.297   4.129  0.00  0.00     0.058 A 
ENDROOT
TORSDOF 0
ENDMDL
