MODEL 1
REMARK minimizedAffinity -1.40474653
REMARK minimizedRMSD -1
REMARK  1 active torsions:
REMARK  status: ('A' for Active; 'I' for Inactive)
REMARK    1  A    between atoms: C1_2  and  C2_3 
ROOT
ATOM      1  C2  UNL d   1      -3.502  -4.893  -5.916  0.00  0.00    -0.077 A 
ATOM      2  C3  UNL d   1      -4.836  -5.326  -5.920  0.00  0.00     0.002 A 
ATOM      3  C4  UNL d   1      -5.879  -4.399  -5.959  0.00  0.00     0.002 A 
ATOM      4  C5  UNL d   1      -5.600  -3.035  -6.000  0.00  0.00    -0.004 A 
ATOM      5  C6  UNL d   1      -4.277  -2.594  -5.995  0.00  0.00     0.002 A 
ATOM      6  C7  UNL d   1      -3.233  -3.519  -5.954  0.00  0.00     0.002 A 
ENDROOT
BRANCH   1   7
ATOM      7  C1  UNL d   1      -2.375  -5.893  -5.923  0.00  0.00     0.055 C 
ATOM      8  C   UNL d   1      -1.722  -6.000  -4.553  0.00  0.00     0.019 C 
ENDBRANCH   1   7
TORSDOF 1
ENDMDL
