MODEL 1
REMARK minimizedAffinity -3.58505559
REMARK minimizedRMSD -1
REMARK  1 active torsions:
REMARK  status: ('A' for Active; 'I' for Inactive)
REMARK    1  A    between atoms: C1_2  and  C2_3 
ROOT
ATOM      1  C2  UNL d   1      -4.106  -0.482  -5.844  0.00  0.00    -0.077 A 
ATOM      2  C3  UNL d   1      -5.268   0.300  -5.900  0.00  0.00     0.002 A 
ATOM      3  C4  UNL d   1      -5.189   1.691  -5.802  0.00  0.00     0.002 A 
ATOM      4  C5  UNL d   1      -3.950   2.310  -5.652  0.00  0.00    -0.004 A 
ATOM      5  C6  UNL d   1      -2.789   1.541  -5.593  0.00  0.00     0.002 A 
ATOM      6  C7  UNL d   1      -2.866   0.151  -5.690  0.00  0.00     0.002 A 
ENDROOT
BRANCH   1   7
ATOM      7  C1  UNL d   1      -4.186  -1.979  -5.999  0.00  0.00     0.055 C 
ATOM      8  C   UNL d   1      -5.630  -2.459  -6.000  0.00  0.00     0.019 C 
ENDBRANCH   1   7
TORSDOF 1
ENDMDL
