MODEL 1
REMARK minimizedAffinity -1.38739324
REMARK minimizedRMSD -1
REMARK  1 active torsions:
REMARK  status: ('A' for Active; 'I' for Inactive)
REMARK    1  A    between atoms: C1_2  and  C2_3 
ROOT
ATOM      1  C2  UNL d   1      -4.711   0.905  -5.955  0.00  0.00    -0.077 A 
ATOM      2  C3  UNL d   1      -5.256   2.196  -5.920  0.00  0.00     0.002 A 
ATOM      3  C4  UNL d   1      -4.422   3.315  -5.924  0.00  0.00     0.002 A 
ATOM      4  C5  UNL d   1      -3.039   3.155  -5.967  0.00  0.00    -0.004 A 
ATOM      5  C6  UNL d   1      -2.486   1.875  -6.000  0.00  0.00     0.002 A 
ATOM      6  C7  UNL d   1      -3.319   0.755  -5.994  0.00  0.00     0.002 A 
ENDROOT
BRANCH   1   7
ATOM      7  C1  UNL d   1      -5.610  -0.303  -6.000  0.00  0.00     0.055 C 
ATOM      8  C   UNL d   1      -4.806  -1.594  -5.940  0.00  0.00     0.019 C 
ENDBRANCH   1   7
TORSDOF 1
ENDMDL
