MODEL 1
REMARK minimizedAffinity -3.65954494
REMARK minimizedRMSD -1
REMARK  1 active torsions:
REMARK  status: ('A' for Active; 'I' for Inactive)
REMARK    1  A    between atoms: C1_2  and  C2_3 
ROOT
ATOM      1  C2  UNL d   1      -4.054   1.736  -5.962  0.00  0.00    -0.077 A 
ATOM      2  C3  UNL d   1      -3.220   2.864  -5.974  0.00  0.00     0.002 A 
ATOM      3  C4  UNL d   1      -3.769   4.147  -5.995  0.00  0.00     0.002 A 
ATOM      4  C5  UNL d   1      -5.152   4.316  -6.000  0.00  0.00    -0.004 A 
ATOM      5  C6  UNL d   1      -5.989   3.201  -5.990  0.00  0.00     0.002 A 
ATOM      6  C7  UNL d   1      -5.443   1.917  -5.970  0.00  0.00     0.002 A 
ENDROOT
BRANCH   1   7
ATOM      7  C1  UNL d   1      -3.464   0.352  -5.889  0.00  0.00     0.055 C 
ATOM      8  C   UNL d   1      -4.543  -0.698  -5.671  0.00  0.00     0.019 C 
ENDBRANCH   1   7
TORSDOF 1
ENDMDL
