MODEL 1
REMARK minimizedAffinity -1.05750263
REMARK minimizedRMSD -1
REMARK  1 active torsions:
REMARK  status: ('A' for Active; 'I' for Inactive)
REMARK    1  A    between atoms: C1_2  and  C2_3 
ROOT
ATOM      1  C2  UNL d   1      -3.691   1.319  -5.929  0.00  0.00    -0.077 A 
ATOM      2  C3  UNL d   1      -2.752   2.360  -5.929  0.00  0.00     0.002 A 
ATOM      3  C4  UNL d   1      -3.173   3.691  -5.963  0.00  0.00     0.002 A 
ATOM      4  C5  UNL d   1      -4.532   3.993  -5.994  0.00  0.00    -0.004 A 
ATOM      5  C6  UNL d   1      -5.474   2.965  -5.997  0.00  0.00     0.002 A 
ATOM      6  C7  UNL d   1      -5.056   1.634  -5.964  0.00  0.00     0.002 A 
ENDROOT
BRANCH   1   7
ATOM      7  C1  UNL d   1      -3.241  -0.116  -5.843  0.00  0.00     0.055 C 
ATOM      8  C   UNL d   1      -4.417  -1.073  -5.963  0.00  0.00     0.019 C 
ENDBRANCH   1   7
TORSDOF 1
ENDMDL
