MODEL 1
REMARK minimizedAffinity -2.61798191
REMARK minimizedRMSD -1
REMARK  1 active torsions:
REMARK  status: ('A' for Active; 'I' for Inactive)
REMARK    1  A    between atoms: C1_2  and  C2_3 
ROOT
ATOM      1  C2  UNL d   1      -4.213   2.438  -5.889  0.00  0.00    -0.077 A 
ATOM      2  C3  UNL d   1      -5.256   1.502  -5.938  0.00  0.00     0.002 A 
ATOM      3  C4  UNL d   1      -4.976   0.135  -5.995  0.00  0.00     0.002 A 
ATOM      4  C5  UNL d   1      -3.655  -0.308  -6.000  0.00  0.00    -0.004 A 
ATOM      5  C6  UNL d   1      -2.611   0.615  -5.954  0.00  0.00     0.002 A 
ATOM      6  C7  UNL d   1      -2.889   1.982  -5.898  0.00  0.00     0.002 A 
ENDROOT
BRANCH   1   7
ATOM      7  C1  UNL d   1      -4.513   3.910  -5.778  0.00  0.00     0.055 C 
ATOM      8  C   UNL d   1      -5.992   4.192  -5.998  0.00  0.00     0.019 C 
ENDBRANCH   1   7
TORSDOF 1
ENDMDL
