MODEL 1
REMARK minimizedAffinity -2.78085971
REMARK minimizedRMSD -1
REMARK  1 active torsions:
REMARK  status: ('A' for Active; 'I' for Inactive)
REMARK    1  A    between atoms: C1_2  and  C2_3 
ROOT
ATOM      1  C2  UNL d   1      -4.067   1.519  -5.837  0.00  0.00    -0.077 A 
ATOM      2  C3  UNL d   1      -2.967   0.684  -5.596  0.00  0.00     0.002 A 
ATOM      3  C4  UNL d   1      -3.135  -0.700  -5.520  0.00  0.00     0.002 A 
ATOM      4  C5  UNL d   1      -4.399  -1.261  -5.687  0.00  0.00    -0.004 A 
ATOM      5  C6  UNL d   1      -5.500  -0.438  -5.925  0.00  0.00     0.002 A 
ATOM      6  C7  UNL d   1      -5.334   0.946  -6.000  0.00  0.00     0.002 A 
ENDROOT
BRANCH   1   7
ATOM      7  C1  UNL d   1      -3.880   3.008  -5.968  0.00  0.00     0.055 C 
ATOM      8  C   UNL d   1      -2.405   3.381  -6.000  0.00  0.00     0.019 C 
ENDBRANCH   1   7
TORSDOF 1
ENDMDL
