MODEL 1
REMARK minimizedAffinity -2.08089709
REMARK minimizedRMSD -1
REMARK  1 active torsions:
REMARK  status: ('A' for Active; 'I' for Inactive)
REMARK    1  A    between atoms: C1_2  and  C2_3 
ROOT
ATOM      1  C2  UNL d   1      -4.707   0.965  -5.982  0.00  0.00    -0.077 A 
ATOM      2  C3  UNL d   1      -3.311   0.841  -5.982  0.00  0.00     0.002 A 
ATOM      3  C4  UNL d   1      -2.501   1.978  -5.991  0.00  0.00     0.002 A 
ATOM      4  C5  UNL d   1      -3.078   3.247  -5.997  0.00  0.00    -0.004 A 
ATOM      5  C6  UNL d   1      -4.466   3.380  -6.000  0.00  0.00     0.002 A 
ATOM      6  C7  UNL d   1      -5.277   2.245  -5.991  0.00  0.00     0.002 A 
ENDROOT
BRANCH   1   7
ATOM      7  C1  UNL d   1      -5.582  -0.260  -5.922  0.00  0.00     0.055 C 
ATOM      8  C   UNL d   1      -4.750  -1.532  -5.860  0.00  0.00     0.019 C 
ENDBRANCH   1   7
TORSDOF 1
ENDMDL
