MODEL 1
REMARK minimizedAffinity 5.05273104
REMARK minimizedRMSD -1
REMARK  1 active torsions:
REMARK  status: ('A' for Active; 'I' for Inactive)
REMARK    1  A    between atoms: C1_2  and  C2_3 
ROOT
ATOM      1  C2  UNL d   1       0.426   0.074   0.940  0.00  0.00    -0.077 A 
ATOM      2  C3  UNL d   1       1.295   0.617  -0.017  0.00  0.00     0.002 A 
ATOM      3  C4  UNL d   1       1.358   0.075  -1.302  0.00  0.00     0.002 A 
ATOM      4  C5  UNL d   1       0.553  -1.010  -1.643  0.00  0.00    -0.004 A 
ATOM      5  C6  UNL d   1      -0.312  -1.559  -0.697  0.00  0.00     0.002 A 
ATOM      6  C7  UNL d   1      -0.376  -1.019   0.588  0.00  0.00     0.002 A 
ENDROOT
BRANCH   1   7
ATOM      7  C1  UNL d   1       0.321   0.688   2.312  0.00  0.00     0.055 C 
ATOM      8  C   UNL d   1       1.177  -0.062   3.322  0.00  0.00     0.019 C 
ENDBRANCH   1   7
TORSDOF 1
ENDMDL
