MODEL 1
REMARK minimizedAffinity 6.42992353
REMARK minimizedRMSD -1
REMARK  1 active torsions:
REMARK  status: ('A' for Active; 'I' for Inactive)
REMARK    1  A    between atoms: C1_2  and  C2_3 
ROOT
ATOM      1  C2  UNL d   1       0.439  -0.028  -1.676  0.00  0.00    -0.077 A 
ATOM      2  C3  UNL d   1      -0.696   0.777  -1.504  0.00  0.00     0.002 A 
ATOM      3  C4  UNL d   1      -0.811   1.607  -0.387  0.00  0.00     0.002 A 
ATOM      4  C5  UNL d   1       0.206   1.643   0.564  0.00  0.00    -0.004 A 
ATOM      5  C6  UNL d   1       1.338   0.845   0.403  0.00  0.00     0.002 A 
ATOM      6  C7  UNL d   1       1.455   0.014  -0.712  0.00  0.00     0.002 A 
ENDROOT
BRANCH   1   7
ATOM      7  C1  UNL d   1       0.587  -0.887  -2.905  0.00  0.00     0.055 C 
ATOM      8  C   UNL d   1       1.392  -0.176  -3.983  0.00  0.00     0.019 C 
ENDBRANCH   1   7
TORSDOF 1
ENDMDL
