MODEL 1
REMARK minimizedAffinity 1.85220397
REMARK minimizedRMSD -1
REMARK  1 active torsions:
REMARK  status: ('A' for Active; 'I' for Inactive)
REMARK    1  A    between atoms: C1_2  and  C2_3 
ROOT
ATOM      1  C2  UNL d   1       0.455   1.206   0.689  0.00  0.00    -0.077 A 
ATOM      2  C3  UNL d   1       0.577   1.206   2.086  0.00  0.00     0.002 A 
ATOM      3  C4  UNL d   1      -0.496   1.599   2.888  0.00  0.00     0.002 A 
ATOM      4  C5  UNL d   1      -1.699   1.991   2.304  0.00  0.00    -0.004 A 
ATOM      5  C6  UNL d   1      -1.829   1.995   0.915  0.00  0.00     0.002 A 
ATOM      6  C7  UNL d   1      -0.758   1.604   0.112  0.00  0.00     0.002 A 
ENDROOT
BRANCH   1   7
ATOM      7  C1  UNL d   1       1.595   0.735  -0.176  0.00  0.00     0.055 C 
ATOM      8  C   UNL d   1       1.133  -0.315  -1.176  0.00  0.00     0.019 C 
ENDBRANCH   1   7
TORSDOF 1
ENDMDL
