MODEL 1
REMARK minimizedAffinity -1.89623773
REMARK minimizedRMSD -1
REMARK  1 active torsions:
REMARK  status: ('A' for Active; 'I' for Inactive)
REMARK    1  A    between atoms: C1_2  and  C2_3 
ROOT
ATOM      1  C2  UNL d   1      -3.549  -5.211  -5.847  0.00  0.00    -0.077 A 
ATOM      2  C3  UNL d   1      -4.784  -5.863  -5.968  0.00  0.00     0.002 A 
ATOM      3  C4  UNL d   1      -5.971  -5.128  -5.999  0.00  0.00     0.002 A 
ATOM      4  C5  UNL d   1      -5.934  -3.738  -5.913  0.00  0.00    -0.004 A 
ATOM      5  C6  UNL d   1      -4.711  -3.080  -5.790  0.00  0.00     0.002 A 
ATOM      6  C7  UNL d   1      -3.524  -3.813  -5.758  0.00  0.00     0.002 A 
ENDROOT
BRANCH   1   7
ATOM      7  C1  UNL d   1      -2.265  -5.998  -5.862  0.00  0.00     0.055 C 
ATOM      8  C   UNL d   1      -1.596  -5.993  -4.496  0.00  0.00     0.019 C 
ENDBRANCH   1   7
TORSDOF 1
ENDMDL
