MODEL 1
REMARK minimizedAffinity 4.91118479
REMARK minimizedRMSD -1
REMARK  0 active torsions:
REMARK  status: ('A' for Active; 'I' for Inactive)
ROOT
ATOM      1  C2' OXE d   1       3.264   2.997   2.549  0.00  0.00     0.078 C 
ATOM      2  C1' OXE d   1       4.136   2.417  -0.055  0.00  0.00     0.078 C 
ATOM      3  C1  OXE d   1       4.661   3.670   0.599  0.00  0.00    -0.078 A 
ATOM      4  C2  OXE d   1       4.193   3.970   1.856  0.00  0.00    -0.078 A 
ATOM      5  C3  OXE d   1       4.686   5.086   2.527  0.00  0.00     0.003 A 
ATOM      6  C4  OXE d   1       5.537   5.986   1.875  0.00  0.00    -0.002 A 
ATOM      7  C5  OXE d   1       5.994   5.720   0.580  0.00  0.00    -0.002 A 
ATOM      8  C6  OXE d   1       5.600   4.547  -0.054  0.00  0.00     0.003 A 
ENDROOT
TORSDOF 0
ENDMDL
