MODEL 1
REMARK minimizedAffinity -3.01012683
REMARK minimizedRMSD -1
REMARK  0 active torsions:
REMARK  status: ('A' for Active; 'I' for Inactive)
ROOT
ATOM      1  C2' OXE d   1      -0.462  -2.383  -0.351  0.00  0.00     0.078 C 
ATOM      2  C1' OXE d   1      -0.756   0.332   0.296  0.00  0.00     0.078 C 
ATOM      3  C1  OXE d   1       0.581  -0.125  -0.230  0.00  0.00    -0.078 A 
ATOM      4  C2  OXE d   1       0.731  -1.464  -0.500  0.00  0.00    -0.078 A 
ATOM      5  C3  OXE d   1       1.926  -1.929  -1.039  0.00  0.00     0.003 A 
ATOM      6  C4  OXE d   1       3.028  -1.074  -1.164  0.00  0.00    -0.002 A 
ATOM      7  C5  OXE d   1       2.909   0.286  -0.858  0.00  0.00    -0.002 A 
ATOM      8  C6  OXE d   1       1.683   0.784  -0.431  0.00  0.00     0.003 A 
ENDROOT
TORSDOF 0
ENDMDL
