MODEL 1
REMARK minimizedAffinity -5.18821096
REMARK minimizedRMSD -1
REMARK  0 active torsions:
REMARK  status: ('A' for Active; 'I' for Inactive)
ROOT
ATOM      1  C2' OXE d   1       0.421  -2.410   0.610  0.00  0.00     0.078 C 
ATOM      2  C1' OXE d   1      -0.714   0.149   0.400  0.00  0.00     0.078 C 
ATOM      3  C1  OXE d   1       0.635  -0.077  -0.237  0.00  0.00    -0.078 A 
ATOM      4  C2  OXE d   1       1.203  -1.319  -0.089  0.00  0.00    -0.078 A 
ATOM      5  C3  OXE d   1       2.421  -1.597  -0.703  0.00  0.00     0.003 A 
ATOM      6  C4  OXE d   1       3.143  -0.579  -1.338  0.00  0.00    -0.002 A 
ATOM      7  C5  OXE d   1       2.600   0.703  -1.466  0.00  0.00    -0.002 A 
ATOM      8  C6  OXE d   1       1.331   0.959  -0.959  0.00  0.00     0.003 A 
ENDROOT
TORSDOF 0
ENDMDL
