MODEL 1
REMARK minimizedAffinity 1.63326812
REMARK minimizedRMSD -1
REMARK  0 active torsions:
REMARK  status: ('A' for Active; 'I' for Inactive)
ROOT
ATOM      1  C2' OXE d   1       1.727  -1.501  -2.229  0.00  0.00     0.078 C 
ATOM      2  C1' OXE d   1       2.552   0.732  -0.743  0.00  0.00     0.078 C 
ATOM      3  C1  OXE d   1       1.269   0.052  -0.337  0.00  0.00    -0.078 A 
ATOM      4  C2  OXE d   1       0.848  -1.011  -1.099  0.00  0.00    -0.078 A 
ATOM      5  C3  OXE d   1      -0.300  -1.708  -0.735  0.00  0.00     0.003 A 
ATOM      6  C4  OXE d   1      -1.113  -1.242   0.306  0.00  0.00    -0.002 A 
ATOM      7  C5  OXE d   1      -0.723  -0.137   1.070  0.00  0.00    -0.002 A 
ATOM      8  C6  OXE d   1       0.483   0.494   0.789  0.00  0.00     0.003 A 
ENDROOT
TORSDOF 0
ENDMDL
