MODEL 1
REMARK minimizedAffinity 0.331572235
REMARK minimizedRMSD -1
REMARK  0 active torsions:
REMARK  status: ('A' for Active; 'I' for Inactive)
ROOT
ATOM      1  C2' OXE d   1      -1.529   1.742   2.929  0.00  0.00     0.078 C 
ATOM      2  C1' OXE d   1      -2.776  -0.752   2.605  0.00  0.00     0.078 C 
ATOM      3  C1  OXE d   1      -1.716  -0.361   1.606  0.00  0.00    -0.078 A 
ATOM      4  C2  OXE d   1      -1.144   0.881   1.745  0.00  0.00    -0.078 A 
ATOM      5  C3  OXE d   1      -0.122   1.270   0.883  0.00  0.00     0.003 A 
ATOM      6  C4  OXE d   1       0.221   0.472  -0.215  0.00  0.00    -0.002 A 
ATOM      7  C5  OXE d   1      -0.378  -0.779  -0.398  0.00  0.00    -0.002 A 
ATOM      8  C6  OXE d   1      -1.315  -1.228   0.526  0.00  0.00     0.003 A 
ENDROOT
TORSDOF 0
ENDMDL
