MODEL 1
REMARK minimizedAffinity -5.33882809
REMARK minimizedRMSD -1
REMARK  0 active torsions:
REMARK  status: ('A' for Active; 'I' for Inactive)
ROOT
ATOM      1  C2' OXE d   1      -1.207   0.637   0.634  0.00  0.00     0.078 C 
ATOM      2  C1' OXE d   1      -1.469   2.211   2.943  0.00  0.00     0.078 C 
ATOM      3  C1  OXE d   1      -2.022   0.808   2.981  0.00  0.00    -0.078 A 
ATOM      4  C2  OXE d   1      -1.931   0.062   1.831  0.00  0.00    -0.078 A 
ATOM      5  C3  OXE d   1      -2.376  -1.257   1.829  0.00  0.00     0.003 A 
ATOM      6  C4  OXE d   1      -3.054  -1.779   2.937  0.00  0.00    -0.002 A 
ATOM      7  C5  OXE d   1      -3.193  -1.021   4.105  0.00  0.00    -0.002 A 
ATOM      8  C6  OXE d   1      -2.646   0.256   4.158  0.00  0.00     0.003 A 
ENDROOT
TORSDOF 0
ENDMDL
