MODEL 1
REMARK minimizedAffinity -1.91690898
REMARK minimizedRMSD -1
REMARK  0 active torsions:
REMARK  status: ('A' for Active; 'I' for Inactive)
ROOT
ATOM      1  C2' OXE d   1       3.356  -0.668  -0.993  0.00  0.00     0.078 C 
ATOM      2  C1' OXE d   1       1.296   1.220  -0.719  0.00  0.00     0.078 C 
ATOM      3  C1  OXE d   1       0.975  -0.222  -0.411  0.00  0.00    -0.078 A 
ATOM      4  C2  OXE d   1       1.976  -1.145  -0.593  0.00  0.00    -0.078 A 
ATOM      5  C3  OXE d   1       1.750  -2.480  -0.271  0.00  0.00     0.003 A 
ATOM      6  C4  OXE d   1       0.468  -2.915   0.089  0.00  0.00    -0.002 A 
ATOM      7  C5  OXE d   1      -0.576  -1.996   0.241  0.00  0.00    -0.002 A 
ATOM      8  C6  OXE d   1      -0.329  -0.643   0.037  0.00  0.00     0.003 A 
ENDROOT
TORSDOF 0
ENDMDL
