MODEL 1
REMARK minimizedAffinity -4.71970034
REMARK minimizedRMSD -1
REMARK  0 active torsions:
REMARK  status: ('A' for Active; 'I' for Inactive)
ROOT
ATOM      1  C2' OXE d   1       3.237  -0.529  -1.467  0.00  0.00     0.078 C 
ATOM      2  C1' OXE d   1       1.704  -2.814  -0.910  0.00  0.00     0.078 C 
ATOM      3  C1  OXE d   1       1.017  -1.472  -0.844  0.00  0.00    -0.078 A 
ATOM      4  C2  OXE d   1       1.786  -0.357  -1.072  0.00  0.00    -0.078 A 
ATOM      5  C3  OXE d   1       1.190   0.902  -1.078  0.00  0.00     0.003 A 
ATOM      6  C4  OXE d   1      -0.150   1.053  -0.702  0.00  0.00    -0.002 A 
ATOM      7  C5  OXE d   1      -0.941  -0.067  -0.427  0.00  0.00    -0.002 A 
ATOM      8  C6  OXE d   1      -0.385  -1.337  -0.534  0.00  0.00     0.003 A 
ENDROOT
TORSDOF 0
ENDMDL
