MODEL 1
REMARK minimizedAffinity -3.14208174
REMARK minimizedRMSD -1
REMARK  0 active torsions:
REMARK  status: ('A' for Active; 'I' for Inactive)
ROOT
ATOM      1  C2' OXE d   1       4.332   0.497  -2.946  0.00  0.00     0.078 C 
ATOM      2  C1' OXE d   1       2.062   2.118  -2.626  0.00  0.00     0.078 C 
ATOM      3  C1  OXE d   1       2.116   0.823  -1.855  0.00  0.00    -0.078 A 
ATOM      4  C2  OXE d   1       3.209   0.014  -2.054  0.00  0.00    -0.078 A 
ATOM      5  C3  OXE d   1       3.334  -1.166  -1.326  0.00  0.00     0.003 A 
ATOM      6  C4  OXE d   1       2.286  -1.611  -0.511  0.00  0.00    -0.002 A 
ATOM      7  C5  OXE d   1       1.147  -0.821  -0.325  0.00  0.00    -0.002 A 
ATOM      8  C6  OXE d   1       1.065   0.416  -0.956  0.00  0.00     0.003 A 
ENDROOT
TORSDOF 0
ENDMDL
