MODEL 1
REMARK minimizedAffinity -5.8865695
REMARK minimizedRMSD -1
REMARK  0 active torsions:
REMARK  status: ('A' for Active; 'I' for Inactive)
ROOT
ATOM      1  C2' OXE d   1       0.140  -1.983  -0.134  0.00  0.00     0.078 C 
ATOM      2  C1' OXE d   1      -1.140   0.515  -0.087  0.00  0.00     0.078 C 
ATOM      3  C1  OXE d   1       0.161   0.405  -0.843  0.00  0.00    -0.078 A 
ATOM      4  C2  OXE d   1       0.803  -0.809  -0.822  0.00  0.00    -0.078 A 
ATOM      5  C3  OXE d   1       1.978  -0.980  -1.549  0.00  0.00     0.003 A 
ATOM      6  C4  OXE d   1       2.591   0.113  -2.174  0.00  0.00    -0.002 A 
ATOM      7  C5  OXE d   1       1.973   1.368  -2.174  0.00  0.00    -0.002 A 
ATOM      8  C6  OXE d   1       0.739   1.521  -1.551  0.00  0.00     0.003 A 
ENDROOT
TORSDOF 0
ENDMDL
