MODEL 1
REMARK minimizedAffinity -5.32451153
REMARK minimizedRMSD -1
REMARK  0 active torsions:
REMARK  status: ('A' for Active; 'I' for Inactive)
ROOT
ATOM      1  C2' OXE d   1       1.110  -1.762  -0.031  0.00  0.00     0.078 C 
ATOM      2  C1' OXE d   1      -0.626   0.435   0.161  0.00  0.00     0.078 C 
ATOM      3  C1  OXE d   1       0.556   0.552  -0.769  0.00  0.00    -0.078 A 
ATOM      4  C2  OXE d   1       1.426  -0.511  -0.822  0.00  0.00    -0.078 A 
ATOM      5  C3  OXE d   1       2.502  -0.478  -1.704  0.00  0.00     0.003 A 
ATOM      6  C4  OXE d   1       2.793   0.688  -2.424  0.00  0.00    -0.002 A 
ATOM      7  C5  OXE d   1       1.942   1.796  -2.355  0.00  0.00    -0.002 A 
ATOM      8  C6  OXE d   1       0.798   1.729  -1.566  0.00  0.00     0.003 A 
ENDROOT
TORSDOF 0
ENDMDL
