MODEL 1
REMARK minimizedAffinity -5.34200287
REMARK minimizedRMSD -1
REMARK  0 active torsions:
REMARK  status: ('A' for Active; 'I' for Inactive)
ROOT
ATOM      1  C2' OXE d   1      -1.032   0.043   0.470  0.00  0.00     0.078 C 
ATOM      2  C1' OXE d   1      -1.194   2.343  -1.131  0.00  0.00     0.078 C 
ATOM      3  C1  OXE d   1       0.075   1.529  -1.195  0.00  0.00    -0.078 A 
ATOM      4  C2  OXE d   1       0.163   0.431  -0.373  0.00  0.00    -0.078 A 
ATOM      5  C3  OXE d   1       1.289  -0.386  -0.433  0.00  0.00     0.003 A 
ATOM      6  C4  OXE d   1       2.394  -0.014  -1.208  0.00  0.00    -0.002 A 
ATOM      7  C5  OXE d   1       2.340   1.122  -2.022  0.00  0.00    -0.002 A 
ATOM      8  C6  OXE d   1       1.174   1.879  -2.059  0.00  0.00     0.003 A 
ENDROOT
TORSDOF 0
ENDMDL
