MODEL 1
REMARK minimizedAffinity -5.00265312
REMARK minimizedRMSD -1
REMARK  0 active torsions:
REMARK  status: ('A' for Active; 'I' for Inactive)
ROOT
ATOM      1  C2' OXE d   1       1.084   2.347  -1.915  0.00  0.00     0.078 C 
ATOM      2  C1' OXE d   1      -1.013   1.190  -0.449  0.00  0.00     0.078 C 
ATOM      3  C1  OXE d   1       0.180   0.326  -0.773  0.00  0.00    -0.078 A 
ATOM      4  C2  OXE d   1       1.180   0.886  -1.530  0.00  0.00    -0.078 A 
ATOM      5  C3  OXE d   1       2.328   0.150  -1.811  0.00  0.00     0.003 A 
ATOM      6  C4  OXE d   1       2.404  -1.204  -1.460  0.00  0.00    -0.002 A 
ATOM      7  C5  OXE d   1       1.379  -1.805  -0.723  0.00  0.00    -0.002 A 
ATOM      8  C6  OXE d   1       0.282  -1.045  -0.335  0.00  0.00     0.003 A 
ENDROOT
TORSDOF 0
ENDMDL
