MODEL 1
REMARK minimizedAffinity -5.4943018
REMARK minimizedRMSD -1
REMARK  0 active torsions:
REMARK  status: ('A' for Active; 'I' for Inactive)
ROOT
ATOM      1  C2' OXE d   1      -0.264   0.815   1.047  0.00  0.00     0.078 C 
ATOM      2  C1' OXE d   1      -1.190  -1.363  -0.462  0.00  0.00     0.078 C 
ATOM      3  C1  OXE d   1       0.282  -1.040  -0.523  0.00  0.00    -0.078 A 
ATOM      4  C2  OXE d   1       0.718   0.056   0.181  0.00  0.00    -0.078 A 
ATOM      5  C3  OXE d   1       2.075   0.366   0.203  0.00  0.00     0.003 A 
ATOM      6  C4  OXE d   1       2.975  -0.335  -0.608  0.00  0.00    -0.002 A 
ATOM      7  C5  OXE d   1       2.545  -1.430  -1.365  0.00  0.00    -0.002 A 
ATOM      8  C6  OXE d   1       1.212  -1.821  -1.300  0.00  0.00     0.003 A 
ENDROOT
TORSDOF 0
ENDMDL
