MODEL 1
REMARK minimizedAffinity 2.32095337
REMARK minimizedRMSD -1
REMARK  0 active torsions:
REMARK  status: ('A' for Active; 'I' for Inactive)
ROOT
ATOM      1  C2' OXE d   1      -1.815  -0.425   1.487  0.00  0.00     0.078 C 
ATOM      2  C1' OXE d   1      -2.192   1.641   3.350  0.00  0.00     0.078 C 
ATOM      3  C1  OXE d   1      -2.810   0.299   3.653  0.00  0.00    -0.078 A 
ATOM      4  C2  OXE d   1      -2.660  -0.693   2.714  0.00  0.00    -0.078 A 
ATOM      5  C3  OXE d   1      -3.163  -1.965   2.968  0.00  0.00     0.003 A 
ATOM      6  C4  OXE d   1      -3.952  -2.202   4.100  0.00  0.00    -0.002 A 
ATOM      7  C5  OXE d   1      -4.150  -1.195   5.051  0.00  0.00    -0.002 A 
ATOM      8  C6  OXE d   1      -3.552   0.046   4.863  0.00  0.00     0.003 A 
ENDROOT
TORSDOF 0
ENDMDL
