MODEL 1
REMARK minimizedAffinity -5.6372385
REMARK minimizedRMSD -1
REMARK  0 active torsions:
REMARK  status: ('A' for Active; 'I' for Inactive)
ROOT
ATOM      1  C2' OXE d   1      -1.112  -0.005   0.830  0.00  0.00     0.078 C 
ATOM      2  C1' OXE d   1      -0.630  -2.541  -0.274  0.00  0.00     0.078 C 
ATOM      3  C1  OXE d   1       0.306  -1.420  -0.651  0.00  0.00    -0.078 A 
ATOM      4  C2  OXE d   1       0.035  -0.172  -0.143  0.00  0.00    -0.078 A 
ATOM      5  C3  OXE d   1       0.898   0.886  -0.416  0.00  0.00     0.003 A 
ATOM      6  C4  OXE d   1       1.951   0.725  -1.325  0.00  0.00    -0.002 A 
ATOM      7  C5  OXE d   1       2.221  -0.528  -1.885  0.00  0.00    -0.002 A 
ATOM      8  C6  OXE d   1       1.435  -1.618  -1.526  0.00  0.00     0.003 A 
ENDROOT
TORSDOF 0
ENDMDL
