MODEL 1
REMARK minimizedAffinity -4.39917946
REMARK minimizedRMSD -1
REMARK  0 active torsions:
REMARK  status: ('A' for Active; 'I' for Inactive)
ROOT
ATOM      1  C2' OXE d   1      -0.410  -2.143  -0.764  0.00  0.00     0.078 C 
ATOM      2  C1' OXE d   1      -0.619   0.099   0.912  0.00  0.00     0.078 C 
ATOM      3  C1  OXE d   1       0.708  -0.158   0.243  0.00  0.00    -0.078 A 
ATOM      4  C2  OXE d   1       0.815  -1.283  -0.538  0.00  0.00    -0.078 A 
ATOM      5  C3  OXE d   1       2.000  -1.538  -1.222  0.00  0.00     0.003 A 
ATOM      6  C4  OXE d   1       3.131  -0.743  -1.000  0.00  0.00    -0.002 A 
ATOM      7  C5  OXE d   1       3.055   0.386  -0.177  0.00  0.00    -0.002 A 
ATOM      8  C6  OXE d   1       1.842   0.716   0.417  0.00  0.00     0.003 A 
ENDROOT
TORSDOF 0
ENDMDL
