MODEL 1
REMARK minimizedAffinity -4.89821672
REMARK minimizedRMSD -1
REMARK  0 active torsions:
REMARK  status: ('A' for Active; 'I' for Inactive)
ROOT
ATOM      1  C2' OXE d   1       0.071   1.092  -0.728  0.00  0.00     0.078 C 
ATOM      2  C1' OXE d   1      -1.515   0.276   1.440  0.00  0.00     0.078 C 
ATOM      3  C1  OXE d   1      -0.610  -0.750   0.805  0.00  0.00    -0.078 A 
ATOM      4  C2  OXE d   1       0.128  -0.354  -0.285  0.00  0.00    -0.078 A 
ATOM      5  C3  OXE d   1       1.019  -1.246  -0.874  0.00  0.00     0.003 A 
ATOM      6  C4  OXE d   1       1.058  -2.585  -0.464  0.00  0.00    -0.002 A 
ATOM      7  C5  OXE d   1       0.285  -3.018   0.618  0.00  0.00    -0.002 A 
ATOM      8  C6  OXE d   1      -0.520  -2.105   1.289  0.00  0.00     0.003 A 
ENDROOT
TORSDOF 0
ENDMDL
