MODEL 1
REMARK minimizedAffinity -3.77319741
REMARK minimizedRMSD -1
REMARK  0 active torsions:
REMARK  status: ('A' for Active; 'I' for Inactive)
ROOT
ATOM      1  C2' OXE d   1      -2.009   0.072   1.067  0.00  0.00     0.078 C 
ATOM      2  C1' OXE d   1       0.071   1.239  -0.415  0.00  0.00     0.078 C 
ATOM      3  C1  OXE d   1       0.184  -0.227  -0.078  0.00  0.00    -0.078 A 
ATOM      4  C2  OXE d   1      -0.816  -0.778   0.687  0.00  0.00    -0.078 A 
ATOM      5  C3  OXE d   1      -0.788  -2.139   0.981  0.00  0.00     0.003 A 
ATOM      6  C4  OXE d   1       0.324  -2.916   0.634  0.00  0.00    -0.002 A 
ATOM      7  C5  OXE d   1       1.371  -2.364  -0.111  0.00  0.00    -0.002 A 
ATOM      8  C6  OXE d   1       1.297  -1.035  -0.511  0.00  0.00     0.003 A 
ENDROOT
TORSDOF 0
ENDMDL
