MODEL 1
REMARK minimizedAffinity -4.91823721
REMARK minimizedRMSD -1
REMARK  0 active torsions:
REMARK  status: ('A' for Active; 'I' for Inactive)
ROOT
ATOM      1  C2' OXE d   1       0.346   1.214   0.278  0.00  0.00     0.078 C 
ATOM      2  C1' OXE d   1      -1.535   0.171   2.082  0.00  0.00     0.078 C 
ATOM      3  C1  OXE d   1      -0.819  -0.797   1.173  0.00  0.00    -0.078 A 
ATOM      4  C2  OXE d   1       0.065  -0.273   0.262  0.00  0.00    -0.078 A 
ATOM      5  C3  OXE d   1       0.793  -1.127  -0.563  0.00  0.00     0.003 A 
ATOM      6  C4  OXE d   1       0.519  -2.500  -0.578  0.00  0.00    -0.002 A 
ATOM      7  C5  OXE d   1      -0.407  -3.050   0.315  0.00  0.00    -0.002 A 
ATOM      8  C6  OXE d   1      -1.052  -2.220   1.224  0.00  0.00     0.003 A 
ENDROOT
TORSDOF 0
ENDMDL
