MODEL 1
REMARK minimizedAffinity -4.7656951
REMARK minimizedRMSD -1
REMARK  0 active torsions:
REMARK  status: ('A' for Active; 'I' for Inactive)
ROOT
ATOM      1  C2' OXE d   1      -1.444   0.018   1.710  0.00  0.00     0.078 C 
ATOM      2  C1' OXE d   1      -0.080   1.148  -0.467  0.00  0.00     0.078 C 
ATOM      3  C1  OXE d   1       0.034  -0.342  -0.262  0.00  0.00    -0.078 A 
ATOM      4  C2  OXE d   1      -0.599  -0.880   0.832  0.00  0.00    -0.078 A 
ATOM      5  C3  OXE d   1      -0.572  -2.256   1.038  0.00  0.00     0.003 A 
ATOM      6  C4  OXE d   1       0.220  -3.078   0.227  0.00  0.00    -0.002 A 
ATOM      7  C5  OXE d   1       0.905  -2.545  -0.871  0.00  0.00    -0.002 A 
ATOM      8  C6  OXE d   1       0.788  -1.189  -1.153  0.00  0.00     0.003 A 
ENDROOT
TORSDOF 0
ENDMDL
