MODEL 1
REMARK minimizedAffinity -4.12607527
REMARK minimizedRMSD -1
REMARK  0 active torsions:
REMARK  status: ('A' for Active; 'I' for Inactive)
ROOT
ATOM      1  C2' OXE d   1      -1.206  -0.089   1.922  0.00  0.00     0.078 C 
ATOM      2  C1' OXE d   1      -0.387  -2.323   0.433  0.00  0.00     0.078 C 
ATOM      3  C1  OXE d   1      -0.185  -0.959  -0.177  0.00  0.00    -0.078 A 
ATOM      4  C2  OXE d   1      -0.632   0.126   0.539  0.00  0.00    -0.078 A 
ATOM      5  C3  OXE d   1      -0.421   1.411   0.046  0.00  0.00     0.003 A 
ATOM      6  C4  OXE d   1       0.102   1.601  -1.239  0.00  0.00    -0.002 A 
ATOM      7  C5  OXE d   1       0.526   0.507  -2.001  0.00  0.00    -0.002 A 
ATOM      8  C6  OXE d   1       0.429  -0.773  -1.469  0.00  0.00     0.003 A 
ENDROOT
TORSDOF 0
ENDMDL
