MODEL 1
REMARK minimizedAffinity -5.3569541
REMARK minimizedRMSD -1
REMARK  0 active torsions:
REMARK  status: ('A' for Active; 'I' for Inactive)
ROOT
ATOM      1  C2' OXE d   1      -1.204   0.256   1.518  0.00  0.00     0.078 C 
ATOM      2  C1' OXE d   1       0.131   1.528  -0.599  0.00  0.00     0.078 C 
ATOM      3  C1  OXE d   1       0.292   0.035  -0.462  0.00  0.00    -0.078 A 
ATOM      4  C2  OXE d   1      -0.327  -0.573   0.604  0.00  0.00    -0.078 A 
ATOM      5  C3  OXE d   1      -0.256  -1.955   0.746  0.00  0.00     0.003 A 
ATOM      6  C4  OXE d   1       0.566  -2.713  -0.097  0.00  0.00    -0.002 A 
ATOM      7  C5  OXE d   1       1.237  -2.109  -1.165  0.00  0.00    -0.002 A 
ATOM      8  C6  OXE d   1       1.077  -0.745  -1.387  0.00  0.00     0.003 A 
ENDROOT
TORSDOF 0
ENDMDL
