MODEL 1
REMARK minimizedAffinity -3.80897307
REMARK minimizedRMSD -1
REMARK  0 active torsions:
REMARK  status: ('A' for Active; 'I' for Inactive)
ROOT
ATOM      1  C2' OXE d   1      -0.098   0.924  -1.057  0.00  0.00     0.078 C 
ATOM      2  C1' OXE d   1       0.925  -1.188  -2.598  0.00  0.00     0.078 C 
ATOM      3  C1  OXE d   1       0.362  -1.517  -1.238  0.00  0.00    -0.078 A 
ATOM      4  C2  OXE d   1      -0.093  -0.472  -0.472  0.00  0.00    -0.078 A 
ATOM      5  C3  OXE d   1      -0.673  -0.727   0.767  0.00  0.00     0.003 A 
ATOM      6  C4  OXE d   1      -0.656  -2.019   1.306  0.00  0.00    -0.002 A 
ATOM      7  C5  OXE d   1      -0.160  -3.093   0.558  0.00  0.00    -0.002 A 
ATOM      8  C6  OXE d   1       0.313  -2.866  -0.730  0.00  0.00     0.003 A 
ENDROOT
TORSDOF 0
ENDMDL
