MODEL 1
REMARK minimizedAffinity -4.63225365
REMARK minimizedRMSD -1
REMARK  0 active torsions:
REMARK  status: ('A' for Active; 'I' for Inactive)
ROOT
ATOM      1  C2' OXE d   1       0.176   1.093  -0.739  0.00  0.00     0.078 C 
ATOM      2  C1' OXE d   1       0.709  -1.314  -2.083  0.00  0.00     0.078 C 
ATOM      3  C1  OXE d   1       0.238  -1.396  -0.652  0.00  0.00    -0.078 A 
ATOM      4  C2  OXE d   1       0.024  -0.212   0.012  0.00  0.00    -0.078 A 
ATOM      5  C3  OXE d   1      -0.463  -0.231   1.316  0.00  0.00     0.003 A 
ATOM      6  C4  OXE d   1      -0.591  -1.442   2.007  0.00  0.00    -0.002 A 
ATOM      7  C5  OXE d   1      -0.341  -2.658   1.362  0.00  0.00    -0.002 A 
ATOM      8  C6  OXE d   1       0.033  -2.654   0.022  0.00  0.00     0.003 A 
ENDROOT
TORSDOF 0
ENDMDL
