MODEL 1
REMARK minimizedAffinity -1.75480294
REMARK minimizedRMSD -1
REMARK  0 active torsions:
REMARK  status: ('A' for Active; 'I' for Inactive)
ROOT
ATOM      1  C2' OXE d   1      -0.626  -2.482   0.721  0.00  0.00     0.078 C 
ATOM      2  C1' OXE d   1      -1.486  -0.229   2.157  0.00  0.00     0.078 C 
ATOM      3  C1  OXE d   1      -0.799   0.000   0.834  0.00  0.00    -0.078 A 
ATOM      4  C2  OXE d   1      -0.340  -1.106   0.160  0.00  0.00    -0.078 A 
ATOM      5  C3  OXE d   1       0.252  -0.954  -1.091  0.00  0.00     0.003 A 
ATOM      6  C4  OXE d   1       0.522   0.323  -1.597  0.00  0.00    -0.002 A 
ATOM      7  C5  OXE d   1       0.098   1.464  -0.908  0.00  0.00    -0.002 A 
ATOM      8  C6  OXE d   1      -0.600   1.319   0.286  0.00  0.00     0.003 A 
ENDROOT
TORSDOF 0
ENDMDL
