MODEL 1
REMARK minimizedAffinity -5.55672455
REMARK minimizedRMSD -1
REMARK  0 active torsions:
REMARK  status: ('A' for Active; 'I' for Inactive)
ROOT
ATOM      1  C2' OXE d   1       0.167   1.035  -0.212  0.00  0.00     0.078 C 
ATOM      2  C1' OXE d   1      -1.119  -0.359   1.858  0.00  0.00     0.078 C 
ATOM      3  C1  OXE d   1      -0.625  -1.154   0.675  0.00  0.00    -0.078 A 
ATOM      4  C2  OXE d   1      -0.039  -0.458  -0.354  0.00  0.00    -0.078 A 
ATOM      5  C3  OXE d   1       0.484  -1.149  -1.444  0.00  0.00     0.003 A 
ATOM      6  C4  OXE d   1       0.280  -2.528  -1.573  0.00  0.00    -0.002 A 
ATOM      7  C5  OXE d   1      -0.349  -3.251  -0.554  0.00  0.00    -0.002 A 
ATOM      8  C6  OXE d   1      -0.769  -2.587   0.593  0.00  0.00     0.003 A 
ENDROOT
TORSDOF 0
ENDMDL
