MODEL 1
REMARK minimizedAffinity -5.39740658
REMARK minimizedRMSD -1
REMARK  0 active torsions:
REMARK  status: ('A' for Active; 'I' for Inactive)
ROOT
ATOM      1  C2' OXE d   1       0.188   0.890  -0.505  0.00  0.00     0.078 C 
ATOM      2  C1' OXE d   1      -1.210  -0.325   1.605  0.00  0.00     0.078 C 
ATOM      3  C1  OXE d   1      -0.624  -1.220   0.542  0.00  0.00    -0.078 A 
ATOM      4  C2  OXE d   1       0.018  -0.614  -0.511  0.00  0.00    -0.078 A 
ATOM      5  C3  OXE d   1       0.624  -1.396  -1.491  0.00  0.00     0.003 A 
ATOM      6  C4  OXE d   1       0.454  -2.785  -1.494  0.00  0.00    -0.002 A 
ATOM      7  C5  OXE d   1      -0.230  -3.420  -0.452  0.00  0.00    -0.002 A 
ATOM      8  C6  OXE d   1      -0.738  -2.657   0.594  0.00  0.00     0.003 A 
ENDROOT
TORSDOF 0
ENDMDL
