MODEL 1
REMARK minimizedAffinity -2.82788396
REMARK minimizedRMSD -1
REMARK  0 active torsions:
REMARK  status: ('A' for Active; 'I' for Inactive)
ROOT
ATOM      1  C2' OXE d   1       0.426   1.451  -1.797  0.00  0.00     0.078 C 
ATOM      2  C1' OXE d   1       1.605   2.678   0.435  0.00  0.00     0.078 C 
ATOM      3  C1  OXE d   1       0.937   1.341   0.638  0.00  0.00    -0.078 A 
ATOM      4  C2  OXE d   1       0.322   0.770  -0.450  0.00  0.00    -0.078 A 
ATOM      5  C3  OXE d   1      -0.261  -0.488  -0.331  0.00  0.00     0.003 A 
ATOM      6  C4  OXE d   1      -0.361  -1.107   0.921  0.00  0.00    -0.002 A 
ATOM      7  C5  OXE d   1       0.224  -0.524   2.050  0.00  0.00    -0.002 A 
ATOM      8  C6  OXE d   1       0.912   0.677   1.918  0.00  0.00     0.003 A 
ENDROOT
TORSDOF 0
ENDMDL
