MODEL 1
REMARK minimizedAffinity -5.48588657
REMARK minimizedRMSD -1
REMARK  0 active torsions:
REMARK  status: ('A' for Active; 'I' for Inactive)
ROOT
ATOM      1  C2' OXE d   1       0.909  -2.999  -2.459  0.00  0.00     0.078 C 
ATOM      2  C1' OXE d   1       0.144  -3.656   0.160  0.00  0.00     0.078 C 
ATOM      3  C1  OXE d   1       0.063  -2.208  -0.254  0.00  0.00    -0.078 A 
ATOM      4  C2  OXE d   1       0.484  -1.889  -1.523  0.00  0.00    -0.078 A 
ATOM      5  C3  OXE d   1       0.380  -0.576  -1.974  0.00  0.00     0.003 A 
ATOM      6  C4  OXE d   1      -0.005   0.446  -1.098  0.00  0.00    -0.002 A 
ATOM      7  C5  OXE d   1      -0.399   0.149   0.211  0.00  0.00    -0.002 A 
ATOM      8  C6  OXE d   1      -0.412  -1.176   0.634  0.00  0.00     0.003 A 
ENDROOT
TORSDOF 0
ENDMDL
