MODEL 1
REMARK minimizedAffinity -4.19663
REMARK minimizedRMSD -1
REMARK  0 active torsions:
REMARK  status: ('A' for Active; 'I' for Inactive)
ROOT
ATOM      1  C2' OXE d   1      -1.498   0.133   1.861  0.00  0.00     0.078 C 
ATOM      2  C1' OXE d   1       0.069   1.251  -0.182  0.00  0.00     0.078 C 
ATOM      3  C1  OXE d   1       0.003  -0.253  -0.089  0.00  0.00    -0.078 A 
ATOM      4  C2  OXE d   1      -0.728  -0.791   0.942  0.00  0.00    -0.078 A 
ATOM      5  C3  OXE d   1      -0.867  -2.172   1.040  0.00  0.00     0.003 A 
ATOM      6  C4  OXE d   1      -0.144  -3.020   0.193  0.00  0.00    -0.002 A 
ATOM      7  C5  OXE d   1       0.639  -2.492  -0.840  0.00  0.00    -0.002 A 
ATOM      8  C6  OXE d   1       0.689  -1.114  -1.020  0.00  0.00     0.003 A 
ENDROOT
TORSDOF 0
ENDMDL
