MODEL 1
REMARK minimizedAffinity -1.53754544
REMARK minimizedRMSD -1
REMARK  0 active torsions:
REMARK  status: ('A' for Active; 'I' for Inactive)
ROOT
ATOM      1  C2' OXE d   1       0.081   1.391   0.108  0.00  0.00     0.078 C 
ATOM      2  C1' OXE d   1      -1.682   0.315   2.009  0.00  0.00     0.078 C 
ATOM      3  C1  OXE d   1      -0.789  -0.640   1.258  0.00  0.00    -0.078 A 
ATOM      4  C2  OXE d   1       0.038  -0.110   0.297  0.00  0.00    -0.078 A 
ATOM      5  C3  OXE d   1       0.922  -0.940  -0.386  0.00  0.00     0.003 A 
ATOM      6  C4  OXE d   1       0.868  -2.329  -0.213  0.00  0.00    -0.002 A 
ATOM      7  C5  OXE d   1       0.006  -2.893   0.733  0.00  0.00    -0.002 A 
ATOM      8  C6  OXE d   1      -0.797  -2.061   1.505  0.00  0.00     0.003 A 
ENDROOT
TORSDOF 0
ENDMDL
