MODEL 1
REMARK minimizedAffinity -3.19219279
REMARK minimizedRMSD -1
REMARK  0 active torsions:
REMARK  status: ('A' for Active; 'I' for Inactive)
ROOT
ATOM      1  C2' OXE d   1       1.083  -1.735  -2.319  0.00  0.00     0.078 C 
ATOM      2  C1' OXE d   1       0.022  -3.174  -0.155  0.00  0.00     0.078 C 
ATOM      3  C1  OXE d   1      -0.142  -1.675  -0.151  0.00  0.00    -0.078 A 
ATOM      4  C2  OXE d   1       0.422  -0.975  -1.191  0.00  0.00    -0.078 A 
ATOM      5  C3  OXE d   1       0.253   0.405  -1.264  0.00  0.00     0.003 A 
ATOM      6  C4  OXE d   1      -0.352   1.102  -0.211  0.00  0.00    -0.002 A 
ATOM      7  C5  OXE d   1      -0.897   0.412   0.877  0.00  0.00    -0.002 A 
ATOM      8  C6  OXE d   1      -0.838  -0.977   0.901  0.00  0.00     0.003 A 
ENDROOT
TORSDOF 0
ENDMDL
