MODEL 1
REMARK minimizedAffinity -4.85037184
REMARK minimizedRMSD -1
REMARK  0 active torsions:
REMARK  status: ('A' for Active; 'I' for Inactive)
ROOT
ATOM      1  C2' OXE d   1      -1.877   0.374   1.624  0.00  0.00     0.078 C 
ATOM      2  C1' OXE d   1       0.550   0.930   0.328  0.00  0.00     0.078 C 
ATOM      3  C1  OXE d   1       0.096  -0.508   0.385  0.00  0.00    -0.078 A 
ATOM      4  C2  OXE d   1      -1.070  -0.776   1.061  0.00  0.00    -0.078 A 
ATOM      5  C3  OXE d   1      -1.562  -2.078   1.097  0.00  0.00     0.003 A 
ATOM      6  C4  OXE d   1      -0.804  -3.136   0.583  0.00  0.00    -0.002 A 
ATOM      7  C5  OXE d   1       0.405  -2.890  -0.076  0.00  0.00    -0.002 A 
ATOM      8  C6  OXE d   1       0.847  -1.579  -0.220  0.00  0.00     0.003 A 
ENDROOT
TORSDOF 0
ENDMDL
