MODEL 1
REMARK minimizedAffinity 2.13375998
REMARK minimizedRMSD -1
REMARK  0 active torsions:
REMARK  status: ('A' for Active; 'I' for Inactive)
ROOT
ATOM      1  C1  BNZ d   1       1.494   0.569   1.618  0.00  0.00     0.000 A 
ATOM      2  C2  BNZ d   1       0.449   0.960   0.823  0.00  0.00     0.000 A 
ATOM      3  C3  BNZ d   1      -0.649   0.162   0.668  0.00  0.00     0.000 A 
ATOM      4  C4  BNZ d   1      -0.685  -1.042   1.275  0.00  0.00     0.000 A 
ATOM      5  C5  BNZ d   1       0.364  -1.455   2.071  0.00  0.00     0.000 A 
ATOM      6  C6  BNZ d   1       1.452  -0.632   2.256  0.00  0.00     0.000 A 
ENDROOT
TORSDOF 0
ENDMDL
