MODEL 1
REMARK minimizedAffinity -2.11938524
REMARK minimizedRMSD -1
REMARK  0 active torsions:
REMARK  status: ('A' for Active; 'I' for Inactive)
ROOT
ATOM      1  C1  BNZ d   1      -1.872   0.178   1.368  0.00  0.00     0.000 A 
ATOM      2  C2  BNZ d   1      -1.313   0.696   0.230  0.00  0.00     0.000 A 
ATOM      3  C3  BNZ d   1      -0.106   0.243  -0.225  0.00  0.00     0.000 A 
ATOM      4  C4  BNZ d   1       0.557  -0.698   0.478  0.00  0.00     0.000 A 
ATOM      5  C5  BNZ d   1       0.010  -1.223   1.632  0.00  0.00     0.000 A 
ATOM      6  C6  BNZ d   1      -1.222  -0.792   2.066  0.00  0.00     0.000 A 
ENDROOT
TORSDOF 0
ENDMDL
