MODEL 1
REMARK minimizedAffinity -1.77970278
REMARK minimizedRMSD -1
REMARK  0 active torsions:
REMARK  status: ('A' for Active; 'I' for Inactive)
ROOT
ATOM      1  C1  BNZ d   1       0.155   3.342  -3.063  0.00  0.00     0.000 A 
ATOM      2  C2  BNZ d   1      -1.166   3.677  -2.934  0.00  0.00     0.000 A 
ATOM      3  C3  BNZ d   1      -2.045   2.835  -2.312  0.00  0.00     0.000 A 
ATOM      4  C4  BNZ d   1      -1.610   1.642  -1.857  0.00  0.00     0.000 A 
ATOM      5  C5  BNZ d   1      -0.283   1.285  -1.989  0.00  0.00     0.000 A 
ATOM      6  C6  BNZ d   1       0.607   2.152  -2.580  0.00  0.00     0.000 A 
ENDROOT
TORSDOF 0
ENDMDL
