MODEL 1
REMARK minimizedAffinity -3.14472461
REMARK minimizedRMSD -1
REMARK  0 active torsions:
REMARK  status: ('A' for Active; 'I' for Inactive)
ROOT
ATOM      1  C1  BNZ d   1       0.581  -0.800  -1.652  0.00  0.00     0.000 A 
ATOM      2  C2  BNZ d   1      -0.670  -0.335  -1.346  0.00  0.00     0.000 A 
ATOM      3  C3  BNZ d   1      -1.051  -0.155  -0.045  0.00  0.00     0.000 A 
ATOM      4  C4  BNZ d   1      -0.196  -0.479   0.947  0.00  0.00     0.000 A 
ATOM      5  C5  BNZ d   1       1.065  -0.958   0.654  0.00  0.00     0.000 A 
ATOM      6  C6  BNZ d   1       1.459  -1.100  -0.656  0.00  0.00     0.000 A 
ENDROOT
TORSDOF 0
ENDMDL
