MODEL 1
REMARK minimizedAffinity 2.88791323
REMARK minimizedRMSD -1
REMARK  0 active torsions:
REMARK  status: ('A' for Active; 'I' for Inactive)
ROOT
ATOM      1  C1  BNZ d   1       1.701   2.900  -4.021  0.00  0.00     0.000 A 
ATOM      2  C2  BNZ d   1       0.772   3.595  -4.748  0.00  0.00     0.000 A 
ATOM      3  C3  BNZ d   1      -0.461   3.873  -4.226  0.00  0.00     0.000 A 
ATOM      4  C4  BNZ d   1      -0.776   3.422  -2.995  0.00  0.00     0.000 A 
ATOM      5  C5  BNZ d   1       0.146   2.712  -2.253  0.00  0.00     0.000 A 
ATOM      6  C6  BNZ d   1       1.399   2.467  -2.766  0.00  0.00     0.000 A 
ENDROOT
TORSDOF 0
ENDMDL
