MODEL 1
REMARK minimizedAffinity 7.58077669
REMARK minimizedRMSD -1
REMARK  0 active torsions:
REMARK  status: ('A' for Active; 'I' for Inactive)
ROOT
ATOM      1  C1  BNZ d   1       2.273   0.038   2.967  0.00  0.00     0.000 A 
ATOM      2  C2  BNZ d   1       1.078  -0.328   3.527  0.00  0.00     0.000 A 
ATOM      3  C3  BNZ d   1       0.192  -1.108   2.837  0.00  0.00     0.000 A 
ATOM      4  C4  BNZ d   1       0.483  -1.486   1.576  0.00  0.00     0.000 A 
ATOM      5  C5  BNZ d   1       1.680  -1.117   0.995  0.00  0.00     0.000 A 
ATOM      6  C6  BNZ d   1       2.587  -0.365   1.706  0.00  0.00     0.000 A 
ENDROOT
TORSDOF 0
ENDMDL
