MODEL 1
REMARK minimizedAffinity -2.10245252
REMARK minimizedRMSD -1
REMARK  0 active torsions:
REMARK  status: ('A' for Active; 'I' for Inactive)
ROOT
ATOM      1  C1  BNZ d   1      -0.041   1.728  -2.682  0.00  0.00     0.000 A 
ATOM      2  C2  BNZ d   1      -0.021   3.067  -2.967  0.00  0.00     0.000 A 
ATOM      3  C3  BNZ d   1      -1.130   3.841  -2.773  0.00  0.00     0.000 A 
ATOM      4  C4  BNZ d   1      -2.269   3.268  -2.332  0.00  0.00     0.000 A 
ATOM      5  C5  BNZ d   1      -2.308   1.917  -2.048  0.00  0.00     0.000 A 
ATOM      6  C6  BNZ d   1      -1.178   1.149  -2.209  0.00  0.00     0.000 A 
ENDROOT
TORSDOF 0
ENDMDL
