MODEL 1
REMARK minimizedAffinity -2.40555215
REMARK minimizedRMSD -1
REMARK  1 active torsions:
REMARK  status: ('A' for Active; 'I' for Inactive)
REMARK    1  A    between atoms: C1_2  and  C2_3 
ROOT
ATOM      1  C2  UNL d   1       0.237  -1.079   0.126  0.00  0.00    -0.081 A 
ATOM      2  C3  UNL d   1       0.699   0.164   0.575  0.00  0.00     0.006 A 
ATOM      3  C4  UNL d   1       0.888   1.216  -0.324  0.00  0.00     0.002 A 
ATOM      4  C5  UNL d   1       0.612   1.045  -1.685  0.00  0.00    -0.080 A 
ATOM      5  C6  UNL d   1       0.782   2.175  -2.656  0.00  0.00     0.076 C 
ATOM      6  C7  UNL d   1       0.167  -0.202  -2.136  0.00  0.00     0.002 A 
ATOM      7  C8  UNL d   1      -0.022  -1.254  -1.237  0.00  0.00     0.006 A 
ENDROOT
BRANCH   1   8
ATOM      8  C1  UNL d   1      -0.030  -2.196   1.103  0.00  0.00     0.054 C 
ATOM      9  C   UNL d   1      -1.235  -1.887   1.981  0.00  0.00     0.018 C 
ENDBRANCH   1   8
TORSDOF 1
ENDMDL
