MODEL 1
REMARK minimizedAffinity -5.52326679
REMARK minimizedRMSD -1
REMARK  1 active torsions:
REMARK  status: ('A' for Active; 'I' for Inactive)
REMARK    1  A    between atoms: C1_2  and  C2_3 
ROOT
ATOM      1  C2  UNL d   1      -0.074   1.166   0.556  0.00  0.00    -0.081 A 
ATOM      2  C3  UNL d   1       0.449  -0.046   0.088  0.00  0.00     0.006 A 
ATOM      3  C4  UNL d   1      -0.253  -1.240   0.276  0.00  0.00     0.002 A 
ATOM      4  C5  UNL d   1      -1.491  -1.240   0.928  0.00  0.00    -0.080 A 
ATOM      5  C6  UNL d   1      -2.268  -2.510   1.109  0.00  0.00     0.076 C 
ATOM      6  C7  UNL d   1      -2.005  -0.032   1.411  0.00  0.00     0.002 A 
ATOM      7  C8  UNL d   1      -1.303   1.162   1.223  0.00  0.00     0.006 A 
ENDROOT
BRANCH   1   8
ATOM      8  C1  UNL d   1       0.649   2.463   0.297  0.00  0.00     0.054 C 
ATOM      9  C   UNL d   1       1.347   2.447  -1.055  0.00  0.00     0.018 C 
ENDBRANCH   1   8
TORSDOF 1
ENDMDL
