MODEL 1
REMARK minimizedAffinity -4.53572083
REMARK minimizedRMSD -1
REMARK  1 active torsions:
REMARK  status: ('A' for Active; 'I' for Inactive)
REMARK    1  A    between atoms: C1_2  and  C2_3 
ROOT
ATOM      1  C2  UNL d   1      -0.044  -0.632   0.419  0.00  0.00    -0.081 A 
ATOM      2  C3  UNL d   1      -1.231  -0.143   0.977  0.00  0.00     0.006 A 
ATOM      3  C4  UNL d   1      -2.177  -1.021   1.511  0.00  0.00     0.002 A 
ATOM      4  C5  UNL d   1      -1.948  -2.401   1.504  0.00  0.00    -0.080 A 
ATOM      5  C6  UNL d   1      -2.942  -3.353   2.101  0.00  0.00     0.076 C 
ATOM      6  C7  UNL d   1      -0.770  -2.891   0.931  0.00  0.00     0.002 A 
ATOM      7  C8  UNL d   1       0.176  -2.014   0.396  0.00  0.00     0.006 A 
ENDROOT
BRANCH   1   8
ATOM      8  C1  UNL d   1       1.007   0.316  -0.099  0.00  0.00     0.054 C 
ATOM      9  C   UNL d   1       2.270   0.260   0.750  0.00  0.00     0.018 C 
ENDBRANCH   1   8
TORSDOF 1
ENDMDL
