MODEL 1
REMARK minimizedAffinity -4.61910868
REMARK minimizedRMSD -1
REMARK  1 active torsions:
REMARK  status: ('A' for Active; 'I' for Inactive)
REMARK    1  A    between atoms: C1_2  and  C2_3 
ROOT
ATOM      1  C2  UNL d   1      -2.052  -1.220   0.810  0.00  0.00    -0.081 A 
ATOM      2  C3  UNL d   1      -1.432  -1.976   1.812  0.00  0.00     0.006 A 
ATOM      3  C4  UNL d   1      -0.054  -2.204   1.777  0.00  0.00     0.002 A 
ATOM      4  C5  UNL d   1       0.727  -1.674   0.745  0.00  0.00    -0.080 A 
ATOM      5  C6  UNL d   1       2.211  -1.886   0.712  0.00  0.00     0.076 C 
ATOM      6  C7  UNL d   1       0.105  -0.933  -0.266  0.00  0.00     0.002 A 
ATOM      7  C8  UNL d   1      -1.272  -0.706  -0.232  0.00  0.00     0.006 A 
ENDROOT
BRANCH   1   8
ATOM      8  C1  UNL d   1      -3.527  -0.918   0.880  0.00  0.00     0.054 C 
ATOM      9  C   UNL d   1      -3.778   0.563   1.125  0.00  0.00     0.018 C 
ENDBRANCH   1   8
TORSDOF 1
ENDMDL
