MODEL 1
REMARK minimizedAffinity -5.039011
REMARK minimizedRMSD -1
REMARK  1 active torsions:
REMARK  status: ('A' for Active; 'I' for Inactive)
REMARK    1  A    between atoms: C1_2  and  C2_3 
ROOT
ATOM      1  C2  UNL d   1       0.782   0.911  -0.277  0.00  0.00    -0.081 A 
ATOM      2  C3  UNL d   1       1.513  -0.234   0.063  0.00  0.00     0.006 A 
ATOM      3  C4  UNL d   1       0.857  -1.426   0.377  0.00  0.00     0.002 A 
ATOM      4  C5  UNL d   1      -0.540  -1.495   0.349  0.00  0.00    -0.080 A 
ATOM      5  C6  UNL d   1      -1.256  -2.777   0.655  0.00  0.00     0.076 C 
ATOM      6  C7  UNL d   1      -1.271  -0.347   0.027  0.00  0.00     0.002 A 
ATOM      7  C8  UNL d   1      -0.615   0.846  -0.286  0.00  0.00     0.006 A 
ENDROOT
BRANCH   1   8
ATOM      8  C1  UNL d   1       1.489   2.181  -0.679  0.00  0.00     0.054 C 
ATOM      9  C   UNL d   1       1.343   2.446  -2.170  0.00  0.00     0.018 C 
ENDBRANCH   1   8
TORSDOF 1
ENDMDL
