MODEL 1
REMARK minimizedAffinity -4.20556402
REMARK minimizedRMSD -1
REMARK  1 active torsions:
REMARK  status: ('A' for Active; 'I' for Inactive)
REMARK    1  A    between atoms: C1_2  and  C2_3 
ROOT
ATOM      1  C2  UNL d   1       0.906   0.738  -0.743  0.00  0.00    -0.081 A 
ATOM      2  C3  UNL d   1       1.494  -0.434  -0.250  0.00  0.00     0.006 A 
ATOM      3  C4  UNL d   1       0.714  -1.407   0.378  0.00  0.00     0.002 A 
ATOM      4  C5  UNL d   1      -0.667  -1.230   0.517  0.00  0.00    -0.080 A 
ATOM      5  C6  UNL d   1      -1.520  -2.281   1.163  0.00  0.00     0.076 C 
ATOM      6  C7  UNL d   1      -1.252  -0.052   0.040  0.00  0.00     0.002 A 
ATOM      7  C8  UNL d   1      -0.472   0.922  -0.588  0.00  0.00     0.006 A 
ENDROOT
BRANCH   1   8
ATOM      8  C1  UNL d   1       1.734   1.760  -1.479  0.00  0.00     0.054 C 
ATOM      9  C   UNL d   1       1.237   1.952  -2.905  0.00  0.00     0.018 C 
ENDBRANCH   1   8
TORSDOF 1
ENDMDL
