MODEL 1
REMARK minimizedAffinity -5.31650686
REMARK minimizedRMSD -1
REMARK  1 active torsions:
REMARK  status: ('A' for Active; 'I' for Inactive)
REMARK    1  A    between atoms: C1_2  and  C2_3 
ROOT
ATOM      1  C2  UNL d   1       0.174   0.607   0.211  0.00  0.00    -0.081 A 
ATOM      2  C3  UNL d   1       0.866  -0.610   0.243  0.00  0.00     0.006 A 
ATOM      3  C4  UNL d   1       0.218  -1.782   0.641  0.00  0.00     0.002 A 
ATOM      4  C5  UNL d   1      -1.132  -1.759   1.006  0.00  0.00    -0.080 A 
ATOM      5  C6  UNL d   1      -1.847  -3.015   1.407  0.00  0.00     0.076 C 
ATOM      6  C7  UNL d   1      -1.818  -0.540   0.991  0.00  0.00     0.002 A 
ATOM      7  C8  UNL d   1      -1.171   0.633   0.594  0.00  0.00     0.006 A 
ENDROOT
BRANCH   1   8
ATOM      8  C1  UNL d   1       0.852   1.861  -0.280  0.00  0.00     0.054 C 
ATOM      9  C   UNL d   1       1.255   1.735  -1.742  0.00  0.00     0.018 C 
ENDBRANCH   1   8
TORSDOF 1
ENDMDL
