MODEL 1
REMARK minimizedAffinity -2.80547023
REMARK minimizedRMSD -1
REMARK  1 active torsions:
REMARK  status: ('A' for Active; 'I' for Inactive)
REMARK    1  A    between atoms: C1_2  and  C2_3 
ROOT
ATOM      1  C2  UNL d   1       1.617   1.772  -2.196  0.00  0.00    -0.081 A 
ATOM      2  C3  UNL d   1       2.853   2.381  -2.442  0.00  0.00     0.006 A 
ATOM      3  C4  UNL d   1       3.036   3.180  -3.574  0.00  0.00     0.002 A 
ATOM      4  C5  UNL d   1       1.984   3.388  -4.473  0.00  0.00    -0.080 A 
ATOM      5  C6  UNL d   1       2.158   4.267  -5.676  0.00  0.00     0.076 C 
ATOM      6  C7  UNL d   1       0.754   2.765  -4.236  0.00  0.00     0.002 A 
ATOM      7  C8  UNL d   1       0.572   1.966  -3.105  0.00  0.00     0.006 A 
ENDROOT
BRANCH   1   8
ATOM      8  C1  UNL d   1       1.398   0.963  -0.943  0.00  0.00     0.054 C 
ATOM      9  C   UNL d   1       0.013   1.208  -0.361  0.00  0.00     0.018 C 
ENDBRANCH   1   8
TORSDOF 1
ENDMDL
