MODEL 1
REMARK minimizedAffinity -3.97294044
REMARK minimizedRMSD -1
REMARK  1 active torsions:
REMARK  status: ('A' for Active; 'I' for Inactive)
REMARK    1  A    between atoms: C1_2  and  C2_3 
ROOT
ATOM      1  C2  UNL d   1       0.512   0.468  -0.441  0.00  0.00    -0.081 A 
ATOM      2  C3  UNL d   1       1.198  -0.703  -0.095  0.00  0.00     0.006 A 
ATOM      3  C4  UNL d   1       0.509  -1.798   0.430  0.00  0.00     0.002 A 
ATOM      4  C5  UNL d   1      -0.877  -1.745   0.610  0.00  0.00    -0.080 A 
ATOM      5  C6  UNL d   1      -1.633  -2.925   1.144  0.00  0.00     0.076 C 
ATOM      6  C7  UNL d   1      -1.560  -0.569   0.281  0.00  0.00     0.002 A 
ATOM      7  C8  UNL d   1      -0.872   0.527  -0.243  0.00  0.00     0.006 A 
ENDROOT
BRANCH   1   8
ATOM      8  C1  UNL d   1       1.243   1.628  -1.067  0.00  0.00     0.054 C 
ATOM      9  C   UNL d   1       0.823   1.830  -2.516  0.00  0.00     0.018 C 
ENDBRANCH   1   8
TORSDOF 1
ENDMDL
