MODEL 1
REMARK minimizedAffinity -3.4269197
REMARK minimizedRMSD -1
REMARK  1 active torsions:
REMARK  status: ('A' for Active; 'I' for Inactive)
REMARK    1  A    between atoms: C1_2  and  C2_3 
ROOT
ATOM      1  C2  UNL d   1       3.877   1.969  -2.532  0.00  0.00    -0.081 A 
ATOM      2  C3  UNL d   1       3.380   1.916  -3.840  0.00  0.00     0.006 A 
ATOM      3  C4  UNL d   1       2.012   2.054  -4.085  0.00  0.00     0.002 A 
ATOM      4  C5  UNL d   1       1.119   2.255  -3.027  0.00  0.00    -0.080 A 
ATOM      5  C6  UNL d   1      -0.349   2.436  -3.279  0.00  0.00     0.076 C 
ATOM      6  C7  UNL d   1       1.612   2.290  -1.719  0.00  0.00     0.002 A 
ATOM      7  C8  UNL d   1       2.980   2.152  -1.473  0.00  0.00     0.006 A 
ENDROOT
BRANCH   1   8
ATOM      8  C1  UNL d   1       5.359   1.885  -2.270  0.00  0.00     0.054 C 
ATOM      9  C   UNL d   1       5.995   3.267  -2.245  0.00  0.00     0.018 C 
ENDBRANCH   1   8
TORSDOF 1
ENDMDL
