MODEL 1
REMARK minimizedAffinity -5.16852427
REMARK minimizedRMSD -1
REMARK  1 active torsions:
REMARK  status: ('A' for Active; 'I' for Inactive)
REMARK    1  A    between atoms: C1_2  and  C2_3 
ROOT
ATOM      1  C2  UNL d   1      -0.076   0.813   0.301  0.00  0.00    -0.081 A 
ATOM      2  C3  UNL d   1      -1.376   0.967   0.796  0.00  0.00     0.006 A 
ATOM      3  C4  UNL d   1      -2.112  -0.146   1.211  0.00  0.00     0.002 A 
ATOM      4  C5  UNL d   1      -1.558  -1.428   1.144  0.00  0.00    -0.080 A 
ATOM      5  C6  UNL d   1      -2.326  -2.628   1.614  0.00  0.00     0.076 C 
ATOM      6  C7  UNL d   1      -0.265  -1.584   0.633  0.00  0.00     0.002 A 
ATOM      7  C8  UNL d   1       0.471  -0.472   0.218  0.00  0.00     0.006 A 
ENDROOT
BRANCH   1   8
ATOM      8  C1  UNL d   1       0.745   2.017  -0.086  0.00  0.00     0.054 C 
ATOM      9  C   UNL d   1       0.639   2.302  -1.577  0.00  0.00     0.018 C 
ENDBRANCH   1   8
TORSDOF 1
ENDMDL
