MODEL 1
REMARK minimizedAffinity -4.56071281
REMARK minimizedRMSD -1
REMARK  1 active torsions:
REMARK  status: ('A' for Active; 'I' for Inactive)
REMARK    1  A    between atoms: C1_2  and  C2_3 
ROOT
ATOM      1  C2  UNL d   1       0.366   0.622  -0.429  0.00  0.00    -0.081 A 
ATOM      2  C3  UNL d   1       1.029  -0.581  -0.157  0.00  0.00     0.006 A 
ATOM      3  C4  UNL d   1       0.314  -1.701   0.276  0.00  0.00     0.002 A 
ATOM      4  C5  UNL d   1      -1.074  -1.639   0.436  0.00  0.00    -0.080 A 
ATOM      5  C6  UNL d   1      -1.857  -2.842   0.871  0.00  0.00     0.076 C 
ATOM      6  C7  UNL d   1      -1.734  -0.432   0.181  0.00  0.00     0.002 A 
ATOM      7  C8  UNL d   1      -1.020   0.688  -0.252  0.00  0.00     0.006 A 
ENDROOT
BRANCH   1   8
ATOM      8  C1  UNL d   1       1.125   1.812  -0.958  0.00  0.00     0.054 C 
ATOM      9  C   UNL d   1       1.205   1.787  -2.478  0.00  0.00     0.018 C 
ENDBRANCH   1   8
TORSDOF 1
ENDMDL
