MODEL 1
REMARK minimizedAffinity -4.63979435
REMARK minimizedRMSD -1
REMARK  0 active torsions:
REMARK  status: ('A' for Active; 'I' for Inactive)
ROOT
ATOM      1  N1  IND d   1       0.749  -0.414  -0.127  0.00  0.00    -0.196 N 
ATOM      2  C2  IND d   1      -0.320  -0.388  -0.979  0.00  0.00     0.054 A 
ATOM      3  C3  IND d   1      -1.423   0.057  -0.336  0.00  0.00    -0.031 A 
ATOM      4  C4  IND d   1      -1.679   0.893   2.085  0.00  0.00     0.051 A 
ATOM      5  C5  IND d   1      -0.990   1.025   3.258  0.00  0.00    -0.031 A 
ATOM      6  C6  IND d   1       0.342   0.679   3.364  0.00  0.00     0.015 A 
ATOM      7  C7  IND d   1       1.040   0.197   2.293  0.00  0.00    -0.016 A 
ATOM      8  C8  IND d   1       0.341   0.056   1.102  0.00  0.00    -0.047 A 
ATOM      9  C9  IND d   1      -1.021   0.365   1.000  0.00  0.00    -0.096 A 
ATOM     10  HN1 IND d   1       1.542  -0.679  -0.326  0.00  0.00     0.298 HD
ENDROOT
TORSDOF 0
ENDMDL
