MODEL 1
REMARK minimizedAffinity -6.35415554
REMARK minimizedRMSD -1
REMARK  0 active torsions:
REMARK  status: ('A' for Active; 'I' for Inactive)
ROOT
ATOM      1  N1  IND d   1       1.235  -0.688   0.021  0.00  0.00    -0.196 N 
ATOM      2  C2  IND d   1       0.310  -0.375  -0.935  0.00  0.00     0.054 A 
ATOM      3  C3  IND d   1      -0.731   0.288  -0.383  0.00  0.00    -0.031 A 
ATOM      4  C4  IND d   1      -1.077   1.055   2.050  0.00  0.00     0.051 A 
ATOM      5  C5  IND d   1      -0.521   0.969   3.296  0.00  0.00    -0.031 A 
ATOM      6  C6  IND d   1       0.674   0.316   3.518  0.00  0.00     0.015 A 
ATOM      7  C7  IND d   1       1.367  -0.269   2.495  0.00  0.00    -0.016 A 
ATOM      8  C8  IND d   1       0.802  -0.190   1.230  0.00  0.00    -0.047 A 
ATOM      9  C9  IND d   1      -0.432   0.435   1.006  0.00  0.00    -0.096 A 
ATOM     10  HN1 IND d   1       1.965  -1.123  -0.110  0.00  0.00     0.298 HD
ENDROOT
TORSDOF 0
ENDMDL
