MODEL 1
REMARK minimizedAffinity -4.14298773
REMARK minimizedRMSD -1
REMARK  0 active torsions:
REMARK  status: ('A' for Active; 'I' for Inactive)
ROOT
ATOM      1  N1  IND d   1       1.842  -0.645   1.692  0.00  0.00    -0.196 N 
ATOM      2  C2  IND d   1       1.987  -0.257   2.995  0.00  0.00     0.054 A 
ATOM      3  C3  IND d   1       0.881   0.398   3.416  0.00  0.00    -0.031 A 
ATOM      4  C4  IND d   1      -1.323   0.857   2.168  0.00  0.00     0.051 A 
ATOM      5  C5  IND d   1      -1.914   0.728   0.943  0.00  0.00    -0.031 A 
ATOM      6  C6  IND d   1      -1.272   0.119  -0.116  0.00  0.00     0.015 A 
ATOM      7  C7  IND d   1      -0.013  -0.395   0.015  0.00  0.00    -0.016 A 
ATOM      8  C8  IND d   1       0.593  -0.258   1.256  0.00  0.00    -0.047 A 
ATOM      9  C9  IND d   1      -0.037   0.396   2.322  0.00  0.00    -0.096 A 
ATOM     10  HN1 IND d   1       2.431  -1.060   1.223  0.00  0.00     0.298 HD
ENDROOT
TORSDOF 0
ENDMDL
