MODEL 1
REMARK minimizedAffinity -4.71025181
REMARK minimizedRMSD -1
REMARK  1 active torsions:
REMARK  status: ('A' for Active; 'I' for Inactive)
REMARK    1  A    between atoms: C3_4  and  O_7 
ROOT
ATOM      1  C   UNL d   1       3.448  -0.413   0.369  0.00  0.00    -0.033 A 
ATOM      2  C1  UNL d   1       3.176   0.956   0.403  0.00  0.00     0.039 A 
ATOM      3  C2  UNL d   1       1.859   1.410   0.301  0.00  0.00    -0.080 A 
ATOM      4  C3  UNL d   1       0.826   0.486   0.167  0.00  0.00     0.150 A 
ATOM      5  C4  UNL d   1       1.090  -0.879   0.137  0.00  0.00    -0.007 A 
ATOM      6  C5  UNL d   1       2.406  -1.331   0.238  0.00  0.00     0.039 A 
ENDROOT
BRANCH   4   7
ATOM      7  O   UNL d   1      -0.474   0.882   0.060  0.00  0.00    -0.526 OA
ATOM      8  H5  UNL d   1      -0.501   1.853   0.067  0.00  0.00     0.418 HD
ENDBRANCH   4   7
TORSDOF 1
ENDMDL
