MODEL 1
REMARK minimizedAffinity -3.42580771
REMARK minimizedRMSD -1
REMARK  1 active torsions:
REMARK  status: ('A' for Active; 'I' for Inactive)
REMARK    1  A    between atoms: C3_4  and  O_7 
ROOT
ATOM      1  C   UNL d   1      -0.814   0.747  -0.119  0.00  0.00    -0.033 A 
ATOM      2  C1  UNL d   1       0.283   1.386   0.461  0.00  0.00     0.039 A 
ATOM      3  C2  UNL d   1       1.422   0.653   0.800  0.00  0.00    -0.080 A 
ATOM      4  C3  UNL d   1       1.452  -0.716   0.552  0.00  0.00     0.150 A 
ATOM      5  C4  UNL d   1       0.364  -1.359  -0.030  0.00  0.00    -0.007 A 
ATOM      6  C5  UNL d   1      -0.773  -0.626  -0.366  0.00  0.00     0.039 A 
ENDROOT
BRANCH   4   7
ATOM      7  O   UNL d   1       2.539  -1.475   0.869  0.00  0.00    -0.526 OA
ATOM      8  H5  UNL d   1       3.202  -0.901   1.290  0.00  0.00     0.418 HD
ENDBRANCH   4   7
TORSDOF 1
ENDMDL
