MODEL 1
REMARK minimizedAffinity -5.41972733
REMARK minimizedRMSD -1
REMARK  1 active torsions:
REMARK  status: ('A' for Active; 'I' for Inactive)
REMARK    1  A    between atoms: C3_4  and  O_7 
ROOT
ATOM      1  C   UNL d   1      -0.038  -0.228  -0.837  0.00  0.00    -0.033 A 
ATOM      2  C1  UNL d   1       0.300  -1.581  -0.910  0.00  0.00     0.039 A 
ATOM      3  C2  UNL d   1       1.320  -2.091  -0.105  0.00  0.00    -0.080 A 
ATOM      4  C3  UNL d   1       1.993  -1.240   0.768  0.00  0.00     0.150 A 
ATOM      5  C4  UNL d   1       1.659   0.107   0.848  0.00  0.00    -0.007 A 
ATOM      6  C5  UNL d   1       0.641   0.616   0.043  0.00  0.00     0.039 A 
ENDROOT
BRANCH   4   7
ATOM      7  O   UNL d   1       2.999  -1.692   1.570  0.00  0.00    -0.526 OA
ATOM      8  H5  UNL d   1       3.139  -2.636   1.386  0.00  0.00     0.418 HD
ENDBRANCH   4   7
TORSDOF 1
ENDMDL
