MODEL 1
REMARK minimizedAffinity -3.06879067
REMARK minimizedRMSD -1
REMARK  1 active torsions:
REMARK  status: ('A' for Active; 'I' for Inactive)
REMARK    1  A    between atoms: C3_4  and  O_7 
ROOT
ATOM      1  C   UNL d   1       0.524  -1.901  -0.607  0.00  0.00    -0.033 A 
ATOM      2  C1  UNL d   1       1.910  -1.878  -0.772  0.00  0.00     0.039 A 
ATOM      3  C2  UNL d   1       2.684  -0.963  -0.056  0.00  0.00    -0.080 A 
ATOM      4  C3  UNL d   1       2.061  -0.078   0.820  0.00  0.00     0.150 A 
ATOM      5  C4  UNL d   1       0.681  -0.099   0.992  0.00  0.00    -0.007 A 
ATOM      6  C5  UNL d   1      -0.091  -1.013   0.276  0.00  0.00     0.039 A 
ENDROOT
BRANCH   4   7
ATOM      7  O   UNL d   1       2.775   0.836   1.536  0.00  0.00    -0.526 OA
ATOM      8  H5  UNL d   1       3.712   0.753   1.294  0.00  0.00     0.418 HD
ENDBRANCH   4   7
TORSDOF 1
ENDMDL
