MODEL 1
REMARK minimizedAffinity -2.23993182
REMARK minimizedRMSD -1
REMARK  1 active torsions:
REMARK  status: ('A' for Active; 'I' for Inactive)
REMARK    1  A    between atoms: C3_4  and  O_7 
ROOT
ATOM      1  C   UNL d   1      -0.670   0.596  -0.401  0.00  0.00    -0.033 A 
ATOM      2  C1  UNL d   1       0.528   1.084   0.125  0.00  0.00     0.039 A 
ATOM      3  C2  UNL d   1       1.528   0.197   0.528  0.00  0.00    -0.080 A 
ATOM      4  C3  UNL d   1       1.319  -1.174   0.399  0.00  0.00     0.150 A 
ATOM      5  C4  UNL d   1       0.129  -1.666  -0.128  0.00  0.00    -0.007 A 
ATOM      6  C5  UNL d   1      -0.869  -0.779  -0.529  0.00  0.00     0.039 A 
ENDROOT
BRANCH   4   7
ATOM      7  O   UNL d   1       2.263  -2.078   0.783  0.00  0.00    -0.526 OA
ATOM      8  H5  UNL d   1       3.020  -1.594   1.154  0.00  0.00     0.418 HD
ENDBRANCH   4   7
TORSDOF 1
ENDMDL
