MODEL 1
REMARK minimizedAffinity -2.59620047
REMARK minimizedRMSD -1
REMARK  0 active torsions:
REMARK  status: ('A' for Active; 'I' for Inactive)
ROOT
ATOM      1  C   UNL d   1      -1.519  -1.212  -2.727  0.00  0.00     0.172 C 
ATOM      2  N   UNL d   1      -1.142  -0.896  -1.369  0.00  0.00    -0.070 N 
ATOM      3  C1  UNL d   1      -0.779   0.342  -0.910  0.00  0.00    -0.004 A 
ATOM      4  C2  UNL d   1      -0.495   0.227   0.434  0.00  0.00    -0.047 A 
ATOM      5  C3  UNL d   1      -0.694  -1.127   0.794  0.00  0.00    -0.047 A 
ATOM      6  C4  UNL d   1      -1.093  -1.800  -0.341  0.00  0.00    -0.004 A 
ENDROOT
TORSDOF 0
ENDMDL
