MODEL 1
REMARK minimizedAffinity 1.52759743
REMARK minimizedRMSD -1
REMARK  0 active torsions:
REMARK  status: ('A' for Active; 'I' for Inactive)
ROOT
ATOM      1  C   UNL d   1      -0.183  -0.796  -0.521  0.00  0.00     0.172 C 
ATOM      2  N   UNL d   1       0.120   0.198   0.482  0.00  0.00    -0.070 N 
ATOM      3  C1  UNL d   1       1.367   0.488   0.967  0.00  0.00    -0.004 A 
ATOM      4  C2  UNL d   1       1.233   1.490   1.904  0.00  0.00    -0.047 A 
ATOM      5  C3  UNL d   1      -0.142   1.812   1.986  0.00  0.00    -0.047 A 
ATOM      6  C4  UNL d   1      -0.808   0.998   1.095  0.00  0.00    -0.004 A 
ENDROOT
TORSDOF 0
ENDMDL
