MODEL 1
REMARK minimizedAffinity -2.92434621
REMARK minimizedRMSD -1
REMARK  0 active torsions:
REMARK  status: ('A' for Active; 'I' for Inactive)
ROOT
ATOM      1  C   UNL d   1      -0.806  -1.528  -0.732  0.00  0.00     0.172 C 
ATOM      2  N   UNL d   1      -0.037  -0.337  -0.456  0.00  0.00    -0.070 N 
ATOM      3  C1  UNL d   1      -0.417   0.685   0.372  0.00  0.00    -0.004 A 
ATOM      4  C2  UNL d   1       0.587   1.629   0.366  0.00  0.00    -0.047 A 
ATOM      5  C3  UNL d   1       1.605   1.159  -0.497  0.00  0.00    -0.047 A 
ATOM      6  C4  UNL d   1       1.192  -0.060  -0.993  0.00  0.00    -0.004 A 
ENDROOT
TORSDOF 0
ENDMDL
