MODEL 1
REMARK minimizedAffinity -3.17005324
REMARK minimizedRMSD -1
REMARK  0 active torsions:
REMARK  status: ('A' for Active; 'I' for Inactive)
ROOT
ATOM      1  C   UNL d   1       0.524   1.384   3.132  0.00  0.00     0.172 C 
ATOM      2  N   UNL d   1       0.239   1.011   1.766  0.00  0.00    -0.070 N 
ATOM      3  C1  UNL d   1       1.022   1.297   0.680  0.00  0.00    -0.004 A 
ATOM      4  C2  UNL d   1       0.407   0.770  -0.435  0.00  0.00    -0.047 A 
ATOM      5  C3  UNL d   1      -0.789   0.147  -0.004  0.00  0.00    -0.047 A 
ATOM      6  C4  UNL d   1      -0.868   0.311   1.363  0.00  0.00    -0.004 A 
ENDROOT
TORSDOF 0
ENDMDL
