MODEL 1
REMARK minimizedAffinity -3.19748664
REMARK minimizedRMSD -1
REMARK  0 active torsions:
REMARK  status: ('A' for Active; 'I' for Inactive)
ROOT
ATOM      1  C   UNL d   1      -0.214  -0.643  -0.380  0.00  0.00     0.172 C 
ATOM      2  N   UNL d   1      -0.072   0.520   0.465  0.00  0.00    -0.070 N 
ATOM      3  C1  UNL d   1      -0.435   0.598   1.783  0.00  0.00    -0.004 A 
ATOM      4  C2  UNL d   1      -0.139   1.868   2.228  0.00  0.00    -0.047 A 
ATOM      5  C3  UNL d   1       0.421   2.578   1.139  0.00  0.00    -0.047 A 
ATOM      6  C4  UNL d   1       0.450   1.720   0.060  0.00  0.00    -0.004 A 
ENDROOT
TORSDOF 0
ENDMDL
