MODEL 1
REMARK minimizedAffinity -2.96166396
REMARK minimizedRMSD -1
REMARK  0 active torsions:
REMARK  status: ('A' for Active; 'I' for Inactive)
ROOT
ATOM      1  C   UNL d   1      -4.920  -2.638  -1.335  0.00  0.00     0.172 C 
ATOM      2  N   UNL d   1      -3.719  -2.112  -1.941  0.00  0.00    -0.070 N 
ATOM      3  C1  UNL d   1      -3.647  -1.480  -3.153  0.00  0.00    -0.004 A 
ATOM      4  C2  UNL d   1      -2.332  -1.131  -3.370  0.00  0.00    -0.047 A 
ATOM      5  C3  UNL d   1      -1.587  -1.569  -2.249  0.00  0.00    -0.047 A 
ATOM      6  C4  UNL d   1      -2.471  -2.173  -1.380  0.00  0.00    -0.004 A 
ENDROOT
TORSDOF 0
ENDMDL
