MODEL 1
REMARK minimizedAffinity -4.06428146
REMARK minimizedRMSD -1
REMARK  0 active torsions:
REMARK  status: ('A' for Active; 'I' for Inactive)
ROOT
ATOM      1  C   UNL d   1      -1.532   0.426   2.291  0.00  0.00     0.172 C 
ATOM      2  N   UNL d   1      -0.389   1.209   1.886  0.00  0.00    -0.070 N 
ATOM      3  C1  UNL d   1       0.090   2.318   2.532  0.00  0.00    -0.004 A 
ATOM      4  C2  UNL d   1       1.187   2.773   1.834  0.00  0.00    -0.047 A 
ATOM      5  C3  UNL d   1       1.374   1.909   0.729  0.00  0.00    -0.047 A 
ATOM      6  C4  UNL d   1       0.385   0.950   0.785  0.00  0.00    -0.004 A 
ENDROOT
TORSDOF 0
ENDMDL
