MODEL 1
REMARK minimizedAffinity -2.99377179
REMARK minimizedRMSD -1
REMARK  0 active torsions:
REMARK  status: ('A' for Active; 'I' for Inactive)
ROOT
ATOM      1  C   UNL d   1      -0.941  -0.646   0.408  0.00  0.00     0.172 C 
ATOM      2  N   UNL d   1      -1.263  -1.149  -0.907  0.00  0.00    -0.070 N 
ATOM      3  C1  UNL d   1      -2.468  -1.677  -1.286  0.00  0.00    -0.004 A 
ATOM      4  C2  UNL d   1      -2.372  -2.038  -2.613  0.00  0.00    -0.047 A 
ATOM      5  C3  UNL d   1      -1.064  -1.716  -3.046  0.00  0.00    -0.047 A 
ATOM      6  C4  UNL d   1      -0.399  -1.167  -1.970  0.00  0.00    -0.004 A 
ENDROOT
TORSDOF 0
ENDMDL
