MODEL 1
REMARK minimizedAffinity -3.79547024
REMARK minimizedRMSD -1
REMARK  0 active torsions:
REMARK  status: ('A' for Active; 'I' for Inactive)
ROOT
ATOM      1  C   UNL d   1      -0.587  -0.776  -0.713  0.00  0.00     0.172 C 
ATOM      2  N   UNL d   1      -0.167   0.347   0.092  0.00  0.00    -0.070 N 
ATOM      3  C1  UNL d   1       0.907   1.156  -0.166  0.00  0.00    -0.004 A 
ATOM      4  C2  UNL d   1       0.969   2.106   0.831  0.00  0.00    -0.047 A 
ATOM      5  C3  UNL d   1      -0.104   1.858   1.719  0.00  0.00    -0.047 A 
ATOM      6  C4  UNL d   1      -0.791   0.764   1.238  0.00  0.00    -0.004 A 
ENDROOT
TORSDOF 0
ENDMDL
