MODEL 1
REMARK minimizedAffinity -3.40211892
REMARK minimizedRMSD -1
REMARK  0 active torsions:
REMARK  status: ('A' for Active; 'I' for Inactive)
ROOT
ATOM      1  C   UNL d   1       1.234   2.063   0.421  0.00  0.00     0.172 C 
ATOM      2  N   UNL d   1       0.453   0.848   0.433  0.00  0.00    -0.070 N 
ATOM      3  C1  UNL d   1       0.559  -0.177  -0.469  0.00  0.00    -0.004 A 
ATOM      4  C2  UNL d   1      -0.354  -1.146  -0.114  0.00  0.00    -0.047 A 
ATOM      5  C3  UNL d   1      -1.033  -0.687   1.040  0.00  0.00    -0.047 A 
ATOM      6  C4  UNL d   1      -0.513   0.550   1.357  0.00  0.00    -0.004 A 
ENDROOT
TORSDOF 0
ENDMDL
