MODEL 1
REMARK minimizedAffinity -3.93744159
REMARK minimizedRMSD -1
REMARK  0 active torsions:
REMARK  status: ('A' for Active; 'I' for Inactive)
ROOT
ATOM      1  C   UNL d   1      -0.602  -0.113   1.449  0.00  0.00     0.172 C 
ATOM      2  N   UNL d   1       0.478   0.726   0.987  0.00  0.00    -0.070 N 
ATOM      3  C1  UNL d   1       1.323   0.440  -0.052  0.00  0.00    -0.004 A 
ATOM      4  C2  UNL d   1       2.211   1.487  -0.175  0.00  0.00    -0.047 A 
ATOM      5  C3  UNL d   1       1.889   2.435   0.825  0.00  0.00    -0.047 A 
ATOM      6  C4  UNL d   1       0.813   1.939   1.530  0.00  0.00    -0.004 A 
ENDROOT
TORSDOF 0
ENDMDL
