MODEL 1
REMARK minimizedAffinity -3.09984112
REMARK minimizedRMSD -1
REMARK  0 active torsions:
REMARK  status: ('A' for Active; 'I' for Inactive)
ROOT
ATOM      1  C   UNL d   1      -0.462  -0.207  -0.545  0.00  0.00     0.172 C 
ATOM      2  N   UNL d   1      -0.060   0.757   0.452  0.00  0.00    -0.070 N 
ATOM      3  C1  UNL d   1      -0.715   1.009   1.628  0.00  0.00    -0.004 A 
ATOM      4  C2  UNL d   1      -0.017   1.991   2.297  0.00  0.00    -0.047 A 
ATOM      5  C3  UNL d   1       1.095   2.342   1.496  0.00  0.00    -0.047 A 
ATOM      6  C4  UNL d   1       1.044   1.563   0.359  0.00  0.00    -0.004 A 
ENDROOT
TORSDOF 0
ENDMDL
