MODEL 1
REMARK minimizedAffinity -3.07751465
REMARK minimizedRMSD -1
REMARK  0 active torsions:
REMARK  status: ('A' for Active; 'I' for Inactive)
ROOT
ATOM      1  C   UNL d   1      -0.031  -1.762  -0.427  0.00  0.00     0.172 C 
ATOM      2  N   UNL d   1       0.565  -0.462  -0.228  0.00  0.00    -0.070 N 
ATOM      3  C1  UNL d   1      -0.041   0.610   0.372  0.00  0.00    -0.004 A 
ATOM      4  C2  UNL d   1       0.855   1.657   0.368  0.00  0.00    -0.047 A 
ATOM      5  C3  UNL d   1       2.039   1.199  -0.256  0.00  0.00    -0.047 A 
ATOM      6  C4  UNL d   1       1.832  -0.116  -0.615  0.00  0.00    -0.004 A 
ENDROOT
TORSDOF 0
ENDMDL
