MODEL 1
REMARK minimizedAffinity -3.55520797
REMARK minimizedRMSD -1
REMARK  0 active torsions:
REMARK  status: ('A' for Active; 'I' for Inactive)
ROOT
ATOM      1  C   UNL d   1       0.717  -0.561  -0.498  0.00  0.00     0.172 C 
ATOM      2  N   UNL d   1       0.822   0.702   0.193  0.00  0.00    -0.070 N 
ATOM      3  C1  UNL d   1       1.506   1.802  -0.252  0.00  0.00    -0.004 A 
ATOM      4  C2  UNL d   1       1.364   2.797   0.690  0.00  0.00    -0.047 A 
ATOM      5  C3  UNL d   1       0.568   2.277   1.739  0.00  0.00    -0.047 A 
ATOM      6  C4  UNL d   1       0.247   0.978   1.405  0.00  0.00    -0.004 A 
ENDROOT
TORSDOF 0
ENDMDL
