MODEL 1
REMARK minimizedAffinity -3.03800845
REMARK minimizedRMSD -1
REMARK  0 active torsions:
REMARK  status: ('A' for Active; 'I' for Inactive)
ROOT
ATOM      1  C   UNL d   1      -0.328  -0.372  -0.357  0.00  0.00     0.172 C 
ATOM      2  N   UNL d   1      -0.084   0.580   0.701  0.00  0.00    -0.070 N 
ATOM      3  C1  UNL d   1      -0.660   0.559   1.943  0.00  0.00    -0.004 A 
ATOM      4  C2  UNL d   1      -0.169   1.631   2.655  0.00  0.00    -0.047 A 
ATOM      5  C3  UNL d   1       0.734   2.322   1.812  0.00  0.00    -0.047 A 
ATOM      6  C4  UNL d   1       0.768   1.650   0.608  0.00  0.00    -0.004 A 
ENDROOT
TORSDOF 0
ENDMDL
