MODEL 1
REMARK minimizedAffinity 7.18758869
REMARK minimizedRMSD -1
REMARK  0 active torsions:
REMARK  status: ('A' for Active; 'I' for Inactive)
ROOT
ATOM      1  C1  BNZ d   1      -4.486   1.853   5.872  0.00  0.00     0.000 A 
ATOM      2  C2  BNZ d   1      -3.739   2.993   6.000  0.00  0.00     0.000 A 
ATOM      3  C3  BNZ d   1      -3.104   3.540   4.919  0.00  0.00     0.000 A 
ATOM      4  C4  BNZ d   1      -3.185   2.924   3.722  0.00  0.00     0.000 A 
ATOM      5  C5  BNZ d   1      -3.928   1.769   3.579  0.00  0.00     0.000 A 
ATOM      6  C6  BNZ d   1      -4.597   1.243   4.660  0.00  0.00     0.000 A 
ENDROOT
TORSDOF 0
ENDMDL
