MODEL 1
REMARK minimizedAffinity 8.24308205
REMARK minimizedRMSD -1
REMARK  0 active torsions:
REMARK  status: ('A' for Active; 'I' for Inactive)
ROOT
ATOM      1  C1  BNZ d   1      -3.688   0.924  -1.652  0.00  0.00     0.000 A 
ATOM      2  C2  BNZ d   1      -3.472   2.021  -2.444  0.00  0.00     0.000 A 
ATOM      3  C3  BNZ d   1      -2.370   2.097  -3.248  0.00  0.00     0.000 A 
ATOM      4  C4  BNZ d   1      -1.466   1.097  -3.231  0.00  0.00     0.000 A 
ATOM      5  C5  BNZ d   1      -1.664  -0.011  -2.432  0.00  0.00     0.000 A 
ATOM      6  C6  BNZ d   1      -2.795  -0.102  -1.652  0.00  0.00     0.000 A 
ENDROOT
TORSDOF 0
ENDMDL
