MODEL 1
REMARK minimizedAffinity 5.6048975
REMARK minimizedRMSD -1
REMARK  0 active torsions:
REMARK  status: ('A' for Active; 'I' for Inactive)
ROOT
ATOM      1  C1  BNZ d   1      -3.647   1.492   3.002  0.00  0.00     0.000 A 
ATOM      2  C2  BNZ d   1      -3.648   1.885   4.314  0.00  0.00     0.000 A 
ATOM      3  C3  BNZ d   1      -4.817   2.202   4.948  0.00  0.00     0.000 A 
ATOM      4  C4  BNZ d   1      -5.976   2.164   4.260  0.00  0.00     0.000 A 
ATOM      5  C5  BNZ d   1      -5.990   1.779   2.934  0.00  0.00     0.000 A 
ATOM      6  C6  BNZ d   1      -4.816   1.423   2.310  0.00  0.00     0.000 A 
ENDROOT
TORSDOF 0
ENDMDL
