MODEL 1
REMARK minimizedAffinity 0.268454999
REMARK minimizedRMSD -1
REMARK  0 active torsions:
REMARK  status: ('A' for Active; 'I' for Inactive)
ROOT
ATOM      1  C1  BNZ d   1       5.002  -5.660   5.371  0.00  0.00     0.000 A 
ATOM      2  C2  BNZ d   1       4.011  -4.975   4.720  0.00  0.00     0.000 A 
ATOM      3  C3  BNZ d   1       4.013  -3.609   4.681  0.00  0.00     0.000 A 
ATOM      4  C4  BNZ d   1       4.983  -2.929   5.326  0.00  0.00     0.000 A 
ATOM      5  C5  BNZ d   1       5.984  -3.605   5.995  0.00  0.00     0.000 A 
ATOM      6  C6  BNZ d   1       6.000  -4.981   6.000  0.00  0.00     0.000 A 
ENDROOT
TORSDOF 0
ENDMDL
