MODEL 1
REMARK minimizedAffinity 5.37826872
REMARK minimizedRMSD -1
REMARK  0 active torsions:
REMARK  status: ('A' for Active; 'I' for Inactive)
ROOT
ATOM      1  C1  BNZ d   1       1.997  -3.487  -0.809  0.00  0.00     0.000 A 
ATOM      2  C2  BNZ d   1       2.788  -2.848   0.108  0.00  0.00     0.000 A 
ATOM      3  C3  BNZ d   1       2.390  -1.669   0.674  0.00  0.00     0.000 A 
ATOM      4  C4  BNZ d   1       1.223  -1.111   0.292  0.00  0.00     0.000 A 
ATOM      5  C5  BNZ d   1       0.419  -1.739  -0.639  0.00  0.00     0.000 A 
ATOM      6  C6  BNZ d   1       0.805  -2.945  -1.177  0.00  0.00     0.000 A 
ENDROOT
TORSDOF 0
ENDMDL
