MODEL 1
REMARK minimizedAffinity -0.610788763
REMARK minimizedRMSD -1
REMARK  0 active torsions:
REMARK  status: ('A' for Active; 'I' for Inactive)
ROOT
ATOM      1  C1  BNZ d   1       1.065  -3.765  -0.194  0.00  0.00     0.000 A 
ATOM      2  C2  BNZ d   1       2.175  -4.429  -0.643  0.00  0.00     0.000 A 
ATOM      3  C3  BNZ d   1       3.423  -4.083  -0.205  0.00  0.00     0.000 A 
ATOM      4  C4  BNZ d   1       3.562  -3.048   0.649  0.00  0.00     0.000 A 
ATOM      5  C5  BNZ d   1       2.453  -2.363   1.103  0.00  0.00     0.000 A 
ATOM      6  C6  BNZ d   1       1.196  -2.739   0.690  0.00  0.00     0.000 A 
ENDROOT
TORSDOF 0
ENDMDL
