MODEL 1
REMARK minimizedAffinity 6.10811615
REMARK minimizedRMSD -1
REMARK  0 active torsions:
REMARK  status: ('A' for Active; 'I' for Inactive)
ROOT
ATOM      1  C1  BNZ d   1       2.301  -2.418   0.819  0.00  0.00     0.000 A 
ATOM      2  C2  BNZ d   1       3.251  -1.573   1.325  0.00  0.00     0.000 A 
ATOM      3  C3  BNZ d   1       2.926  -0.640   2.270  0.00  0.00     0.000 A 
ATOM      4  C4  BNZ d   1       1.646  -0.527   2.678  0.00  0.00     0.000 A 
ATOM      5  C5  BNZ d   1       0.674  -1.366   2.170  0.00  0.00     0.000 A 
ATOM      6  C6  BNZ d   1       1.012  -2.330   1.247  0.00  0.00     0.000 A 
ENDROOT
TORSDOF 0
ENDMDL
