MODEL 1
REMARK minimizedAffinity 7.76726198
REMARK minimizedRMSD -1
REMARK  0 active torsions:
REMARK  status: ('A' for Active; 'I' for Inactive)
ROOT
ATOM      1  C1  BNZ d   1      -3.666  -0.065   1.979  0.00  0.00     0.000 A 
ATOM      2  C2  BNZ d   1      -3.026  -1.210   1.587  0.00  0.00     0.000 A 
ATOM      3  C3  BNZ d   1      -1.930  -1.667   2.264  0.00  0.00     0.000 A 
ATOM      4  C4  BNZ d   1      -1.452  -0.958   3.307  0.00  0.00     0.000 A 
ATOM      5  C5  BNZ d   1      -2.081   0.203   3.709  0.00  0.00     0.000 A 
ATOM      6  C6  BNZ d   1      -3.207   0.640   3.049  0.00  0.00     0.000 A 
ENDROOT
TORSDOF 0
ENDMDL
