MODEL 1
REMARK minimizedAffinity 7.89224482
REMARK minimizedRMSD -1
REMARK  0 active torsions:
REMARK  status: ('A' for Active; 'I' for Inactive)
ROOT
ATOM      1  C1  BNZ d   1       5.625  -1.220  -1.141  0.00  0.00     0.000 A 
ATOM      2  C2  BNZ d   1       5.825  -0.855  -2.445  0.00  0.00     0.000 A 
ATOM      3  C3  BNZ d   1       5.999   0.457  -2.787  0.00  0.00     0.000 A 
ATOM      4  C4  BNZ d   1       5.932   1.405  -1.830  0.00  0.00     0.000 A 
ATOM      5  C5  BNZ d   1       5.721   1.054  -0.511  0.00  0.00     0.000 A 
ATOM      6  C6  BNZ d   1       5.586  -0.271  -0.166  0.00  0.00     0.000 A 
ENDROOT
TORSDOF 0
ENDMDL
