MODEL 1
REMARK minimizedAffinity 0.111317568
REMARK minimizedRMSD -1
REMARK  0 active torsions:
REMARK  status: ('A' for Active; 'I' for Inactive)
ROOT
ATOM      1  C1  BNZ d   1       2.284  -1.521   0.140  0.00  0.00     0.000 A 
ATOM      2  C2  BNZ d   1       1.576  -0.968   1.173  0.00  0.00     0.000 A 
ATOM      3  C3  BNZ d   1       1.540  -1.571   2.399  0.00  0.00     0.000 A 
ATOM      4  C4  BNZ d   1       2.178  -2.746   2.579  0.00  0.00     0.000 A 
ATOM      5  C5  BNZ d   1       2.888  -3.321   1.545  0.00  0.00     0.000 A 
ATOM      6  C6  BNZ d   1       2.955  -2.691   0.323  0.00  0.00     0.000 A 
ENDROOT
TORSDOF 0
ENDMDL
