MODEL 1
REMARK minimizedAffinity 6.03743601
REMARK minimizedRMSD -1
REMARK  0 active torsions:
REMARK  status: ('A' for Active; 'I' for Inactive)
ROOT
ATOM      1  C1  BNZ d   1      -4.891   1.934   3.199  0.00  0.00     0.000 A 
ATOM      2  C2  BNZ d   1      -3.779   2.313   3.904  0.00  0.00     0.000 A 
ATOM      3  C3  BNZ d   1      -3.761   2.250   5.269  0.00  0.00     0.000 A 
ATOM      4  C4  BNZ d   1      -4.866   1.848   5.929  0.00  0.00     0.000 A 
ATOM      5  C5  BNZ d   1      -5.998   1.473   5.234  0.00  0.00     0.000 A 
ATOM      6  C6  BNZ d   1      -5.999   1.500   3.858  0.00  0.00     0.000 A 
ENDROOT
TORSDOF 0
ENDMDL
