MODEL 1
REMARK minimizedAffinity -0.265891761
REMARK minimizedRMSD -1
REMARK  0 active torsions:
REMARK  status: ('A' for Active; 'I' for Inactive)
ROOT
ATOM      1  C4' PXY d   1       1.773  -2.199   5.103  0.00  0.00     0.077 C 
ATOM      2  C1' PXY d   1      -0.903   0.497   0.746  0.00  0.00     0.077 C 
ATOM      3  C1  PXY d   1      -0.192  -0.214   1.880  0.00  0.00    -0.082 A 
ATOM      4  C2  PXY d   1      -0.881  -0.613   2.937  0.00  0.00     0.003 A 
ATOM      5  C3  PXY d   1      -0.249  -1.229   3.986  0.00  0.00     0.003 A 
ATOM      6  C4  PXY d   1       1.095  -1.486   3.930  0.00  0.00    -0.082 A 
ATOM      7  C5  PXY d   1       1.804  -1.091   2.851  0.00  0.00     0.003 A 
ATOM      8  C6  PXY d   1       1.150  -0.431   1.815  0.00  0.00     0.003 A 
ENDROOT
TORSDOF 0
ENDMDL
