MODEL 1
REMARK minimizedAffinity 5.01857758
REMARK minimizedRMSD -1
REMARK  0 active torsions:
REMARK  status: ('A' for Active; 'I' for Inactive)
ROOT
ATOM      1  C4' PXY d   1      -1.477   0.555   1.778  0.00  0.00     0.077 C 
ATOM      2  C1' PXY d   1       2.679  -2.264   4.641  0.00  0.00     0.077 C 
ATOM      3  C1  PXY d   1       1.597  -1.524   3.880  0.00  0.00    -0.082 A 
ATOM      4  C2  PXY d   1       0.680  -0.841   4.545  0.00  0.00     0.003 A 
ATOM      5  C3  PXY d   1      -0.325  -0.193   3.874  0.00  0.00     0.003 A 
ATOM      6  C4  PXY d   1      -0.360  -0.200   2.505  0.00  0.00    -0.082 A 
ATOM      7  C5  PXY d   1       0.579  -0.885   1.818  0.00  0.00     0.003 A 
ATOM      8  C6  PXY d   1       1.566  -1.571   2.520  0.00  0.00     0.003 A 
ENDROOT
TORSDOF 0
ENDMDL
