MODEL 1
REMARK minimizedAffinity -1.28762937
REMARK minimizedRMSD -1
REMARK  0 active torsions:
REMARK  status: ('A' for Active; 'I' for Inactive)
ROOT
ATOM      1  C4' PXY d   1      -2.251  -0.001   0.546  0.00  0.00     0.077 C 
ATOM      2  C1' PXY d   1       1.319  -2.288   4.474  0.00  0.00     0.077 C 
ATOM      3  C1  PXY d   1       0.377  -1.700   3.442  0.00  0.00    -0.082 A 
ATOM      4  C2  PXY d   1       0.725  -0.603   2.790  0.00  0.00     0.003 A 
ATOM      5  C3  PXY d   1      -0.129  -0.039   1.876  0.00  0.00     0.003 A 
ATOM      6  C4  PXY d   1      -1.328  -0.635   1.589  0.00  0.00    -0.082 A 
ATOM      7  C5  PXY d   1      -1.685  -1.761   2.243  0.00  0.00     0.003 A 
ATOM      8  C6  PXY d   1      -0.822  -2.294   3.196  0.00  0.00     0.003 A 
ENDROOT
TORSDOF 0
ENDMDL
