MODEL 1
REMARK minimizedAffinity -0.00472300453
REMARK minimizedRMSD -1
REMARK  0 active torsions:
REMARK  status: ('A' for Active; 'I' for Inactive)
ROOT
ATOM      1  C4' PXY d   1      -3.480  -1.276   3.083  0.00  0.00     0.077 C 
ATOM      2  C1' PXY d   1       2.138  -1.615   4.404  0.00  0.00     0.077 C 
ATOM      3  C1  PXY d   1       0.666  -1.513   4.054  0.00  0.00    -0.082 A 
ATOM      4  C2  PXY d   1      -0.195  -2.357   4.599  0.00  0.00     0.003 A 
ATOM      5  C3  PXY d   1      -1.525  -2.300   4.270  0.00  0.00     0.003 A 
ATOM      6  C4  PXY d   1      -1.986  -1.335   3.414  0.00  0.00    -0.082 A 
ATOM      7  C5  PXY d   1      -1.115  -0.464   2.862  0.00  0.00     0.003 A 
ATOM      8  C6  PXY d   1       0.237  -0.565   3.178  0.00  0.00     0.003 A 
ENDROOT
TORSDOF 0
ENDMDL
