MODEL 1
REMARK minimizedAffinity -2.93956757
REMARK minimizedRMSD -1
REMARK  0 active torsions:
REMARK  status: ('A' for Active; 'I' for Inactive)
ROOT
ATOM      1  C4' PXY d   1      -1.227   0.355   0.554  0.00  0.00     0.077 C 
ATOM      2  C1' PXY d   1       1.225  -2.446   4.976  0.00  0.00     0.077 C 
ATOM      3  C1  PXY d   1       0.593  -1.705   3.815  0.00  0.00    -0.082 A 
ATOM      4  C2  PXY d   1      -0.725  -1.622   3.731  0.00  0.00     0.003 A 
ATOM      5  C3  PXY d   1      -1.314  -0.983   2.670  0.00  0.00     0.003 A 
ATOM      6  C4  PXY d   1      -0.545  -0.376   1.714  0.00  0.00    -0.082 A 
ATOM      7  C5  PXY d   1       0.800  -0.446   1.798  0.00  0.00     0.003 A 
ATOM      8  C6  PXY d   1       1.378  -1.135   2.861  0.00  0.00     0.003 A 
ENDROOT
TORSDOF 0
ENDMDL
