MODEL 1
REMARK minimizedAffinity -2.99719858
REMARK minimizedRMSD -1
REMARK  0 active torsions:
REMARK  status: ('A' for Active; 'I' for Inactive)
ROOT
ATOM      1  C4' PXY d   1      -0.571   0.919   1.947  0.00  0.00     0.077 C 
ATOM      2  C1' PXY d   1       2.376  -2.945   5.077  0.00  0.00     0.077 C 
ATOM      3  C1  PXY d   1       1.603  -1.940   4.245  0.00  0.00    -0.082 A 
ATOM      4  C2  PXY d   1       1.630  -0.659   4.577  0.00  0.00     0.003 A 
ATOM      5  C3  PXY d   1       0.912   0.259   3.855  0.00  0.00     0.003 A 
ATOM      6  C4  PXY d   1       0.201  -0.130   2.751  0.00  0.00    -0.082 A 
ATOM      7  C5  PXY d   1       0.178  -1.433   2.400  0.00  0.00     0.003 A 
ATOM      8  C6  PXY d   1       0.880  -2.355   3.170  0.00  0.00     0.003 A 
ENDROOT
TORSDOF 0
ENDMDL
