MODEL 1
REMARK minimizedAffinity 1.37758195
REMARK minimizedRMSD -1
REMARK  0 active torsions:
REMARK  status: ('A' for Active; 'I' for Inactive)
ROOT
ATOM      1  C4' PXY d   1       3.640  -0.866   5.570  0.00  0.00     0.077 C 
ATOM      2  C1' PXY d   1       3.678   3.128   1.390  0.00  0.00     0.077 C 
ATOM      3  C1  PXY d   1       3.656   2.077   2.483  0.00  0.00    -0.082 A 
ATOM      4  C2  PXY d   1       4.416   2.232   3.555  0.00  0.00     0.003 A 
ATOM      5  C3  PXY d   1       4.433   1.275   4.537  0.00  0.00     0.003 A 
ATOM      6  C4  PXY d   1       3.623   0.175   4.446  0.00  0.00    -0.082 A 
ATOM      7  C5  PXY d   1       2.837   0.015   3.361  0.00  0.00     0.003 A 
ATOM      8  C6  PXY d   1       2.865   0.977   2.355  0.00  0.00     0.003 A 
ENDROOT
TORSDOF 0
ENDMDL
