MODEL 1
REMARK minimizedAffinity 2.32990551
REMARK minimizedRMSD -1
REMARK  0 active torsions:
REMARK  status: ('A' for Active; 'I' for Inactive)
ROOT
ATOM      1  C1  DEN d   1      -5.661  -1.648   1.566  0.00  0.00     0.130 A 
ATOM      2  C2  DEN d   1      -5.730  -1.655   0.108  0.00  0.00    -0.031 A 
ATOM      3  C3  DEN d   1      -4.403  -1.269  -0.414  0.00  0.00     0.027 A 
ATOM      4  C4  DEN d   1      -2.260  -0.667   0.889  0.00  0.00     0.027 A 
ATOM      5  C5  DEN d   1      -1.717  -0.510   2.145  0.00  0.00    -0.003 A 
ATOM      6  C6  DEN d   1      -2.453  -0.686   3.287  0.00  0.00     0.001 A 
ATOM      7  C7  DEN d   1      -3.764  -1.075   3.196  0.00  0.00     0.017 A 
ATOM      8  C8  DEN d   1      -4.321  -1.228   1.933  0.00  0.00    -0.094 A 
ATOM      9  C9  DEN d   1      -3.556  -1.057   0.791  0.00  0.00    -0.072 A 
ENDROOT
TORSDOF 0
ENDMDL
