MODEL 1
REMARK minimizedAffinity -0.231323823
REMARK minimizedRMSD -1
REMARK  0 active torsions:
REMARK  status: ('A' for Active; 'I' for Inactive)
ROOT
ATOM      1  C1  DEN d   1       2.865   0.596  -2.322  0.00  0.00     0.130 A 
ATOM      2  C2  DEN d   1       1.528   1.092  -2.633  0.00  0.00    -0.031 A 
ATOM      3  C3  DEN d   1       1.507   1.489  -4.055  0.00  0.00     0.027 A 
ATOM      4  C4  DEN d   1       3.406   1.380  -5.798  0.00  0.00     0.027 A 
ATOM      5  C5  DEN d   1       4.726   1.042  -6.000  0.00  0.00    -0.003 A 
ATOM      6  C6  DEN d   1       5.521   0.568  -4.991  0.00  0.00     0.001 A 
ATOM      7  C7  DEN d   1       4.991   0.375  -3.742  0.00  0.00     0.017 A 
ATOM      8  C8  DEN d   1       3.663   0.720  -3.529  0.00  0.00    -0.094 A 
ATOM      9  C9  DEN d   1       2.872   1.187  -4.565  0.00  0.00    -0.072 A 
ENDROOT
TORSDOF 0
ENDMDL
