MODEL 1
REMARK minimizedAffinity -1.18907869
REMARK minimizedRMSD -1
REMARK  0 active torsions:
REMARK  status: ('A' for Active; 'I' for Inactive)
ROOT
ATOM      1  C1  DEN d   1      -2.089   0.860  -0.152  0.00  0.00     0.130 A 
ATOM      2  C2  DEN d   1      -2.518   2.255  -0.104  0.00  0.00    -0.031 A 
ATOM      3  C3  DEN d   1      -3.167   2.488   1.202  0.00  0.00     0.027 A 
ATOM      4  C4  DEN d   1      -3.543   0.834   3.145  0.00  0.00     0.027 A 
ATOM      5  C5  DEN d   1      -3.362  -0.466   3.563  0.00  0.00    -0.003 A 
ATOM      6  C6  DEN d   1      -2.780  -1.415   2.766  0.00  0.00     0.001 A 
ATOM      7  C7  DEN d   1      -2.316  -1.068   1.525  0.00  0.00     0.017 A 
ATOM      8  C8  DEN d   1      -2.502   0.239   1.093  0.00  0.00    -0.094 A 
ATOM      9  C9  DEN d   1      -3.082   1.187   1.919  0.00  0.00    -0.072 A 
ENDROOT
TORSDOF 0
ENDMDL
