MODEL 1
REMARK minimizedAffinity 1.57723343
REMARK minimizedRMSD -1
REMARK  0 active torsions:
REMARK  status: ('A' for Active; 'I' for Inactive)
ROOT
ATOM      1  C1  DEN d   1       3.750   1.265   2.138  0.00  0.00     0.130 A 
ATOM      2  C2  DEN d   1       4.130   2.671   2.247  0.00  0.00    -0.031 A 
ATOM      3  C3  DEN d   1       5.080   2.801   3.370  0.00  0.00     0.027 A 
ATOM      4  C4  DEN d   1       6.000   0.972   4.938  0.00  0.00     0.027 A 
ATOM      5  C5  DEN d   1       5.959  -0.371   5.242  0.00  0.00    -0.003 A 
ATOM      6  C6  DEN d   1       5.159  -1.250   4.561  0.00  0.00     0.001 A 
ATOM      7  C7  DEN d   1       4.402  -0.803   3.510  0.00  0.00     0.017 A 
ATOM      8  C8  DEN d   1       4.432   0.550   3.202  0.00  0.00    -0.094 A 
ATOM      9  C9  DEN d   1       5.256   1.421   3.896  0.00  0.00    -0.072 A 
ENDROOT
TORSDOF 0
ENDMDL
