MODEL 1
REMARK minimizedAffinity 0.360308141
REMARK minimizedRMSD -1
REMARK  0 active torsions:
REMARK  status: ('A' for Active; 'I' for Inactive)
ROOT
ATOM      1  C1  DEN d   1      -2.434   1.187   3.636  0.00  0.00     0.130 A 
ATOM      2  C2  DEN d   1      -3.020  -0.038   4.174  0.00  0.00    -0.031 A 
ATOM      3  C3  DEN d   1      -3.573  -0.813   3.045  0.00  0.00     0.027 A 
ATOM      4  C4  DEN d   1      -3.575  -0.242   0.530  0.00  0.00     0.027 A 
ATOM      5  C5  DEN d   1      -3.204   0.695  -0.408  0.00  0.00    -0.003 A 
ATOM      6  C6  DEN d   1      -2.586   1.868  -0.064  0.00  0.00     0.001 A 
ATOM      7  C7  DEN d   1      -2.279   2.114   1.248  0.00  0.00     0.017 A 
ATOM      8  C8  DEN d   1      -2.656   1.177   2.201  0.00  0.00    -0.094 A 
ATOM      9  C9  DEN d   1      -3.270  -0.008   1.832  0.00  0.00    -0.072 A 
ENDROOT
TORSDOF 0
ENDMDL
