MODEL 1
REMARK minimizedAffinity 4.62716436
REMARK minimizedRMSD -1
REMARK  0 active torsions:
REMARK  status: ('A' for Active; 'I' for Inactive)
ROOT
ATOM      1  C1  DEN d   1       4.394   2.827   2.449  0.00  0.00     0.130 A 
ATOM      2  C2  DEN d   1       3.411   2.412   1.452  0.00  0.00    -0.031 A 
ATOM      3  C3  DEN d   1       3.233   0.951   1.567  0.00  0.00     0.027 A 
ATOM      4  C4  DEN d   1       4.376  -0.701   3.185  0.00  0.00     0.027 A 
ATOM      5  C5  DEN d   1       5.293  -0.818   4.206  0.00  0.00    -0.003 A 
ATOM      6  C6  DEN d   1       5.994   0.256   4.686  0.00  0.00     0.001 A 
ATOM      7  C7  DEN d   1       5.756   1.505   4.175  0.00  0.00     0.017 A 
ATOM      8  C8  DEN d   1       4.838   1.630   3.141  0.00  0.00    -0.094 A 
ATOM      9  C9  DEN d   1       4.131   0.534   2.678  0.00  0.00    -0.072 A 
ENDROOT
TORSDOF 0
ENDMDL
