MODEL 1
REMARK minimizedAffinity 2.88071609
REMARK minimizedRMSD -1
REMARK  0 active torsions:
REMARK  status: ('A' for Active; 'I' for Inactive)
ROOT
ATOM      1  C1  DEN d   1      -1.439  -0.210   2.573  0.00  0.00     0.130 A 
ATOM      2  C2  DEN d   1      -1.785  -0.106   3.988  0.00  0.00    -0.031 A 
ATOM      3  C3  DEN d   1      -3.203  -0.490   4.141  0.00  0.00     0.027 A 
ATOM      4  C4  DEN d   1      -4.886  -1.236   2.334  0.00  0.00     0.027 A 
ATOM      5  C5  DEN d   1      -5.058  -1.467   0.987  0.00  0.00    -0.003 A 
ATOM      6  C6  DEN d   1      -4.054  -1.265   0.078  0.00  0.00     0.001 A 
ATOM      7  C7  DEN d   1      -2.818  -0.861   0.509  0.00  0.00     0.017 A 
ATOM      8  C8  DEN d   1      -2.639  -0.619   1.865  0.00  0.00    -0.094 A 
ATOM      9  C9  DEN d   1      -3.663  -0.841   2.770  0.00  0.00    -0.072 A 
ENDROOT
TORSDOF 0
ENDMDL
