MODEL 1
REMARK minimizedAffinity 3.60041237
REMARK minimizedRMSD -1
REMARK  0 active torsions:
REMARK  status: ('A' for Active; 'I' for Inactive)
ROOT
ATOM      1  C1  DEN d   1      -2.633   0.675   3.575  0.00  0.00     0.130 A 
ATOM      2  C2  DEN d   1      -2.922  -0.665   4.077  0.00  0.00    -0.031 A 
ATOM      3  C3  DEN d   1      -3.073  -1.565   2.916  0.00  0.00     0.027 A 
ATOM      4  C4  DEN d   1      -2.884  -1.017   0.403  0.00  0.00     0.027 A 
ATOM      5  C5  DEN d   1      -2.664  -0.013  -0.513  0.00  0.00    -0.003 A 
ATOM      6  C6  DEN d   1      -2.453   1.287  -0.136  0.00  0.00     0.001 A 
ATOM      7  C7  DEN d   1      -2.413   1.609   1.195  0.00  0.00     0.017 A 
ATOM      8  C8  DEN d   1      -2.642   0.603   2.125  0.00  0.00    -0.094 A 
ATOM      9  C9  DEN d   1      -2.841  -0.707   1.724  0.00  0.00    -0.072 A 
ENDROOT
TORSDOF 0
ENDMDL
