MODEL 1
REMARK minimizedAffinity 8.2691164
REMARK minimizedRMSD -1
REMARK  0 active torsions:
REMARK  status: ('A' for Active; 'I' for Inactive)
ROOT
ATOM      1  C1  DEN d   1      -3.813  -0.462   4.670  0.00  0.00     0.130 A 
ATOM      2  C2  DEN d   1      -2.357  -0.425   4.556  0.00  0.00    -0.031 A 
ATOM      3  C3  DEN d   1      -2.010  -0.463   3.121  0.00  0.00     0.027 A 
ATOM      4  C4  DEN d   1      -3.577  -0.571   1.075  0.00  0.00     0.027 A 
ATOM      5  C5  DEN d   1      -4.892  -0.633   0.671  0.00  0.00    -0.003 A 
ATOM      6  C6  DEN d   1      -5.930  -0.676   1.564  0.00  0.00     0.001 A 
ATOM      7  C7  DEN d   1      -5.672  -0.612   2.908  0.00  0.00     0.017 A 
ATOM      8  C8  DEN d   1      -4.348  -0.557   3.324  0.00  0.00    -0.094 A 
ATOM      9  C9  DEN d   1      -3.313  -0.503   2.405  0.00  0.00    -0.072 A 
ENDROOT
TORSDOF 0
ENDMDL
