MODEL 1
REMARK minimizedAffinity 2.60042763
REMARK minimizedRMSD -1
REMARK  0 active torsions:
REMARK  status: ('A' for Active; 'I' for Inactive)
ROOT
ATOM      1  C1  DEN d   1      -1.918   1.443   2.377  0.00  0.00     0.130 A 
ATOM      2  C2  DEN d   1      -1.845   0.820   3.695  0.00  0.00    -0.031 A 
ATOM      3  C3  DEN d   1      -2.881  -0.229   3.763  0.00  0.00     0.027 A 
ATOM      4  C4  DEN d   1      -4.581  -0.950   1.962  0.00  0.00     0.027 A 
ATOM      5  C5  DEN d   1      -5.035  -0.704   0.685  0.00  0.00    -0.003 A 
ATOM      6  C6  DEN d   1      -4.509   0.288  -0.099  0.00  0.00     0.001 A 
ATOM      7  C7  DEN d   1      -3.467   1.043   0.370  0.00  0.00     0.017 A 
ATOM      8  C8  DEN d   1      -3.009   0.807   1.660  0.00  0.00    -0.094 A 
ATOM      9  C9  DEN d   1      -3.545  -0.209   2.432  0.00  0.00    -0.072 A 
ENDROOT
TORSDOF 0
ENDMDL
