MODEL 1
REMARK minimizedAffinity 14.1069288
REMARK minimizedRMSD -1
REMARK  0 active torsions:
REMARK  status: ('A' for Active; 'I' for Inactive)
ROOT
ATOM      1  C1  DEN d   1       6.000   0.917   4.545  0.00  0.00     0.130 A 
ATOM      2  C2  DEN d   1       5.999   2.342   4.864  0.00  0.00    -0.031 A 
ATOM      3  C3  DEN d   1       5.108   3.024   3.905  0.00  0.00     0.027 A 
ATOM      4  C4  DEN d   1       3.732   2.016   1.970  0.00  0.00     0.027 A 
ATOM      5  C5  DEN d   1       3.419   0.853   1.302  0.00  0.00    -0.003 A 
ATOM      6  C6  DEN d   1       3.966  -0.355   1.643  0.00  0.00     0.001 A 
ATOM      7  C7  DEN d   1       4.821  -0.435   2.711  0.00  0.00     0.017 A 
ATOM      8  C8  DEN d   1       5.147   0.734   3.385  0.00  0.00    -0.094 A 
ATOM      9  C9  DEN d   1       4.574   1.944   3.032  0.00  0.00    -0.072 A 
ENDROOT
TORSDOF 0
ENDMDL
