MODEL 1
REMARK minimizedAffinity 6.58805799
REMARK minimizedRMSD -1
REMARK  0 active torsions:
REMARK  status: ('A' for Active; 'I' for Inactive)
ROOT
ATOM      1  C1  DEN d   1       2.504   3.010  -5.650  0.00  0.00     0.130 A 
ATOM      2  C2  DEN d   1       3.044   4.366  -5.624  0.00  0.00    -0.031 A 
ATOM      3  C3  DEN d   1       4.514   4.275  -5.733  0.00  0.00     0.027 A 
ATOM      4  C4  DEN d   1       5.997   2.176  -5.945  0.00  0.00     0.027 A 
ATOM      5  C5  DEN d   1       5.994   0.799  -5.999  0.00  0.00    -0.003 A 
ATOM      6  C6  DEN d   1       4.839   0.068  -5.908  0.00  0.00     0.001 A 
ATOM      7  C7  DEN d   1       3.635   0.712  -5.802  0.00  0.00     0.017 A 
ATOM      8  C8  DEN d   1       3.631   2.099  -5.739  0.00  0.00    -0.094 A 
ATOM      9  C9  DEN d   1       4.808   2.821  -5.845  0.00  0.00    -0.072 A 
ENDROOT
TORSDOF 0
ENDMDL
