MODEL 1
REMARK minimizedAffinity 3.39874554
REMARK minimizedRMSD -1
REMARK  0 active torsions:
REMARK  status: ('A' for Active; 'I' for Inactive)
ROOT
ATOM      1  C1  DEN d   1      -0.548   0.283  -1.186  0.00  0.00     0.130 A 
ATOM      2  C2  DEN d   1       0.298   1.318  -1.774  0.00  0.00    -0.031 A 
ATOM      3  C3  DEN d   1      -0.314   2.629  -1.480  0.00  0.00     0.027 A 
ATOM      4  C4  DEN d   1      -2.475   3.155  -0.175  0.00  0.00     0.027 A 
ATOM      5  C5  DEN d   1      -3.539   2.604   0.504  0.00  0.00    -0.003 A 
ATOM      6  C6  DEN d   1      -3.698   1.250   0.637  0.00  0.00     0.001 A 
ATOM      7  C7  DEN d   1      -2.753   0.402   0.121  0.00  0.00     0.017 A 
ATOM      8  C8  DEN d   1      -1.681   0.951  -0.571  0.00  0.00    -0.094 A 
ATOM      9  C9  DEN d   1      -1.533   2.322  -0.683  0.00  0.00    -0.072 A 
ENDROOT
TORSDOF 0
ENDMDL
