MODEL 1
REMARK minimizedAffinity 3.75152516
REMARK minimizedRMSD -1
REMARK  0 active torsions:
REMARK  status: ('A' for Active; 'I' for Inactive)
ROOT
ATOM      1  C1  DEN d   1      -6.000  -0.444   0.270  0.00  0.00     0.130 A 
ATOM      2  C2  DEN d   1      -5.071  -0.233  -0.837  0.00  0.00    -0.031 A 
ATOM      3  C3  DEN d   1      -3.699  -0.409  -0.321  0.00  0.00     0.027 A 
ATOM      4  C4  DEN d   1      -2.926  -0.991   2.070  0.00  0.00     0.027 A 
ATOM      5  C5  DEN d   1      -3.349  -1.253   3.354  0.00  0.00    -0.003 A 
ATOM      6  C6  DEN d   1      -4.673  -1.231   3.705  0.00  0.00     0.001 A 
ATOM      7  C7  DEN d   1      -5.624  -0.985   2.750  0.00  0.00     0.017 A 
ATOM      8  C8  DEN d   1      -5.205  -0.712   1.455  0.00  0.00    -0.094 A 
ATOM      9  C9  DEN d   1      -3.862  -0.751   1.117  0.00  0.00    -0.072 A 
ENDROOT
TORSDOF 0
ENDMDL
