MODEL 1
REMARK minimizedAffinity -0.109310389
REMARK minimizedRMSD -1
REMARK  0 active torsions:
REMARK  status: ('A' for Active; 'I' for Inactive)
ROOT
ATOM      1  C1  DEN d   1      -3.105   5.096  -0.409  0.00  0.00     0.130 A 
ATOM      2  C2  DEN d   1      -4.295   5.268   0.420  0.00  0.00    -0.031 A 
ATOM      3  C3  DEN d   1      -4.581   3.979   1.082  0.00  0.00     0.027 A 
ATOM      4  C4  DEN d   1      -3.300   1.747   0.909  0.00  0.00     0.027 A 
ATOM      5  C5  DEN d   1      -2.231   1.109   0.319  0.00  0.00    -0.003 A 
ATOM      6  C6  DEN d   1      -1.406   1.740  -0.574  0.00  0.00     0.001 A 
ATOM      7  C7  DEN d   1      -1.609   3.062  -0.868  0.00  0.00     0.017 A 
ATOM      8  C8  DEN d   1      -2.689   3.711  -0.283  0.00  0.00    -0.094 A 
ATOM      9  C9  DEN d   1      -3.504   3.059   0.627  0.00  0.00    -0.072 A 
ENDROOT
TORSDOF 0
ENDMDL
