MODEL 1
REMARK minimizedAffinity 2.01074433
REMARK minimizedRMSD -1
REMARK  1 active torsions:
REMARK  status: ('A' for Active; 'I' for Inactive)
REMARK    1  A    between atoms: C1_2  and  C2_3 
ROOT
ATOM      1  C2  UNL d   1       4.554   1.515  -0.589  0.00  0.00    -0.077 A 
ATOM      2  C3  UNL d   1       4.593   0.726   0.569  0.00  0.00     0.002 A 
ATOM      3  C4  UNL d   1       3.504  -0.076   0.913  0.00  0.00     0.002 A 
ATOM      4  C5  UNL d   1       2.370  -0.100   0.104  0.00  0.00    -0.004 A 
ATOM      5  C6  UNL d   1       2.321   0.683  -1.049  0.00  0.00     0.002 A 
ATOM      6  C7  UNL d   1       3.408   1.487  -1.394  0.00  0.00     0.002 A 
ENDROOT
BRANCH   1   7
ATOM      7  C1  UNL d   1       5.747   2.344  -0.988  0.00  0.00     0.055 C 
ATOM      8  C   UNL d   1       5.995   3.471   0.003  0.00  0.00     0.019 C 
ENDBRANCH   1   7
TORSDOF 1
ENDMDL
