MODEL 1
REMARK minimizedAffinity 2.7327075
REMARK minimizedRMSD -1
REMARK  1 active torsions:
REMARK  status: ('A' for Active; 'I' for Inactive)
REMARK    1  A    between atoms: C1_2  and  C2_3 
ROOT
ATOM      1  C2  UNL d   1       3.202   0.791   0.132  0.00  0.00    -0.077 A 
ATOM      2  C3  UNL d   1       4.501   0.770   0.660  0.00  0.00     0.002 A 
ATOM      3  C4  UNL d   1       4.919  -0.293   1.464  0.00  0.00     0.002 A 
ATOM      4  C5  UNL d   1       4.047  -1.343   1.743  0.00  0.00    -0.004 A 
ATOM      5  C6  UNL d   1       2.753  -1.330   1.224  0.00  0.00     0.002 A 
ATOM      6  C7  UNL d   1       2.332  -0.269   0.422  0.00  0.00     0.002 A 
ENDROOT
BRANCH   1   7
ATOM      7  C1  UNL d   1       2.765   1.911  -0.775  0.00  0.00     0.055 C 
ATOM      8  C   UNL d   1       3.873   2.306  -1.741  0.00  0.00     0.019 C 
ENDBRANCH   1   7
TORSDOF 1
ENDMDL
