MODEL 1
REMARK minimizedAffinity 6.62923002
REMARK minimizedRMSD -1
REMARK  1 active torsions:
REMARK  status: ('A' for Active; 'I' for Inactive)
REMARK    1  A    between atoms: C1_2  and  C2_3 
ROOT
ATOM      1  C2  UNL d   1       4.661   2.803   0.671  0.00  0.00    -0.077 A 
ATOM      2  C3  UNL d   1       4.663   2.969  -0.721  0.00  0.00     0.002 A 
ATOM      3  C4  UNL d   1       3.797   2.223  -1.523  0.00  0.00     0.002 A 
ATOM      4  C5  UNL d   1       2.921   1.309  -0.942  0.00  0.00    -0.004 A 
ATOM      5  C6  UNL d   1       2.913   1.135   0.441  0.00  0.00     0.002 A 
ATOM      6  C7  UNL d   1       3.778   1.879   1.244  0.00  0.00     0.002 A 
ENDROOT
BRANCH   1   7
ATOM      7  C1  UNL d   1       5.559   3.642   1.541  0.00  0.00     0.055 C 
ATOM      8  C   UNL d   1       5.041   3.708   2.970  0.00  0.00     0.019 C 
ENDBRANCH   1   7
TORSDOF 1
ENDMDL
