MODEL 1
REMARK minimizedAffinity 8.71301651
REMARK minimizedRMSD -1
REMARK  1 active torsions:
REMARK  status: ('A' for Active; 'I' for Inactive)
REMARK    1  A    between atoms: C1_2  and  C2_3 
ROOT
ATOM      1  C2  UNL d   1       2.953   1.348  -1.339  0.00  0.00    -0.077 A 
ATOM      2  C3  UNL d   1       3.722   0.953  -2.443  0.00  0.00     0.002 A 
ATOM      3  C4  UNL d   1       4.399   1.904  -3.209  0.00  0.00     0.002 A 
ATOM      4  C5  UNL d   1       4.317   3.254  -2.877  0.00  0.00    -0.004 A 
ATOM      5  C6  UNL d   1       3.553   3.657  -1.782  0.00  0.00     0.002 A 
ATOM      6  C7  UNL d   1       2.875   2.708  -1.016  0.00  0.00     0.002 A 
ENDROOT
BRANCH   1   7
ATOM      7  C1  UNL d   1       2.262   0.319  -0.483  0.00  0.00     0.055 C 
ATOM      8  C   UNL d   1       2.309   0.702   0.989  0.00  0.00     0.019 C 
ENDBRANCH   1   7
TORSDOF 1
ENDMDL
