MODEL 1
REMARK minimizedAffinity 3.41125965
REMARK minimizedRMSD -1
REMARK  1 active torsions:
REMARK  status: ('A' for Active; 'I' for Inactive)
REMARK    1  A    between atoms: C1_2  and  C2_3 
ROOT
ATOM      1  C2  UNL d   1      -4.865   4.490   3.302  0.00  0.00    -0.077 A 
ATOM      2  C3  UNL d   1      -3.632   4.874   3.848  0.00  0.00     0.002 A 
ATOM      3  C4  UNL d   1      -3.539   5.244   5.191  0.00  0.00     0.002 A 
ATOM      4  C5  UNL d   1      -4.673   5.229   6.000  0.00  0.00    -0.004 A 
ATOM      5  C6  UNL d   1      -5.904   4.851   5.466  0.00  0.00     0.002 A 
ATOM      6  C7  UNL d   1      -6.000   4.482   4.123  0.00  0.00     0.002 A 
ENDROOT
BRANCH   1   7
ATOM      7  C1  UNL d   1      -4.958   4.044   1.866  0.00  0.00     0.055 C 
ATOM      8  C   UNL d   1      -3.733   3.241   1.455  0.00  0.00     0.019 C 
ENDBRANCH   1   7
TORSDOF 1
ENDMDL
