MODEL 1
REMARK minimizedAffinity 18.5272293
REMARK minimizedRMSD -1
REMARK  1 active torsions:
REMARK  status: ('A' for Active; 'I' for Inactive)
REMARK    1  A    between atoms: C1_2  and  C2_3 
ROOT
ATOM      1  C2  UNL d   1      -4.218   2.758  -0.510  0.00  0.00    -0.077 A 
ATOM      2  C3  UNL d   1      -5.388   2.533  -1.248  0.00  0.00     0.002 A 
ATOM      3  C4  UNL d   1      -5.705   1.249  -1.696  0.00  0.00     0.002 A 
ATOM      4  C5  UNL d   1      -4.859   0.181  -1.408  0.00  0.00    -0.004 A 
ATOM      5  C6  UNL d   1      -3.691   0.394  -0.677  0.00  0.00     0.002 A 
ATOM      6  C7  UNL d   1      -3.372   1.677  -0.229  0.00  0.00     0.002 A 
ENDROOT
BRANCH   1   7
ATOM      7  C1  UNL d   1      -3.899   4.133   0.017  0.00  0.00     0.055 C 
ATOM      8  C   UNL d   1      -4.671   5.207  -0.737  0.00  0.00     0.019 C 
ENDBRANCH   1   7
TORSDOF 1
ENDMDL
