MODEL 1
REMARK minimizedAffinity -0.112570897
REMARK minimizedRMSD -1
REMARK  1 active torsions:
REMARK  status: ('A' for Active; 'I' for Inactive)
REMARK    1  A    between atoms: C1_2  and  C2_3 
ROOT
ATOM      1  C2  UNL d   1      -5.518   1.512  -2.266  0.00  0.00    -0.077 A 
ATOM      2  C3  UNL d   1      -5.578   2.912  -2.251  0.00  0.00     0.002 A 
ATOM      3  C4  UNL d   1      -5.090   3.628  -1.156  0.00  0.00     0.002 A 
ATOM      4  C5  UNL d   1      -4.535   2.953  -0.071  0.00  0.00    -0.004 A 
ATOM      5  C6  UNL d   1      -4.472   1.560  -0.076  0.00  0.00     0.002 A 
ATOM      6  C7  UNL d   1      -4.961   0.843  -1.169  0.00  0.00     0.002 A 
ENDROOT
BRANCH   1   7
ATOM      7  C1  UNL d   1      -5.999   0.740  -3.467  0.00  0.00     0.055 C 
ATOM      8  C   UNL d   1      -5.999   1.606  -4.718  0.00  0.00     0.019 C 
ENDBRANCH   1   7
TORSDOF 1
ENDMDL
