MODEL 1
REMARK minimizedAffinity -1.89902866
REMARK minimizedRMSD -1
REMARK  0 active torsions:
REMARK  status: ('A' for Active; 'I' for Inactive)
ROOT
ATOM      1  C   UNL d   1       0.384   0.436   2.533  0.00  0.00    -0.002 A 
ATOM      2  C1  UNL d   1      -0.302   1.626   2.333  0.00  0.00     0.010 A 
ATOM      3  C2  UNL d   1      -0.624   2.052   1.043  0.00  0.00     0.041 A 
ATOM      4  C3  UNL d   1      -0.244   1.253  -0.053  0.00  0.00    -0.075 A 
ATOM      5  S   UNL d   1      -0.533   1.574  -1.723  0.00  0.00     0.015 SA
ATOM      6  C4  UNL d   1       0.247   0.139  -2.210  0.00  0.00     0.022 A 
ATOM      7  C5  UNL d   1       0.722  -0.579  -1.138  0.00  0.00     0.026 A 
ATOM      8  C6  UNL d   1       0.447   0.051   0.122  0.00  0.00    -0.082 A 
ATOM      9  C7  UNL d   1       0.760  -0.353   1.443  0.00  0.00     0.045 A 
ENDROOT
TORSDOF 0
ENDMDL
