MODEL 1
REMARK minimizedAffinity -3.94075179
REMARK minimizedRMSD -1
REMARK  0 active torsions:
REMARK  status: ('A' for Active; 'I' for Inactive)
ROOT
ATOM      1  C   UNL d   1      -1.506   3.680   0.572  0.00  0.00    -0.002 A 
ATOM      2  C1  UNL d   1      -1.383   3.045  -0.656  0.00  0.00     0.010 A 
ATOM      3  C2  UNL d   1      -0.850   1.757  -0.740  0.00  0.00     0.041 A 
ATOM      4  C3  UNL d   1      -0.440   1.111   0.443  0.00  0.00    -0.075 A 
ATOM      5  S   UNL d   1       0.241  -0.467   0.584  0.00  0.00     0.015 SA
ATOM      6  C4  UNL d   1       0.383  -0.336   2.277  0.00  0.00     0.022 A 
ATOM      7  C5  UNL d   1      -0.073   0.875   2.741  0.00  0.00     0.026 A 
ATOM      8  C6  UNL d   1      -0.555   1.729   1.692  0.00  0.00    -0.082 A 
ATOM      9  C7  UNL d   1      -1.099   3.035   1.743  0.00  0.00     0.045 A 
ENDROOT
TORSDOF 0
ENDMDL
