MODEL 1
REMARK minimizedAffinity 1.30581582
REMARK minimizedRMSD -1
REMARK  0 active torsions:
REMARK  status: ('A' for Active; 'I' for Inactive)
ROOT
ATOM      1  C   UNL d   1       0.570   0.259   2.832  0.00  0.00    -0.002 A 
ATOM      2  C1  UNL d   1       1.112   1.379   2.217  0.00  0.00     0.010 A 
ATOM      3  C2  UNL d   1       1.076   1.512   0.827  0.00  0.00     0.041 A 
ATOM      4  C3  UNL d   1       0.479   0.493   0.060  0.00  0.00    -0.075 A 
ATOM      5  S   UNL d   1       0.319   0.442  -1.656  0.00  0.00     0.015 SA
ATOM      6  C4  UNL d   1      -0.473  -1.066  -1.613  0.00  0.00     0.022 A 
ATOM      7  C5  UNL d   1      -0.620  -1.534  -0.328  0.00  0.00     0.026 A 
ATOM      8  C6  UNL d   1      -0.074  -0.643   0.657  0.00  0.00    -0.082 A 
ATOM      9  C7  UNL d   1      -0.022  -0.750   2.067  0.00  0.00     0.045 A 
ENDROOT
TORSDOF 0
ENDMDL
