MODEL 1
REMARK minimizedAffinity -4.00959539
REMARK minimizedRMSD -1
REMARK  0 active torsions:
REMARK  status: ('A' for Active; 'I' for Inactive)
ROOT
ATOM      1  C   UNL d   1       0.849   1.258   2.965  0.00  0.00    -0.002 A 
ATOM      2  C1  UNL d   1       1.494   0.043   2.780  0.00  0.00     0.010 A 
ATOM      3  C2  UNL d   1       1.297  -0.694   1.611  0.00  0.00     0.041 A 
ATOM      4  C3  UNL d   1       0.436  -0.184   0.620  0.00  0.00    -0.075 A 
ATOM      5  S   UNL d   1       0.045  -0.912  -0.893  0.00  0.00     0.015 SA
ATOM      6  C4  UNL d   1      -0.986   0.373  -1.330  0.00  0.00     0.022 A 
ATOM      7  C5  UNL d   1      -1.043   1.342  -0.357  0.00  0.00     0.026 A 
ATOM      8  C6  UNL d   1      -0.224   1.038   0.783  0.00  0.00    -0.082 A 
ATOM      9  C7  UNL d   1      -0.005   1.761   1.980  0.00  0.00     0.045 A 
ENDROOT
TORSDOF 0
ENDMDL
