MODEL 1
REMARK minimizedAffinity -1.07935643
REMARK minimizedRMSD -1
REMARK  0 active torsions:
REMARK  status: ('A' for Active; 'I' for Inactive)
ROOT
ATOM      1  C   UNL d   1       0.151   2.970   2.931  0.00  0.00    -0.002 A 
ATOM      2  C1  UNL d   1       0.179   2.995   1.544  0.00  0.00     0.010 A 
ATOM      3  C2  UNL d   1       0.673   1.905   0.824  0.00  0.00     0.041 A 
ATOM      4  C3  UNL d   1       1.141   0.779   1.528  0.00  0.00    -0.075 A 
ATOM      5  S   UNL d   1       1.789  -0.671   0.857  0.00  0.00     0.015 SA
ATOM      6  C4  UNL d   1       2.044  -1.358   2.396  0.00  0.00     0.022 A 
ATOM      7  C5  UNL d   1       1.650  -0.516   3.408  0.00  0.00     0.026 A 
ATOM      8  C6  UNL d   1       1.123   0.730   2.925  0.00  0.00    -0.082 A 
ATOM      9  C7  UNL d   1       0.617   1.850   3.626  0.00  0.00     0.045 A 
ENDROOT
TORSDOF 0
ENDMDL
