MODEL 1
REMARK minimizedAffinity -6.13200712
REMARK minimizedRMSD -1
REMARK  2 active torsions:
REMARK  status: ('A' for Active; 'I' for Inactive)
REMARK    1  A    between atoms: C1_2  and  C2_3 
REMARK    2  A    between atoms: C2_3  and  C3_4 
ROOT
ATOM      1  C3  UNL d   1       0.744  -0.480   0.159  0.00  0.00    -0.075 A 
ATOM      2  C4  UNL d   1       1.377   0.702   0.573  0.00  0.00     0.002 A 
ATOM      3  C5  UNL d   1       2.753   0.726   0.800  0.00  0.00     0.002 A 
ATOM      4  C6  UNL d   1       3.511  -0.429   0.628  0.00  0.00    -0.004 A 
ATOM      5  C7  UNL d   1       2.891  -1.613   0.234  0.00  0.00     0.002 A 
ATOM      6  C8  UNL d   1       1.515  -1.639   0.001  0.00  0.00     0.002 A 
ENDROOT
BRANCH   1   7
ATOM      7  C2  UNL d   1      -0.740  -0.506  -0.118  0.00  0.00     0.056 C 
BRANCH   7   8
ATOM      8  C1  UNL d   1      -1.476   0.769   0.308  0.00  0.00     0.007 C 
ATOM      9  C   UNL d   1      -2.939   0.529   0.656  0.00  0.00     0.009 C 
ENDBRANCH   7   8
ENDBRANCH   1   7
TORSDOF 2
ENDMDL
