MODEL 1
REMARK minimizedAffinity -4.0278492
REMARK minimizedRMSD -1
REMARK  2 active torsions:
REMARK  status: ('A' for Active; 'I' for Inactive)
REMARK    1  A    between atoms: C1_2  and  C2_3 
REMARK    2  A    between atoms: C2_3  and  C3_4 
ROOT
ATOM      1  C3  UNL d   1       1.052   1.018   0.634  0.00  0.00    -0.075 A 
ATOM      2  C4  UNL d   1       0.290  -0.146   0.808  0.00  0.00     0.002 A 
ATOM      3  C5  UNL d   1      -0.997  -0.236   0.277  0.00  0.00     0.002 A 
ATOM      4  C6  UNL d   1      -1.541   0.838  -0.424  0.00  0.00    -0.004 A 
ATOM      5  C7  UNL d   1      -0.799   2.005  -0.589  0.00  0.00     0.002 A 
ATOM      6  C8  UNL d   1       0.491   2.096  -0.063  0.00  0.00     0.002 A 
ENDROOT
BRANCH   1   7
ATOM      7  C2  UNL d   1       2.457   1.111   1.180  0.00  0.00     0.056 C 
BRANCH   7   8
ATOM      8  C1  UNL d   1       3.165  -0.242   1.314  0.00  0.00     0.007 C 
ATOM      9  C   UNL d   1       3.865  -0.682   0.035  0.00  0.00     0.009 C 
ENDBRANCH   7   8
ENDBRANCH   1   7
TORSDOF 2
ENDMDL
