MODEL 1
REMARK minimizedAffinity -5.44612789
REMARK minimizedRMSD -1
REMARK  2 active torsions:
REMARK  status: ('A' for Active; 'I' for Inactive)
REMARK    1  A    between atoms: C1_2  and  C2_3 
REMARK    2  A    between atoms: C2_3  and  C3_4 
ROOT
ATOM      1  C3  UNL d   1       0.280   0.456   0.068  0.00  0.00    -0.075 A 
ATOM      2  C4  UNL d   1       1.435   1.116   0.512  0.00  0.00     0.002 A 
ATOM      3  C5  UNL d   1       2.629   0.415   0.685  0.00  0.00     0.002 A 
ATOM      4  C6  UNL d   1       2.681  -0.953   0.428  0.00  0.00    -0.004 A 
ATOM      5  C7  UNL d   1       1.535  -1.622   0.002  0.00  0.00     0.002 A 
ATOM      6  C8  UNL d   1       0.340  -0.922  -0.177  0.00  0.00     0.002 A 
ENDROOT
BRANCH   1   7
ATOM      7  C2  UNL d   1      -1.008   1.214  -0.151  0.00  0.00     0.056 C 
BRANCH   7   8
ATOM      8  C1  UNL d   1      -2.253   0.492   0.372  0.00  0.00     0.007 C 
ATOM      9  C   UNL d   1      -3.420   1.430   0.651  0.00  0.00     0.009 C 
ENDBRANCH   7   8
ENDBRANCH   1   7
TORSDOF 2
ENDMDL
