MODEL 1
REMARK minimizedAffinity -4.41813993
REMARK minimizedRMSD -1
REMARK  2 active torsions:
REMARK  status: ('A' for Active; 'I' for Inactive)
REMARK    1  A    between atoms: C1_2  and  C2_3 
REMARK    2  A    between atoms: C2_3  and  C3_4 
ROOT
ATOM      1  C3  UNL d   1       0.157   0.069  -0.271  0.00  0.00    -0.075 A 
ATOM      2  C4  UNL d   1       0.636  -1.248  -0.320  0.00  0.00     0.002 A 
ATOM      3  C5  UNL d   1       1.958  -1.534   0.020  0.00  0.00     0.002 A 
ATOM      4  C6  UNL d   1       2.820  -0.508   0.403  0.00  0.00    -0.004 A 
ATOM      5  C7  UNL d   1       2.359   0.806   0.439  0.00  0.00     0.002 A 
ATOM      6  C8  UNL d   1       1.035   1.095   0.104  0.00  0.00     0.002 A 
ENDROOT
BRANCH   1   7
ATOM      7  C2  UNL d   1      -1.281   0.382  -0.610  0.00  0.00     0.056 C 
BRANCH   7   8
ATOM      8  C1  UNL d   1      -2.139   0.762   0.601  0.00  0.00     0.007 C 
ATOM      9  C   UNL d   1      -3.613   0.422   0.424  0.00  0.00     0.009 C 
ENDBRANCH   7   8
ENDBRANCH   1   7
TORSDOF 2
ENDMDL
