MODEL 1
REMARK minimizedAffinity -4.35212946
REMARK minimizedRMSD -1
REMARK  2 active torsions:
REMARK  status: ('A' for Active; 'I' for Inactive)
REMARK    1  A    between atoms: C1_2  and  C2_3 
REMARK    2  A    between atoms: C2_3  and  C3_4 
ROOT
ATOM      1  C3  UNL d   1       0.772  -0.511  -0.191  0.00  0.00    -0.075 A 
ATOM      2  C4  UNL d   1       1.344   0.739   0.089  0.00  0.00     0.002 A 
ATOM      3  C5  UNL d   1       2.566   0.825   0.757  0.00  0.00     0.002 A 
ATOM      4  C6  UNL d   1       3.224  -0.334   1.163  0.00  0.00    -0.004 A 
ATOM      5  C7  UNL d   1       2.658  -1.580   0.905  0.00  0.00     0.002 A 
ATOM      6  C8  UNL d   1       1.438  -1.669   0.232  0.00  0.00     0.002 A 
ENDROOT
BRANCH   1   7
ATOM      7  C2  UNL d   1      -0.535  -0.612  -0.940  0.00  0.00     0.056 C 
BRANCH   7   8
ATOM      8  C1  UNL d   1      -1.486   0.565  -0.697  0.00  0.00     0.007 C 
ATOM      9  C   UNL d   1      -2.912   0.130  -0.386  0.00  0.00     0.009 C 
ENDBRANCH   7   8
ENDBRANCH   1   7
TORSDOF 2
ENDMDL
