MODEL 1
REMARK minimizedAffinity -4.19261169
REMARK minimizedRMSD -1
REMARK  2 active torsions:
REMARK  status: ('A' for Active; 'I' for Inactive)
REMARK    1  A    between atoms: C1_2  and  C2_3 
REMARK    2  A    between atoms: C2_3  and  C3_4 
ROOT
ATOM      1  C3  UNL d   1      -0.729  -0.468  -0.063  0.00  0.00    -0.075 A 
ATOM      2  C4  UNL d   1      -0.566  -1.857  -0.160  0.00  0.00     0.002 A 
ATOM      3  C5  UNL d   1       0.710  -2.419  -0.215  0.00  0.00     0.002 A 
ATOM      4  C6  UNL d   1       1.837  -1.600  -0.184  0.00  0.00    -0.004 A 
ATOM      5  C7  UNL d   1       1.686  -0.217  -0.105  0.00  0.00     0.002 A 
ATOM      6  C8  UNL d   1       0.411   0.347  -0.045  0.00  0.00     0.002 A 
ENDROOT
BRANCH   1   7
ATOM      7  C2  UNL d   1      -2.107   0.144   0.026  0.00  0.00     0.056 C 
BRANCH   7   8
ATOM      8  C1  UNL d   1      -2.497   0.599   1.437  0.00  0.00     0.007 C 
ATOM      9  C   UNL d   1      -3.846   0.058   1.890  0.00  0.00     0.009 C 
ENDBRANCH   7   8
ENDBRANCH   1   7
TORSDOF 2
ENDMDL
