MODEL 1
REMARK minimizedAffinity -3.7453115
REMARK minimizedRMSD -1
REMARK  2 active torsions:
REMARK  status: ('A' for Active; 'I' for Inactive)
REMARK    1  A    between atoms: C1_2  and  C2_3 
REMARK    2  A    between atoms: C2_3  and  C3_4 
ROOT
ATOM      1  C3  UNL d   1      -0.171  -0.026  -0.086  0.00  0.00    -0.075 A 
ATOM      2  C4  UNL d   1       0.985   0.300   0.637  0.00  0.00     0.002 A 
ATOM      3  C5  UNL d   1       2.054  -0.594   0.704  0.00  0.00     0.002 A 
ATOM      4  C6  UNL d   1       1.977  -1.826   0.059  0.00  0.00    -0.004 A 
ATOM      5  C7  UNL d   1       0.826  -2.167  -0.649  0.00  0.00     0.002 A 
ATOM      6  C8  UNL d   1      -0.243  -1.273  -0.721  0.00  0.00     0.002 A 
ENDROOT
BRANCH   1   7
ATOM      7  C2  UNL d   1      -1.320   0.950  -0.186  0.00  0.00     0.056 C 
BRANCH   7   8
ATOM      8  C1  UNL d   1      -2.678   0.356   0.203  0.00  0.00     0.007 C 
ATOM      9  C   UNL d   1      -3.147   0.788   1.586  0.00  0.00     0.009 C 
ENDBRANCH   7   8
ENDBRANCH   1   7
TORSDOF 2
ENDMDL
