MODEL 1
REMARK minimizedAffinity 4.42572212
REMARK minimizedRMSD -1
REMARK  2 active torsions:
REMARK  status: ('A' for Active; 'I' for Inactive)
REMARK    1  A    between atoms: C1_2  and  C2_3 
REMARK    2  A    between atoms: C2_3  and  C3_4 
ROOT
ATOM      1  C3  UNL d   1       1.195  -2.174  -0.367  0.00  0.00    -0.075 A 
ATOM      2  C4  UNL d   1       0.243  -3.180  -0.146  0.00  0.00     0.002 A 
ATOM      3  C5  UNL d   1      -1.077  -2.851   0.160  0.00  0.00     0.002 A 
ATOM      4  C6  UNL d   1      -1.461  -1.515   0.260  0.00  0.00    -0.004 A 
ATOM      5  C7  UNL d   1      -0.520  -0.508   0.059  0.00  0.00     0.002 A 
ATOM      6  C8  UNL d   1       0.801  -0.834  -0.252  0.00  0.00     0.002 A 
ENDROOT
BRANCH   1   7
ATOM      7  C2  UNL d   1       2.619  -2.523  -0.728  0.00  0.00     0.056 C 
BRANCH   7   8
ATOM      8  C1  UNL d   1       3.136  -1.814  -1.984  0.00  0.00     0.007 C 
ATOM      9  C   UNL d   1       3.987  -0.589  -1.675  0.00  0.00     0.009 C 
ENDBRANCH   7   8
ENDBRANCH   1   7
TORSDOF 2
ENDMDL
