MODEL 1
REMARK minimizedAffinity 0.0510423481
REMARK minimizedRMSD -1
REMARK  2 active torsions:
REMARK  status: ('A' for Active; 'I' for Inactive)
REMARK    1  A    between atoms: C1_2  and  C2_3 
REMARK    2  A    between atoms: C2_3  and  C3_4 
ROOT
ATOM      1  C3  UNL d   1       3.084  -0.070  -0.687  0.00  0.00    -0.075 A 
ATOM      2  C4  UNL d   1       3.197  -1.464  -0.792  0.00  0.00     0.002 A 
ATOM      3  C5  UNL d   1       2.087  -2.282  -0.584  0.00  0.00     0.002 A 
ATOM      4  C6  UNL d   1       0.854  -1.720  -0.259  0.00  0.00    -0.004 A 
ATOM      5  C7  UNL d   1       0.734  -0.337  -0.137  0.00  0.00     0.002 A 
ATOM      6  C8  UNL d   1       1.842   0.484  -0.349  0.00  0.00     0.002 A 
ENDROOT
BRANCH   1   7
ATOM      7  C2  UNL d   1       4.275   0.823  -0.940  0.00  0.00     0.056 C 
BRANCH   7   8
ATOM      8  C1  UNL d   1       3.998   2.313  -0.711  0.00  0.00     0.007 C 
ATOM      9  C   UNL d   1       5.133   3.032   0.006  0.00  0.00     0.009 C 
ENDBRANCH   7   8
ENDBRANCH   1   7
TORSDOF 2
ENDMDL
