MODEL 1
REMARK minimizedAffinity -1.29562891
REMARK minimizedRMSD -1
REMARK  0 active torsions:
REMARK  status: ('A' for Active; 'I' for Inactive)
ROOT
ATOM      1  C   UNL d   1      -0.032  -0.086   2.279  0.00  0.00     0.124 A 
ATOM      2  C1  UNL d   1       0.949  -0.903   1.735  0.00  0.00     0.062 A 
ATOM      3  C2  UNL d   1       1.046  -1.057   0.355  0.00  0.00     0.162 A 
ATOM      4  C3  UNL d   1       0.160  -0.391  -0.491  0.00  0.00    -0.034 A 
ATOM      5  C4  UNL d   1      -0.825   0.429   0.064  0.00  0.00     0.162 A 
ATOM      6  C5  UNL d   1      -0.918   0.579   1.443  0.00  0.00     0.062 A 
ATOM      7  F   UNL d   1      -1.866   1.369   1.967  0.00  0.00    -0.097 F 
ATOM      8  F1  UNL d   1      -1.694   1.084  -0.721  0.00  0.00    -0.096 F 
ATOM      9  I   UNL d   1       0.301  -0.618  -2.555  0.00  0.00    -0.060 I 
ATOM     10  F2  UNL d   1       2.004  -1.853  -0.143  0.00  0.00    -0.096 F 
ATOM     11  F3  UNL d   1       1.806  -1.547   2.541  0.00  0.00    -0.097 F 
ATOM     12  F4  UNL d   1      -0.124   0.059   3.607  0.00  0.00    -0.092 F 
ENDROOT
TORSDOF 0
ENDMDL
