MODEL 1
REMARK minimizedAffinity -2.44210362
REMARK minimizedRMSD -1
REMARK  0 active torsions:
REMARK  status: ('A' for Active; 'I' for Inactive)
ROOT
ATOM      1  C   UNL d   1      -0.149   0.456   2.984  0.00  0.00     0.124 A 
ATOM      2  C1  UNL d   1      -1.062   0.931   2.053  0.00  0.00     0.062 A 
ATOM      3  C2  UNL d   1      -0.879   0.672   0.698  0.00  0.00     0.162 A 
ATOM      4  C3  UNL d   1       0.222  -0.066   0.265  0.00  0.00    -0.034 A 
ATOM      5  C4  UNL d   1       1.137  -0.540   1.207  0.00  0.00     0.162 A 
ATOM      6  C5  UNL d   1       0.949  -0.279   2.560  0.00  0.00     0.062 A 
ATOM      7  F   UNL d   1       1.833  -0.739   3.458  0.00  0.00    -0.097 F 
ATOM      8  F1  UNL d   1       2.207  -1.253   0.825  0.00  0.00    -0.096 F 
ATOM      9  I   UNL d   1       0.500  -0.455  -1.761  0.00  0.00    -0.060 I 
ATOM     10  F2  UNL d   1      -1.778   1.144  -0.180  0.00  0.00    -0.096 F 
ATOM     11  F3  UNL d   1      -2.124   1.641   2.460  0.00  0.00    -0.097 F 
ATOM     12  F4  UNL d   1      -0.327   0.706   4.287  0.00  0.00    -0.092 F 
ENDROOT
TORSDOF 0
ENDMDL
