MODEL 1
REMARK minimizedAffinity -0.809000313
REMARK minimizedRMSD -1
REMARK  0 active torsions:
REMARK  status: ('A' for Active; 'I' for Inactive)
ROOT
ATOM      1  C   UNL d   1      -0.630   0.270   2.163  0.00  0.00     0.124 A 
ATOM      2  C1  UNL d   1       0.606   0.232   1.532  0.00  0.00     0.062 A 
ATOM      3  C2  UNL d   1       0.682   0.121   0.147  0.00  0.00     0.162 A 
ATOM      4  C3  UNL d   1      -0.482   0.048  -0.618  0.00  0.00    -0.034 A 
ATOM      5  C4  UNL d   1      -1.721   0.086   0.023  0.00  0.00     0.162 A 
ATOM      6  C5  UNL d   1      -1.792   0.197   1.407  0.00  0.00     0.062 A 
ATOM      7  F   UNL d   1      -2.987   0.233   2.015  0.00  0.00    -0.097 F 
ATOM      8  F1  UNL d   1      -2.860   0.018  -0.683  0.00  0.00    -0.096 F 
ATOM      9  I   UNL d   1      -0.372  -0.117  -2.690  0.00  0.00    -0.060 I 
ATOM     10  F2  UNL d   1       1.890   0.087  -0.435  0.00  0.00    -0.096 F 
ATOM     11  F3  UNL d   1       1.730   0.302   2.260  0.00  0.00    -0.097 F 
ATOM     12  F4  UNL d   1      -0.701   0.376   3.496  0.00  0.00    -0.092 F 
ENDROOT
TORSDOF 0
ENDMDL
