MODEL 1
REMARK minimizedAffinity -1.86929798
REMARK minimizedRMSD -1
REMARK  0 active torsions:
REMARK  status: ('A' for Active; 'I' for Inactive)
ROOT
ATOM      1  C   UNL d   1      -0.110   0.661  -2.890  0.00  0.00     0.124 A 
ATOM      2  C1  UNL d   1       0.680  -0.373  -2.407  0.00  0.00     0.062 A 
ATOM      3  C2  UNL d   1       0.676  -0.681  -1.049  0.00  0.00     0.162 A 
ATOM      4  C3  UNL d   1      -0.123   0.044  -0.165  0.00  0.00    -0.034 A 
ATOM      5  C4  UNL d   1      -0.914   1.083  -0.659  0.00  0.00     0.162 A 
ATOM      6  C5  UNL d   1      -0.907   1.387  -2.016  0.00  0.00     0.062 A 
ATOM      7  F   UNL d   1      -1.671   2.386  -2.481  0.00  0.00    -0.097 F 
ATOM      8  F1  UNL d   1      -1.694   1.801   0.163  0.00  0.00    -0.096 F 
ATOM      9  I   UNL d   1      -0.132  -0.414   1.865  0.00  0.00    -0.060 I 
ATOM     10  F2  UNL d   1       1.450  -1.685  -0.610  0.00  0.00    -0.096 F 
ATOM     11  F3  UNL d   1       1.451  -1.076  -3.249  0.00  0.00    -0.097 F 
ATOM     12  F4  UNL d   1      -0.104   0.956  -4.196  0.00  0.00    -0.092 F 
ENDROOT
TORSDOF 0
ENDMDL
