MODEL 1
REMARK minimizedAffinity -1.56298304
REMARK minimizedRMSD -1
REMARK  0 active torsions:
REMARK  status: ('A' for Active; 'I' for Inactive)
ROOT
ATOM      1  C   UNL d   1      -0.046   0.044   2.867  0.00  0.00     0.124 A 
ATOM      2  C1  UNL d   1       1.091  -0.565   2.354  0.00  0.00     0.062 A 
ATOM      3  C2  UNL d   1       1.217  -0.769   0.983  0.00  0.00     0.162 A 
ATOM      4  C3  UNL d   1       0.204  -0.363   0.115  0.00  0.00    -0.034 A 
ATOM      5  C4  UNL d   1      -0.937   0.248   0.638  0.00  0.00     0.162 A 
ATOM      6  C5  UNL d   1      -1.059   0.450   2.009  0.00  0.00     0.062 A 
ATOM      7  F   UNL d   1      -2.158   1.038   2.503  0.00  0.00    -0.097 F 
ATOM      8  F1  UNL d   1      -1.930   0.650  -0.168  0.00  0.00    -0.096 F 
ATOM      9  I   UNL d   1       0.389  -0.667  -1.936  0.00  0.00    -0.060 I 
ATOM     10  F2  UNL d   1       2.327  -1.360   0.515  0.00  0.00    -0.096 F 
ATOM     11  F3  UNL d   1       2.070  -0.958   3.181  0.00  0.00    -0.097 F 
ATOM     12  F4  UNL d   1      -0.165   0.239   4.187  0.00  0.00    -0.092 F 
ENDROOT
TORSDOF 0
ENDMDL
