MODEL 1
REMARK minimizedAffinity 0.216698766
REMARK minimizedRMSD -1
REMARK  0 active torsions:
REMARK  status: ('A' for Active; 'I' for Inactive)
ROOT
ATOM      1  C   UNL d   1      -0.190   0.225   2.428  0.00  0.00     0.124 A 
ATOM      2  C1  UNL d   1       0.896  -0.408   1.841  0.00  0.00     0.062 A 
ATOM      3  C2  UNL d   1       0.966  -0.541   0.457  0.00  0.00     0.162 A 
ATOM      4  C3  UNL d   1      -0.054  -0.038  -0.350  0.00  0.00    -0.034 A 
ATOM      5  C4  UNL d   1      -1.144   0.598   0.247  0.00  0.00     0.162 A 
ATOM      6  C5  UNL d   1      -1.209   0.728   1.631  0.00  0.00     0.062 A 
ATOM      7  F   UNL d   1      -2.260   1.340   2.196  0.00  0.00    -0.097 F 
ATOM      8  F1  UNL d   1      -2.143   1.093  -0.499  0.00  0.00    -0.096 F 
ATOM      9  I   UNL d   1       0.046  -0.234  -2.420  0.00  0.00    -0.060 I 
ATOM     10  F2  UNL d   1       2.027  -1.158  -0.083  0.00  0.00    -0.096 F 
ATOM     11  F3  UNL d   1       1.882  -0.895   2.609  0.00  0.00    -0.097 F 
ATOM     12  F4  UNL d   1      -0.255   0.351   3.759  0.00  0.00    -0.092 F 
ENDROOT
TORSDOF 0
ENDMDL
