MODEL 1
REMARK minimizedAffinity -1.5773741
REMARK minimizedRMSD -1
REMARK  0 active torsions:
REMARK  status: ('A' for Active; 'I' for Inactive)
ROOT
ATOM      1  C   UNL d   1      -0.535   0.055   2.875  0.00  0.00     0.124 A 
ATOM      2  C1  UNL d   1       0.656  -0.534   2.472  0.00  0.00     0.062 A 
ATOM      3  C2  UNL d   1       0.898  -0.770   1.122  0.00  0.00     0.162 A 
ATOM      4  C3  UNL d   1      -0.053  -0.417   0.164  0.00  0.00    -0.034 A 
ATOM      5  C4  UNL d   1      -1.248   0.173   0.577  0.00  0.00     0.162 A 
ATOM      6  C5  UNL d   1      -1.486   0.408   1.928  0.00  0.00     0.062 A 
ATOM      7  F   UNL d   1      -2.637   0.976   2.315  0.00  0.00    -0.097 F 
ATOM      8  F1  UNL d   1      -2.184   0.525  -0.317  0.00  0.00    -0.096 F 
ATOM      9  I   UNL d   1       0.306  -0.770  -1.855  0.00  0.00    -0.060 I 
ATOM     10  F2  UNL d   1       2.057  -1.340   0.761  0.00  0.00    -0.096 F 
ATOM     11  F3  UNL d   1       1.576  -0.876   3.386  0.00  0.00    -0.097 F 
ATOM     12  F4  UNL d   1      -0.766   0.281   4.175  0.00  0.00    -0.092 F 
ENDROOT
TORSDOF 0
ENDMDL
