MODEL 1
REMARK minimizedAffinity 0.131561503
REMARK minimizedRMSD -1
REMARK  0 active torsions:
REMARK  status: ('A' for Active; 'I' for Inactive)
ROOT
ATOM      1  C   UNL d   1      -0.058  -0.312   2.987  0.00  0.00     0.124 A 
ATOM      2  C1  UNL d   1      -1.164   0.072   2.242  0.00  0.00     0.062 A 
ATOM      3  C2  UNL d   1      -1.137  -0.016   0.853  0.00  0.00     0.162 A 
ATOM      4  C3  UNL d   1      -0.000  -0.493   0.200  0.00  0.00    -0.034 A 
ATOM      5  C4  UNL d   1       1.108  -0.877   0.957  0.00  0.00     0.162 A 
ATOM      6  C5  UNL d   1       1.077  -0.786   2.344  0.00  0.00     0.062 A 
ATOM      7  F   UNL d   1       2.146  -1.158   3.063  0.00  0.00    -0.097 F 
ATOM      8  F1  UNL d   1       2.218  -1.339   0.361  0.00  0.00    -0.096 F 
ATOM      9  I   UNL d   1       0.044  -0.627  -1.876  0.00  0.00    -0.060 I 
ATOM     10  F2  UNL d   1      -2.220   0.362   0.158  0.00  0.00    -0.096 F 
ATOM     11  F3  UNL d   1      -2.261   0.531   2.861  0.00  0.00    -0.097 F 
ATOM     12  F4  UNL d   1      -0.086  -0.225   4.323  0.00  0.00    -0.092 F 
ENDROOT
TORSDOF 0
ENDMDL
