MODEL 1
REMARK minimizedAffinity 4.20184803
REMARK minimizedRMSD -1
REMARK  0 active torsions:
REMARK  status: ('A' for Active; 'I' for Inactive)
ROOT
ATOM      1  C   UNL d   1       1.356   0.119  -3.733  0.00  0.00     0.124 A 
ATOM      2  C1  UNL d   1       1.962   0.439  -2.526  0.00  0.00     0.062 A 
ATOM      3  C2  UNL d   1       1.249   0.335  -1.336  0.00  0.00     0.162 A 
ATOM      4  C3  UNL d   1      -0.079  -0.092  -1.346  0.00  0.00    -0.034 A 
ATOM      5  C4  UNL d   1      -0.682  -0.412  -2.563  0.00  0.00     0.162 A 
ATOM      6  C5  UNL d   1       0.035  -0.307  -3.751  0.00  0.00     0.062 A 
ATOM      7  F   UNL d   1      -0.552  -0.617  -4.916  0.00  0.00    -0.097 F 
ATOM      8  F1  UNL d   1      -1.956  -0.827  -2.609  0.00  0.00    -0.096 F 
ATOM      9  I   UNL d   1      -1.149  -0.249   0.433  0.00  0.00    -0.060 I 
ATOM     10  F2  UNL d   1       1.860   0.652  -0.184  0.00  0.00    -0.096 F 
ATOM     11  F3  UNL d   1       3.238   0.852  -2.507  0.00  0.00    -0.097 F 
ATOM     12  F4  UNL d   1       2.045   0.220  -4.878  0.00  0.00    -0.092 F 
ENDROOT
TORSDOF 0
ENDMDL
