MODEL 1
REMARK minimizedAffinity -2.57524037
REMARK minimizedRMSD -1
REMARK  0 active torsions:
REMARK  status: ('A' for Active; 'I' for Inactive)
ROOT
ATOM      1  C   UNL d   1      -0.155   0.137   2.366  0.00  0.00     0.124 A 
ATOM      2  C1  UNL d   1       0.785  -0.765   1.888  0.00  0.00     0.062 A 
ATOM      3  C2  UNL d   1       0.848  -1.056   0.529  0.00  0.00     0.162 A 
ATOM      4  C3  UNL d   1      -0.031  -0.443  -0.364  0.00  0.00    -0.034 A 
ATOM      5  C4  UNL d   1      -0.975   0.463   0.124  0.00  0.00     0.162 A 
ATOM      6  C5  UNL d   1      -1.034   0.750   1.484  0.00  0.00     0.062 A 
ATOM      7  F   UNL d   1      -1.943   1.622   1.944  0.00  0.00    -0.097 F 
ATOM      8  F1  UNL d   1      -1.835   1.070  -0.706  0.00  0.00    -0.096 F 
ATOM      9  I   UNL d   1       0.060  -0.875  -2.398  0.00  0.00    -0.060 I 
ATOM     10  F2  UNL d   1       1.767  -1.932   0.095  0.00  0.00    -0.096 F 
ATOM     11  F3  UNL d   1       1.634  -1.359   2.739  0.00  0.00    -0.097 F 
ATOM     12  F4  UNL d   1      -0.215   0.415   3.675  0.00  0.00    -0.092 F 
ENDROOT
TORSDOF 0
ENDMDL
