MODEL 1
REMARK minimizedAffinity -4.45468712
REMARK minimizedRMSD -1
REMARK  0 active torsions:
REMARK  status: ('A' for Active; 'I' for Inactive)
ROOT
ATOM      1  C   UNL d   1       0.494  -2.011   0.823  0.00  0.00     0.078 C 
ATOM      2  C1  UNL d   1       0.198  -0.652   0.264  0.00  0.00    -0.077 A 
ATOM      3  C2  UNL d   1      -1.092  -0.110   0.332  0.00  0.00    -0.001 A 
ATOM      4  C3  UNL d   1      -1.355   1.153  -0.201  0.00  0.00     0.003 A 
ATOM      5  C4  UNL d   1      -0.335   1.883  -0.808  0.00  0.00    -0.005 A 
ATOM      6  C5  UNL d   1       0.950   1.351  -0.882  0.00  0.00     0.003 A 
ATOM      7  C6  UNL d   1       1.216   0.088  -0.350  0.00  0.00    -0.001 A 
ENDROOT
TORSDOF 0
ENDMDL
