MODEL 1
REMARK minimizedAffinity -4.67600441
REMARK minimizedRMSD -1
REMARK  0 active torsions:
REMARK  status: ('A' for Active; 'I' for Inactive)
ROOT
ATOM      1  C   UNL d   1       2.993   0.308  -0.608  0.00  0.00     0.078 C 
ATOM      2  C1  UNL d   1       1.537   0.397  -0.260  0.00  0.00    -0.077 A 
ATOM      3  C2  UNL d   1       1.014  -0.302   0.835  0.00  0.00    -0.001 A 
ATOM      4  C3  UNL d   1      -0.345  -0.218   1.142  0.00  0.00     0.003 A 
ATOM      5  C4  UNL d   1      -1.193   0.563   0.358  0.00  0.00    -0.005 A 
ATOM      6  C5  UNL d   1      -0.681   1.260  -0.735  0.00  0.00     0.003 A 
ATOM      7  C6  UNL d   1       0.677   1.177  -1.043  0.00  0.00    -0.001 A 
ENDROOT
TORSDOF 0
ENDMDL
