MODEL 1
REMARK minimizedAffinity -5.55138445
REMARK minimizedRMSD -1
REMARK  0 active torsions:
REMARK  status: ('A' for Active; 'I' for Inactive)
ROOT
ATOM      1  C   UNL d   1      -0.730   0.442   0.320  0.00  0.00     0.078 C 
ATOM      2  C1  UNL d   1       0.474   0.330  -0.566  0.00  0.00    -0.077 A 
ATOM      3  C2  UNL d   1       1.280  -0.816  -0.546  0.00  0.00    -0.001 A 
ATOM      4  C3  UNL d   1       2.403  -0.903  -1.369  0.00  0.00     0.003 A 
ATOM      5  C4  UNL d   1       2.733   0.152  -2.218  0.00  0.00    -0.005 A 
ATOM      6  C5  UNL d   1       1.938   1.297  -2.243  0.00  0.00     0.003 A 
ATOM      7  C6  UNL d   1       0.814   1.386  -1.421  0.00  0.00    -0.001 A 
ENDROOT
TORSDOF 0
ENDMDL
