MODEL 1
REMARK minimizedAffinity -4.9157424
REMARK minimizedRMSD -1
REMARK  0 active torsions:
REMARK  status: ('A' for Active; 'I' for Inactive)
ROOT
ATOM      1  C   UNL d   1       2.694  -0.469  -1.504  0.00  0.00     0.078 C 
ATOM      2  C1  UNL d   1       1.337  -0.112  -0.976  0.00  0.00    -0.077 A 
ATOM      3  C2  UNL d   1       0.578  -1.038  -0.251  0.00  0.00    -0.001 A 
ATOM      4  C3  UNL d   1      -0.688  -0.695   0.226  0.00  0.00     0.003 A 
ATOM      5  C4  UNL d   1      -1.207   0.575  -0.019  0.00  0.00    -0.005 A 
ATOM      6  C5  UNL d   1      -0.461   1.503  -0.741  0.00  0.00     0.003 A 
ATOM      7  C6  UNL d   1       0.806   1.161  -1.219  0.00  0.00    -0.001 A 
ENDROOT
TORSDOF 0
ENDMDL
