MODEL 1
REMARK minimizedAffinity -5.48949432
REMARK minimizedRMSD -1
REMARK  0 active torsions:
REMARK  status: ('A' for Active; 'I' for Inactive)
ROOT
ATOM      1  C   UNL d   1      -0.587   0.030   0.536  0.00  0.00     0.078 C 
ATOM      2  C1  UNL d   1       0.636  -0.177  -0.308  0.00  0.00    -0.077 A 
ATOM      3  C2  UNL d   1       0.926   0.677  -1.378  0.00  0.00    -0.001 A 
ATOM      4  C3  UNL d   1       2.062   0.467  -2.162  0.00  0.00     0.003 A 
ATOM      5  C4  UNL d   1       2.916  -0.598  -1.883  0.00  0.00    -0.005 A 
ATOM      6  C5  UNL d   1       2.634  -1.455  -0.821  0.00  0.00     0.003 A 
ATOM      7  C6  UNL d   1       1.499  -1.246  -0.037  0.00  0.00    -0.001 A 
ENDROOT
TORSDOF 0
ENDMDL
