MODEL 1
REMARK minimizedAffinity -6.2386198
REMARK minimizedRMSD -1
REMARK  0 active torsions:
REMARK  status: ('A' for Active; 'I' for Inactive)
ROOT
ATOM      1  C   UNL d   1      -0.749   0.397   0.516  0.00  0.00     0.078 C 
ATOM      2  C1  UNL d   1       0.344   0.517  -0.504  0.00  0.00    -0.077 A 
ATOM      3  C2  UNL d   1       0.420   1.628  -1.352  0.00  0.00    -0.001 A 
ATOM      4  C3  UNL d   1       1.437   1.722  -2.304  0.00  0.00     0.003 A 
ATOM      5  C4  UNL d   1       2.385   0.706  -2.416  0.00  0.00    -0.005 A 
ATOM      6  C5  UNL d   1       2.316  -0.404  -1.578  0.00  0.00     0.003 A 
ATOM      7  C6  UNL d   1       1.299  -0.499  -0.626  0.00  0.00    -0.001 A 
ENDROOT
TORSDOF 0
ENDMDL
