MODEL 1
REMARK minimizedAffinity -2.37692404
REMARK minimizedRMSD -1
REMARK  0 active torsions:
REMARK  status: ('A' for Active; 'I' for Inactive)
ROOT
ATOM      1  C   UNL d   1       0.304   0.399  -0.105  0.00  0.00     0.078 C 
ATOM      2  C1  UNL d   1      -0.653   0.635   1.025  0.00  0.00    -0.077 A 
ATOM      3  C2  UNL d   1      -1.719  -0.243   1.262  0.00  0.00    -0.001 A 
ATOM      4  C3  UNL d   1      -2.608  -0.006   2.311  0.00  0.00     0.003 A 
ATOM      5  C4  UNL d   1      -2.442   1.108   3.131  0.00  0.00    -0.005 A 
ATOM      6  C5  UNL d   1      -1.386   1.988   2.902  0.00  0.00     0.003 A 
ATOM      7  C6  UNL d   1      -0.496   1.753   1.854  0.00  0.00    -0.001 A 
ENDROOT
TORSDOF 0
ENDMDL
