MODEL 1
REMARK minimizedAffinity -4.65029335
REMARK minimizedRMSD -1
REMARK  0 active torsions:
REMARK  status: ('A' for Active; 'I' for Inactive)
ROOT
ATOM      1  C   UNL d   1       2.878  -0.414  -1.087  0.00  0.00     0.078 C 
ATOM      2  C1  UNL d   1       1.410  -0.486  -0.791  0.00  0.00    -0.077 A 
ATOM      3  C2  UNL d   1       0.659   0.677  -0.582  0.00  0.00    -0.001 A 
ATOM      4  C3  UNL d   1      -0.705   0.595  -0.297  0.00  0.00     0.003 A 
ATOM      5  C4  UNL d   1      -1.330  -0.648  -0.217  0.00  0.00    -0.005 A 
ATOM      6  C5  UNL d   1      -0.590  -1.811  -0.421  0.00  0.00     0.003 A 
ATOM      7  C6  UNL d   1       0.774  -1.731  -0.706  0.00  0.00    -0.001 A 
ENDROOT
TORSDOF 0
ENDMDL
