MODEL 1
REMARK minimizedAffinity -5.64432001
REMARK minimizedRMSD -1
REMARK  0 active torsions:
REMARK  status: ('A' for Active; 'I' for Inactive)
ROOT
ATOM      1  C   UNL d   1       2.995  -0.052  -1.302  0.00  0.00     0.078 C 
ATOM      2  C1  UNL d   1       1.576  -0.370  -0.933  0.00  0.00    -0.077 A 
ATOM      3  C2  UNL d   1       0.617   0.644  -0.815  0.00  0.00    -0.001 A 
ATOM      4  C3  UNL d   1      -0.697   0.334  -0.462  0.00  0.00     0.003 A 
ATOM      5  C4  UNL d   1      -1.065  -0.989  -0.223  0.00  0.00    -0.005 A 
ATOM      6  C5  UNL d   1      -0.117  -2.004  -0.337  0.00  0.00     0.003 A 
ATOM      7  C6  UNL d   1       1.198  -1.696  -0.690  0.00  0.00    -0.001 A 
ENDROOT
TORSDOF 0
ENDMDL
