MODEL 1
REMARK minimizedAffinity -4.94814157
REMARK minimizedRMSD -1
REMARK  0 active torsions:
REMARK  status: ('A' for Active; 'I' for Inactive)
ROOT
ATOM      1  C   UNL d   1      -0.579  -2.681  -0.507  0.00  0.00     0.078 C 
ATOM      2  C1  UNL d   1       0.327  -1.487  -0.550  0.00  0.00    -0.077 A 
ATOM      3  C2  UNL d   1      -0.032  -0.287   0.076  0.00  0.00    -0.001 A 
ATOM      4  C3  UNL d   1       0.816   0.820   0.020  0.00  0.00     0.003 A 
ATOM      5  C4  UNL d   1       2.029   0.739  -0.662  0.00  0.00    -0.005 A 
ATOM      6  C5  UNL d   1       2.393  -0.451  -1.290  0.00  0.00     0.003 A 
ATOM      7  C6  UNL d   1       1.546  -1.558  -1.235  0.00  0.00    -0.001 A 
ENDROOT
TORSDOF 0
ENDMDL
