MODEL 1
REMARK minimizedAffinity -5.77815485
REMARK minimizedRMSD -1
REMARK  0 active torsions:
REMARK  status: ('A' for Active; 'I' for Inactive)
ROOT
ATOM      1  C   UNL d   1      -1.278   0.400   0.598  0.00  0.00     0.078 C 
ATOM      2  C1  UNL d   1       0.056  -0.010   0.049  0.00  0.00    -0.077 A 
ATOM      3  C2  UNL d   1       1.141   0.876   0.056  0.00  0.00    -0.001 A 
ATOM      4  C3  UNL d   1       2.374   0.485  -0.467  0.00  0.00     0.003 A 
ATOM      5  C4  UNL d   1       2.535  -0.792  -1.001  0.00  0.00    -0.005 A 
ATOM      6  C5  UNL d   1       1.461  -1.680  -1.013  0.00  0.00     0.003 A 
ATOM      7  C6  UNL d   1       0.226  -1.290  -0.491  0.00  0.00    -0.001 A 
ENDROOT
TORSDOF 0
ENDMDL
