MODEL 1
REMARK minimizedAffinity -4.09022665
REMARK minimizedRMSD -1
REMARK  0 active torsions:
REMARK  status: ('A' for Active; 'I' for Inactive)
ROOT
ATOM      1  N1  IND d   1       0.843   0.470  -0.962  0.00  0.00    -0.196 N 
ATOM      2  C2  IND d   1       0.648  -0.802  -0.503  0.00  0.00     0.054 A 
ATOM      3  C3  IND d   1      -0.242  -0.804   0.515  0.00  0.00    -0.031 A 
ATOM      4  C4  IND d   1      -1.577   1.153   1.523  0.00  0.00     0.051 A 
ATOM      5  C5  IND d   1      -1.711   2.512   1.460  0.00  0.00    -0.031 A 
ATOM      6  C6  IND d   1      -0.988   3.274   0.565  0.00  0.00     0.015 A 
ATOM      7  C7  IND d   1      -0.108   2.703  -0.310  0.00  0.00    -0.016 A 
ATOM      8  C8  IND d   1       0.036   1.324  -0.243  0.00  0.00    -0.047 A 
ATOM      9  C9  IND d   1      -0.664   0.550   0.691  0.00  0.00    -0.096 A 
ATOM     10  HN1 IND d   1       1.380   0.699  -1.593  0.00  0.00     0.298 HD
ENDROOT
TORSDOF 0
ENDMDL
