MODEL 1
REMARK minimizedAffinity -3.75487137
REMARK minimizedRMSD -1
REMARK  0 active torsions:
REMARK  status: ('A' for Active; 'I' for Inactive)
ROOT
ATOM      1  N1  IND d   1       0.806   0.232  -0.762  0.00  0.00    -0.196 N 
ATOM      2  C2  IND d   1       0.620  -0.817   0.094  0.00  0.00     0.054 A 
ATOM      3  C3  IND d   1      -0.226  -0.469   1.089  0.00  0.00    -0.031 A 
ATOM      4  C4  IND d   1      -1.504   1.737   1.451  0.00  0.00     0.051 A 
ATOM      5  C5  IND d   1      -1.630   3.003   0.953  0.00  0.00    -0.031 A 
ATOM      6  C6  IND d   1      -0.939   3.418  -0.167  0.00  0.00     0.015 A 
ATOM      7  C7  IND d   1      -0.101   2.575  -0.840  0.00  0.00    -0.016 A 
ATOM      8  C8  IND d   1       0.036   1.290  -0.332  0.00  0.00    -0.047 A 
ATOM      9  C9  IND d   1      -0.631   0.877   0.829  0.00  0.00    -0.096 A 
ATOM     10  HN1 IND d   1       1.319   0.232  -1.453  0.00  0.00     0.298 HD
ENDROOT
TORSDOF 0
ENDMDL
