MODEL 1
REMARK minimizedAffinity -4.21144152
REMARK minimizedRMSD -1
REMARK  0 active torsions:
REMARK  status: ('A' for Active; 'I' for Inactive)
ROOT
ATOM      1  N1  IND d   1       0.560  -0.134  -1.335  0.00  0.00    -0.196 N 
ATOM      2  C2  IND d   1       1.090  -1.239  -0.730  0.00  0.00     0.054 A 
ATOM      3  C3  IND d   1       0.688  -1.308   0.559  0.00  0.00    -0.031 A 
ATOM      4  C4  IND d   1      -0.920   0.228   1.855  0.00  0.00     0.051 A 
ATOM      5  C5  IND d   1      -1.630   1.390   1.737  0.00  0.00    -0.031 A 
ATOM      6  C6  IND d   1      -1.649   2.117   0.564  0.00  0.00     0.015 A 
ATOM      7  C7  IND d   1      -0.965   1.700  -0.543  0.00  0.00    -0.016 A 
ATOM      8  C8  IND d   1      -0.237   0.525  -0.424  0.00  0.00    -0.047 A 
ATOM      9  C9  IND d   1      -0.180  -0.194   0.777  0.00  0.00    -0.096 A 
ATOM     10  HN1 IND d   1       0.700   0.109  -2.148  0.00  0.00     0.298 HD
ENDROOT
TORSDOF 0
ENDMDL
