MODEL 1
REMARK minimizedAffinity -3.03360152
REMARK minimizedRMSD -1
REMARK  0 active torsions:
REMARK  status: ('A' for Active; 'I' for Inactive)
ROOT
ATOM      1  N1  IND d   1       0.979   0.173  -1.794  0.00  0.00    -0.196 N 
ATOM      2  C2  IND d   1       1.336  -1.100  -1.447  0.00  0.00     0.054 A 
ATOM      3  C3  IND d   1       0.771  -1.442  -0.267  0.00  0.00    -0.031 A 
ATOM      4  C4  IND d   1      -0.855  -0.107   1.216  0.00  0.00     0.051 A 
ATOM      5  C5  IND d   1      -1.446   1.120   1.333  0.00  0.00    -0.031 A 
ATOM      6  C6  IND d   1      -1.257   2.113   0.393  0.00  0.00     0.015 A 
ATOM      7  C7  IND d   1      -0.476   1.911  -0.709  0.00  0.00    -0.016 A 
ATOM      8  C8  IND d   1       0.131   0.669  -0.828  0.00  0.00    -0.047 A 
ATOM      9  C9  IND d   1      -0.022  -0.328   0.144  0.00  0.00    -0.096 A 
ATOM     10  HN1 IND d   1       1.240   0.593  -2.497  0.00  0.00     0.298 HD
ENDROOT
TORSDOF 0
ENDMDL
