MODEL 1
REMARK minimizedAffinity -3.11721206
REMARK minimizedRMSD -1
REMARK  0 active torsions:
REMARK  status: ('A' for Active; 'I' for Inactive)
ROOT
ATOM      1  N1  IND d   1       0.875   0.145  -0.812  0.00  0.00    -0.196 N 
ATOM      2  C2  IND d   1       0.812  -0.840   0.134  0.00  0.00     0.054 A 
ATOM      3  C3  IND d   1      -0.000  -0.466   1.148  0.00  0.00    -0.031 A 
ATOM      4  C4  IND d   1      -1.409   1.672   1.413  0.00  0.00     0.051 A 
ATOM      5  C5  IND d   1      -1.653   2.881   0.825  0.00  0.00    -0.031 A 
ATOM      6  C6  IND d   1      -1.056   3.247  -0.365  0.00  0.00     0.015 A 
ATOM      7  C7  IND d   1      -0.199   2.408  -1.019  0.00  0.00    -0.016 A 
ATOM      8  C8  IND d   1       0.056   1.182  -0.421  0.00  0.00    -0.047 A 
ATOM      9  C9  IND d   1      -0.513   0.823   0.808  0.00  0.00    -0.096 A 
ATOM     10  HN1 IND d   1       1.346   0.121  -1.531  0.00  0.00     0.298 HD
ENDROOT
TORSDOF 0
ENDMDL
