MODEL 1
REMARK minimizedAffinity -2.10963464
REMARK minimizedRMSD -1
REMARK  0 active torsions:
REMARK  status: ('A' for Active; 'I' for Inactive)
ROOT
ATOM      1  N1  IND d   1      -1.175   1.565   1.994  0.00  0.00    -0.196 N 
ATOM      2  C2  IND d   1      -1.539   2.416   0.988  0.00  0.00     0.054 A 
ATOM      3  C3  IND d   1      -1.035   1.991  -0.192  0.00  0.00    -0.031 A 
ATOM      4  C4  IND d   1       0.329  -0.128  -0.721  0.00  0.00     0.051 A 
ATOM      5  C5  IND d   1       0.938  -1.194  -0.121  0.00  0.00    -0.031 A 
ATOM      6  C6  IND d   1       0.870  -1.401   1.242  0.00  0.00     0.015 A 
ATOM      7  C7  IND d   1       0.178  -0.551   2.058  0.00  0.00    -0.016 A 
ATOM      8  C8  IND d   1      -0.436   0.536   1.453  0.00  0.00    -0.047 A 
ATOM      9  C9  IND d   1      -0.335   0.775   0.076  0.00  0.00    -0.096 A 
ATOM     10  HN1 IND d   1      -1.375   1.657   2.826  0.00  0.00     0.298 HD
ENDROOT
TORSDOF 0
ENDMDL
