MODEL 1
REMARK minimizedAffinity -3.5428369
REMARK minimizedRMSD -1
REMARK  0 active torsions:
REMARK  status: ('A' for Active; 'I' for Inactive)
ROOT
ATOM      1  N1  IND d   1      -1.517   0.865   1.986  0.00  0.00    -0.196 N 
ATOM      2  C2  IND d   1      -2.197   1.881   1.375  0.00  0.00     0.054 A 
ATOM      3  C3  IND d   1      -1.742   2.060   0.114  0.00  0.00    -0.031 A 
ATOM      4  C4  IND d   1       0.040   0.732  -1.185  0.00  0.00     0.051 A 
ATOM      5  C5  IND d   1       0.964  -0.264  -1.035  0.00  0.00    -0.031 A 
ATOM      6  C6  IND d   1       1.108  -0.951   0.153  0.00  0.00     0.015 A 
ATOM      7  C7  IND d   1       0.324  -0.673   1.237  0.00  0.00    -0.016 A 
ATOM      8  C8  IND d   1      -0.610   0.343   1.090  0.00  0.00    -0.047 A 
ATOM      9  C9  IND d   1      -0.733   1.072  -0.100  0.00  0.00    -0.096 A 
ATOM     10  HN1 IND d   1      -1.636   0.597   2.794  0.00  0.00     0.298 HD
ENDROOT
TORSDOF 0
ENDMDL
