MODEL 1
REMARK minimizedAffinity -3.82485461
REMARK minimizedRMSD -1
REMARK  0 active torsions:
REMARK  status: ('A' for Active; 'I' for Inactive)
ROOT
ATOM      1  N1  IND d   1       0.800  -0.185  -0.861  0.00  0.00    -0.196 N 
ATOM      2  C2  IND d   1       0.894  -1.246  -0.005  0.00  0.00     0.054 A 
ATOM      3  C3  IND d   1       0.110  -1.047   1.078  0.00  0.00    -0.031 A 
ATOM      4  C4  IND d   1      -1.488   0.902   1.605  0.00  0.00     0.051 A 
ATOM      5  C5  IND d   1      -1.887   2.123   1.140  0.00  0.00    -0.031 A 
ATOM      6  C6  IND d   1      -1.403   2.647  -0.041  0.00  0.00     0.015 A 
ATOM      7  C7  IND d   1      -0.506   1.961  -0.811  0.00  0.00    -0.016 A 
ATOM      8  C8  IND d   1      -0.093   0.723  -0.338  0.00  0.00    -0.047 A 
ATOM      9  C9  IND d   1      -0.549   0.205   0.881  0.00  0.00    -0.096 A 
ATOM     10  HN1 IND d   1       1.228  -0.099  -1.602  0.00  0.00     0.298 HD
ENDROOT
TORSDOF 0
ENDMDL
