MODEL 1
REMARK minimizedAffinity -1.58302665
REMARK minimizedRMSD -1
REMARK  0 active torsions:
REMARK  status: ('A' for Active; 'I' for Inactive)
ROOT
ATOM      1  N1  IND d   1       0.351  -1.583  -2.607  0.00  0.00    -0.196 N 
ATOM      2  C2  IND d   1       0.714  -2.861  -2.283  0.00  0.00     0.054 A 
ATOM      3  C3  IND d   1       0.751  -3.013  -0.941  0.00  0.00    -0.031 A 
ATOM      4  C4  IND d   1       0.155  -1.329   0.913  0.00  0.00     0.051 A 
ATOM      5  C5  IND d   1      -0.195  -0.023   1.110  0.00  0.00    -0.031 A 
ATOM      6  C6  IND d   1      -0.388   0.847   0.056  0.00  0.00     0.015 A 
ATOM      7  C7  IND d   1      -0.248   0.438  -1.240  0.00  0.00    -0.016 A 
ATOM      8  C8  IND d   1       0.115  -0.886  -1.443  0.00  0.00    -0.047 A 
ATOM      9  C9  IND d   1       0.353  -1.762  -0.376  0.00  0.00    -0.096 A 
ATOM     10  HN1 IND d   1       0.282  -1.268  -3.404  0.00  0.00     0.298 HD
ENDROOT
TORSDOF 0
ENDMDL
