MODEL 1
REMARK minimizedAffinity -4.00738907
REMARK minimizedRMSD -1
REMARK  0 active torsions:
REMARK  status: ('A' for Active; 'I' for Inactive)
ROOT
ATOM      1  N1  IND d   1      -1.196   1.935  -0.182  0.00  0.00    -0.196 N 
ATOM      2  C2  IND d   1      -1.878   2.050   0.997  0.00  0.00     0.054 A 
ATOM      3  C3  IND d   1      -1.624   0.986   1.793  0.00  0.00    -0.031 A 
ATOM      4  C4  IND d   1      -0.044  -1.008   1.403  0.00  0.00     0.051 A 
ATOM      5  C5  IND d   1       0.768  -1.571   0.458  0.00  0.00    -0.031 A 
ATOM      6  C6  IND d   1       0.972  -0.980  -0.773  0.00  0.00     0.015 A 
ATOM      7  C7  IND d   1       0.379   0.206  -1.101  0.00  0.00    -0.016 A 
ATOM      8  C8  IND d   1      -0.451   0.776  -0.147  0.00  0.00    -0.047 A 
ATOM      9  C9  IND d   1      -0.696   0.160   1.087  0.00  0.00    -0.096 A 
ATOM     10  HN1 IND d   1      -1.227   2.492  -0.836  0.00  0.00     0.298 HD
ENDROOT
TORSDOF 0
ENDMDL
