MODEL 1
REMARK minimizedAffinity -5.45027399
REMARK minimizedRMSD -1
REMARK  0 active torsions:
REMARK  status: ('A' for Active; 'I' for Inactive)
ROOT
ATOM      1  N1  IND d   1       0.575  -0.571   1.269  0.00  0.00    -0.196 N 
ATOM      2  C2  IND d   1       1.133  -0.888   0.062  0.00  0.00     0.054 A 
ATOM      3  C3  IND d   1       0.637  -0.089  -0.909  0.00  0.00    -0.031 A 
ATOM      4  C4  IND d   1      -1.024   1.869  -0.728  0.00  0.00     0.051 A 
ATOM      5  C5  IND d   1      -1.836   2.513   0.162  0.00  0.00    -0.031 A 
ATOM      6  C6  IND d   1      -1.885   2.158   1.495  0.00  0.00     0.015 A 
ATOM      7  C7  IND d   1      -1.112   1.147   1.991  0.00  0.00    -0.016 A 
ATOM      8  C8  IND d   1      -0.291   0.485   1.088  0.00  0.00    -0.047 A 
ATOM      9  C9  IND d   1      -0.269   0.814  -0.274  0.00  0.00    -0.096 A 
ATOM     10  HN1 IND d   1       0.737  -0.965   2.016  0.00  0.00     0.298 HD
ENDROOT
TORSDOF 0
ENDMDL
