MODEL 1
REMARK minimizedAffinity -2.21400928
REMARK minimizedRMSD -1
REMARK  0 active torsions:
REMARK  status: ('A' for Active; 'I' for Inactive)
ROOT
ATOM      1  N1  IND d   1      -0.341  -2.080  -3.260  0.00  0.00    -0.196 N 
ATOM      2  C2  IND d   1       0.354  -3.234  -3.025  0.00  0.00     0.054 A 
ATOM      3  C3  IND d   1       0.872  -3.225  -1.776  0.00  0.00    -0.031 A 
ATOM      4  C4  IND d   1       0.619  -1.466   0.087  0.00  0.00     0.051 A 
ATOM      5  C5  IND d   1       0.106  -0.223   0.332  0.00  0.00    -0.031 A 
ATOM      6  C6  IND d   1      -0.599   0.477  -0.625  0.00  0.00     0.015 A 
ATOM      7  C7  IND d   1      -0.828  -0.047  -1.866  0.00  0.00    -0.016 A 
ATOM      8  C8  IND d   1      -0.302  -1.305  -2.122  0.00  0.00    -0.047 A 
ATOM      9  C9  IND d   1       0.450  -2.003  -1.168  0.00  0.00    -0.096 A 
ATOM     10  HN1 IND d   1      -0.736  -1.873  -3.996  0.00  0.00     0.298 HD
ENDROOT
TORSDOF 0
ENDMDL
