MODEL 1
REMARK minimizedAffinity 1.05836487
REMARK minimizedRMSD -1
REMARK  0 active torsions:
REMARK  status: ('A' for Active; 'I' for Inactive)
ROOT
ATOM      1  N1  IND d   1       1.574  -0.736  -0.286  0.00  0.00    -0.196 N 
ATOM      2  C2  IND d   1       0.975  -1.449   0.715  0.00  0.00     0.054 A 
ATOM      3  C3  IND d   1      -0.108  -0.787   1.180  0.00  0.00    -0.031 A 
ATOM      4  C4  IND d   1      -1.141   1.430   0.376  0.00  0.00     0.051 A 
ATOM      5  C5  IND d   1      -0.927   2.466  -0.489  0.00  0.00    -0.031 A 
ATOM      6  C6  IND d   1       0.152   2.487  -1.350  0.00  0.00     0.015 A 
ATOM      7  C7  IND d   1       1.054   1.463  -1.386  0.00  0.00    -0.016 A 
ATOM      8  C8  IND d   1       0.844   0.412  -0.504  0.00  0.00    -0.047 A 
ATOM      9  C9  IND d   1      -0.225   0.405   0.401  0.00  0.00    -0.096 A 
ATOM     10  HN1 IND d   1       2.286  -0.967  -0.709  0.00  0.00     0.298 HD
ENDROOT
TORSDOF 0
ENDMDL
