MODEL 1
REMARK minimizedAffinity -3.88241768
REMARK minimizedRMSD -1
REMARK  0 active torsions:
REMARK  status: ('A' for Active; 'I' for Inactive)
ROOT
ATOM      1  N1  IND d   1       0.099  -0.405  -0.739  0.00  0.00    -0.196 N 
ATOM      2  C2  IND d   1       0.842  -1.132   0.149  0.00  0.00     0.054 A 
ATOM      3  C3  IND d   1       0.672  -0.656   1.403  0.00  0.00    -0.031 A 
ATOM      4  C4  IND d   1      -0.855   1.240   2.241  0.00  0.00     0.051 A 
ATOM      5  C5  IND d   1      -1.697   2.220   1.798  0.00  0.00    -0.031 A 
ATOM      6  C6  IND d   1      -1.993   2.376   0.459  0.00  0.00     0.015 A 
ATOM      7  C7  IND d   1      -1.462   1.548  -0.489  0.00  0.00    -0.016 A 
ATOM      8  C8  IND d   1      -0.600   0.556  -0.043  0.00  0.00    -0.047 A 
ATOM      9  C9  IND d   1      -0.264   0.419   1.310  0.00  0.00    -0.096 A 
ATOM     10  HN1 IND d   1       0.074  -0.528  -1.590  0.00  0.00     0.298 HD
ENDROOT
TORSDOF 0
ENDMDL
