MODEL 1
REMARK minimizedAffinity 0.67879647
REMARK minimizedRMSD -1
REMARK  0 active torsions:
REMARK  status: ('A' for Active; 'I' for Inactive)
ROOT
ATOM      1  N1  IND d   1       1.316   0.351  -0.771  0.00  0.00    -0.196 N 
ATOM      2  C2  IND d   1       0.779  -0.815  -0.299  0.00  0.00     0.054 A 
ATOM      3  C3  IND d   1      -0.543  -0.662  -0.063  0.00  0.00    -0.031 A 
ATOM      4  C4  IND d   1      -2.053   1.382  -0.474  0.00  0.00     0.051 A 
ATOM      5  C5  IND d   1      -2.010   2.692  -0.861  0.00  0.00    -0.031 A 
ATOM      6  C6  IND d   1      -0.833   3.301  -1.247  0.00  0.00     0.015 A 
ATOM      7  C7  IND d   1       0.348   2.615  -1.273  0.00  0.00    -0.016 A 
ATOM      8  C8  IND d   1       0.310   1.286  -0.874  0.00  0.00    -0.047 A 
ATOM      9  C9  IND d   1      -0.874   0.676  -0.440  0.00  0.00    -0.096 A 
ATOM     10  HN1 IND d   1       2.143   0.478  -0.969  0.00  0.00     0.298 HD
ENDROOT
TORSDOF 0
ENDMDL
