MODEL 1
REMARK minimizedAffinity -2.65296197
REMARK minimizedRMSD -1
REMARK  0 active torsions:
REMARK  status: ('A' for Active; 'I' for Inactive)
ROOT
ATOM      1  N1  IND d   1       1.639  -0.110  -1.528  0.00  0.00    -0.196 N 
ATOM      2  C2  IND d   1       1.653  -1.361  -0.976  0.00  0.00     0.054 A 
ATOM      3  C3  IND d   1       0.712  -1.459  -0.009  0.00  0.00    -0.031 A 
ATOM      4  C4  IND d   1      -1.026   0.276   0.762  0.00  0.00     0.051 A 
ATOM      5  C5  IND d   1      -1.405   1.577   0.579  0.00  0.00    -0.031 A 
ATOM      6  C6  IND d   1      -0.777   2.397  -0.336  0.00  0.00     0.015 A 
ATOM      7  C7  IND d   1       0.250   1.942  -1.114  0.00  0.00    -0.016 A 
ATOM      8  C8  IND d   1       0.641   0.624  -0.925  0.00  0.00    -0.047 A 
ATOM      9  C9  IND d   1       0.036  -0.201   0.032  0.00  0.00    -0.096 A 
ATOM     10  HN1 IND d   1       2.166   0.170  -2.147  0.00  0.00     0.298 HD
ENDROOT
TORSDOF 0
ENDMDL
