MODEL 1
REMARK minimizedAffinity -1.40194964
REMARK minimizedRMSD -1
REMARK  0 active torsions:
REMARK  status: ('A' for Active; 'I' for Inactive)
ROOT
ATOM      1  N1  IND d   1       1.531  -0.271  -0.266  0.00  0.00    -0.196 N 
ATOM      2  C2  IND d   1       0.942  -1.359   0.314  0.00  0.00     0.054 A 
ATOM      3  C3  IND d   1      -0.389  -1.162   0.442  0.00  0.00    -0.031 A 
ATOM      4  C4  IND d   1      -1.828   0.830  -0.325  0.00  0.00     0.051 A 
ATOM      5  C5  IND d   1      -1.735   2.079  -0.872  0.00  0.00    -0.031 A 
ATOM      6  C6  IND d   1      -0.524   2.618  -1.256  0.00  0.00     0.015 A 
ATOM      7  C7  IND d   1       0.642   1.921  -1.116  0.00  0.00    -0.016 A 
ATOM      8  C8  IND d   1       0.552   0.655  -0.554  0.00  0.00    -0.047 A 
ATOM      9  C9  IND d   1      -0.668   0.120  -0.124  0.00  0.00    -0.096 A 
ATOM     10  HN1 IND d   1       2.371  -0.180  -0.425  0.00  0.00     0.298 HD
ENDROOT
TORSDOF 0
ENDMDL
