MODEL 1
REMARK minimizedAffinity -4.30873871
REMARK minimizedRMSD -1
REMARK  0 active torsions:
REMARK  status: ('A' for Active; 'I' for Inactive)
ROOT
ATOM      1  C1  BNZ d   1       3.219  -0.109  -1.014  0.00  0.00     0.000 A 
ATOM      2  C2  BNZ d   1       2.260  -0.406  -0.082  0.00  0.00     0.000 A 
ATOM      3  C3  BNZ d   1       0.938  -0.171  -0.340  0.00  0.00     0.000 A 
ATOM      4  C4  BNZ d   1       0.581   0.397  -1.510  0.00  0.00     0.000 A 
ATOM      5  C5  BNZ d   1       1.537   0.711  -2.455  0.00  0.00     0.000 A 
ATOM      6  C6  BNZ d   1       2.863   0.437  -2.208  0.00  0.00     0.000 A 
ENDROOT
TORSDOF 0
ENDMDL
