MODEL 1
REMARK minimizedAffinity -3.70242786
REMARK minimizedRMSD -1
REMARK  0 active torsions:
REMARK  status: ('A' for Active; 'I' for Inactive)
ROOT
ATOM      1  C1  BNZ d   1      -3.024   0.176   3.389  0.00  0.00     0.000 A 
ATOM      2  C2  BNZ d   1      -2.999  -0.235   2.083  0.00  0.00     0.000 A 
ATOM      3  C3  BNZ d   1      -2.264   0.442   1.150  0.00  0.00     0.000 A 
ATOM      4  C4  BNZ d   1      -1.588   1.551   1.516  0.00  0.00     0.000 A 
ATOM      5  C5  BNZ d   1      -1.611   1.983   2.827  0.00  0.00     0.000 A 
ATOM      6  C6  BNZ d   1      -2.320   1.276   3.771  0.00  0.00     0.000 A 
ENDROOT
TORSDOF 0
ENDMDL
