MODEL 1
REMARK minimizedAffinity -3.31492519
REMARK minimizedRMSD -1
REMARK  0 active torsions:
REMARK  status: ('A' for Active; 'I' for Inactive)
ROOT
ATOM      1  C1  BNZ d   1      -2.632  -0.371   1.855  0.00  0.00     0.000 A 
ATOM      2  C2  BNZ d   1      -2.966   0.190   3.059  0.00  0.00     0.000 A 
ATOM      3  C3  BNZ d   1      -2.225   1.211   3.585  0.00  0.00     0.000 A 
ATOM      4  C4  BNZ d   1      -1.129   1.642   2.927  0.00  0.00     0.000 A 
ATOM      5  C5  BNZ d   1      -0.774   1.080   1.717  0.00  0.00     0.000 A 
ATOM      6  C6  BNZ d   1      -1.544   0.079   1.172  0.00  0.00     0.000 A 
ENDROOT
TORSDOF 0
ENDMDL
