MODEL 1
REMARK minimizedAffinity -3.33255267
REMARK minimizedRMSD -1
REMARK  0 active torsions:
REMARK  status: ('A' for Active; 'I' for Inactive)
ROOT
ATOM      1  C1  BNZ d   1       1.537  -1.624  -0.807  0.00  0.00     0.000 A 
ATOM      2  C2  BNZ d   1       0.511  -1.393   0.070  0.00  0.00     0.000 A 
ATOM      3  C3  BNZ d   1      -0.299  -0.301  -0.073  0.00  0.00     0.000 A 
ATOM      4  C4  BNZ d   1      -0.057   0.579  -1.066  0.00  0.00     0.000 A 
ATOM      5  C5  BNZ d   1       0.980   0.364  -1.952  0.00  0.00     0.000 A 
ATOM      6  C6  BNZ d   1       1.768  -0.756  -1.829  0.00  0.00     0.000 A 
ENDROOT
TORSDOF 0
ENDMDL
