MODEL 1
REMARK minimizedAffinity -4.04255438
REMARK minimizedRMSD -1
REMARK  0 active torsions:
REMARK  status: ('A' for Active; 'I' for Inactive)
ROOT
ATOM      1  C1  BNZ d   1      -0.088  -0.724   0.161  0.00  0.00     0.000 A 
ATOM      2  C2  BNZ d   1       0.595  -1.909   0.090  0.00  0.00     0.000 A 
ATOM      3  C3  BNZ d   1       1.689  -2.038  -0.719  0.00  0.00     0.000 A 
ATOM      4  C4  BNZ d   1       2.074  -0.998  -1.486  0.00  0.00     0.000 A 
ATOM      5  C5  BNZ d   1       1.389   0.200  -1.433  0.00  0.00     0.000 A 
ATOM      6  C6  BNZ d   1       0.312   0.339  -0.588  0.00  0.00     0.000 A 
ENDROOT
TORSDOF 0
ENDMDL
