MODEL 1
REMARK minimizedAffinity -0.769557118
REMARK minimizedRMSD -1
REMARK  0 active torsions:
REMARK  status: ('A' for Active; 'I' for Inactive)
ROOT
ATOM      1  C1  BNZ d   1       0.217  -0.997   0.012  0.00  0.00     0.000 A 
ATOM      2  C2  BNZ d   1      -0.494   0.047   0.541  0.00  0.00     0.000 A 
ATOM      3  C3  BNZ d   1      -0.523   1.262  -0.084  0.00  0.00     0.000 A 
ATOM      4  C4  BNZ d   1       0.190   1.443  -1.214  0.00  0.00     0.000 A 
ATOM      5  C5  BNZ d   1       0.920   0.403  -1.755  0.00  0.00     0.000 A 
ATOM      6  C6  BNZ d   1       0.915  -0.830  -1.144  0.00  0.00     0.000 A 
ENDROOT
TORSDOF 0
ENDMDL
