MODEL 1
REMARK minimizedAffinity -4.42355347
REMARK minimizedRMSD -1
REMARK  0 active torsions:
REMARK  status: ('A' for Active; 'I' for Inactive)
ROOT
ATOM      1  C1  BNZ d   1       2.402   1.377  -2.612  0.00  0.00     0.000 A 
ATOM      2  C2  BNZ d   1       2.987   0.166  -2.351  0.00  0.00     0.000 A 
ATOM      3  C3  BNZ d   1       2.547  -0.616  -1.320  0.00  0.00     0.000 A 
ATOM      4  C4  BNZ d   1       1.551  -0.170  -0.528  0.00  0.00     0.000 A 
ATOM      5  C5  BNZ d   1       0.958   1.052  -0.772  0.00  0.00     0.000 A 
ATOM      6  C6  BNZ d   1       1.377   1.820  -1.834  0.00  0.00     0.000 A 
ENDROOT
TORSDOF 0
ENDMDL
