MODEL 1
REMARK minimizedAffinity -3.0095067
REMARK minimizedRMSD -1
REMARK  0 active torsions:
REMARK  status: ('A' for Active; 'I' for Inactive)
ROOT
ATOM      1  C1  BNZ d   1       0.333   0.691  -1.066  0.00  0.00     0.000 A 
ATOM      2  C2  BNZ d   1       1.241   0.281  -2.007  0.00  0.00     0.000 A 
ATOM      3  C3  BNZ d   1       1.913  -0.900  -1.863  0.00  0.00     0.000 A 
ATOM      4  C4  BNZ d   1       1.706  -1.650  -0.761  0.00  0.00     0.000 A 
ATOM      5  C5  BNZ d   1       0.802  -1.246   0.201  0.00  0.00     0.000 A 
ATOM      6  C6  BNZ d   1       0.099  -0.075   0.033  0.00  0.00     0.000 A 
ENDROOT
TORSDOF 0
ENDMDL
