MODEL 1
REMARK minimizedAffinity -4.31760454
REMARK minimizedRMSD -1
REMARK  0 active torsions:
REMARK  status: ('A' for Active; 'I' for Inactive)
ROOT
ATOM      1  C1  BNZ d   1       1.928   1.136  -1.540  0.00  0.00     0.000 A 
ATOM      2  C2  BNZ d   1       0.982   1.086  -0.551  0.00  0.00     0.000 A 
ATOM      3  C3  BNZ d   1       0.540  -0.113  -0.066  0.00  0.00     0.000 A 
ATOM      4  C4  BNZ d   1       1.015  -1.259  -0.596  0.00  0.00     0.000 A 
ATOM      5  C5  BNZ d   1       1.962  -1.224  -1.600  0.00  0.00     0.000 A 
ATOM      6  C6  BNZ d   1       2.433  -0.016  -2.059  0.00  0.00     0.000 A 
ENDROOT
TORSDOF 0
ENDMDL
