MODEL 1
REMARK minimizedAffinity -5.1169672
REMARK minimizedRMSD -1
REMARK  0 active torsions:
REMARK  status: ('A' for Active; 'I' for Inactive)
ROOT
ATOM      1  C1  BNZ d   1       1.883  -1.533  -1.099  0.00  0.00     0.000 A 
ATOM      2  C2  BNZ d   1       2.720  -0.656  -1.736  0.00  0.00     0.000 A 
ATOM      3  C3  BNZ d   1       2.414   0.675  -1.810  0.00  0.00     0.000 A 
ATOM      4  C4  BNZ d   1       1.255   1.119  -1.282  0.00  0.00     0.000 A 
ATOM      5  C5  BNZ d   1       0.397   0.245  -0.645  0.00  0.00     0.000 A 
ATOM      6  C6  BNZ d   1       0.726  -1.087  -0.539  0.00  0.00     0.000 A 
ENDROOT
TORSDOF 0
ENDMDL
