MODEL 1
REMARK minimizedAffinity -3.8257668
REMARK minimizedRMSD -1
REMARK  0 active torsions:
REMARK  status: ('A' for Active; 'I' for Inactive)
ROOT
ATOM      1  C1  BNZ d   1       3.316  -3.776   3.468  0.00  0.00     0.000 A 
ATOM      2  C2  BNZ d   1       3.640  -2.452   3.333  0.00  0.00     0.000 A 
ATOM      3  C3  BNZ d   1       4.669  -1.908   4.051  0.00  0.00     0.000 A 
ATOM      4  C4  BNZ d   1       5.344  -2.676   4.929  0.00  0.00     0.000 A 
ATOM      5  C5  BNZ d   1       5.023  -4.010   5.083  0.00  0.00     0.000 A 
ATOM      6  C6  BNZ d   1       4.012  -4.564   4.331  0.00  0.00     0.000 A 
ENDROOT
TORSDOF 0
ENDMDL
