MODEL 1
REMARK minimizedAffinity -0.126107246
REMARK minimizedRMSD -1
REMARK  0 active torsions:
REMARK  status: ('A' for Active; 'I' for Inactive)
ROOT
ATOM      1  C1  BNZ d   1       2.478   0.283  -2.122  0.00  0.00     0.000 A 
ATOM      2  C2  BNZ d   1       1.386   0.648  -2.863  0.00  0.00     0.000 A 
ATOM      3  C3  BNZ d   1       0.815   1.880  -2.709  0.00  0.00     0.000 A 
ATOM      4  C4  BNZ d   1       1.312   2.730  -1.787  0.00  0.00     0.000 A 
ATOM      5  C5  BNZ d   1       2.407   2.374  -1.026  0.00  0.00     0.000 A 
ATOM      6  C6  BNZ d   1       3.003   1.147  -1.211  0.00  0.00     0.000 A 
ENDROOT
TORSDOF 0
ENDMDL
