MODEL 1
REMARK minimizedAffinity -2.74256873
REMARK minimizedRMSD -1
REMARK  0 active torsions:
REMARK  status: ('A' for Active; 'I' for Inactive)
ROOT
ATOM      1  C1  BNZ d   1       5.158  -3.361   4.944  0.00  0.00     0.000 A 
ATOM      2  C2  BNZ d   1       4.569  -2.725   3.884  0.00  0.00     0.000 A 
ATOM      3  C3  BNZ d   1       4.448  -1.364   3.864  0.00  0.00     0.000 A 
ATOM      4  C4  BNZ d   1       4.880  -0.644   4.919  0.00  0.00     0.000 A 
ATOM      5  C5  BNZ d   1       5.467  -1.271   6.000  0.00  0.00     0.000 A 
ATOM      6  C6  BNZ d   1       5.622  -2.639   6.000  0.00  0.00     0.000 A 
ENDROOT
TORSDOF 0
ENDMDL
