MODEL 1
REMARK minimizedAffinity -4.5524826
REMARK minimizedRMSD -1
REMARK  0 active torsions:
REMARK  status: ('A' for Active; 'I' for Inactive)
ROOT
ATOM      1  C1  BNZ d   1       1.118   1.224  -1.928  0.00  0.00     0.000 A 
ATOM      2  C2  BNZ d   1       0.528   1.176  -0.693  0.00  0.00     0.000 A 
ATOM      3  C3  BNZ d   1       0.583   0.039   0.065  0.00  0.00     0.000 A 
ATOM      4  C4  BNZ d   1       1.191  -1.058  -0.429  0.00  0.00     0.000 A 
ATOM      5  C5  BNZ d   1       1.782  -1.029  -1.676  0.00  0.00     0.000 A 
ATOM      6  C6  BNZ d   1       1.758   0.129  -2.420  0.00  0.00     0.000 A 
ENDROOT
TORSDOF 0
ENDMDL
