MODEL 1
REMARK minimizedAffinity -4.01401663
REMARK minimizedRMSD -1
REMARK  0 active torsions:
REMARK  status: ('A' for Active; 'I' for Inactive)
ROOT
ATOM      1  C1  BNZ d   1      -0.266  -0.788  -0.008  0.00  0.00     0.000 A 
ATOM      2  C2  BNZ d   1      -0.998   0.369  -0.010  0.00  0.00     0.000 A 
ATOM      3  C3  BNZ d   1      -0.592   1.453  -0.737  0.00  0.00     0.000 A 
ATOM      4  C4  BNZ d   1       0.564   1.392  -1.428  0.00  0.00     0.000 A 
ATOM      5  C5  BNZ d   1       1.319   0.236  -1.428  0.00  0.00     0.000 A 
ATOM      6  C6  BNZ d   1       0.887  -0.867  -0.726  0.00  0.00     0.000 A 
ENDROOT
TORSDOF 0
ENDMDL
