MODEL 1
REMARK minimizedAffinity -0.384353489
REMARK minimizedRMSD -1
REMARK  1 active torsions:
REMARK  status: ('A' for Active; 'I' for Inactive)
REMARK    1  A    between atoms: C1_2  and  C2_3 
ROOT
ATOM      1  C2  UNL d   1       0.722   0.185  -0.523  0.00  0.00    -0.077 A 
ATOM      2  C3  UNL d   1       1.824  -0.563  -0.087  0.00  0.00     0.002 A 
ATOM      3  C4  UNL d   1       2.408  -0.304   1.154  0.00  0.00     0.002 A 
ATOM      4  C5  UNL d   1       1.893   0.701   1.971  0.00  0.00    -0.004 A 
ATOM      5  C6  UNL d   1       0.798   1.452   1.546  0.00  0.00     0.002 A 
ATOM      6  C7  UNL d   1       0.215   1.195   0.305  0.00  0.00     0.002 A 
ENDROOT
BRANCH   1   7
ATOM      7  C1  UNL d   1       0.061  -0.126  -1.840  0.00  0.00     0.055 C 
ATOM      8  C   UNL d   1       0.855   0.442  -3.007  0.00  0.00     0.019 C 
ENDBRANCH   1   7
TORSDOF 1
ENDMDL
