MODEL 1
REMARK minimizedAffinity -3.17754507
REMARK minimizedRMSD -1
REMARK  1 active torsions:
REMARK  status: ('A' for Active; 'I' for Inactive)
REMARK    1  A    between atoms: C1_2  and  C2_3 
ROOT
ATOM      1  C2  UNL d   1       0.491  -0.171   0.012  0.00  0.00    -0.077 A 
ATOM      2  C3  UNL d   1      -0.412   0.894   0.140  0.00  0.00     0.002 A 
ATOM      3  C4  UNL d   1      -1.755   0.727  -0.205  0.00  0.00     0.002 A 
ATOM      4  C5  UNL d   1      -2.207  -0.503  -0.677  0.00  0.00    -0.004 A 
ATOM      5  C6  UNL d   1      -1.317  -1.568  -0.810  0.00  0.00     0.002 A 
ATOM      6  C7  UNL d   1       0.026  -1.403  -0.467  0.00  0.00     0.002 A 
ENDROOT
BRANCH   1   7
ATOM      7  C1  UNL d   1       1.928  -0.008   0.430  0.00  0.00     0.055 C 
ATOM      8  C   UNL d   1       2.348   1.455   0.411  0.00  0.00     0.019 C 
ENDBRANCH   1   7
TORSDOF 1
ENDMDL
