MODEL 1
REMARK minimizedAffinity -0.993312538
REMARK minimizedRMSD -1
REMARK  1 active torsions:
REMARK  status: ('A' for Active; 'I' for Inactive)
REMARK    1  A    between atoms: C1_2  and  C2_3 
ROOT
ATOM      1  C2  UNL d   1      -0.180   0.056   3.027  0.00  0.00    -0.077 A 
ATOM      2  C3  UNL d   1      -0.600  -1.222   3.423  0.00  0.00     0.002 A 
ATOM      3  C4  UNL d   1       0.322  -2.146   3.921  0.00  0.00     0.002 A 
ATOM      4  C5  UNL d   1       1.667  -1.800   4.030  0.00  0.00    -0.004 A 
ATOM      5  C6  UNL d   1       2.095  -0.532   3.637  0.00  0.00     0.002 A 
ATOM      6  C7  UNL d   1       1.175   0.392   3.139  0.00  0.00     0.002 A 
ENDROOT
BRANCH   1   7
ATOM      7  C1  UNL d   1      -1.180   1.070   2.537  0.00  0.00     0.055 C 
ATOM      8  C   UNL d   1      -2.343   0.399   1.820  0.00  0.00     0.019 C 
ENDBRANCH   1   7
TORSDOF 1
ENDMDL
