MODEL 1
REMARK minimizedAffinity 0.110749125
REMARK minimizedRMSD -1
REMARK  1 active torsions:
REMARK  status: ('A' for Active; 'I' for Inactive)
REMARK    1  A    between atoms: C1_2  and  C2_3 
ROOT
ATOM      1  C2  UNL d   1       2.510  -1.067   3.662  0.00  0.00    -0.077 A 
ATOM      2  C3  UNL d   1       1.639  -1.227   2.576  0.00  0.00     0.002 A 
ATOM      3  C4  UNL d   1       1.531  -0.231   1.604  0.00  0.00     0.002 A 
ATOM      4  C5  UNL d   1       2.293   0.931   1.706  0.00  0.00    -0.004 A 
ATOM      5  C6  UNL d   1       3.161   1.101   2.784  0.00  0.00     0.002 A 
ATOM      6  C7  UNL d   1       3.270   0.106   3.757  0.00  0.00     0.002 A 
ENDROOT
BRANCH   1   7
ATOM      7  C1  UNL d   1       2.665  -2.162   4.685  0.00  0.00     0.055 C 
ATOM      8  C   UNL d   1       3.441  -1.677   5.901  0.00  0.00     0.019 C 
ENDBRANCH   1   7
TORSDOF 1
ENDMDL
