MODEL 1
REMARK minimizedAffinity -4.62778282
REMARK minimizedRMSD -1
REMARK  0 active torsions:
REMARK  status: ('A' for Active; 'I' for Inactive)
ROOT
ATOM      1  O1  BZF d   1      -0.389  -0.919   0.319  0.00  0.00    -0.204 OA
ATOM      2  C2  BZF d   1      -1.359  -0.396  -0.514  0.00  0.00     0.174 A 
ATOM      3  C3  BZF d   1      -1.930   0.692   0.041  0.00  0.00    -0.012 A 
ATOM      4  C3A BZF d   1      -1.212   0.914   1.259  0.00  0.00    -0.107 A 
ATOM      5  C4  BZF d   1      -1.303   1.855   2.244  0.00  0.00     0.055 A 
ATOM      6  C5  BZF d   1      -0.503   1.747   3.337  0.00  0.00    -0.016 A 
ATOM      7  C6  BZF d   1       0.394   0.709   3.480  0.00  0.00     0.022 A 
ATOM      8  C7  BZF d   1       0.524  -0.246   2.527  0.00  0.00     0.029 A 
ATOM      9  C7A BZF d   1      -0.260  -0.121   1.406  0.00  0.00     0.058 A 
ENDROOT
TORSDOF 0
ENDMDL
