MODEL 1
REMARK minimizedAffinity -3.53565359
REMARK minimizedRMSD -1
REMARK  0 active torsions:
REMARK  status: ('A' for Active; 'I' for Inactive)
ROOT
ATOM      1  O1  BZF d   1       1.736   1.027  -1.415  0.00  0.00    -0.204 OA
ATOM      2  C2  BZF d   1       1.536   0.304  -2.575  0.00  0.00     0.174 A 
ATOM      3  C3  BZF d   1       0.403  -0.423  -2.496  0.00  0.00    -0.012 A 
ATOM      4  C3A BZF d   1      -0.188  -0.064  -1.243  0.00  0.00    -0.107 A 
ATOM      5  C4  BZF d   1      -1.335  -0.440  -0.604  0.00  0.00     0.055 A 
ATOM      6  C5  BZF d   1      -1.583   0.040   0.643  0.00  0.00    -0.016 A 
ATOM      7  C6  BZF d   1      -0.706   0.892   1.282  0.00  0.00     0.022 A 
ATOM      8  C7  BZF d   1       0.442   1.296   0.686  0.00  0.00     0.029 A 
ATOM      9  C7A BZF d   1       0.681   0.839  -0.587  0.00  0.00     0.058 A 
ENDROOT
TORSDOF 0
ENDMDL
