MODEL 1
REMARK minimizedAffinity -5.38192415
REMARK minimizedRMSD -1
REMARK  0 active torsions:
REMARK  status: ('A' for Active; 'I' for Inactive)
ROOT
ATOM      1  O1  BZF d   1       1.106  -0.683  -0.276  0.00  0.00    -0.204 OA
ATOM      2  C2  BZF d   1      -0.014  -0.326  -1.001  0.00  0.00     0.174 A 
ATOM      3  C3  BZF d   1      -0.969   0.175  -0.191  0.00  0.00    -0.012 A 
ATOM      4  C3A BZF d   1      -0.376   0.213   1.111  0.00  0.00    -0.107 A 
ATOM      5  C4  BZF d   1      -0.821   0.627   2.334  0.00  0.00     0.055 A 
ATOM      6  C5  BZF d   1      -0.020   0.463   3.419  0.00  0.00    -0.016 A 
ATOM      7  C6  BZF d   1       1.229  -0.115   3.318  0.00  0.00     0.022 A 
ATOM      8  C7  BZF d   1       1.716  -0.536   2.126  0.00  0.00     0.029 A 
ATOM      9  C7A BZF d   1       0.922  -0.341   1.022  0.00  0.00     0.058 A 
ENDROOT
TORSDOF 0
ENDMDL
