MODEL 1
REMARK minimizedAffinity -6.23906612
REMARK minimizedRMSD -1
REMARK  0 active torsions:
REMARK  status: ('A' for Active; 'I' for Inactive)
ROOT
ATOM      1  O1  BZF d   1       0.946  -0.558   0.166  0.00  0.00    -0.204 OA
ATOM      2  C2  BZF d   1      -0.133  -0.427  -0.686  0.00  0.00     0.174 A 
ATOM      3  C3  BZF d   1      -1.149   0.218  -0.076  0.00  0.00    -0.012 A 
ATOM      4  C3A BZF d   1      -0.641   0.589   1.209  0.00  0.00    -0.107 A 
ATOM      5  C4  BZF d   1      -1.172   1.267   2.269  0.00  0.00     0.055 A 
ATOM      6  C5  BZF d   1      -0.438   1.397   3.405  0.00  0.00    -0.016 A 
ATOM      7  C6  BZF d   1       0.827   0.859   3.518  0.00  0.00     0.022 A 
ATOM      8  C7  BZF d   1       1.399   0.183   2.491  0.00  0.00     0.029 A 
ATOM      9  C7A BZF d   1       0.672   0.078   1.330  0.00  0.00     0.058 A 
ENDROOT
TORSDOF 0
ENDMDL
