MODEL 1
REMARK minimizedAffinity -1.58163929
REMARK minimizedRMSD -1
REMARK  0 active torsions:
REMARK  status: ('A' for Active; 'I' for Inactive)
ROOT
ATOM      1  O1  BZF d   1       0.864  -1.001  -0.144  0.00  0.00    -0.204 OA
ATOM      2  C2  BZF d   1      -0.060  -0.907  -1.167  0.00  0.00     0.174 A 
ATOM      3  C3  BZF d   1      -1.183  -0.293  -0.742  0.00  0.00    -0.012 A 
ATOM      4  C3A BZF d   1      -0.911   0.099   0.607  0.00  0.00    -0.107 A 
ATOM      5  C4  BZF d   1      -1.634   0.762   1.556  0.00  0.00     0.055 A 
ATOM      6  C5  BZF d   1      -1.107   0.919   2.799  0.00  0.00    -0.016 A 
ATOM      7  C6  BZF d   1       0.137   0.422   3.128  0.00  0.00     0.022 A 
ATOM      8  C7  BZF d   1       0.894  -0.239   2.218  0.00  0.00     0.029 A 
ATOM      9  C7A BZF d   1       0.378  -0.371   0.952  0.00  0.00     0.058 A 
ENDROOT
TORSDOF 0
ENDMDL
