MODEL 1
REMARK minimizedAffinity -5.13197184
REMARK minimizedRMSD -1
REMARK  0 active torsions:
REMARK  status: ('A' for Active; 'I' for Inactive)
ROOT
ATOM      1  O1  BZF d   1       1.386  -0.318   3.212  0.00  0.00    -0.204 OA
ATOM      2  C2  BZF d   1       2.334  -0.932   2.418  0.00  0.00     0.174 A 
ATOM      3  C3  BZF d   1       1.936  -0.958   1.130  0.00  0.00    -0.012 A 
ATOM      4  C3A BZF d   1       0.700  -0.237   1.103  0.00  0.00    -0.107 A 
ATOM      5  C4  BZF d   1      -0.173   0.093   0.107  0.00  0.00     0.055 A 
ATOM      6  C5  BZF d   1      -1.325   0.740   0.426  0.00  0.00    -0.016 A 
ATOM      7  C6  BZF d   1      -1.637   1.067   1.729  0.00  0.00     0.022 A 
ATOM      8  C7  BZF d   1      -0.799   0.765   2.751  0.00  0.00     0.029 A 
ATOM      9  C7A BZF d   1       0.381   0.141   2.428  0.00  0.00     0.058 A 
ENDROOT
TORSDOF 0
ENDMDL
