MODEL 1
REMARK minimizedAffinity -1.56130755
REMARK minimizedRMSD -1
REMARK  0 active torsions:
REMARK  status: ('A' for Active; 'I' for Inactive)
ROOT
ATOM      1  O1  BZF d   1       1.822  -0.570   2.991  0.00  0.00    -0.204 OA
ATOM      2  C2  BZF d   1       2.579  -0.825   1.864  0.00  0.00     0.174 A 
ATOM      3  C3  BZF d   1       1.815  -0.780   0.754  0.00  0.00    -0.012 A 
ATOM      4  C3A BZF d   1       0.516  -0.387   1.207  0.00  0.00    -0.107 A 
ATOM      5  C4  BZF d   1      -0.669  -0.155   0.570  0.00  0.00     0.055 A 
ATOM      6  C5  BZF d   1      -1.769   0.144   1.311  0.00  0.00    -0.016 A 
ATOM      7  C6  BZF d   1      -1.721   0.213   2.687  0.00  0.00     0.022 A 
ATOM      8  C7  BZF d   1      -0.566  -0.004   3.363  0.00  0.00     0.029 A 
ATOM      9  C7A BZF d   1       0.554  -0.274   2.616  0.00  0.00     0.058 A 
ENDROOT
TORSDOF 0
ENDMDL
