MODEL 1
REMARK minimizedAffinity -0.28849569
REMARK minimizedRMSD -1
REMARK  0 active torsions:
REMARK  status: ('A' for Active; 'I' for Inactive)
ROOT
ATOM      1  O1  BZF d   1       0.977  -0.451   2.938  0.00  0.00    -0.204 OA
ATOM      2  C2  BZF d   1       2.235  -0.822   2.505  0.00  0.00     0.174 A 
ATOM      3  C3  BZF d   1       2.251  -0.986   1.167  0.00  0.00    -0.012 A 
ATOM      4  C3A BZF d   1       0.943  -0.610   0.726  0.00  0.00    -0.107 A 
ATOM      5  C4  BZF d   1       0.349  -0.545  -0.502  0.00  0.00     0.055 A 
ATOM      6  C5  BZF d   1      -0.965  -0.208  -0.583  0.00  0.00    -0.016 A 
ATOM      7  C6  BZF d   1      -1.715   0.065   0.542  0.00  0.00     0.022 A 
ATOM      8  C7  BZF d   1      -1.168   0.018   1.782  0.00  0.00     0.029 A 
ATOM      9  C7A BZF d   1       0.168  -0.290   1.864  0.00  0.00     0.058 A 
ENDROOT
TORSDOF 0
ENDMDL
