MODEL 1
REMARK minimizedAffinity -5.97254515
REMARK minimizedRMSD -1
REMARK  0 active torsions:
REMARK  status: ('A' for Active; 'I' for Inactive)
ROOT
ATOM      1  O1  BZF d   1       0.624  -0.616   0.050  0.00  0.00    -0.204 OA
ATOM      2  C2  BZF d   1      -0.530  -0.450  -0.691  0.00  0.00     0.174 A 
ATOM      3  C3  BZF d   1      -1.482   0.168   0.037  0.00  0.00    -0.012 A 
ATOM      4  C3A BZF d   1      -0.855   0.486   1.284  0.00  0.00    -0.107 A 
ATOM      5  C4  BZF d   1      -1.283   1.118   2.416  0.00  0.00     0.055 A 
ATOM      6  C5  BZF d   1      -0.445   1.201   3.483  0.00  0.00    -0.016 A 
ATOM      7  C6  BZF d   1       0.823   0.659   3.454  0.00  0.00     0.022 A 
ATOM      8  C7  BZF d   1       1.294   0.026   2.352  0.00  0.00     0.029 A 
ATOM      9  C7A BZF d   1       0.462  -0.030   1.261  0.00  0.00     0.058 A 
ENDROOT
TORSDOF 0
ENDMDL
