MODEL 1
REMARK minimizedAffinity -3.82809663
REMARK minimizedRMSD -1
REMARK  0 active torsions:
REMARK  status: ('A' for Active; 'I' for Inactive)
ROOT
ATOM      1  O1  BZF d   1       0.454   0.098   3.529  0.00  0.00    -0.204 OA
ATOM      2  C2  BZF d   1       1.766  -0.310   3.386  0.00  0.00     0.174 A 
ATOM      3  C3  BZF d   1       2.023  -0.654   2.108  0.00  0.00    -0.012 A 
ATOM      4  C3A BZF d   1       0.820  -0.360   1.390  0.00  0.00    -0.107 A 
ATOM      5  C4  BZF d   1       0.460  -0.472   0.078  0.00  0.00     0.055 A 
ATOM      6  C5  BZF d   1      -0.814  -0.168  -0.285  0.00  0.00    -0.016 A 
ATOM      7  C6  BZF d   1      -1.753   0.244   0.638  0.00  0.00     0.022 A 
ATOM      8  C7  BZF d   1      -1.441   0.374   1.950  0.00  0.00     0.029 A 
ATOM      9  C7A BZF d   1      -0.145   0.100   2.314  0.00  0.00     0.058 A 
ENDROOT
TORSDOF 0
ENDMDL
