MODEL 1
REMARK minimizedAffinity -4.19274902
REMARK minimizedRMSD -1
REMARK  0 active torsions:
REMARK  status: ('A' for Active; 'I' for Inactive)
ROOT
ATOM      1  O1  BZF d   1       1.475  -0.813   1.718  0.00  0.00    -0.204 OA
ATOM      2  C2  BZF d   1       1.314  -0.849   3.090  0.00  0.00     0.174 A 
ATOM      3  C3  BZF d   1       0.070  -0.460   3.436  0.00  0.00    -0.012 A 
ATOM      4  C3A BZF d   1      -0.617  -0.250   2.198  0.00  0.00    -0.107 A 
ATOM      5  C4  BZF d   1      -1.890   0.130   1.884  0.00  0.00     0.055 A 
ATOM      6  C5  BZF d   1      -2.222   0.312   0.578  0.00  0.00    -0.016 A 
ATOM      7  C6  BZF d   1      -1.305   0.128  -0.436  0.00  0.00     0.022 A 
ATOM      8  C7  BZF d   1      -0.032  -0.254  -0.174  0.00  0.00     0.029 A 
ATOM      9  C7A BZF d   1       0.297  -0.471   1.142  0.00  0.00     0.058 A 
ENDROOT
TORSDOF 0
ENDMDL
