MODEL 1
REMARK minimizedAffinity -4.15682554
REMARK minimizedRMSD -1
REMARK  0 active torsions:
REMARK  status: ('A' for Active; 'I' for Inactive)
ROOT
ATOM      1  O1  BZF d   1       0.873   0.784  -0.258  0.00  0.00    -0.204 OA
ATOM      2  C2  BZF d   1       0.538  -0.216  -1.151  0.00  0.00     0.174 A 
ATOM      3  C3  BZF d   1      -0.455  -0.984  -0.659  0.00  0.00    -0.012 A 
ATOM      4  C3A BZF d   1      -0.824  -0.374   0.581  0.00  0.00    -0.107 A 
ATOM      5  C4  BZF d   1      -1.763  -0.665   1.529  0.00  0.00     0.055 A 
ATOM      6  C5  BZF d   1      -1.816   0.086   2.660  0.00  0.00    -0.016 A 
ATOM      7  C6  BZF d   1      -0.943   1.132   2.878  0.00  0.00     0.022 A 
ATOM      8  C7  BZF d   1       0.002   1.463   1.965  0.00  0.00     0.029 A 
ATOM      9  C7A BZF d   1       0.037   0.726   0.806  0.00  0.00     0.058 A 
ENDROOT
TORSDOF 0
ENDMDL
