MODEL 1
REMARK minimizedAffinity 0.628356338
REMARK minimizedRMSD -1
REMARK  0 active torsions:
REMARK  status: ('A' for Active; 'I' for Inactive)
ROOT
ATOM      1  C   UNL d   1      -1.507  -6.000  -3.798  0.00  0.00    -0.002 A 
ATOM      2  C1  UNL d   1      -1.420  -5.976  -5.183  0.00  0.00     0.010 A 
ATOM      3  C2  UNL d   1      -2.346  -5.257  -5.941  0.00  0.00     0.041 A 
ATOM      4  C3  UNL d   1      -3.371  -4.554  -5.277  0.00  0.00    -0.075 A 
ATOM      5  S   UNL d   1      -4.616  -3.605  -5.999  0.00  0.00     0.015 SA
ATOM      6  C4  UNL d   1      -5.293  -3.208  -4.486  0.00  0.00     0.022 A 
ATOM      7  C5  UNL d   1      -4.599  -3.777  -3.445  0.00  0.00     0.026 A 
ATOM      8  C6  UNL d   1      -3.479  -4.562  -3.884  0.00  0.00    -0.082 A 
ATOM      9  C7  UNL d   1      -2.525  -5.301  -3.143  0.00  0.00     0.045 A 
ENDROOT
TORSDOF 0
ENDMDL
