MODEL 1
REMARK minimizedAffinity 7.15739393
REMARK minimizedRMSD -1
REMARK  0 active torsions:
REMARK  status: ('A' for Active; 'I' for Inactive)
ROOT
ATOM      1  C   UNL d   1      -3.004   0.353   1.831  0.00  0.00    -0.002 A 
ATOM      2  C1  UNL d   1      -2.881  -0.360   3.016  0.00  0.00     0.010 A 
ATOM      3  C2  UNL d   1      -1.836  -1.269   3.192  0.00  0.00     0.041 A 
ATOM      4  C3  UNL d   1      -0.907  -1.451   2.149  0.00  0.00    -0.075 A 
ATOM      5  S   UNL d   1       0.453  -2.510   2.141  0.00  0.00     0.015 SA
ATOM      6  C4  UNL d   1       0.904  -2.041   0.566  0.00  0.00     0.022 A 
ATOM      7  C5  UNL d   1       0.048  -1.100   0.043  0.00  0.00     0.026 A 
ATOM      8  C6  UNL d   1      -1.009  -0.744   0.947  0.00  0.00    -0.082 A 
ATOM      9  C7  UNL d   1      -2.080   0.170   0.798  0.00  0.00     0.045 A 
ENDROOT
TORSDOF 0
ENDMDL
