MODEL 1
REMARK minimizedAffinity 2.14779925
REMARK minimizedRMSD -1
REMARK  0 active torsions:
REMARK  status: ('A' for Active; 'I' for Inactive)
ROOT
ATOM      1  C   UNL d   1      -5.994  -3.477  -4.411  0.00  0.00    -0.002 A 
ATOM      2  C1  UNL d   1      -5.468  -2.726  -5.452  0.00  0.00     0.010 A 
ATOM      3  C2  UNL d   1      -4.224  -3.045  -6.000  0.00  0.00     0.041 A 
ATOM      4  C3  UNL d   1      -3.511  -4.142  -5.479  0.00  0.00    -0.075 A 
ATOM      5  S   UNL d   1      -1.969  -4.719  -5.993  0.00  0.00     0.015 SA
ATOM      6  C4  UNL d   1      -1.973  -5.976  -4.842  0.00  0.00     0.022 A 
ATOM      7  C5  UNL d   1      -3.114  -5.971  -4.076  0.00  0.00     0.026 A 
ATOM      8  C6  UNL d   1      -4.020  -4.914  -4.431  0.00  0.00    -0.082 A 
ATOM      9  C7  UNL d   1      -5.284  -4.565  -3.897  0.00  0.00     0.045 A 
ENDROOT
TORSDOF 0
ENDMDL
