MODEL 1
REMARK minimizedAffinity -0.656915665
REMARK minimizedRMSD -1
REMARK  0 active torsions:
REMARK  status: ('A' for Active; 'I' for Inactive)
ROOT
ATOM      1  C   UNL d   1      -5.864  -3.619  -4.878  0.00  0.00    -0.002 A 
ATOM      2  C1  UNL d   1      -5.551  -4.402  -5.980  0.00  0.00     0.010 A 
ATOM      3  C2  UNL d   1      -4.384  -5.168  -5.999  0.00  0.00     0.041 A 
ATOM      4  C3  UNL d   1      -3.529  -5.135  -4.880  0.00  0.00    -0.075 A 
ATOM      5  S   UNL d   1      -2.046  -5.991  -4.680  0.00  0.00     0.015 SA
ATOM      6  C4  UNL d   1      -1.792  -5.338  -3.126  0.00  0.00     0.022 A 
ATOM      7  C5  UNL d   1      -2.805  -4.485  -2.754  0.00  0.00     0.026 A 
ATOM      8  C6  UNL d   1      -3.822  -4.354  -3.758  0.00  0.00    -0.082 A 
ATOM      9  C7  UNL d   1      -5.013  -3.589  -3.770  0.00  0.00     0.045 A 
ENDROOT
TORSDOF 0
ENDMDL
