MODEL 1
REMARK minimizedAffinity -1.68687034
REMARK minimizedRMSD -1
REMARK  0 active torsions:
REMARK  status: ('A' for Active; 'I' for Inactive)
ROOT
ATOM      1  C   UNL d   1      -6.000  -4.038  -4.697  0.00  0.00    -0.002 A 
ATOM      2  C1  UNL d   1      -5.880  -5.291  -4.111  0.00  0.00     0.010 A 
ATOM      3  C2  UNL d   1      -4.659  -5.968  -4.126  0.00  0.00     0.041 A 
ATOM      4  C3  UNL d   1      -3.549  -5.359  -4.745  0.00  0.00    -0.075 A 
ATOM      5  S   UNL d   1      -1.955  -6.000  -4.884  0.00  0.00     0.015 SA
ATOM      6  C4  UNL d   1      -1.395  -4.626  -5.723  0.00  0.00     0.022 A 
ATOM      7  C5  UNL d   1      -2.388  -3.692  -5.902  0.00  0.00     0.026 A 
ATOM      8  C6  UNL d   1      -3.645  -4.098  -5.341  0.00  0.00    -0.082 A 
ATOM      9  C7  UNL d   1      -4.897  -3.437  -5.309  0.00  0.00     0.045 A 
ENDROOT
TORSDOF 0
ENDMDL
