MODEL 1
REMARK minimizedAffinity 1.93347812
REMARK minimizedRMSD -1
REMARK  0 active torsions:
REMARK  status: ('A' for Active; 'I' for Inactive)
ROOT
ATOM      1  C   UNL d   1      -1.827  -6.000  -5.414  0.00  0.00    -0.002 A 
ATOM      2  C1  UNL d   1      -1.484  -5.112  -4.404  0.00  0.00     0.010 A 
ATOM      3  C2  UNL d   1      -2.400  -4.159  -3.955  0.00  0.00     0.041 A 
ATOM      4  C3  UNL d   1      -3.680  -4.114  -4.542  0.00  0.00    -0.075 A 
ATOM      5  S   UNL d   1      -4.965  -3.033  -4.151  0.00  0.00     0.015 SA
ATOM      6  C4  UNL d   1      -6.000  -3.724  -5.316  0.00  0.00     0.022 A 
ATOM      7  C5  UNL d   1      -5.396  -4.755  -5.995  0.00  0.00     0.026 A 
ATOM      8  C6  UNL d   1      -4.049  -4.998  -5.560  0.00  0.00    -0.082 A 
ATOM      9  C7  UNL d   1      -3.098  -5.952  -5.994  0.00  0.00     0.045 A 
ENDROOT
TORSDOF 0
ENDMDL
