MODEL 1
REMARK minimizedAffinity 2.2535603
REMARK minimizedRMSD -1
REMARK  0 active torsions:
REMARK  status: ('A' for Active; 'I' for Inactive)
ROOT
ATOM      1  C   UNL d   1      -5.972  -3.510  -4.501  0.00  0.00    -0.002 A 
ATOM      2  C1  UNL d   1      -5.415  -2.696  -5.477  0.00  0.00     0.010 A 
ATOM      3  C2  UNL d   1      -4.147  -2.970  -5.992  0.00  0.00     0.041 A 
ATOM      4  C3  UNL d   1      -3.441  -4.088  -5.505  0.00  0.00    -0.075 A 
ATOM      5  S   UNL d   1      -1.873  -4.619  -5.988  0.00  0.00     0.015 SA
ATOM      6  C4  UNL d   1      -1.906  -5.939  -4.911  0.00  0.00     0.022 A 
ATOM      7  C5  UNL d   1      -3.077  -5.989  -4.192  0.00  0.00     0.026 A 
ATOM      8  C6  UNL d   1      -3.981  -4.923  -4.523  0.00  0.00    -0.082 A 
ATOM      9  C7  UNL d   1      -5.269  -4.618  -4.021  0.00  0.00     0.045 A 
ENDROOT
TORSDOF 0
ENDMDL
