MODEL 1
REMARK minimizedAffinity 5.93227053
REMARK minimizedRMSD -1
REMARK  0 active torsions:
REMARK  status: ('A' for Active; 'I' for Inactive)
ROOT
ATOM      1  C   UNL d   1      -2.377  -1.635   1.608  0.00  0.00    -0.002 A 
ATOM      2  C1  UNL d   1      -1.551  -2.660   2.046  0.00  0.00     0.010 A 
ATOM      3  C2  UNL d   1      -0.162  -2.528   1.984  0.00  0.00     0.041 A 
ATOM      4  C3  UNL d   1       0.387  -1.337   1.471  0.00  0.00    -0.075 A 
ATOM      5  S   UNL d   1       2.059  -0.953   1.301  0.00  0.00     0.015 SA
ATOM      6  C4  UNL d   1       1.716   0.582   0.643  0.00  0.00     0.022 A 
ATOM      7  C5  UNL d   1       0.364   0.812   0.548  0.00  0.00     0.026 A 
ATOM      8  C6  UNL d   1      -0.424  -0.290   1.025  0.00  0.00    -0.082 A 
ATOM      9  C7  UNL d   1      -1.828  -0.454   1.100  0.00  0.00     0.045 A 
ENDROOT
TORSDOF 0
ENDMDL
