MODEL 1
REMARK minimizedAffinity 0.552591026
REMARK minimizedRMSD -1
REMARK  0 active torsions:
REMARK  status: ('A' for Active; 'I' for Inactive)
ROOT
ATOM      1  C   UNL d   1      -1.568  -4.702  -5.214  0.00  0.00    -0.002 A 
ATOM      2  C1  UNL d   1      -2.196  -5.930  -5.366  0.00  0.00     0.010 A 
ATOM      3  C2  UNL d   1      -3.569  -6.000  -5.611  0.00  0.00     0.041 A 
ATOM      4  C3  UNL d   1      -4.307  -4.803  -5.704  0.00  0.00    -0.075 A 
ATOM      5  S   UNL d   1      -5.998  -4.645  -5.999  0.00  0.00     0.015 SA
ATOM      6  C4  UNL d   1      -5.926  -2.943  -5.932  0.00  0.00     0.022 A 
ATOM      7  C5  UNL d   1      -4.651  -2.490  -5.691  0.00  0.00     0.026 A 
ATOM      8  C6  UNL d   1      -3.696  -3.555  -5.556  0.00  0.00    -0.082 A 
ATOM      9  C7  UNL d   1      -2.303  -3.517  -5.308  0.00  0.00     0.045 A 
ENDROOT
TORSDOF 0
ENDMDL
