MODEL 1
REMARK minimizedAffinity 1.31979764
REMARK minimizedRMSD -1
REMARK  0 active torsions:
REMARK  status: ('A' for Active; 'I' for Inactive)
ROOT
ATOM      1  C   UNL d   1      -2.591  -5.410  -3.908  0.00  0.00    -0.002 A 
ATOM      2  C1  UNL d   1      -3.032  -5.971  -5.098  0.00  0.00     0.010 A 
ATOM      3  C2  UNL d   1      -4.085  -5.392  -5.808  0.00  0.00     0.041 A 
ATOM      4  C3  UNL d   1      -4.692  -4.228  -5.299  0.00  0.00    -0.075 A 
ATOM      5  S   UNL d   1      -5.997  -3.345  -5.999  0.00  0.00     0.015 SA
ATOM      6  C4  UNL d   1      -5.999  -2.201  -4.735  0.00  0.00     0.022 A 
ATOM      7  C5  UNL d   1      -5.034  -2.472  -3.793  0.00  0.00     0.026 A 
ATOM      8  C6  UNL d   1      -4.265  -3.643  -4.103  0.00  0.00    -0.082 A 
ATOM      9  C7  UNL d   1      -3.195  -4.255  -3.405  0.00  0.00     0.045 A 
ENDROOT
TORSDOF 0
ENDMDL
