MODEL 1
REMARK minimizedAffinity 9.57538128
REMARK minimizedRMSD -1
REMARK  0 active torsions:
REMARK  status: ('A' for Active; 'I' for Inactive)
ROOT
ATOM      1  C   UNL d   1      -3.999  -5.369  -5.297  0.00  0.00    -0.002 A 
ATOM      2  C1  UNL d   1      -3.449  -4.991  -4.080  0.00  0.00     0.010 A 
ATOM      3  C2  UNL d   1      -3.725  -3.736  -3.536  0.00  0.00     0.041 A 
ATOM      4  C3  UNL d   1      -4.573  -2.859  -4.240  0.00  0.00    -0.075 A 
ATOM      5  S   UNL d   1      -5.052  -1.272  -3.766  0.00  0.00     0.015 SA
ATOM      6  C4  UNL d   1      -5.999  -1.059  -5.167  0.00  0.00     0.022 A 
ATOM      7  C5  UNL d   1      -5.961  -2.161  -5.988  0.00  0.00     0.026 A 
ATOM      8  C6  UNL d   1      -5.139  -3.217  -5.467  0.00  0.00    -0.082 A 
ATOM      9  C7  UNL d   1      -4.839  -4.497  -5.993  0.00  0.00     0.045 A 
ENDROOT
TORSDOF 0
ENDMDL
