MODEL 1
REMARK minimizedAffinity 0.184632391
REMARK minimizedRMSD -1
REMARK  0 active torsions:
REMARK  status: ('A' for Active; 'I' for Inactive)
ROOT
ATOM      1  C   UNL d   1      -1.916  -4.945  -5.648  0.00  0.00    -0.002 A 
ATOM      2  C1  UNL d   1      -2.447  -6.000  -4.920  0.00  0.00     0.010 A 
ATOM      3  C2  UNL d   1      -3.709  -5.892  -4.332  0.00  0.00     0.041 A 
ATOM      4  C3  UNL d   1      -4.435  -4.695  -4.491  0.00  0.00    -0.075 A 
ATOM      5  S   UNL d   1      -6.000  -4.337  -3.862  0.00  0.00     0.015 SA
ATOM      6  C4  UNL d   1      -6.000  -2.776  -4.546  0.00  0.00     0.022 A 
ATOM      7  C5  UNL d   1      -4.842  -2.518  -5.241  0.00  0.00     0.026 A 
ATOM      8  C6  UNL d   1      -3.921  -3.620  -5.222  0.00  0.00    -0.082 A 
ATOM      9  C7  UNL d   1      -2.639  -3.760  -5.805  0.00  0.00     0.045 A 
ENDROOT
TORSDOF 0
ENDMDL
