MODEL 1
REMARK minimizedAffinity 3.60353255
REMARK minimizedRMSD -1
REMARK  0 active torsions:
REMARK  status: ('A' for Active; 'I' for Inactive)
ROOT
ATOM      1  C   UNL d   1      -5.469  -2.242  -5.252  0.00  0.00    -0.002 A 
ATOM      2  C1  UNL d   1      -5.762  -2.618  -3.948  0.00  0.00     0.010 A 
ATOM      3  C2  UNL d   1      -5.127  -3.717  -3.367  0.00  0.00     0.041 A 
ATOM      4  C3  UNL d   1      -4.183  -4.438  -4.124  0.00  0.00    -0.075 A 
ATOM      5  S   UNL d   1      -3.281  -5.818  -3.619  0.00  0.00     0.015 SA
ATOM      6  C4  UNL d   1      -2.485  -5.940  -5.121  0.00  0.00     0.022 A 
ATOM      7  C5  UNL d   1      -2.886  -4.961  -5.999  0.00  0.00     0.026 A 
ATOM      8  C6  UNL d   1      -3.871  -4.078  -5.438  0.00  0.00    -0.082 A 
ATOM      9  C7  UNL d   1      -4.532  -2.960  -6.000  0.00  0.00     0.045 A 
ENDROOT
TORSDOF 0
ENDMDL
