MODEL 1
REMARK minimizedAffinity 2.0806129
REMARK minimizedRMSD -1
REMARK  0 active torsions:
REMARK  status: ('A' for Active; 'I' for Inactive)
ROOT
ATOM      1  C1  BNZ d   1      -5.989   1.725  -5.927  0.00  0.00     0.000 A 
ATOM      2  C2  BNZ d   1      -5.990   2.706  -4.971  0.00  0.00     0.000 A 
ATOM      3  C3  BNZ d   1      -5.970   2.388  -3.642  0.00  0.00     0.000 A 
ATOM      4  C4  BNZ d   1      -5.990   1.092  -3.270  0.00  0.00     0.000 A 
ATOM      5  C5  BNZ d   1      -5.999   0.092  -4.221  0.00  0.00     0.000 A 
ATOM      6  C6  BNZ d   1      -5.979   0.415  -5.558  0.00  0.00     0.000 A 
ENDROOT
TORSDOF 0
ENDMDL
