MODEL 1
REMARK minimizedAffinity 3.02612138
REMARK minimizedRMSD -1
REMARK  0 active torsions:
REMARK  status: ('A' for Active; 'I' for Inactive)
ROOT
ATOM      1  C1  BNZ d   1       1.841  -0.961   3.050  0.00  0.00     0.000 A 
ATOM      2  C2  BNZ d   1       1.426  -2.052   3.765  0.00  0.00     0.000 A 
ATOM      3  C3  BNZ d   1       2.299  -2.741   4.561  0.00  0.00     0.000 A 
ATOM      4  C4  BNZ d   1       3.592  -2.362   4.609  0.00  0.00     0.000 A 
ATOM      5  C5  BNZ d   1       4.028  -1.269   3.887  0.00  0.00     0.000 A 
ATOM      6  C6  BNZ d   1       3.139  -0.555   3.117  0.00  0.00     0.000 A 
ENDROOT
TORSDOF 0
ENDMDL
