MODEL 1
REMARK minimizedAffinity 1.60923755
REMARK minimizedRMSD -1
REMARK  0 active torsions:
REMARK  status: ('A' for Active; 'I' for Inactive)
ROOT
ATOM      1  C1  BNZ d   1       2.245   0.105   3.518  0.00  0.00     0.000 A 
ATOM      2  C2  BNZ d   1       2.061   0.330   2.180  0.00  0.00     0.000 A 
ATOM      3  C3  BNZ d   1       1.803  -0.706   1.325  0.00  0.00     0.000 A 
ATOM      4  C4  BNZ d   1       1.769  -1.967   1.803  0.00  0.00     0.000 A 
ATOM      5  C5  BNZ d   1       1.962  -2.210   3.148  0.00  0.00     0.000 A 
ATOM      6  C6  BNZ d   1       2.182  -1.161   4.012  0.00  0.00     0.000 A 
ENDROOT
TORSDOF 0
ENDMDL
