MODEL 1
REMARK minimizedAffinity -0.159727946
REMARK minimizedRMSD -1
REMARK  0 active torsions:
REMARK  status: ('A' for Active; 'I' for Inactive)
ROOT
ATOM      1  C1  BNZ d   1       4.913  -2.323   4.777  0.00  0.00     0.000 A 
ATOM      2  C2  BNZ d   1       4.203  -2.170   3.616  0.00  0.00     0.000 A 
ATOM      3  C3  BNZ d   1       2.844  -2.027   3.641  0.00  0.00     0.000 A 
ATOM      4  C4  BNZ d   1       2.193  -2.077   4.822  0.00  0.00     0.000 A 
ATOM      5  C5  BNZ d   1       2.894  -2.239   6.000  0.00  0.00     0.000 A 
ATOM      6  C6  BNZ d   1       4.266  -2.344   5.974  0.00  0.00     0.000 A 
ENDROOT
TORSDOF 0
ENDMDL
