MODEL 1
REMARK minimizedAffinity 0.548080921
REMARK minimizedRMSD -1
REMARK  0 active torsions:
REMARK  status: ('A' for Active; 'I' for Inactive)
ROOT
ATOM      1  C1  BNZ d   1       3.934  -2.920   5.997  0.00  0.00     0.000 A 
ATOM      2  C2  BNZ d   1       5.303  -2.893   6.000  0.00  0.00     0.000 A 
ATOM      3  C3  BNZ d   1       5.997  -2.455   4.906  0.00  0.00     0.000 A 
ATOM      4  C4  BNZ d   1       5.322  -2.083   3.799  0.00  0.00     0.000 A 
ATOM      5  C5  BNZ d   1       3.942  -2.113   3.778  0.00  0.00     0.000 A 
ATOM      6  C6  BNZ d   1       3.247  -2.518   4.894  0.00  0.00     0.000 A 
ENDROOT
TORSDOF 0
ENDMDL
