MODEL 1
REMARK minimizedAffinity -2.07580614
REMARK minimizedRMSD -1
REMARK  0 active torsions:
REMARK  status: ('A' for Active; 'I' for Inactive)
ROOT
ATOM      1  C1  BNZ d   1       4.331  -1.066   2.956  0.00  0.00     0.000 A 
ATOM      2  C2  BNZ d   1       3.106  -0.810   2.400  0.00  0.00     0.000 A 
ATOM      3  C3  BNZ d   1       2.011  -1.551   2.748  0.00  0.00     0.000 A 
ATOM      4  C4  BNZ d   1       2.150  -2.571   3.619  0.00  0.00     0.000 A 
ATOM      5  C5  BNZ d   1       3.380  -2.847   4.181  0.00  0.00     0.000 A 
ATOM      6  C6  BNZ d   1       4.472  -2.075   3.858  0.00  0.00     0.000 A 
ENDROOT
TORSDOF 0
ENDMDL
