MODEL 1
REMARK minimizedAffinity 12.2124758
REMARK minimizedRMSD -1
REMARK  0 active torsions:
REMARK  status: ('A' for Active; 'I' for Inactive)
ROOT
ATOM      1  N1  IND d   1       1.411   1.733   5.778  0.00  0.00    -0.196 N 
ATOM      2  C2  IND d   1       0.300   2.518   5.917  0.00  0.00     0.054 A 
ATOM      3  C3  IND d   1      -0.578   2.271   4.919  0.00  0.00    -0.031 A 
ATOM      4  C4  IND d   1      -0.441   0.551   3.008  0.00  0.00     0.051 A 
ATOM      5  C5  IND d   1       0.398  -0.369   2.445  0.00  0.00    -0.031 A 
ATOM      6  C6  IND d   1       1.642  -0.642   2.976  0.00  0.00     0.015 A 
ATOM      7  C7  IND d   1       2.090  -0.012   4.102  0.00  0.00    -0.016 A 
ATOM      8  C8  IND d   1       1.243   0.928   4.673  0.00  0.00    -0.047 A 
ATOM      9  C9  IND d   1      -0.003   1.240   4.114  0.00  0.00    -0.096 A 
ATOM     10  HN1 IND d   1       2.099   1.742   6.294  0.00  0.00     0.298 HD
ENDROOT
TORSDOF 0
ENDMDL
