MODEL 1
REMARK minimizedAffinity 14.4240179
REMARK minimizedRMSD -1
REMARK  0 active torsions:
REMARK  status: ('A' for Active; 'I' for Inactive)
ROOT
ATOM      1  N1  IND d   1       4.832   4.734   4.123  0.00  0.00    -0.196 N 
ATOM      2  C2  IND d   1       4.499   6.000   3.731  0.00  0.00     0.054 A 
ATOM      3  C3  IND d   1       4.084   6.000   2.444  0.00  0.00    -0.031 A 
ATOM      4  C4  IND d   1       3.778   4.022   0.824  0.00  0.00     0.051 A 
ATOM      5  C5  IND d   1       3.987   2.676   0.716  0.00  0.00    -0.031 A 
ATOM      6  C6  IND d   1       4.496   1.931   1.760  0.00  0.00     0.015 A 
ATOM      7  C7  IND d   1       4.806   2.506   2.961  0.00  0.00    -0.016 A 
ATOM      8  C8  IND d   1       4.602   3.874   3.072  0.00  0.00    -0.047 A 
ATOM      9  C9  IND d   1       4.125   4.642   2.001  0.00  0.00    -0.096 A 
ATOM     10  HN1 IND d   1       5.135   4.511   4.896  0.00  0.00     0.298 HD
ENDROOT
TORSDOF 0
ENDMDL
