MODEL 1
REMARK minimizedAffinity 10.7011604
REMARK minimizedRMSD -1
REMARK  0 active torsions:
REMARK  status: ('A' for Active; 'I' for Inactive)
ROOT
ATOM      1  N1  IND d   1       1.579  -1.106   3.559  0.00  0.00    -0.196 N 
ATOM      2  C2  IND d   1       2.526  -0.291   4.114  0.00  0.00     0.054 A 
ATOM      3  C3  IND d   1       2.029   0.954   4.292  0.00  0.00    -0.031 A 
ATOM      4  C4  IND d   1      -0.342   1.848   3.839  0.00  0.00     0.051 A 
ATOM      5  C5  IND d   1      -1.545   1.488   3.299  0.00  0.00    -0.031 A 
ATOM      6  C6  IND d   1      -1.773   0.217   2.811  0.00  0.00     0.015 A 
ATOM      7  C7  IND d   1      -0.806  -0.747   2.855  0.00  0.00    -0.016 A 
ATOM      8  C8  IND d   1       0.418  -0.382   3.396  0.00  0.00    -0.047 A 
ATOM      9  C9  IND d   1       0.669   0.917   3.854  0.00  0.00    -0.096 A 
ATOM     10  HN1 IND d   1       1.690  -1.932   3.347  0.00  0.00     0.298 HD
ENDROOT
TORSDOF 0
ENDMDL
