MODEL 1
REMARK minimizedAffinity 16.3160038
REMARK minimizedRMSD -1
REMARK  0 active torsions:
REMARK  status: ('A' for Active; 'I' for Inactive)
ROOT
ATOM      1  N1  IND d   1      -1.005  -2.784  -5.962  0.00  0.00    -0.196 N 
ATOM      2  C2  IND d   1      -2.137  -3.550  -5.968  0.00  0.00     0.054 A 
ATOM      3  C3  IND d   1      -1.816  -4.863  -5.999  0.00  0.00    -0.031 A 
ATOM      4  C4  IND d   1       0.502  -5.982  -5.943  0.00  0.00     0.051 A 
ATOM      5  C5  IND d   1       1.837  -5.694  -5.972  0.00  0.00    -0.031 A 
ATOM      6  C6  IND d   1       2.303  -4.396  -5.996  0.00  0.00     0.015 A 
ATOM      7  C7  IND d   1       1.447  -3.331  -5.982  0.00  0.00    -0.016 A 
ATOM      8  C8  IND d   1       0.090  -3.619  -5.960  0.00  0.00    -0.047 A 
ATOM      9  C9  IND d   1      -0.390  -4.935  -5.978  0.00  0.00    -0.096 A 
ATOM     10  HN1 IND d   1      -0.981  -1.924  -5.960  0.00  0.00     0.298 HD
ENDROOT
TORSDOF 0
ENDMDL
