MODEL 1
REMARK minimizedAffinity 18.0824661
REMARK minimizedRMSD -1
REMARK  0 active torsions:
REMARK  status: ('A' for Active; 'I' for Inactive)
ROOT
ATOM      1  N1  IND d   1       0.761   1.401   5.927  0.00  0.00    -0.196 N 
ATOM      2  C2  IND d   1      -0.089   2.470   6.000  0.00  0.00     0.054 A 
ATOM      3  C3  IND d   1      -0.808   2.578   4.860  0.00  0.00    -0.031 A 
ATOM      4  C4  IND d   1      -0.826   1.051   2.787  0.00  0.00     0.051 A 
ATOM      5  C5  IND d   1      -0.196  -0.031   2.241  0.00  0.00    -0.031 A 
ATOM      6  C6  IND d   1       0.804  -0.707   2.910  0.00  0.00     0.015 A 
ATOM      7  C7  IND d   1       1.205  -0.330   4.161  0.00  0.00    -0.016 A 
ATOM      8  C8  IND d   1       0.572   0.773   4.716  0.00  0.00    -0.047 A 
ATOM      9  C9  IND d   1      -0.414   1.488   4.024  0.00  0.00    -0.096 A 
ATOM     10  HN1 IND d   1       1.319   1.162   6.536  0.00  0.00     0.298 HD
ENDROOT
TORSDOF 0
ENDMDL
