MODEL 1
REMARK minimizedAffinity 9.61715794
REMARK minimizedRMSD -1
REMARK  0 active torsions:
REMARK  status: ('A' for Active; 'I' for Inactive)
ROOT
ATOM      1  N1  IND d   1       3.766   4.748   0.888  0.00  0.00    -0.196 N 
ATOM      2  C2  IND d   1       4.281   6.000   1.077  0.00  0.00     0.054 A 
ATOM      3  C3  IND d   1       5.167   5.995   2.098  0.00  0.00    -0.031 A 
ATOM      4  C4  IND d   1       6.000   4.026   3.532  0.00  0.00     0.051 A 
ATOM      5  C5  IND d   1       5.792   2.694   3.757  0.00  0.00    -0.031 A 
ATOM      6  C6  IND d   1       4.883   1.963   3.021  0.00  0.00     0.015 A 
ATOM      7  C7  IND d   1       4.151   2.537   2.020  0.00  0.00    -0.016 A 
ATOM      8  C8  IND d   1       4.354   3.891   1.793  0.00  0.00    -0.047 A 
ATOM      9  C9  IND d   1       5.245   4.648   2.565  0.00  0.00    -0.096 A 
ATOM     10  HN1 IND d   1       3.174   4.531   0.303  0.00  0.00     0.298 HD
ENDROOT
TORSDOF 0
ENDMDL
