MODEL 1
REMARK minimizedAffinity 8.99289608
REMARK minimizedRMSD -1
REMARK  0 active torsions:
REMARK  status: ('A' for Active; 'I' for Inactive)
ROOT
ATOM      1  N1  IND d   1      -0.550   2.205   4.128  0.00  0.00    -0.196 N 
ATOM      2  C2  IND d   1      -0.119   2.460   5.400  0.00  0.00     0.054 A 
ATOM      3  C3  IND d   1       0.589   1.411   5.875  0.00  0.00    -0.031 A 
ATOM      4  C4  IND d   1       1.251  -0.783   4.702  0.00  0.00     0.051 A 
ATOM      5  C5  IND d   1       1.059  -1.487   3.546  0.00  0.00    -0.031 A 
ATOM      6  C6  IND d   1       0.308  -0.985   2.503  0.00  0.00     0.015 A 
ATOM      7  C7  IND d   1      -0.273   0.250   2.573  0.00  0.00    -0.016 A 
ATOM      8  C8  IND d   1      -0.086   0.965   3.748  0.00  0.00    -0.047 A 
ATOM      9  C9  IND d   1       0.640   0.443   4.826  0.00  0.00    -0.096 A 
ATOM     10  HN1 IND d   1      -1.031   2.730   3.646  0.00  0.00     0.298 HD
ENDROOT
TORSDOF 0
ENDMDL
