MODEL 1
REMARK minimizedAffinity 4.32584858
REMARK minimizedRMSD -1
REMARK  0 active torsions:
REMARK  status: ('A' for Active; 'I' for Inactive)
ROOT
ATOM      1  N1  IND d   1       1.673  -2.296   5.106  0.00  0.00    -0.196 N 
ATOM      2  C2  IND d   1       1.162  -3.530   4.815  0.00  0.00     0.054 A 
ATOM      3  C3  IND d   1       0.275  -3.444   3.798  0.00  0.00    -0.031 A 
ATOM      4  C4  IND d   1      -0.414  -1.397   2.397  0.00  0.00     0.051 A 
ATOM      5  C5  IND d   1      -0.244  -0.044   2.312  0.00  0.00    -0.031 A 
ATOM      6  C6  IND d   1       0.593   0.642   3.168  0.00  0.00     0.015 A 
ATOM      7  C7  IND d   1       1.303  -0.005   4.140  0.00  0.00    -0.016 A 
ATOM      8  C8  IND d   1       1.127  -1.379   4.234  0.00  0.00    -0.047 A 
ATOM      9  C9  IND d   1       0.247  -2.074   3.395  0.00  0.00    -0.096 A 
ATOM     10  HN1 IND d   1       2.240  -2.121   5.728  0.00  0.00     0.298 HD
ENDROOT
TORSDOF 0
ENDMDL
