MODEL 1
REMARK minimizedAffinity 12.2304668
REMARK minimizedRMSD -1
REMARK  0 active torsions:
REMARK  status: ('A' for Active; 'I' for Inactive)
ROOT
ATOM      1  N1  IND d   1      -0.838   1.920   3.104  0.00  0.00    -0.196 N 
ATOM      2  C2  IND d   1      -0.256   2.572   4.156  0.00  0.00     0.054 A 
ATOM      3  C3  IND d   1       0.702   1.801   4.716  0.00  0.00    -0.031 A 
ATOM      4  C4  IND d   1       1.552  -0.523   4.006  0.00  0.00     0.051 A 
ATOM      5  C5  IND d   1       1.304  -1.538   3.125  0.00  0.00    -0.031 A 
ATOM      6  C6  IND d   1       0.311  -1.449   2.171  0.00  0.00     0.015 A 
ATOM      7  C7  IND d   1      -0.467  -0.332   2.055  0.00  0.00    -0.016 A 
ATOM      8  C8  IND d   1      -0.222   0.697   2.952  0.00  0.00    -0.047 A 
ATOM      9  C9  IND d   1       0.756   0.596   3.950  0.00  0.00    -0.096 A 
ATOM     10  HN1 IND d   1      -1.480   2.223   2.620  0.00  0.00     0.298 HD
ENDROOT
TORSDOF 0
ENDMDL
