MODEL 1
REMARK minimizedAffinity -5.50315571
REMARK minimizedRMSD -1
REMARK  1 active torsions:
REMARK  status: ('A' for Active; 'I' for Inactive)
REMARK    1  A    between atoms: C1_2  and  C2_3 
ROOT
ATOM      1  C2  UNL d   1       0.106  -0.450   0.688  0.00  0.00    -0.076 A 
ATOM      2  C3  UNL d   1      -1.265  -0.154   0.598  0.00  0.00     0.004 A 
ATOM      3  C4  UNL d   1      -2.006   0.167   1.734  0.00  0.00    -0.003 A 
ATOM      4  C5  UNL d   1      -1.387   0.198   2.979  0.00  0.00     0.000 A 
ATOM      5  C6  UNL d   1      -0.024  -0.076   3.084  0.00  0.00     0.000 A 
ATOM      6  C7  UNL d   1       0.741  -0.386   1.947  0.00  0.00    -0.073 A 
ATOM      7  C8  UNL d   1       2.206  -0.679   2.120  0.00  0.00     0.078 C 
ENDROOT
BRANCH   1   8
ATOM      8  C1  UNL d   1       0.852  -0.818  -0.575  0.00  0.00     0.053 C 
ATOM      9  C   UNL d   1       0.448   0.041  -1.762  0.00  0.00     0.018 C 
ENDBRANCH   1   8
TORSDOF 1
ENDMDL
