MODEL 1
REMARK minimizedAffinity -3.23840833
REMARK minimizedRMSD -1
REMARK  1 active torsions:
REMARK  status: ('A' for Active; 'I' for Inactive)
REMARK    1  A    between atoms: C1_2  and  C2_3 
ROOT
ATOM      1  C2  UNL d   1       0.468   0.294  -1.606  0.00  0.00    -0.076 A 
ATOM      2  C3  UNL d   1      -0.444   1.362  -1.541  0.00  0.00     0.004 A 
ATOM      3  C4  UNL d   1      -1.348   1.470  -0.486  0.00  0.00    -0.003 A 
ATOM      4  C5  UNL d   1      -1.355   0.512   0.522  0.00  0.00     0.000 A 
ATOM      5  C6  UNL d   1      -0.446  -0.545   0.482  0.00  0.00     0.000 A 
ATOM      6  C7  UNL d   1       0.483  -0.660  -0.566  0.00  0.00    -0.073 A 
ATOM      7  C8  UNL d   1       1.436  -1.823  -0.561  0.00  0.00     0.078 C 
ENDROOT
BRANCH   1   8
ATOM      8  C1  UNL d   1       1.407   0.214  -2.789  0.00  0.00     0.053 C 
ATOM      9  C   UNL d   1       0.775   0.735  -4.070  0.00  0.00     0.018 C 
ENDBRANCH   1   8
TORSDOF 1
ENDMDL
