MODEL 1
REMARK minimizedAffinity -5.28781557
REMARK minimizedRMSD -1
REMARK  1 active torsions:
REMARK  status: ('A' for Active; 'I' for Inactive)
REMARK    1  A    between atoms: C1_2  and  C2_3 
ROOT
ATOM      1  C2  UNL d   1       0.083   0.036   0.485  0.00  0.00    -0.076 A 
ATOM      2  C3  UNL d   1       1.057   0.320   1.459  0.00  0.00     0.004 A 
ATOM      3  C4  UNL d   1       0.693   0.750   2.734  0.00  0.00    -0.003 A 
ATOM      4  C5  UNL d   1      -0.651   0.903   3.056  0.00  0.00     0.000 A 
ATOM      5  C6  UNL d   1      -1.631   0.609   2.108  0.00  0.00     0.000 A 
ATOM      6  C7  UNL d   1      -1.282   0.159   0.824  0.00  0.00    -0.073 A 
ATOM      7  C8  UNL d   1      -2.379  -0.138  -0.161  0.00  0.00     0.078 C 
ENDROOT
BRANCH   1   8
ATOM      8  C1  UNL d   1       0.539  -0.401  -0.888  0.00  0.00     0.053 C 
ATOM      9  C   UNL d   1       1.420  -1.640  -0.844  0.00  0.00     0.018 C 
ENDBRANCH   1   8
TORSDOF 1
ENDMDL
