MODEL 1
REMARK minimizedAffinity -1.54818511
REMARK minimizedRMSD -1
REMARK  1 active torsions:
REMARK  status: ('A' for Active; 'I' for Inactive)
REMARK    1  A    between atoms: C1_2  and  C2_3 
ROOT
ATOM      1  C2  UNL d   1       0.018  -0.391   0.134  0.00  0.00    -0.076 A 
ATOM      2  C3  UNL d   1       1.109  -0.620   0.990  0.00  0.00     0.004 A 
ATOM      3  C4  UNL d   1       1.024  -0.337   2.353  0.00  0.00    -0.003 A 
ATOM      4  C5  UNL d   1      -0.154   0.179   2.881  0.00  0.00     0.000 A 
ATOM      5  C6  UNL d   1      -1.252   0.396   2.049  0.00  0.00     0.000 A 
ATOM      6  C7  UNL d   1      -1.188   0.101   0.677  0.00  0.00    -0.073 A 
ATOM      7  C8  UNL d   1      -2.401   0.360  -0.175  0.00  0.00     0.078 C 
ENDROOT
BRANCH   1   8
ATOM      8  C1  UNL d   1       0.178  -0.691  -1.339  0.00  0.00     0.053 C 
ATOM      9  C   UNL d   1       0.922   0.409  -2.081  0.00  0.00     0.018 C 
ENDBRANCH   1   8
TORSDOF 1
ENDMDL
