MODEL 1
REMARK minimizedAffinity -3.26499891
REMARK minimizedRMSD -1
REMARK  1 active torsions:
REMARK  status: ('A' for Active; 'I' for Inactive)
REMARK    1  A    between atoms: C1_2  and  C2_3 
ROOT
ATOM      1  C2  UNL d   1       0.221  -0.308   0.343  0.00  0.00    -0.076 A 
ATOM      2  C3  UNL d   1      -1.135   0.030   0.190  0.00  0.00     0.004 A 
ATOM      3  C4  UNL d   1      -1.960   0.207   1.300  0.00  0.00    -0.003 A 
ATOM      4  C5  UNL d   1      -1.442   0.052   2.580  0.00  0.00     0.000 A 
ATOM      5  C6  UNL d   1      -0.095  -0.266   2.751  0.00  0.00     0.000 A 
ATOM      6  C7  UNL d   1       0.754  -0.432   1.644  0.00  0.00    -0.073 A 
ATOM      7  C8  UNL d   1       2.198  -0.780   1.886  0.00  0.00     0.078 C 
ENDROOT
BRANCH   1   8
ATOM      8  C1  UNL d   1       1.060  -0.514  -0.897  0.00  0.00     0.053 C 
ATOM      9  C   UNL d   1       0.244  -0.415  -2.177  0.00  0.00     0.018 C 
ENDBRANCH   1   8
TORSDOF 1
ENDMDL
