MODEL 1
REMARK minimizedAffinity -4.47585678
REMARK minimizedRMSD -1
REMARK  1 active torsions:
REMARK  status: ('A' for Active; 'I' for Inactive)
REMARK    1  A    between atoms: C1_2  and  C2_3 
ROOT
ATOM      1  C2  UNL d   1       0.808   0.209   1.383  0.00  0.00    -0.076 A 
ATOM      2  C3  UNL d   1       1.044  -0.472   0.176  0.00  0.00     0.004 A 
ATOM      3  C4  UNL d   1      -0.008  -0.811  -0.674  0.00  0.00    -0.003 A 
ATOM      4  C5  UNL d   1      -1.312  -0.473  -0.332  0.00  0.00     0.000 A 
ATOM      5  C6  UNL d   1      -1.563   0.219   0.853  0.00  0.00     0.000 A 
ATOM      6  C7  UNL d   1      -0.513   0.582   1.713  0.00  0.00    -0.073 A 
ATOM      7  C8  UNL d   1      -0.841   1.322   2.981  0.00  0.00     0.078 C 
ENDROOT
BRANCH   1   8
ATOM      8  C1  UNL d   1       1.984   0.526   2.278  0.00  0.00     0.053 C 
ATOM      9  C   UNL d   1       2.935  -0.652   2.429  0.00  0.00     0.018 C 
ENDBRANCH   1   8
TORSDOF 1
ENDMDL
