MODEL 1
REMARK minimizedAffinity -3.81511402
REMARK minimizedRMSD -1
REMARK  1 active torsions:
REMARK  status: ('A' for Active; 'I' for Inactive)
REMARK    1  A    between atoms: C1_2  and  C2_3 
ROOT
ATOM      1  C2  UNL d   1       5.601   3.648   3.576  0.00  0.00    -0.076 A 
ATOM      2  C3  UNL d   1       5.319   2.280   3.413  0.00  0.00     0.004 A 
ATOM      3  C4  UNL d   1       5.179   1.440   4.516  0.00  0.00    -0.003 A 
ATOM      4  C5  UNL d   1       5.318   1.953   5.800  0.00  0.00     0.000 A 
ATOM      5  C6  UNL d   1       5.581   3.311   5.982  0.00  0.00     0.000 A 
ATOM      6  C7  UNL d   1       5.709   4.175   4.881  0.00  0.00    -0.073 A 
ATOM      7  C8  UNL d   1       5.998   5.629   5.134  0.00  0.00     0.078 C 
ENDROOT
BRANCH   1   8
ATOM      8  C1  UNL d   1       5.769   4.505   2.342  0.00  0.00     0.053 C 
ATOM      9  C   UNL d   1       4.460   5.126   1.881  0.00  0.00     0.018 C 
ENDBRANCH   1   8
TORSDOF 1
ENDMDL
