MODEL 1
REMARK minimizedAffinity -4.83695555
REMARK minimizedRMSD -1
REMARK  1 active torsions:
REMARK  status: ('A' for Active; 'I' for Inactive)
REMARK    1  A    between atoms: C1_2  and  C2_3 
ROOT
ATOM      1  C2  UNL d   1       0.182   0.134  -0.173  0.00  0.00    -0.076 A 
ATOM      2  C3  UNL d   1      -0.548  -1.023   0.150  0.00  0.00     0.004 A 
ATOM      3  C4  UNL d   1       0.099  -2.230   0.412  0.00  0.00    -0.003 A 
ATOM      4  C5  UNL d   1       1.486  -2.299   0.355  0.00  0.00     0.000 A 
ATOM      5  C6  UNL d   1       2.228  -1.157   0.053  0.00  0.00     0.000 A 
ATOM      6  C7  UNL d   1       1.592   0.071  -0.198  0.00  0.00    -0.073 A 
ATOM      7  C8  UNL d   1       2.441   1.269  -0.525  0.00  0.00     0.078 C 
ENDROOT
BRANCH   1   8
ATOM      8  C1  UNL d   1      -0.575   1.407  -0.474  0.00  0.00     0.053 C 
ATOM      9  C   UNL d   1      -1.383   1.315  -1.759  0.00  0.00     0.018 C 
ENDBRANCH   1   8
TORSDOF 1
ENDMDL
