MODEL 1
REMARK minimizedAffinity -4.88283968
REMARK minimizedRMSD -1
REMARK  1 active torsions:
REMARK  status: ('A' for Active; 'I' for Inactive)
REMARK    1  A    between atoms: C1_2  and  C2_3 
ROOT
ATOM      1  C2  UNL d   1      -0.006   0.319  -0.859  0.00  0.00    -0.076 A 
ATOM      2  C3  UNL d   1       0.815  -0.721  -1.330  0.00  0.00     0.004 A 
ATOM      3  C4  UNL d   1       1.409  -1.621  -0.448  0.00  0.00    -0.003 A 
ATOM      4  C5  UNL d   1       1.191  -1.498   0.920  0.00  0.00     0.000 A 
ATOM      5  C6  UNL d   1       0.365  -0.484   1.403  0.00  0.00     0.000 A 
ATOM      6  C7  UNL d   1      -0.254   0.423   0.526  0.00  0.00    -0.073 A 
ATOM      7  C8  UNL d   1      -1.131   1.501   1.102  0.00  0.00     0.078 C 
ENDROOT
BRANCH   1   8
ATOM      8  C1  UNL d   1      -0.601   1.282  -1.861  0.00  0.00     0.053 C 
ATOM      9  C   UNL d   1      -1.889   0.759  -2.478  0.00  0.00     0.018 C 
ENDBRANCH   1   8
TORSDOF 1
ENDMDL
