MODEL 1
REMARK minimizedAffinity -3.53575206
REMARK minimizedRMSD -1
REMARK  1 active torsions:
REMARK  status: ('A' for Active; 'I' for Inactive)
REMARK    1  A    between atoms: C1_2  and  C2_3 
ROOT
ATOM      1  C2  UNL d   1       0.286   0.251   0.190  0.00  0.00    -0.076 A 
ATOM      2  C3  UNL d   1      -0.490  -0.824   0.655  0.00  0.00     0.004 A 
ATOM      3  C4  UNL d   1       0.067  -2.090   0.830  0.00  0.00    -0.003 A 
ATOM      4  C5  UNL d   1       1.411  -2.300   0.542  0.00  0.00     0.000 A 
ATOM      5  C6  UNL d   1       2.201  -1.241   0.096  0.00  0.00     0.000 A 
ATOM      6  C7  UNL d   1       1.658   0.045  -0.070  0.00  0.00    -0.073 A 
ATOM      7  C8  UNL d   1       2.554   1.149  -0.560  0.00  0.00     0.078 C 
ENDROOT
BRANCH   1   8
ATOM      8  C1  UNL d   1      -0.380   1.594  -0.006  0.00  0.00     0.053 C 
ATOM      9  C   UNL d   1      -1.333   1.604  -1.192  0.00  0.00     0.018 C 
ENDBRANCH   1   8
TORSDOF 1
ENDMDL
