MODEL 1
REMARK minimizedAffinity -2.90780258
REMARK minimizedRMSD -1
REMARK  1 active torsions:
REMARK  status: ('A' for Active; 'I' for Inactive)
REMARK    1  A    between atoms: C1_2  and  C2_3 
ROOT
ATOM      1  C2  UNL d   1       0.937  -0.857   0.900  0.00  0.00    -0.076 A 
ATOM      2  C3  UNL d   1      -0.188  -1.015   1.728  0.00  0.00     0.004 A 
ATOM      3  C4  UNL d   1      -1.273  -0.145   1.638  0.00  0.00    -0.003 A 
ATOM      4  C5  UNL d   1      -1.252   0.897   0.718  0.00  0.00     0.000 A 
ATOM      5  C6  UNL d   1      -0.152   1.059  -0.124  0.00  0.00     0.000 A 
ATOM      6  C7  UNL d   1       0.944   0.181  -0.057  0.00  0.00    -0.073 A 
ATOM      7  C8  UNL d   1       2.106   0.405  -0.985  0.00  0.00     0.078 C 
ENDROOT
BRANCH   1   8
ATOM      8  C1  UNL d   1       2.096  -1.814   1.061  0.00  0.00     0.053 C 
ATOM      9  C   UNL d   1       1.650  -3.200   1.502  0.00  0.00     0.018 C 
ENDBRANCH   1   8
TORSDOF 1
ENDMDL
