MODEL 1
REMARK minimizedAffinity -2.92204189
REMARK minimizedRMSD -1
REMARK  1 active torsions:
REMARK  status: ('A' for Active; 'I' for Inactive)
REMARK    1  A    between atoms: C1_2  and  C2_3 
ROOT
ATOM      1  C2  UNL d   1      -0.253   0.114  -0.063  0.00  0.00    -0.076 A 
ATOM      2  C3  UNL d   1      -1.113  -0.827   0.530  0.00  0.00     0.004 A 
ATOM      3  C4  UNL d   1      -0.620  -2.027   1.041  0.00  0.00    -0.003 A 
ATOM      4  C5  UNL d   1       0.741  -2.304   0.969  0.00  0.00     0.000 A 
ATOM      5  C6  UNL d   1       1.611  -1.373   0.400  0.00  0.00     0.000 A 
ATOM      6  C7  UNL d   1       1.132  -0.152  -0.105  0.00  0.00    -0.073 A 
ATOM      7  C8  UNL d   1       2.114   0.812  -0.713  0.00  0.00     0.078 C 
ENDROOT
BRANCH   1   8
ATOM      8  C1  UNL d   1      -0.849   1.385  -0.624  0.00  0.00     0.053 C 
ATOM      9  C   UNL d   1      -1.793   1.122  -1.788  0.00  0.00     0.018 C 
ENDBRANCH   1   8
TORSDOF 1
ENDMDL
