MODEL 1
REMARK minimizedAffinity -4.80940485
REMARK minimizedRMSD -1
REMARK  1 active torsions:
REMARK  status: ('A' for Active; 'I' for Inactive)
REMARK    1  A    between atoms: C1_2  and  C2_3 
ROOT
ATOM      1  C2  UNL d   1      -0.069   0.111  -0.348  0.00  0.00    -0.076 A 
ATOM      2  C3  UNL d   1      -0.870  -0.797   0.365  0.00  0.00     0.004 A 
ATOM      3  C4  UNL d   1      -0.380  -2.048   0.738  0.00  0.00    -0.003 A 
ATOM      4  C5  UNL d   1       0.921  -2.409   0.405  0.00  0.00     0.000 A 
ATOM      5  C6  UNL d   1       1.736  -1.514  -0.287  0.00  0.00     0.000 A 
ATOM      6  C7  UNL d   1       1.262  -0.243  -0.656  0.00  0.00    -0.073 A 
ATOM      7  C8  UNL d   1       2.182   0.681  -1.406  0.00  0.00     0.078 C 
ENDROOT
BRANCH   1   8
ATOM      8  C1  UNL d   1      -0.664   1.442  -0.749  0.00  0.00     0.053 C 
ATOM      9  C   UNL d   1      -1.603   1.325  -1.939  0.00  0.00     0.018 C 
ENDBRANCH   1   8
TORSDOF 1
ENDMDL
