MODEL 1
REMARK minimizedAffinity -1.30499279
REMARK minimizedRMSD -1
REMARK  1 active torsions:
REMARK  status: ('A' for Active; 'I' for Inactive)
REMARK    1  A    between atoms: C1_2  and  C2_3 
ROOT
ATOM      1  C2  UNL d   1       0.154   0.175  -0.323  0.00  0.00    -0.076 A 
ATOM      2  C3  UNL d   1      -0.530  -1.052  -0.383  0.00  0.00     0.004 A 
ATOM      3  C4  UNL d   1       0.127  -2.252  -0.116  0.00  0.00    -0.003 A 
ATOM      4  C5  UNL d   1       1.477  -2.245   0.215  0.00  0.00     0.000 A 
ATOM      5  C6  UNL d   1       2.166  -1.036   0.296  0.00  0.00     0.000 A 
ATOM      6  C7  UNL d   1       1.516   0.185   0.046  0.00  0.00    -0.073 A 
ATOM      7  C8  UNL d   1       2.309   1.459   0.142  0.00  0.00     0.078 C 
ENDROOT
BRANCH   1   8
ATOM      8  C1  UNL d   1      -0.604   1.443  -0.649  0.00  0.00     0.053 C 
ATOM      9  C   UNL d   1      -1.401   1.330  -1.939  0.00  0.00     0.018 C 
ENDBRANCH   1   8
TORSDOF 1
ENDMDL
