MODEL 1
REMARK minimizedAffinity -4.51766872
REMARK minimizedRMSD -1
REMARK  1 active torsions:
REMARK  status: ('A' for Active; 'I' for Inactive)
REMARK    1  A    between atoms: C1_2  and  C2_3 
ROOT
ATOM      1  C2  UNL d   1      -0.076  -0.021   0.396  0.00  0.00    -0.076 A 
ATOM      2  C3  UNL d   1       1.170  -0.216  -0.225  0.00  0.00     0.004 A 
ATOM      3  C4  UNL d   1       1.967  -1.313   0.097  0.00  0.00    -0.003 A 
ATOM      4  C5  UNL d   1       1.531  -2.233   1.044  0.00  0.00     0.000 A 
ATOM      5  C6  UNL d   1       0.290  -2.065   1.656  0.00  0.00     0.000 A 
ATOM      6  C7  UNL d   1      -0.534  -0.973   1.331  0.00  0.00    -0.073 A 
ATOM      7  C8  UNL d   1      -1.860  -0.837   2.027  0.00  0.00     0.078 C 
ENDROOT
BRANCH   1   8
ATOM      8  C1  UNL d   1      -0.886   1.202   0.026  0.00  0.00     0.053 C 
ATOM      9  C   UNL d   1      -1.328   1.190  -1.428  0.00  0.00     0.018 C 
ENDBRANCH   1   8
TORSDOF 1
ENDMDL
