MODEL 1
REMARK minimizedAffinity -4.19014025
REMARK minimizedRMSD -1
REMARK  1 active torsions:
REMARK  status: ('A' for Active; 'I' for Inactive)
REMARK    1  A    between atoms: C1_2  and  C2_3 
ROOT
ATOM      1  C2  UNL d   1       0.936  -0.852   0.035  0.00  0.00    -0.076 A 
ATOM      2  C3  UNL d   1      -0.292  -0.943   0.713  0.00  0.00     0.004 A 
ATOM      3  C4  UNL d   1      -1.247   0.066   0.606  0.00  0.00    -0.003 A 
ATOM      4  C5  UNL d   1      -0.990   1.183  -0.181  0.00  0.00     0.000 A 
ATOM      5  C6  UNL d   1       0.216   1.282  -0.874  0.00  0.00     0.000 A 
ATOM      6  C7  UNL d   1       1.182   0.266  -0.791  0.00  0.00    -0.073 A 
ATOM      7  C8  UNL d   1       2.468   0.427  -1.555  0.00  0.00     0.078 C 
ENDROOT
BRANCH   1   8
ATOM      8  C1  UNL d   1       1.944  -1.965   0.210  0.00  0.00     0.053 C 
ATOM      9  C   UNL d   1       1.529  -2.965   1.278  0.00  0.00     0.018 C 
ENDBRANCH   1   8
TORSDOF 1
ENDMDL
