MODEL 1
REMARK minimizedAffinity -2.97402644
REMARK minimizedRMSD -1
REMARK  1 active torsions:
REMARK  status: ('A' for Active; 'I' for Inactive)
REMARK    1  A    between atoms: C1_2  and  C2_3 
ROOT
ATOM      1  C2  UNL d   1       0.739  -0.842   0.225  0.00  0.00    -0.076 A 
ATOM      2  C3  UNL d   1      -0.606  -1.014   0.598  0.00  0.00     0.004 A 
ATOM      3  C4  UNL d   1      -1.589  -0.126   0.164  0.00  0.00    -0.003 A 
ATOM      4  C5  UNL d   1      -1.245   0.947  -0.649  0.00  0.00     0.000 A 
ATOM      5  C6  UNL d   1       0.081   1.123  -1.043  0.00  0.00     0.000 A 
ATOM      6  C7  UNL d   1       1.083   0.228  -0.629  0.00  0.00    -0.073 A 
ATOM      7  C8  UNL d   1       2.498   0.469  -1.078  0.00  0.00     0.078 C 
ENDROOT
BRANCH   1   8
ATOM      8  C1  UNL d   1       1.766  -1.821   0.748  0.00  0.00     0.053 C 
ATOM      9  C   UNL d   1       1.319  -3.267   0.603  0.00  0.00     0.018 C 
ENDBRANCH   1   8
TORSDOF 1
ENDMDL
