MODEL 1
REMARK minimizedAffinity -3.96136665
REMARK minimizedRMSD -1
REMARK  1 active torsions:
REMARK  status: ('A' for Active; 'I' for Inactive)
REMARK    1  A    between atoms: C1_2  and  C2_3 
ROOT
ATOM      1  C2  UNL d   1      -0.017   0.167   0.047  0.00  0.00    -0.076 A 
ATOM      2  C3  UNL d   1       1.143   0.077  -0.741  0.00  0.00     0.004 A 
ATOM      3  C4  UNL d   1       2.098  -0.910  -0.502  0.00  0.00    -0.003 A 
ATOM      4  C5  UNL d   1       1.908  -1.823   0.529  0.00  0.00     0.000 A 
ATOM      5  C6  UNL d   1       0.754  -1.760   1.309  0.00  0.00     0.000 A 
ATOM      6  C7  UNL d   1      -0.227  -0.781   1.071  0.00  0.00    -0.073 A 
ATOM      7  C8  UNL d   1      -1.449  -0.755   1.947  0.00  0.00     0.078 C 
ENDROOT
BRANCH   1   8
ATOM      8  C1  UNL d   1      -1.005   1.275  -0.242  0.00  0.00     0.053 C 
ATOM      9  C   UNL d   1      -1.716   1.089  -1.573  0.00  0.00     0.018 C 
ENDBRANCH   1   8
TORSDOF 1
ENDMDL
