MODEL 1
REMARK minimizedAffinity -4.59477711
REMARK minimizedRMSD -1
REMARK  1 active torsions:
REMARK  status: ('A' for Active; 'I' for Inactive)
REMARK    1  A    between atoms: C1_2  and  C2_3 
ROOT
ATOM      1  C2  UNL d   1       0.114   0.073  -0.208  0.00  0.00    -0.076 A 
ATOM      2  C3  UNL d   1      -0.650  -0.929   0.416  0.00  0.00     0.004 A 
ATOM      3  C4  UNL d   1      -0.060  -2.114   0.853  0.00  0.00    -0.003 A 
ATOM      4  C5  UNL d   1       1.304  -2.316   0.672  0.00  0.00     0.000 A 
ATOM      5  C6  UNL d   1       2.080  -1.325   0.071  0.00  0.00     0.000 A 
ATOM      6  C7  UNL d   1       1.504  -0.118  -0.360  0.00  0.00    -0.073 A 
ATOM      7  C8  UNL d   1       2.387   0.913  -1.008  0.00  0.00     0.078 C 
ENDROOT
BRANCH   1   8
ATOM      8  C1  UNL d   1      -0.586   1.326  -0.685  0.00  0.00     0.053 C 
ATOM      9  C   UNL d   1      -1.612   1.042  -1.772  0.00  0.00     0.018 C 
ENDBRANCH   1   8
TORSDOF 1
ENDMDL
