MODEL 1
REMARK minimizedAffinity -5.18652105
REMARK minimizedRMSD -1
REMARK  1 active torsions:
REMARK  status: ('A' for Active; 'I' for Inactive)
REMARK    1  A    between atoms: C1_2  and  C2_3 
ROOT
ATOM      1  C2  UNL d   1       0.059  -0.264  -0.086  0.00  0.00    -0.076 A 
ATOM      2  C3  UNL d   1      -0.613  -1.313   0.566  0.00  0.00     0.004 A 
ATOM      3  C4  UNL d   1       0.045  -2.501   0.881  0.00  0.00    -0.003 A 
ATOM      4  C5  UNL d   1       1.386  -2.659   0.550  0.00  0.00     0.000 A 
ATOM      5  C6  UNL d   1       2.073  -1.622  -0.082  0.00  0.00     0.000 A 
ATOM      6  C7  UNL d   1       1.428  -0.412  -0.392  0.00  0.00    -0.073 A 
ATOM      7  C8  UNL d   1       2.216   0.670  -1.078  0.00  0.00     0.078 C 
ENDROOT
BRANCH   1   8
ATOM      8  C1  UNL d   1      -0.714   0.990  -0.427  0.00  0.00     0.053 C 
ATOM      9  C   UNL d   1      -1.664   0.789  -1.598  0.00  0.00     0.018 C 
ENDBRANCH   1   8
TORSDOF 1
ENDMDL
