MODEL 1
REMARK minimizedAffinity -5.0470109
REMARK minimizedRMSD -1
REMARK  1 active torsions:
REMARK  status: ('A' for Active; 'I' for Inactive)
REMARK    1  A    between atoms: C1_2  and  C2_3 
ROOT
ATOM      1  C2  UNL d   1       0.009   0.123   0.045  0.00  0.00    -0.076 A 
ATOM      2  C3  UNL d   1       1.300   0.153  -0.509  0.00  0.00     0.004 A 
ATOM      3  C4  UNL d   1       2.190  -0.901  -0.311  0.00  0.00    -0.003 A 
ATOM      4  C5  UNL d   1       1.804  -2.002   0.446  0.00  0.00     0.000 A 
ATOM      5  C6  UNL d   1       0.520  -2.056   0.988  0.00  0.00     0.000 A 
ATOM      6  C7  UNL d   1      -0.395  -1.010   0.784  0.00  0.00    -0.073 A 
ATOM      7  C8  UNL d   1      -1.764  -1.118   1.398  0.00  0.00     0.078 C 
ENDROOT
BRANCH   1   8
ATOM      8  C1  UNL d   1      -0.904   1.307  -0.181  0.00  0.00     0.053 C 
ATOM      9  C   UNL d   1      -1.563   1.281  -1.552  0.00  0.00     0.018 C 
ENDBRANCH   1   8
TORSDOF 1
ENDMDL
