MODEL 1
REMARK minimizedAffinity 9.81155396
REMARK minimizedRMSD -1
REMARK  0 active torsions:
REMARK  status: ('A' for Active; 'I' for Inactive)
ROOT
ATOM      1  C   UNL d   1       4.432  -3.331  -5.999  0.00  0.00     0.172 C 
ATOM      2  N   UNL d   1       3.066  -2.863  -5.999  0.00  0.00    -0.070 N 
ATOM      3  C1  UNL d   1       1.950  -3.656  -6.000  0.00  0.00    -0.004 A 
ATOM      4  C2  UNL d   1       0.846  -2.832  -5.999  0.00  0.00    -0.047 A 
ATOM      5  C3  UNL d   1       1.314  -1.496  -5.998  0.00  0.00    -0.047 A 
ATOM      6  C4  UNL d   1       2.693  -1.545  -5.998  0.00  0.00    -0.004 A 
ENDROOT
TORSDOF 0
ENDMDL
