MODEL 1
REMARK minimizedAffinity 7.60627508
REMARK minimizedRMSD -1
REMARK  0 active torsions:
REMARK  status: ('A' for Active; 'I' for Inactive)
ROOT
ATOM      1  C   UNL d   1      -4.222   5.351  -1.691  0.00  0.00     0.172 C 
ATOM      2  N   UNL d   1      -4.667   5.597  -0.339  0.00  0.00    -0.070 N 
ATOM      3  C1  UNL d   1      -3.863   5.662   0.767  0.00  0.00    -0.004 A 
ATOM      4  C2  UNL d   1      -4.666   5.913   1.859  0.00  0.00    -0.047 A 
ATOM      5  C3  UNL d   1      -5.999   6.000   1.393  0.00  0.00    -0.047 A 
ATOM      6  C4  UNL d   1      -5.971   5.800   0.029  0.00  0.00    -0.004 A 
ENDROOT
TORSDOF 0
ENDMDL
