MODEL 1
REMARK minimizedAffinity 10.8205013
REMARK minimizedRMSD -1
REMARK  0 active torsions:
REMARK  status: ('A' for Active; 'I' for Inactive)
ROOT
ATOM      1  C   UNL d   1      -1.215   3.254  -3.130  0.00  0.00     0.172 C 
ATOM      2  N   UNL d   1      -0.698   2.944  -1.818  0.00  0.00    -0.070 N 
ATOM      3  C1  UNL d   1       0.577   3.189  -1.384  0.00  0.00    -0.004 A 
ATOM      4  C2  UNL d   1       0.672   2.750  -0.081  0.00  0.00    -0.047 A 
ATOM      5  C3  UNL d   1      -0.590   2.222   0.280  0.00  0.00    -0.047 A 
ATOM      6  C4  UNL d   1      -1.419   2.354  -0.813  0.00  0.00    -0.004 A 
ENDROOT
TORSDOF 0
ENDMDL
