MODEL 1
REMARK minimizedAffinity 11.562521
REMARK minimizedRMSD -1
REMARK  0 active torsions:
REMARK  status: ('A' for Active; 'I' for Inactive)
ROOT
ATOM      1  C   UNL d   1      -0.718   3.709  -3.847  0.00  0.00     0.172 C 
ATOM      2  N   UNL d   1      -0.363   3.507  -2.462  0.00  0.00    -0.070 N 
ATOM      3  C1  UNL d   1       0.897   3.621  -1.936  0.00  0.00    -0.004 A 
ATOM      4  C2  UNL d   1       0.817   3.353  -0.587  0.00  0.00    -0.047 A 
ATOM      5  C3  UNL d   1      -0.537   3.067  -0.291  0.00  0.00    -0.047 A 
ATOM      6  C4  UNL d   1      -1.245   3.170  -1.470  0.00  0.00    -0.004 A 
ENDROOT
TORSDOF 0
ENDMDL
