MODEL 1
REMARK minimizedAffinity 13.6938992
REMARK minimizedRMSD -1
REMARK  0 active torsions:
REMARK  status: ('A' for Active; 'I' for Inactive)
ROOT
ATOM      1  C   UNL d   1      -5.743   5.873   3.885  0.00  0.00     0.172 C 
ATOM      2  N   UNL d   1      -5.222   5.897   2.539  0.00  0.00    -0.070 N 
ATOM      3  C1  UNL d   1      -5.968   5.828   1.393  0.00  0.00    -0.004 A 
ATOM      4  C2  UNL d   1      -5.103   5.882   0.322  0.00  0.00    -0.047 A 
ATOM      5  C3  UNL d   1      -3.791   5.985   0.842  0.00  0.00    -0.047 A 
ATOM      6  C4  UNL d   1      -3.894   5.993   2.217  0.00  0.00    -0.004 A 
ENDROOT
TORSDOF 0
ENDMDL
