MODEL 1
REMARK minimizedAffinity 7.21369743
REMARK minimizedRMSD -1
REMARK  0 active torsions:
REMARK  status: ('A' for Active; 'I' for Inactive)
ROOT
ATOM      1  C   UNL d   1       3.907  -2.284  -5.999  0.00  0.00     0.172 C 
ATOM      2  N   UNL d   1       2.464  -2.219  -5.999  0.00  0.00    -0.070 N 
ATOM      3  C1  UNL d   1       1.717  -1.072  -5.999  0.00  0.00    -0.004 A 
ATOM      4  C2  UNL d   1       0.387  -1.434  -5.999  0.00  0.00    -0.047 A 
ATOM      5  C3  UNL d   1       0.334  -2.848  -5.999  0.00  0.00    -0.047 A 
ATOM      6  C4  UNL d   1       1.633  -3.309  -5.999  0.00  0.00    -0.004 A 
ENDROOT
TORSDOF 0
ENDMDL
