MODEL 1
REMARK minimizedAffinity 7.09936237
REMARK minimizedRMSD -1
REMARK  0 active torsions:
REMARK  status: ('A' for Active; 'I' for Inactive)
ROOT
ATOM      1  C   UNL d   1      -0.752   3.125  -3.740  0.00  0.00     0.172 C 
ATOM      2  N   UNL d   1      -0.742   2.884  -2.316  0.00  0.00    -0.070 N 
ATOM      3  C1  UNL d   1      -1.801   2.433  -1.575  0.00  0.00    -0.004 A 
ATOM      4  C2  UNL d   1      -1.387   2.334  -0.264  0.00  0.00    -0.047 A 
ATOM      5  C3  UNL d   1      -0.033   2.740  -0.216  0.00  0.00    -0.047 A 
ATOM      6  C4  UNL d   1       0.342   3.075  -1.500  0.00  0.00    -0.004 A 
ENDROOT
TORSDOF 0
ENDMDL
