MODEL 1
REMARK minimizedAffinity 4.22472811
REMARK minimizedRMSD -1
REMARK  0 active torsions:
REMARK  status: ('A' for Active; 'I' for Inactive)
ROOT
ATOM      1  C   UNL d   1      -5.231   5.963   4.411  0.00  0.00     0.172 C 
ATOM      2  N   UNL d   1      -5.017   5.976   2.983  0.00  0.00    -0.070 N 
ATOM      3  C1  UNL d   1      -5.999   5.983   2.029  0.00  0.00    -0.004 A 
ATOM      4  C2  UNL d   1      -5.388   5.996   0.794  0.00  0.00    -0.047 A 
ATOM      5  C3  UNL d   1      -3.990   5.995   1.013  0.00  0.00    -0.047 A 
ATOM      6  C4  UNL d   1      -3.788   5.983   2.378  0.00  0.00    -0.004 A 
ENDROOT
TORSDOF 0
ENDMDL
