MODEL 1
REMARK minimizedAffinity 7.68545103
REMARK minimizedRMSD -1
REMARK  0 active torsions:
REMARK  status: ('A' for Active; 'I' for Inactive)
ROOT
ATOM      1  C   UNL d   1       1.859  -4.238  -3.012  0.00  0.00     0.172 C 
ATOM      2  N   UNL d   1       1.765  -3.331  -4.131  0.00  0.00    -0.070 N 
ATOM      3  C1  UNL d   1       2.607  -2.281  -4.381  0.00  0.00    -0.004 A 
ATOM      4  C2  UNL d   1       2.183  -1.665  -5.538  0.00  0.00    -0.047 A 
ATOM      5  C3  UNL d   1       1.045  -2.368  -6.000  0.00  0.00    -0.047 A 
ATOM      6  C4  UNL d   1       0.808  -3.395  -5.110  0.00  0.00    -0.004 A 
ENDROOT
TORSDOF 0
ENDMDL
