MODEL 1
REMARK minimizedAffinity 2.56188011
REMARK minimizedRMSD -1
REMARK  0 active torsions:
REMARK  status: ('A' for Active; 'I' for Inactive)
ROOT
ATOM      1  C   UNL d   1       1.900  -3.835  -2.786  0.00  0.00     0.172 C 
ATOM      2  N   UNL d   1       2.346  -3.246  -4.027  0.00  0.00    -0.070 N 
ATOM      3  C1  UNL d   1       1.543  -2.643  -4.958  0.00  0.00    -0.004 A 
ATOM      4  C2  UNL d   1       2.346  -2.213  -5.993  0.00  0.00    -0.047 A 
ATOM      5  C3  UNL d   1       3.677  -2.571  -5.672  0.00  0.00    -0.047 A 
ATOM      6  C4  UNL d   1       3.648  -3.209  -4.450  0.00  0.00    -0.004 A 
ENDROOT
TORSDOF 0
ENDMDL
