MODEL 1
REMARK minimizedAffinity 7.2348876
REMARK minimizedRMSD -1
REMARK  0 active torsions:
REMARK  status: ('A' for Active; 'I' for Inactive)
ROOT
ATOM      1  C   UNL d   1      -4.811   5.999   3.687  0.00  0.00     0.172 C 
ATOM      2  N   UNL d   1      -4.791   5.979   2.243  0.00  0.00    -0.070 N 
ATOM      3  C1  UNL d   1      -5.892   5.995   1.429  0.00  0.00    -0.004 A 
ATOM      4  C2  UNL d   1      -5.452   5.967   0.124  0.00  0.00    -0.047 A 
ATOM      5  C3  UNL d   1      -4.038   5.933   0.154  0.00  0.00    -0.047 A 
ATOM      6  C4  UNL d   1      -3.655   5.941   1.478  0.00  0.00    -0.004 A 
ENDROOT
TORSDOF 0
ENDMDL
