MODEL 1
REMARK minimizedAffinity 10.2393913
REMARK minimizedRMSD -1
REMARK  0 active torsions:
REMARK  status: ('A' for Active; 'I' for Inactive)
ROOT
ATOM      1  C   UNL d   1      -1.452   3.153  -2.580  0.00  0.00     0.172 C 
ATOM      2  N   UNL d   1      -0.713   2.869  -1.372  0.00  0.00    -0.070 N 
ATOM      3  C1  UNL d   1       0.594   3.206  -1.138  0.00  0.00    -0.004 A 
ATOM      4  C2  UNL d   1       0.925   2.760   0.124  0.00  0.00    -0.047 A 
ATOM      5  C3  UNL d   1      -0.222   2.133   0.666  0.00  0.00    -0.047 A 
ATOM      6  C4  UNL d   1      -1.221   2.215  -0.281  0.00  0.00    -0.004 A 
ENDROOT
TORSDOF 0
ENDMDL
