MODEL 1
REMARK minimizedAffinity 7.50823307
REMARK minimizedRMSD -1
REMARK  0 active torsions:
REMARK  status: ('A' for Active; 'I' for Inactive)
ROOT
ATOM      1  C   UNL d   1      -2.381   5.885   0.376  0.00  0.00     0.172 C 
ATOM      2  N   UNL d   1      -3.818   5.931   0.510  0.00  0.00    -0.070 N 
ATOM      3  C1  UNL d   1      -4.509   5.959   1.692  0.00  0.00    -0.004 A 
ATOM      4  C2  UNL d   1      -5.854   6.000   1.394  0.00  0.00    -0.047 A 
ATOM      5  C3  UNL d   1      -5.976   5.995  -0.016  0.00  0.00    -0.047 A 
ATOM      6  C4  UNL d   1      -4.700   5.953  -0.538  0.00  0.00    -0.004 A 
ENDROOT
TORSDOF 0
ENDMDL
