MODEL 1
REMARK minimizedAffinity 2.8583951
REMARK minimizedRMSD -1
REMARK  0 active torsions:
REMARK  status: ('A' for Active; 'I' for Inactive)
ROOT
ATOM      1  C   UNL d   1      -1.501   3.190  -3.002  0.00  0.00     0.172 C 
ATOM      2  N   UNL d   1      -0.827   3.746  -1.852  0.00  0.00    -0.070 N 
ATOM      3  C1  UNL d   1      -0.177   3.029  -0.883  0.00  0.00    -0.004 A 
ATOM      4  C2  UNL d   1       0.330   3.922   0.035  0.00  0.00    -0.047 A 
ATOM      5  C3  UNL d   1      -0.027   5.222  -0.397  0.00  0.00    -0.047 A 
ATOM      6  C4  UNL d   1      -0.743   5.083  -1.567  0.00  0.00    -0.004 A 
ENDROOT
TORSDOF 0
ENDMDL
