MODEL 1
REMARK minimizedAffinity 2.18710113
REMARK minimizedRMSD -1
REMARK  0 active torsions:
REMARK  status: ('A' for Active; 'I' for Inactive)
ROOT
ATOM      1  C   UNL d   1      -0.253   1.878   0.592  0.00  0.00     0.172 C 
ATOM      2  N   UNL d   1      -0.276   2.975  -0.347  0.00  0.00    -0.070 N 
ATOM      3  C1  UNL d   1       0.354   4.179  -0.183  0.00  0.00    -0.004 A 
ATOM      4  C2  UNL d   1       0.089   4.949  -1.295  0.00  0.00    -0.047 A 
ATOM      5  C3  UNL d   1      -0.728   4.180  -2.157  0.00  0.00    -0.047 A 
ATOM      6  C4  UNL d   1      -0.939   2.962  -1.546  0.00  0.00    -0.004 A 
ENDROOT
TORSDOF 0
ENDMDL
