MODEL 1
REMARK minimizedAffinity 6.12369061
REMARK minimizedRMSD -1
REMARK  0 active torsions:
REMARK  status: ('A' for Active; 'I' for Inactive)
ROOT
ATOM      1  C   UNL d   1       0.179  -0.695   2.148  0.00  0.00     0.172 C 
ATOM      2  N   UNL d   1      -0.840   0.297   2.402  0.00  0.00    -0.070 N 
ATOM      3  C1  UNL d   1      -2.156   0.037   2.676  0.00  0.00    -0.004 A 
ATOM      4  C2  UNL d   1      -2.796   1.244   2.856  0.00  0.00    -0.047 A 
ATOM      5  C3  UNL d   1      -1.831   2.265   2.683  0.00  0.00    -0.047 A 
ATOM      6  C4  UNL d   1      -0.629   1.651   2.402  0.00  0.00    -0.004 A 
ENDROOT
TORSDOF 0
ENDMDL
