MODEL 1
REMARK minimizedAffinity 12.6781816
REMARK minimizedRMSD -1
REMARK  1 active torsions:
REMARK  status: ('A' for Active; 'I' for Inactive)
REMARK    1  A    between atoms: C1_2  and  C2_3 
ROOT
ATOM      1  C2  UNL d   1       4.284  -4.796  -3.030  0.00  0.00    -0.077 A 
ATOM      2  C3  UNL d   1       4.554  -3.584  -2.379  0.00  0.00     0.002 A 
ATOM      3  C4  UNL d   1       5.053  -3.578  -1.076  0.00  0.00     0.002 A 
ATOM      4  C5  UNL d   1       5.291  -4.780  -0.413  0.00  0.00    -0.004 A 
ATOM      5  C6  UNL d   1       5.024  -5.991  -1.051  0.00  0.00     0.002 A 
ATOM      6  C7  UNL d   1       4.523  -5.999  -2.353  0.00  0.00     0.002 A 
ENDROOT
BRANCH   1   7
ATOM      7  C1  UNL d   1       3.792  -4.806  -4.454  0.00  0.00     0.055 C 
ATOM      8  C   UNL d   1       4.469  -5.900  -5.266  0.00  0.00     0.019 C 
ENDBRANCH   1   7
TORSDOF 1
ENDMDL
