MODEL 1
REMARK minimizedAffinity 3.3263309
REMARK minimizedRMSD -1
REMARK  1 active torsions:
REMARK  status: ('A' for Active; 'I' for Inactive)
REMARK    1  A    between atoms: C1_2  and  C2_3 
ROOT
ATOM      1  C2  UNL d   1      -0.203   3.060   1.135  0.00  0.00    -0.077 A 
ATOM      2  C3  UNL d   1       0.859   3.955   0.946  0.00  0.00     0.002 A 
ATOM      3  C4  UNL d   1       1.224   4.356  -0.341  0.00  0.00     0.002 A 
ATOM      4  C5  UNL d   1       0.530   3.870  -1.447  0.00  0.00    -0.004 A 
ATOM      5  C6  UNL d   1      -0.527   2.978  -1.269  0.00  0.00     0.002 A 
ATOM      6  C7  UNL d   1      -0.892   2.575   0.016  0.00  0.00     0.002 A 
ENDROOT
BRANCH   1   7
ATOM      7  C1  UNL d   1      -0.630   2.665   2.525  0.00  0.00     0.055 C 
ATOM      8  C   UNL d   1       0.509   2.003   3.287  0.00  0.00     0.019 C 
ENDBRANCH   1   7
TORSDOF 1
ENDMDL
