MODEL 1
REMARK minimizedAffinity 6.83442068
REMARK minimizedRMSD -1
REMARK  1 active torsions:
REMARK  status: ('A' for Active; 'I' for Inactive)
REMARK    1  A    between atoms: C1_2  and  C2_3 
ROOT
ATOM      1  C2  UNL d   1       0.224   3.095   0.550  0.00  0.00    -0.077 A 
ATOM      2  C3  UNL d   1      -0.619   2.433  -0.353  0.00  0.00     0.002 A 
ATOM      3  C4  UNL d   1      -0.792   2.923  -1.649  0.00  0.00     0.002 A 
ATOM      4  C5  UNL d   1      -0.122   4.076  -2.054  0.00  0.00    -0.004 A 
ATOM      5  C6  UNL d   1       0.717   4.743  -1.163  0.00  0.00     0.002 A 
ATOM      6  C7  UNL d   1       0.890   4.255   0.133  0.00  0.00     0.002 A 
ENDROOT
BRANCH   1   7
ATOM      7  C1  UNL d   1       0.450   2.540   1.932  0.00  0.00     0.055 C 
ATOM      8  C   UNL d   1      -0.868   2.216   2.621  0.00  0.00     0.019 C 
ENDBRANCH   1   7
TORSDOF 1
ENDMDL
