MODEL 1
REMARK minimizedAffinity -1.37768686
REMARK minimizedRMSD -1
REMARK  1 active torsions:
REMARK  status: ('A' for Active; 'I' for Inactive)
REMARK    1  A    between atoms: C1_2  and  C2_3 
ROOT
ATOM      1  C2  UNL d   1      -5.728   2.998  -4.409  0.00  0.00    -0.077 A 
ATOM      2  C3  UNL d   1      -5.996   2.399  -3.170  0.00  0.00     0.002 A 
ATOM      3  C4  UNL d   1      -5.814   3.114  -1.985  0.00  0.00     0.002 A 
ATOM      4  C5  UNL d   1      -5.367   4.433  -2.027  0.00  0.00    -0.004 A 
ATOM      5  C6  UNL d   1      -5.096   5.037  -3.254  0.00  0.00     0.002 A 
ATOM      6  C7  UNL d   1      -5.277   4.324  -4.439  0.00  0.00     0.002 A 
ENDROOT
BRANCH   1   7
ATOM      7  C1  UNL d   1      -5.972   2.245  -5.690  0.00  0.00     0.055 C 
ATOM      8  C   UNL d   1      -5.999   0.742  -5.452  0.00  0.00     0.019 C 
ENDBRANCH   1   7
TORSDOF 1
ENDMDL
