MODEL 1
REMARK minimizedAffinity 9.5599308
REMARK minimizedRMSD -1
REMARK  1 active torsions:
REMARK  status: ('A' for Active; 'I' for Inactive)
REMARK    1  A    between atoms: C1_2  and  C2_3 
ROOT
ATOM      1  C2  UNL d   1       4.428  -4.999  -2.690  0.00  0.00    -0.077 A 
ATOM      2  C3  UNL d   1       4.756  -3.641  -2.571  0.00  0.00     0.002 A 
ATOM      3  C4  UNL d   1       5.377  -3.163  -1.416  0.00  0.00     0.002 A 
ATOM      4  C5  UNL d   1       5.679  -4.036  -0.373  0.00  0.00    -0.004 A 
ATOM      5  C6  UNL d   1       5.355  -5.388  -0.480  0.00  0.00     0.002 A 
ATOM      6  C7  UNL d   1       4.733  -5.867  -1.634  0.00  0.00     0.002 A 
ENDROOT
BRANCH   1   7
ATOM      7  C1  UNL d   1       3.802  -5.526  -3.955  0.00  0.00     0.055 C 
ATOM      8  C   UNL d   1       4.854  -5.795  -5.022  0.00  0.00     0.019 C 
ENDBRANCH   1   7
TORSDOF 1
ENDMDL
