MODEL 1
REMARK minimizedAffinity 4.77186871
REMARK minimizedRMSD -1
REMARK  1 active torsions:
REMARK  status: ('A' for Active; 'I' for Inactive)
REMARK    1  A    between atoms: C1_2  and  C2_3 
ROOT
ATOM      1  C2  UNL d   1      -1.152  -4.806  -3.380  0.00  0.00    -0.077 A 
ATOM      2  C3  UNL d   1      -0.287  -5.908  -3.316  0.00  0.00     0.002 A 
ATOM      3  C4  UNL d   1       0.664  -6.000  -2.298  0.00  0.00     0.002 A 
ATOM      4  C5  UNL d   1       0.757  -4.997  -1.335  0.00  0.00    -0.004 A 
ATOM      5  C6  UNL d   1      -0.098  -3.897  -1.392  0.00  0.00     0.002 A 
ATOM      6  C7  UNL d   1      -1.048  -3.802  -2.409  0.00  0.00     0.002 A 
ENDROOT
BRANCH   1   7
ATOM      7  C1  UNL d   1      -2.211  -4.729  -4.449  0.00  0.00     0.055 C 
ATOM      8  C   UNL d   1      -3.046  -6.000  -4.493  0.00  0.00     0.019 C 
ENDBRANCH   1   7
TORSDOF 1
ENDMDL
