MODEL 1
REMARK minimizedAffinity 3.88954473
REMARK minimizedRMSD -1
REMARK  0 active torsions:
REMARK  status: ('A' for Active; 'I' for Inactive)
ROOT
ATOM      1  C   UNL d   1      -3.167  -0.740  -1.266  0.00  0.00     0.172 C 
ATOM      2  N   UNL d   1      -1.966   0.010  -1.547  0.00  0.00    -0.070 N 
ATOM      3  C1  UNL d   1      -1.687   1.271  -1.090  0.00  0.00    -0.004 A 
ATOM      4  C2  UNL d   1      -0.449   1.632  -1.578  0.00  0.00    -0.047 A 
ATOM      5  C3  UNL d   1       0.031   0.551  -2.355  0.00  0.00    -0.047 A 
ATOM      6  C4  UNL d   1      -0.928  -0.439  -2.319  0.00  0.00    -0.004 A 
ENDROOT
TORSDOF 0
ENDMDL
