MODEL 1
REMARK minimizedAffinity 1.01701975
REMARK minimizedRMSD -1
REMARK  0 active torsions:
REMARK  status: ('A' for Active; 'I' for Inactive)
ROOT
ATOM      1  C   UNL d   1      -3.213  -0.567  -1.264  0.00  0.00     0.172 C 
ATOM      2  N   UNL d   1      -2.081   0.058  -1.906  0.00  0.00    -0.070 N 
ATOM      3  C1  UNL d   1      -1.616  -0.229  -3.161  0.00  0.00    -0.004 A 
ATOM      4  C2  UNL d   1      -0.526   0.580  -3.404  0.00  0.00    -0.047 A 
ATOM      5  C3  UNL d   1      -0.329   1.380  -2.254  0.00  0.00    -0.047 A 
ATOM      6  C4  UNL d   1      -1.305   1.037  -1.342  0.00  0.00    -0.004 A 
ENDROOT
TORSDOF 0
ENDMDL
