MODEL 1
REMARK minimizedAffinity 2.73850727
REMARK minimizedRMSD -1
REMARK  0 active torsions:
REMARK  status: ('A' for Active; 'I' for Inactive)
ROOT
ATOM      1  C   UNL d   1      -5.755  -5.948  -6.000  0.00  0.00     0.172 C 
ATOM      2  N   UNL d   1      -4.467  -5.949  -5.347  0.00  0.00    -0.070 N 
ATOM      3  C1  UNL d   1      -4.257  -5.962  -3.994  0.00  0.00    -0.004 A 
ATOM      4  C2  UNL d   1      -2.896  -5.958  -3.777  0.00  0.00    -0.047 A 
ATOM      5  C3  UNL d   1      -2.266  -5.941  -5.044  0.00  0.00    -0.047 A 
ATOM      6  C4  UNL d   1      -3.261  -5.936  -5.998  0.00  0.00    -0.004 A 
ENDROOT
TORSDOF 0
ENDMDL
