MODEL 1
REMARK minimizedAffinity 1.096874
REMARK minimizedRMSD -1
REMARK  0 active torsions:
REMARK  status: ('A' for Active; 'I' for Inactive)
ROOT
ATOM      1  C   UNL d   1      -0.446   2.181   1.916  0.00  0.00     0.172 C 
ATOM      2  N   UNL d   1      -0.517   2.695   0.568  0.00  0.00    -0.070 N 
ATOM      3  C1  UNL d   1      -0.625   4.016   0.222  0.00  0.00    -0.004 A 
ATOM      4  C2  UNL d   1      -0.664   4.090  -1.154  0.00  0.00    -0.047 A 
ATOM      5  C3  UNL d   1      -0.578   2.768  -1.651  0.00  0.00    -0.047 A 
ATOM      6  C4  UNL d   1      -0.489   1.925  -0.564  0.00  0.00    -0.004 A 
ENDROOT
TORSDOF 0
ENDMDL
