MODEL 1
REMARK minimizedAffinity 5.68588638
REMARK minimizedRMSD -1
REMARK  0 active torsions:
REMARK  status: ('A' for Active; 'I' for Inactive)
ROOT
ATOM      1  C   UNL d   1      -3.311  -0.469  -1.193  0.00  0.00     0.172 C 
ATOM      2  N   UNL d   1      -2.089   0.242  -1.490  0.00  0.00    -0.070 N 
ATOM      3  C1  UNL d   1      -0.854  -0.327  -1.649  0.00  0.00    -0.004 A 
ATOM      4  C2  UNL d   1       0.044   0.683  -1.921  0.00  0.00    -0.047 A 
ATOM      5  C3  UNL d   1      -0.677   1.901  -1.924  0.00  0.00    -0.047 A 
ATOM      6  C4  UNL d   1      -1.995   1.598  -1.655  0.00  0.00    -0.004 A 
ENDROOT
TORSDOF 0
ENDMDL
