MODEL 1
REMARK minimizedAffinity 4.53351021
REMARK minimizedRMSD -1
REMARK  0 active torsions:
REMARK  status: ('A' for Active; 'I' for Inactive)
ROOT
ATOM      1  C   UNL d   1      -2.741  -0.729  -1.244  0.00  0.00     0.172 C 
ATOM      2  N   UNL d   1      -1.738   0.121  -1.842  0.00  0.00    -0.070 N 
ATOM      3  C1  UNL d   1      -1.477   0.228  -3.182  0.00  0.00    -0.004 A 
ATOM      4  C2  UNL d   1      -0.454   1.138  -3.341  0.00  0.00    -0.047 A 
ATOM      5  C3  UNL d   1      -0.088   1.594  -2.053  0.00  0.00    -0.047 A 
ATOM      6  C4  UNL d   1      -0.898   0.948  -1.143  0.00  0.00    -0.004 A 
ENDROOT
TORSDOF 0
ENDMDL
