MODEL 1
REMARK minimizedAffinity 0.440696985
REMARK minimizedRMSD -1
REMARK  0 active torsions:
REMARK  status: ('A' for Active; 'I' for Inactive)
ROOT
ATOM      1  C   UNL d   1      -0.645   1.505  -1.433  0.00  0.00     0.172 C 
ATOM      2  N   UNL d   1      -0.421   2.042  -0.111  0.00  0.00    -0.070 N 
ATOM      3  C1  UNL d   1      -0.231   1.305   1.028  0.00  0.00    -0.004 A 
ATOM      4  C2  UNL d   1      -0.052   2.184   2.074  0.00  0.00    -0.047 A 
ATOM      5  C3  UNL d   1      -0.139   3.495   1.546  0.00  0.00    -0.047 A 
ATOM      6  C4  UNL d   1      -0.368   3.377   0.191  0.00  0.00    -0.004 A 
ENDROOT
TORSDOF 0
ENDMDL
