MODEL 1
REMARK minimizedAffinity 2.27815461
REMARK minimizedRMSD -1
REMARK  0 active torsions:
REMARK  status: ('A' for Active; 'I' for Inactive)
ROOT
ATOM      1  C   UNL d   1      -0.218   1.903  -0.731  0.00  0.00     0.172 C 
ATOM      2  N   UNL d   1      -0.169   1.688   0.696  0.00  0.00    -0.070 N 
ATOM      3  C1  UNL d   1      -0.362   2.646   1.655  0.00  0.00    -0.004 A 
ATOM      4  C2  UNL d   1      -0.235   2.041   2.887  0.00  0.00    -0.047 A 
ATOM      5  C3  UNL d   1       0.046   0.673   2.661  0.00  0.00    -0.047 A 
ATOM      6  C4  UNL d   1       0.081   0.481   1.295  0.00  0.00    -0.004 A 
ENDROOT
TORSDOF 0
ENDMDL
