MODEL 1
REMARK minimizedAffinity -1.54790962
REMARK minimizedRMSD -1
REMARK  0 active torsions:
REMARK  status: ('A' for Active; 'I' for Inactive)
ROOT
ATOM      1  C   UNL d   1      -0.120  -0.209   3.473  0.00  0.00     0.172 C 
ATOM      2  N   UNL d   1      -0.177   0.724   2.373  0.00  0.00    -0.070 N 
ATOM      3  C1  UNL d   1      -1.033   1.789   2.273  0.00  0.00    -0.004 A 
ATOM      4  C2  UNL d   1      -0.772   2.429   1.081  0.00  0.00    -0.047 A 
ATOM      5  C3  UNL d   1       0.276   1.725   0.442  0.00  0.00    -0.047 A 
ATOM      6  C4  UNL d   1       0.625   0.674   1.264  0.00  0.00    -0.004 A 
ENDROOT
TORSDOF 0
ENDMDL
