MODEL 1
REMARK minimizedAffinity 2.81796956
REMARK minimizedRMSD -1
REMARK  0 active torsions:
REMARK  status: ('A' for Active; 'I' for Inactive)
ROOT
ATOM      1  C   UNL d   1       1.930  -0.556  -0.396  0.00  0.00     0.172 C 
ATOM      2  N   UNL d   1       2.978  -1.394  -0.929  0.00  0.00    -0.070 N 
ATOM      3  C1  UNL d   1       2.948  -2.761  -1.002  0.00  0.00    -0.004 A 
ATOM      4  C2  UNL d   1       4.131  -3.180  -1.571  0.00  0.00    -0.047 A 
ATOM      5  C3  UNL d   1       4.900  -2.025  -1.848  0.00  0.00    -0.047 A 
ATOM      6  C4  UNL d   1       4.163  -0.933  -1.441  0.00  0.00    -0.004 A 
ENDROOT
TORSDOF 0
ENDMDL
