MODEL 1
REMARK minimizedAffinity 4.89300537
REMARK minimizedRMSD -1
REMARK  0 active torsions:
REMARK  status: ('A' for Active; 'I' for Inactive)
ROOT
ATOM      1  C   UNL d   1      -5.628   3.350  -1.990  0.00  0.00     0.172 C 
ATOM      2  N   UNL d   1      -5.020   4.238  -2.952  0.00  0.00    -0.070 N 
ATOM      3  C1  UNL d   1      -4.502   5.476  -2.680  0.00  0.00    -0.004 A 
ATOM      4  C2  UNL d   1      -4.018   6.000  -3.859  0.00  0.00    -0.047 A 
ATOM      5  C3  UNL d   1      -4.253   5.044  -4.875  0.00  0.00    -0.047 A 
ATOM      6  C4  UNL d   1      -4.875   3.963  -4.286  0.00  0.00    -0.004 A 
ENDROOT
TORSDOF 0
ENDMDL
