MODEL 1
REMARK minimizedAffinity -2.24525952
REMARK minimizedRMSD -1
REMARK  2 active torsions:
REMARK  status: ('A' for Active; 'I' for Inactive)
REMARK    1  A    between atoms: C2'_3  and  C1'_4 
REMARK    2  A    between atoms: C1'_4  and  C1_5 
ROOT
ATOM      1  C1  I4B d   1       0.510  -0.380  -1.632  0.00  0.00    -0.075 A 
ATOM      2  C2  I4B d   1      -0.362  -1.215  -0.980  0.00  0.00     0.003 A 
ATOM      3  C3  I4B d   1      -1.236  -2.050  -1.719  0.00  0.00     0.002 A 
ATOM      4  C4  I4B d   1      -1.238  -1.981  -3.097  0.00  0.00    -0.004 A 
ATOM      5  C5  I4B d   1      -0.337  -1.151  -3.756  0.00  0.00     0.002 A 
ATOM      6  C6  I4B d   1       0.552  -0.353  -3.020  0.00  0.00     0.003 A 
ENDROOT
BRANCH   1   7
ATOM      7  C1' I4B d   1       1.395   0.513  -0.821  0.00  0.00     0.060 C 
BRANCH   7   8
ATOM      8  C2' I4B d   1       0.510   1.454  -0.030  0.00  0.00    -0.013 C 
ATOM      9  C4' I4B d   1       0.456   1.061   1.422  0.00  0.00     0.013 C 
ATOM     10  C3' I4B d   1       1.049   2.844  -0.195  0.00  0.00     0.013 C 
ENDBRANCH   7   8
ENDBRANCH   1   7
TORSDOF 2
ENDMDL
