MODEL 1
REMARK minimizedAffinity 1.35163295
REMARK minimizedRMSD -1
REMARK  2 active torsions:
REMARK  status: ('A' for Active; 'I' for Inactive)
REMARK    1  A    between atoms: C2'_3  and  C1'_4 
REMARK    2  A    between atoms: C1'_4  and  C1_5 
ROOT
ATOM      1  C1  I4B d   1       1.881   0.662  -1.068  0.00  0.00    -0.075 A 
ATOM      2  C2  I4B d   1       1.824   0.004  -2.271  0.00  0.00     0.003 A 
ATOM      3  C3  I4B d   1       0.939  -1.087  -2.446  0.00  0.00     0.002 A 
ATOM      4  C4  I4B d   1       0.171  -1.516  -1.383  0.00  0.00    -0.004 A 
ATOM      5  C5  I4B d   1       0.213  -0.833  -0.171  0.00  0.00     0.002 A 
ATOM      6  C6  I4B d   1       1.064   0.271  -0.016  0.00  0.00     0.003 A 
ENDROOT
BRANCH   1   7
ATOM      7  C1' I4B d   1       2.851   1.790  -0.908  0.00  0.00     0.060 C 
BRANCH   7   8
ATOM      8  C2' I4B d   1       2.245   2.794   0.051  0.00  0.00    -0.013 C 
ATOM      9  C4' I4B d   1       2.978   2.803   1.366  0.00  0.00     0.013 C 
ATOM     10  C3' I4B d   1       2.289   4.143  -0.603  0.00  0.00     0.013 C 
ENDBRANCH   7   8
ENDBRANCH   1   7
TORSDOF 2
ENDMDL
