MODEL 1
REMARK minimizedAffinity 1.19261432
REMARK minimizedRMSD -1
REMARK  2 active torsions:
REMARK  status: ('A' for Active; 'I' for Inactive)
REMARK    1  A    between atoms: C2'_3  and  C1'_4 
REMARK    2  A    between atoms: C1'_4  and  C1_5 
ROOT
ATOM      1  C1  I4B d   1      -4.036   1.674  -5.724  0.00  0.00    -0.075 A 
ATOM      2  C2  I4B d   1      -3.242   2.735  -5.366  0.00  0.00     0.003 A 
ATOM      3  C3  I4B d   1      -3.788   4.038  -5.283  0.00  0.00     0.002 A 
ATOM      4  C4  I4B d   1      -5.112   4.243  -5.615  0.00  0.00    -0.004 A 
ATOM      5  C5  I4B d   1      -5.921   3.163  -5.956  0.00  0.00     0.002 A 
ATOM      6  C6  I4B d   1      -5.383   1.869  -6.000  0.00  0.00     0.003 A 
ENDROOT
BRANCH   1   7
ATOM      7  C1' I4B d   1      -3.419   0.316  -5.833  0.00  0.00     0.060 C 
BRANCH   7   8
ATOM      8  C2' I4B d   1      -4.499  -0.711  -5.558  0.00  0.00    -0.013 C 
ATOM      9  C4' I4B d   1      -4.070  -2.085  -5.999  0.00  0.00     0.013 C 
ATOM     10  C3' I4B d   1      -4.800  -0.684  -4.089  0.00  0.00     0.013 C 
ENDBRANCH   7   8
ENDBRANCH   1   7
TORSDOF 2
ENDMDL
