MODEL 1
REMARK minimizedAffinity 4.06389475
REMARK minimizedRMSD -1
REMARK  2 active torsions:
REMARK  status: ('A' for Active; 'I' for Inactive)
REMARK    1  A    between atoms: C2'_3  and  C1'_4 
REMARK    2  A    between atoms: C1'_4  and  C1_5 
ROOT
ATOM      1  C1  I4B d   1      -3.603   1.510  -5.996  0.00  0.00    -0.075 A 
ATOM      2  C2  I4B d   1      -3.258   0.182  -5.999  0.00  0.00     0.003 A 
ATOM      3  C3  I4B d   1      -4.263  -0.816  -5.997  0.00  0.00     0.002 A 
ATOM      4  C4  I4B d   1      -5.590  -0.443  -5.939  0.00  0.00    -0.004 A 
ATOM      5  C5  I4B d   1      -5.938   0.905  -5.958  0.00  0.00     0.002 A 
ATOM      6  C6  I4B d   1      -4.939   1.888  -5.999  0.00  0.00     0.003 A 
ENDROOT
BRANCH   1   7
ATOM      7  C1' I4B d   1      -2.515   2.537  -5.966  0.00  0.00     0.060 C 
BRANCH   7   8
ATOM      8  C2' I4B d   1      -3.052   3.764  -5.256  0.00  0.00    -0.013 C 
ATOM      9  C4' I4B d   1      -2.008   4.847  -5.177  0.00  0.00     0.013 C 
ATOM     10  C3' I4B d   1      -4.266   4.235  -6.000  0.00  0.00     0.013 C 
ENDBRANCH   7   8
ENDBRANCH   1   7
TORSDOF 2
ENDMDL
