MODEL 1
REMARK minimizedAffinity 0.0603515171
REMARK minimizedRMSD -1
REMARK  2 active torsions:
REMARK  status: ('A' for Active; 'I' for Inactive)
REMARK    1  A    between atoms: C2'_3  and  C1'_4 
REMARK    2  A    between atoms: C1'_4  and  C1_5 
ROOT
ATOM      1  C1  I4B d   1      -4.034   1.370  -5.894  0.00  0.00    -0.075 A 
ATOM      2  C2  I4B d   1      -2.677   1.472  -5.718  0.00  0.00     0.003 A 
ATOM      3  C3  I4B d   1      -2.061   2.745  -5.645  0.00  0.00     0.002 A 
ATOM      4  C4  I4B d   1      -2.828   3.881  -5.801  0.00  0.00    -0.004 A 
ATOM      5  C5  I4B d   1      -4.208   3.776  -5.956  0.00  0.00     0.002 A 
ATOM      6  C6  I4B d   1      -4.817   2.514  -5.990  0.00  0.00     0.003 A 
ENDROOT
BRANCH   1   7
ATOM      7  C1' I4B d   1      -4.647   0.010  -6.000  0.00  0.00     0.060 C 
BRANCH   7   8
ATOM      8  C2' I4B d   1      -3.739  -0.969  -5.283  0.00  0.00    -0.013 C 
ATOM      9  C4' I4B d   1      -4.127  -1.112  -3.835  0.00  0.00     0.013 C 
ATOM     10  C3' I4B d   1      -3.820  -2.284  -5.998  0.00  0.00     0.013 C 
ENDBRANCH   7   8
ENDBRANCH   1   7
TORSDOF 2
ENDMDL
