MODEL 1
REMARK minimizedAffinity -1.67236865
REMARK minimizedRMSD -1
REMARK  2 active torsions:
REMARK  status: ('A' for Active; 'I' for Inactive)
REMARK    1  A    between atoms: C2'_3  and  C1'_4 
REMARK    2  A    between atoms: C1'_4  and  C1_5 
ROOT
ATOM      1  C1  I4B d   1       1.469  -0.514  -0.721  0.00  0.00    -0.075 A 
ATOM      2  C2  I4B d   1       0.674  -0.479   0.398  0.00  0.00     0.003 A 
ATOM      3  C3  I4B d   1       0.634   0.681   1.209  0.00  0.00     0.002 A 
ATOM      4  C4  I4B d   1       1.437   1.758   0.893  0.00  0.00    -0.004 A 
ATOM      5  C5  I4B d   1       2.224   1.730  -0.254  0.00  0.00     0.002 A 
ATOM      6  C6  I4B d   1       2.231   0.592  -1.074  0.00  0.00     0.003 A 
ENDROOT
BRANCH   1   7
ATOM      7  C1' I4B d   1       1.512  -1.767  -1.535  0.00  0.00     0.060 C 
BRANCH   7   8
ATOM      8  C2' I4B d   1       0.661  -1.551  -2.770  0.00  0.00    -0.013 C 
ATOM      9  C4' I4B d   1      -0.797  -1.432  -2.413  0.00  0.00     0.013 C 
ATOM     10  C3' I4B d   1       1.153  -0.314  -3.461  0.00  0.00     0.013 C 
ENDBRANCH   7   8
ENDBRANCH   1   7
TORSDOF 2
ENDMDL
