MODEL 1
REMARK minimizedAffinity 5.05331182
REMARK minimizedRMSD -1
REMARK  2 active torsions:
REMARK  status: ('A' for Active; 'I' for Inactive)
REMARK    1  A    between atoms: C2'_3  and  C1'_4 
REMARK    2  A    between atoms: C1'_4  and  C1_5 
ROOT
ATOM      1  C1  I4B d   1       1.585  -0.825  -1.383  0.00  0.00    -0.075 A 
ATOM      2  C2  I4B d   1       0.731  -0.994  -0.322  0.00  0.00     0.003 A 
ATOM      3  C3  I4B d   1       0.298   0.124   0.430  0.00  0.00     0.002 A 
ATOM      4  C4  I4B d   1       0.779   1.380   0.120  0.00  0.00    -0.004 A 
ATOM      5  C5  I4B d   1       1.627   1.553  -0.971  0.00  0.00     0.002 A 
ATOM      6  C6  I4B d   1       2.023   0.446  -1.735  0.00  0.00     0.003 A 
ENDROOT
BRANCH   1   7
ATOM      7  C1' I4B d   1       2.049  -2.032  -2.135  0.00  0.00     0.060 C 
BRANCH   7   8
ATOM      8  C2' I4B d   1       3.040  -2.773  -1.262  0.00  0.00    -0.013 C 
ATOM      9  C4' I4B d   1       3.597  -3.979  -1.973  0.00  0.00     0.013 C 
ATOM     10  C3' I4B d   1       4.131  -1.816  -0.884  0.00  0.00     0.013 C 
ENDBRANCH   7   8
ENDBRANCH   1   7
TORSDOF 2
ENDMDL
