MODEL 1
REMARK minimizedAffinity 7.63933468
REMARK minimizedRMSD -1
REMARK  2 active torsions:
REMARK  status: ('A' for Active; 'I' for Inactive)
REMARK    1  A    between atoms: C2'_3  and  C1'_4 
REMARK    2  A    between atoms: C1'_4  and  C1_5 
ROOT
ATOM      1  C1  I4B d   1      -2.383  -0.867  -0.038  0.00  0.00    -0.075 A 
ATOM      2  C2  I4B d   1      -3.395  -1.477   0.661  0.00  0.00     0.003 A 
ATOM      3  C3  I4B d   1      -4.297  -0.703   1.430  0.00  0.00     0.002 A 
ATOM      4  C4  I4B d   1      -4.121   0.663   1.513  0.00  0.00    -0.004 A 
ATOM      5  C5  I4B d   1      -3.108   1.282   0.786  0.00  0.00     0.002 A 
ATOM      6  C6  I4B d   1      -2.241   0.514  -0.004  0.00  0.00     0.003 A 
ENDROOT
BRANCH   1   7
ATOM      7  C1' I4B d   1      -1.428  -1.718  -0.814  0.00  0.00     0.060 C 
BRANCH   7   8
ATOM      8  C2' I4B d   1      -1.302  -1.129  -2.204  0.00  0.00    -0.013 C 
ATOM      9  C4' I4B d   1       0.009  -1.507  -2.840  0.00  0.00     0.013 C 
ATOM     10  C3' I4B d   1      -2.461  -1.619  -3.021  0.00  0.00     0.013 C 
ENDBRANCH   7   8
ENDBRANCH   1   7
TORSDOF 2
ENDMDL
