MODEL 1
REMARK minimizedAffinity 0.930506349
REMARK minimizedRMSD -1
REMARK  2 active torsions:
REMARK  status: ('A' for Active; 'I' for Inactive)
REMARK    1  A    between atoms: C2'_3  and  C1'_4 
REMARK    2  A    between atoms: C1'_4  and  C1_5 
ROOT
ATOM      1  C1  I4B d   1      -4.468  -0.393  -5.769  0.00  0.00    -0.075 A 
ATOM      2  C2  I4B d   1      -3.216  -0.908  -6.000  0.00  0.00     0.003 A 
ATOM      3  C3  I4B d   1      -2.993  -2.304  -5.914  0.00  0.00     0.002 A 
ATOM      4  C4  I4B d   1      -4.031  -3.137  -5.547  0.00  0.00    -0.004 A 
ATOM      5  C5  I4B d   1      -5.304  -2.615  -5.336  0.00  0.00     0.002 A 
ATOM      6  C6  I4B d   1      -5.527  -1.236  -5.460  0.00  0.00     0.003 A 
ENDROOT
BRANCH   1   7
ATOM      7  C1' I4B d   1      -4.661   1.089  -5.836  0.00  0.00     0.060 C 
BRANCH   7   8
ATOM      8  C2' I4B d   1      -3.382   1.748  -5.361  0.00  0.00    -0.013 C 
ATOM      9  C4' I4B d   1      -2.173   1.115  -5.998  0.00  0.00     0.013 C 
ATOM     10  C3' I4B d   1      -3.465   3.209  -5.689  0.00  0.00     0.013 C 
ENDBRANCH   7   8
ENDBRANCH   1   7
TORSDOF 2
ENDMDL
