MODEL 1
REMARK minimizedAffinity 6.29934835
REMARK minimizedRMSD -1
REMARK  2 active torsions:
REMARK  status: ('A' for Active; 'I' for Inactive)
REMARK    1  A    between atoms: C2'_3  and  C1'_4 
REMARK    2  A    between atoms: C1'_4  and  C1_5 
ROOT
ATOM      1  C1  I4B d   1       0.689   0.653  -0.583  0.00  0.00    -0.075 A 
ATOM      2  C2  I4B d   1       0.512  -0.701  -0.444  0.00  0.00     0.003 A 
ATOM      3  C3  I4B d   1       0.416  -1.529  -1.589  0.00  0.00     0.002 A 
ATOM      4  C4  I4B d   1       0.451  -0.958  -2.845  0.00  0.00    -0.004 A 
ATOM      5  C5  I4B d   1       0.654   0.412  -2.984  0.00  0.00     0.002 A 
ATOM      6  C6  I4B d   1       0.786   1.221  -1.846  0.00  0.00     0.003 A 
ENDROOT
BRANCH   1   7
ATOM      7  C1' I4B d   1       0.753   1.501   0.648  0.00  0.00     0.060 C 
BRANCH   7   8
ATOM      8  C2' I4B d   1       1.940   2.433   0.511  0.00  0.00    -0.013 C 
ATOM      9  C4' I4B d   1       1.600   3.628  -0.339  0.00  0.00     0.013 C 
ATOM     10  C3' I4B d   1       2.362   2.850   1.888  0.00  0.00     0.013 C 
ENDBRANCH   7   8
ENDBRANCH   1   7
TORSDOF 2
ENDMDL
