MODEL 1
REMARK minimizedAffinity 8.22118092
REMARK minimizedRMSD -1
REMARK  2 active torsions:
REMARK  status: ('A' for Active; 'I' for Inactive)
REMARK    1  A    between atoms: C2'_3  and  C1'_4 
REMARK    2  A    between atoms: C1'_4  and  C1_5 
ROOT
ATOM      1  C1  I4B d   1      -4.654   0.664  -5.728  0.00  0.00    -0.075 A 
ATOM      2  C2  I4B d   1      -3.286   0.555  -5.731  0.00  0.00     0.003 A 
ATOM      3  C3  I4B d   1      -2.479   1.714  -5.841  0.00  0.00     0.002 A 
ATOM      4  C4  I4B d   1      -3.078   2.947  -5.995  0.00  0.00    -0.004 A 
ATOM      5  C5  I4B d   1      -4.466   3.058  -5.970  0.00  0.00     0.002 A 
ATOM      6  C6  I4B d   1      -5.259   1.910  -5.823  0.00  0.00     0.003 A 
ENDROOT
BRANCH   1   7
ATOM      7  C1' I4B d   1      -5.476  -0.583  -5.644  0.00  0.00     0.060 C 
BRANCH   7   8
ATOM      8  C2' I4B d   1      -4.980  -1.390  -4.461  0.00  0.00    -0.013 C 
ATOM      9  C4' I4B d   1      -6.000  -1.415  -3.353  0.00  0.00     0.013 C 
ATOM     10  C3' I4B d   1      -4.670  -2.776  -4.942  0.00  0.00     0.013 C 
ENDBRANCH   7   8
ENDBRANCH   1   7
TORSDOF 2
ENDMDL
