MODEL 1
REMARK minimizedAffinity 2.4220624
REMARK minimizedRMSD -1
REMARK  2 active torsions:
REMARK  status: ('A' for Active; 'I' for Inactive)
REMARK    1  A    between atoms: C2'_3  and  C1'_4 
REMARK    2  A    between atoms: C1'_4  and  C1_5 
ROOT
ATOM      1  C1  I4B d   1       0.951   0.643  -0.131  0.00  0.00    -0.075 A 
ATOM      2  C2  I4B d   1      -0.044  -0.298  -0.236  0.00  0.00     0.003 A 
ATOM      3  C3  I4B d   1      -0.019  -1.247  -1.286  0.00  0.00     0.002 A 
ATOM      4  C4  I4B d   1       0.985  -1.190  -2.231  0.00  0.00    -0.004 A 
ATOM      5  C5  I4B d   1       2.005  -0.250  -2.110  0.00  0.00     0.002 A 
ATOM      6  C6  I4B d   1       1.995   0.664  -1.046  0.00  0.00     0.003 A 
ENDROOT
BRANCH   1   7
ATOM      7  C1' I4B d   1       0.875   1.651   0.971  0.00  0.00     0.060 C 
BRANCH   7   8
ATOM      8  C2' I4B d   1       2.040   2.607   0.810  0.00  0.00    -0.013 C 
ATOM      9  C4' I4B d   1       1.699   3.728  -0.136  0.00  0.00     0.013 C 
ATOM     10  C3' I4B d   1       2.399   3.133   2.167  0.00  0.00     0.013 C 
ENDBRANCH   7   8
ENDBRANCH   1   7
TORSDOF 2
ENDMDL
