MODEL 1
REMARK minimizedAffinity -0.603501081
REMARK minimizedRMSD -1
REMARK  0 active torsions:
REMARK  status: ('A' for Active; 'I' for Inactive)
ROOT
ATOM      1  C   UNL d   1       5.970  -2.186   2.180  0.00  0.00    -0.002 A 
ATOM      2  C1  UNL d   1       5.996  -1.471   3.369  0.00  0.00     0.010 A 
ATOM      3  C2  UNL d   1       5.985  -2.134   4.598  0.00  0.00     0.041 A 
ATOM      4  C3  UNL d   1       5.950  -3.542   4.612  0.00  0.00    -0.075 A 
ATOM      5  S   UNL d   1       5.932  -4.567   5.998  0.00  0.00     0.015 SA
ATOM      6  C4  UNL d   1       5.891  -5.980   5.045  0.00  0.00     0.022 A 
ATOM      7  C5  UNL d   1       5.890  -5.694   3.700  0.00  0.00     0.026 A 
ATOM      8  C6  UNL d   1       5.924  -4.285   3.428  0.00  0.00    -0.082 A 
ATOM      9  C7  UNL d   1       5.935  -3.583   2.198  0.00  0.00     0.045 A 
ENDROOT
TORSDOF 0
ENDMDL
