MODEL 1
REMARK minimizedAffinity -1.89902532
REMARK minimizedRMSD -1
REMARK  0 active torsions:
REMARK  status: ('A' for Active; 'I' for Inactive)
ROOT
ATOM      1  C   UNL d   1       5.665  -4.118   5.999  0.00  0.00    -0.002 A 
ATOM      2  C1  UNL d   1       5.708  -2.735   5.887  0.00  0.00     0.010 A 
ATOM      3  C2  UNL d   1       5.812  -2.127   4.634  0.00  0.00     0.041 A 
ATOM      4  C3  UNL d   1       5.871  -2.940   3.485  0.00  0.00    -0.075 A 
ATOM      5  S   UNL d   1       5.999  -2.416   1.847  0.00  0.00     0.015 SA
ATOM      6  C4  UNL d   1       5.999  -4.015   1.258  0.00  0.00     0.022 A 
ATOM      7  C5  UNL d   1       5.905  -4.939   2.272  0.00  0.00     0.026 A 
ATOM      8  C6  UNL d   1       5.829  -4.334   3.572  0.00  0.00    -0.082 A 
ATOM      9  C7  UNL d   1       5.724  -4.920   4.857  0.00  0.00     0.045 A 
ENDROOT
TORSDOF 0
ENDMDL
