MODEL 1
REMARK minimizedAffinity -3.11370778
REMARK minimizedRMSD -1
REMARK  0 active torsions:
REMARK  status: ('A' for Active; 'I' for Inactive)
ROOT
ATOM      1  C   UNL d   1       5.997  -3.960   1.439  0.00  0.00    -0.002 A 
ATOM      2  C1  UNL d   1       5.999  -5.285   1.853  0.00  0.00     0.010 A 
ATOM      3  C2  UNL d   1       5.748  -5.613   3.186  0.00  0.00     0.041 A 
ATOM      4  C3  UNL d   1       5.489  -4.578   4.106  0.00  0.00    -0.075 A 
ATOM      5  S   UNL d   1       5.154  -4.743   5.789  0.00  0.00     0.015 SA
ATOM      6  C4  UNL d   1       4.999  -3.058   5.999  0.00  0.00     0.022 A 
ATOM      7  C5  UNL d   1       5.195  -2.372   4.824  0.00  0.00     0.026 A 
ATOM      8  C6  UNL d   1       5.480  -3.236   3.714  0.00  0.00    -0.082 A 
ATOM      9  C7  UNL d   1       5.740  -2.936   2.355  0.00  0.00     0.045 A 
ENDROOT
TORSDOF 0
ENDMDL
