MODEL 1
REMARK minimizedAffinity -3.81910324
REMARK minimizedRMSD -1
REMARK  0 active torsions:
REMARK  status: ('A' for Active; 'I' for Inactive)
ROOT
ATOM      1  C   UNL d   1       5.999  -3.362   1.507  0.00  0.00    -0.002 A 
ATOM      2  C1  UNL d   1       6.000  -2.093   2.067  0.00  0.00     0.010 A 
ATOM      3  C2  UNL d   1       5.822  -1.922   3.441  0.00  0.00     0.041 A 
ATOM      4  C3  UNL d   1       5.644  -3.060   4.252  0.00  0.00    -0.075 A 
ATOM      5  S   UNL d   1       5.410  -3.093   5.960  0.00  0.00     0.015 SA
ATOM      6  C4  UNL d   1       5.304  -4.794   5.987  0.00  0.00     0.022 A 
ATOM      7  C5  UNL d   1       5.442  -5.340   4.732  0.00  0.00     0.026 A 
ATOM      8  C6  UNL d   1       5.641  -4.349   3.712  0.00  0.00    -0.082 A 
ATOM      9  C7  UNL d   1       5.822  -4.489   2.315  0.00  0.00     0.045 A 
ENDROOT
TORSDOF 0
ENDMDL
