MODEL 1
REMARK minimizedAffinity -2.64043474
REMARK minimizedRMSD -1
REMARK  0 active torsions:
REMARK  status: ('A' for Active; 'I' for Inactive)
ROOT
ATOM      1  C   UNL d   1       6.000  -3.457   1.508  0.00  0.00    -0.002 A 
ATOM      2  C1  UNL d   1       5.969  -2.257   2.205  0.00  0.00     0.010 A 
ATOM      3  C2  UNL d   1       5.936  -2.247   3.600  0.00  0.00     0.041 A 
ATOM      4  C3  UNL d   1       5.937  -3.475   4.291  0.00  0.00    -0.075 A 
ATOM      5  S   UNL d   1       5.901  -3.706   5.999  0.00  0.00     0.015 SA
ATOM      6  C4  UNL d   1       5.926  -5.403   5.845  0.00  0.00     0.022 A 
ATOM      7  C5  UNL d   1       5.960  -5.801   4.529  0.00  0.00     0.026 A 
ATOM      8  C6  UNL d   1       5.968  -4.696   3.612  0.00  0.00    -0.082 A 
ATOM      9  C7  UNL d   1       6.000  -4.673   2.197  0.00  0.00     0.045 A 
ENDROOT
TORSDOF 0
ENDMDL
