MODEL 1
REMARK minimizedAffinity 2.14744592
REMARK minimizedRMSD -1
REMARK  0 active torsions:
REMARK  status: ('A' for Active; 'I' for Inactive)
ROOT
ATOM      1  C   UNL d   1       3.340  -3.716   5.229  0.00  0.00    -0.002 A 
ATOM      2  C1  UNL d   1       3.686  -5.004   4.845  0.00  0.00     0.010 A 
ATOM      3  C2  UNL d   1       4.507  -5.218   3.736  0.00  0.00     0.041 A 
ATOM      4  C3  UNL d   1       4.981  -4.106   3.014  0.00  0.00    -0.075 A 
ATOM      5  S   UNL d   1       6.000  -4.126   1.623  0.00  0.00     0.015 SA
ATOM      6  C4  UNL d   1       6.000  -2.426   1.506  0.00  0.00     0.022 A 
ATOM      7  C5  UNL d   1       5.246  -1.841   2.495  0.00  0.00     0.026 A 
ATOM      8  C6  UNL d   1       4.647  -2.799   3.381  0.00  0.00    -0.082 A 
ATOM      9  C7  UNL d   1       3.812  -2.615   4.509  0.00  0.00     0.045 A 
ENDROOT
TORSDOF 0
ENDMDL
