MODEL 1
REMARK minimizedAffinity 1.17954695
REMARK minimizedRMSD -1
REMARK  0 active torsions:
REMARK  status: ('A' for Active; 'I' for Inactive)
ROOT
ATOM      1  C   UNL d   1       5.995  -3.662   1.497  0.00  0.00    -0.002 A 
ATOM      2  C1  UNL d   1       5.997  -4.914   2.095  0.00  0.00     0.010 A 
ATOM      3  C2  UNL d   1       6.000  -5.037   3.486  0.00  0.00     0.041 A 
ATOM      4  C3  UNL d   1       5.998  -3.869   4.273  0.00  0.00    -0.075 A 
ATOM      5  S   UNL d   1       5.999  -3.775   5.995  0.00  0.00     0.015 SA
ATOM      6  C4  UNL d   1       5.996  -2.071   5.976  0.00  0.00     0.022 A 
ATOM      7  C5  UNL d   1       5.994  -1.569   4.697  0.00  0.00     0.026 A 
ATOM      8  C6  UNL d   1       5.995  -2.597   3.694  0.00  0.00    -0.082 A 
ATOM      9  C7  UNL d   1       5.994  -2.506   2.281  0.00  0.00     0.045 A 
ENDROOT
TORSDOF 0
ENDMDL
