MODEL 1
REMARK minimizedAffinity -3.32560706
REMARK minimizedRMSD -1
REMARK  0 active torsions:
REMARK  status: ('A' for Active; 'I' for Inactive)
ROOT
ATOM      1  C   UNL d   1       5.985  -4.605   1.633  0.00  0.00    -0.002 A 
ATOM      2  C1  UNL d   1       5.850  -5.854   2.223  0.00  0.00     0.010 A 
ATOM      3  C2  UNL d   1       5.516  -5.969   3.574  0.00  0.00     0.041 A 
ATOM      4  C3  UNL d   1       5.316  -4.796   4.329  0.00  0.00    -0.075 A 
ATOM      5  S   UNL d   1       4.899  -4.693   5.999  0.00  0.00     0.015 SA
ATOM      6  C4  UNL d   1       4.889  -2.989   5.968  0.00  0.00     0.022 A 
ATOM      7  C5  UNL d   1       5.194  -2.494   4.722  0.00  0.00     0.026 A 
ATOM      8  C6  UNL d   1       5.445  -3.527   3.757  0.00  0.00    -0.082 A 
ATOM      9  C7  UNL d   1       5.785  -3.444   2.385  0.00  0.00     0.045 A 
ENDROOT
TORSDOF 0
ENDMDL
