MODEL 1
REMARK minimizedAffinity -3.15926409
REMARK minimizedRMSD -1
REMARK  0 active torsions:
REMARK  status: ('A' for Active; 'I' for Inactive)
ROOT
ATOM      1  C   UNL d   1       5.628  -5.222   1.245  0.00  0.00    -0.002 A 
ATOM      2  C1  UNL d   1       5.963  -3.883   1.384  0.00  0.00     0.010 A 
ATOM      3  C2  UNL d   1       6.000  -3.287   2.646  0.00  0.00     0.041 A 
ATOM      4  C3  UNL d   1       5.693  -4.069   3.778  0.00  0.00    -0.075 A 
ATOM      5  S   UNL d   1       5.675  -3.554   5.423  0.00  0.00     0.015 SA
ATOM      6  C4  UNL d   1       5.223  -5.100   5.980  0.00  0.00     0.022 A 
ATOM      7  C5  UNL d   1       5.085  -5.999   4.949  0.00  0.00     0.026 A 
ATOM      8  C6  UNL d   1       5.354  -5.420   3.663  0.00  0.00    -0.082 A 
ATOM      9  C7  UNL d   1       5.324  -5.994   2.369  0.00  0.00     0.045 A 
ENDROOT
TORSDOF 0
ENDMDL
