MODEL 1
REMARK minimizedAffinity -3.21763992
REMARK minimizedRMSD -1
REMARK  0 active torsions:
REMARK  status: ('A' for Active; 'I' for Inactive)
ROOT
ATOM      1  C   UNL d   1       5.770  -1.356   4.383  0.00  0.00    -0.002 A 
ATOM      2  C1  UNL d   1       5.701  -1.791   5.699  0.00  0.00     0.010 A 
ATOM      3  C2  UNL d   1       5.729  -3.154   5.999  0.00  0.00     0.041 A 
ATOM      4  C3  UNL d   1       5.831  -4.082   4.944  0.00  0.00    -0.075 A 
ATOM      5  S   UNL d   1       5.883  -5.801   5.073  0.00  0.00     0.015 SA
ATOM      6  C4  UNL d   1       6.000  -5.998   3.384  0.00  0.00     0.022 A 
ATOM      7  C5  UNL d   1       6.000  -4.793   2.723  0.00  0.00     0.026 A 
ATOM      8  C6  UNL d   1       5.903  -3.669   3.611  0.00  0.00    -0.082 A 
ATOM      9  C7  UNL d   1       5.871  -2.280   3.339  0.00  0.00     0.045 A 
ENDROOT
TORSDOF 0
ENDMDL
