MODEL 1
REMARK minimizedAffinity -2.74606705
REMARK minimizedRMSD -1
REMARK  0 active torsions:
REMARK  status: ('A' for Active; 'I' for Inactive)
ROOT
ATOM      1  C   UNL d   1       6.000  -4.319   1.663  0.00  0.00    -0.002 A 
ATOM      2  C1  UNL d   1       6.000  -5.618   2.152  0.00  0.00     0.010 A 
ATOM      3  C2  UNL d   1       5.593  -5.884   3.461  0.00  0.00     0.041 A 
ATOM      4  C3  UNL d   1       5.181  -4.813   4.277  0.00  0.00    -0.075 A 
ATOM      5  S   UNL d   1       4.641  -4.900   5.912  0.00  0.00     0.015 SA
ATOM      6  C4  UNL d   1       4.396  -3.216   6.000  0.00  0.00     0.022 A 
ATOM      7  C5  UNL d   1       4.714  -2.586   4.819  0.00  0.00     0.026 A 
ATOM      8  C6  UNL d   1       5.171  -3.497   3.807  0.00  0.00    -0.082 A 
ATOM      9  C7  UNL d   1       5.590  -3.259   2.476  0.00  0.00     0.045 A 
ENDROOT
TORSDOF 0
ENDMDL
