MODEL 1
REMARK minimizedAffinity -3.64775133
REMARK minimizedRMSD -1
REMARK  0 active torsions:
REMARK  status: ('A' for Active; 'I' for Inactive)
ROOT
ATOM      1  C   UNL d   1       5.990  -1.855   2.523  0.00  0.00    -0.002 A 
ATOM      2  C1  UNL d   1       5.998  -2.956   1.677  0.00  0.00     0.010 A 
ATOM      3  C2  UNL d   1       5.901  -4.249   2.194  0.00  0.00     0.041 A 
ATOM      4  C3  UNL d   1       5.793  -4.420   3.588  0.00  0.00    -0.075 A 
ATOM      5  S   UNL d   1       5.662  -5.910   4.445  0.00  0.00     0.015 SA
ATOM      6  C4  UNL d   1       5.591  -5.121   5.955  0.00  0.00     0.022 A 
ATOM      7  C5  UNL d   1       5.665  -3.755   5.826  0.00  0.00     0.026 A 
ATOM      8  C6  UNL d   1       5.782  -3.328   4.460  0.00  0.00    -0.082 A 
ATOM      9  C7  UNL d   1       5.883  -2.029   3.906  0.00  0.00     0.045 A 
ENDROOT
TORSDOF 0
ENDMDL
