MODEL 1
REMARK minimizedAffinity -2.27870679
REMARK minimizedRMSD -1
REMARK  0 active torsions:
REMARK  status: ('A' for Active; 'I' for Inactive)
ROOT
ATOM      1  C   UNL d   1       5.999  -3.773   1.657  0.00  0.00    -0.002 A 
ATOM      2  C1  UNL d   1       5.625  -2.561   2.221  0.00  0.00     0.010 A 
ATOM      3  C2  UNL d   1       5.244  -2.489   3.562  0.00  0.00     0.041 A 
ATOM      4  C3  UNL d   1       5.246  -3.667   4.335  0.00  0.00    -0.075 A 
ATOM      5  S   UNL d   1       4.817  -3.819   5.998  0.00  0.00     0.015 SA
ATOM      6  C4  UNL d   1       5.121  -5.496   6.000  0.00  0.00     0.022 A 
ATOM      7  C5  UNL d   1       5.540  -5.946   4.770  0.00  0.00     0.026 A 
ATOM      8  C6  UNL d   1       5.619  -4.899   3.790  0.00  0.00    -0.082 A 
ATOM      9  C7  UNL d   1       6.000  -4.939   2.427  0.00  0.00     0.045 A 
ENDROOT
TORSDOF 0
ENDMDL
