MODEL 1
REMARK minimizedAffinity -2.92726874
REMARK minimizedRMSD -1
REMARK  0 active torsions:
REMARK  status: ('A' for Active; 'I' for Inactive)
ROOT
ATOM      1  C   UNL d   1       5.093  -2.714   1.912  0.00  0.00    -0.002 A 
ATOM      2  C1  UNL d   1       4.818  -1.899   3.002  0.00  0.00     0.010 A 
ATOM      3  C2  UNL d   1       4.932  -2.391   4.303  0.00  0.00     0.041 A 
ATOM      4  C3  UNL d   1       5.332  -3.729   4.494  0.00  0.00    -0.075 A 
ATOM      5  S   UNL d   1       5.540  -4.548   5.997  0.00  0.00     0.015 SA
ATOM      6  C4  UNL d   1       6.000  -5.998   5.228  0.00  0.00     0.022 A 
ATOM      7  C5  UNL d   1       6.000  -5.878   3.859  0.00  0.00     0.026 A 
ATOM      8  C6  UNL d   1       5.615  -4.568   3.413  0.00  0.00    -0.082 A 
ATOM      9  C7  UNL d   1       5.490  -4.040   2.105  0.00  0.00     0.045 A 
ENDROOT
TORSDOF 0
ENDMDL
