MODEL 1
REMARK minimizedAffinity 6.1314292
REMARK minimizedRMSD -1
REMARK  0 active torsions:
REMARK  status: ('A' for Active; 'I' for Inactive)
ROOT
ATOM      1  C   UNL d   1       5.951  -1.756   3.902  0.00  0.00    -0.002 A 
ATOM      2  C1  UNL d   1       5.939  -1.761   5.289  0.00  0.00     0.010 A 
ATOM      3  C2  UNL d   1       5.401  -2.841   5.991  0.00  0.00     0.041 A 
ATOM      4  C3  UNL d   1       4.871  -3.928   5.268  0.00  0.00    -0.075 A 
ATOM      5  S   UNL d   1       4.162  -5.360   5.915  0.00  0.00     0.015 SA
ATOM      6  C4  UNL d   1       3.858  -6.000   4.365  0.00  0.00     0.022 A 
ATOM      7  C5  UNL d   1       4.282  -5.155   3.366  0.00  0.00     0.026 A 
ATOM      8  C6  UNL d   1       4.873  -3.947   3.870  0.00  0.00    -0.082 A 
ATOM      9  C7  UNL d   1       5.425  -2.836   3.188  0.00  0.00     0.045 A 
ENDROOT
TORSDOF 0
ENDMDL
