MODEL 1
REMARK minimizedAffinity 11.9735165
REMARK minimizedRMSD -1
REMARK  0 active torsions:
REMARK  status: ('A' for Active; 'I' for Inactive)
ROOT
ATOM      1  C   UNL d   1      -2.264   6.000  -1.884  0.00  0.00    -0.002 A 
ATOM      2  C1  UNL d   1      -3.133   4.925  -2.008  0.00  0.00     0.010 A 
ATOM      3  C2  UNL d   1      -3.035   3.830  -1.149  0.00  0.00     0.041 A 
ATOM      4  C3  UNL d   1      -2.040   3.833  -0.151  0.00  0.00    -0.075 A 
ATOM      5  S   UNL d   1      -1.734   2.601   1.015  0.00  0.00     0.015 SA
ATOM      6  C4  UNL d   1      -0.442   3.472   1.706  0.00  0.00     0.022 A 
ATOM      7  C5  UNL d   1      -0.236   4.675   1.074  0.00  0.00     0.026 A 
ATOM      8  C6  UNL d   1      -1.154   4.904  -0.006  0.00  0.00    -0.082 A 
ATOM      9  C7  UNL d   1      -1.278   5.999  -0.894  0.00  0.00     0.045 A 
ENDROOT
TORSDOF 0
ENDMDL
