MODEL 1
REMARK minimizedAffinity 8.58951664
REMARK minimizedRMSD -1
REMARK  0 active torsions:
REMARK  status: ('A' for Active; 'I' for Inactive)
ROOT
ATOM      1  O1  BZF d   1       2.957  -2.279  -1.011  0.00  0.00    -0.204 OA
ATOM      2  C2  BZF d   1       1.858  -2.767  -0.331  0.00  0.00     0.174 A 
ATOM      3  C3  BZF d   1       1.393  -1.852   0.545  0.00  0.00    -0.012 A 
ATOM      4  C3A BZF d   1       2.199  -0.688   0.337  0.00  0.00    -0.107 A 
ATOM      5  C4  BZF d   1       2.211   0.557   0.896  0.00  0.00     0.055 A 
ATOM      6  C5  BZF d   1       3.174   1.440   0.522  0.00  0.00    -0.016 A 
ATOM      7  C6  BZF d   1       4.142   1.110  -0.405  0.00  0.00     0.022 A 
ATOM      8  C7  BZF d   1       4.167  -0.112  -0.991  0.00  0.00     0.029 A 
ATOM      9  C7A BZF d   1       3.176  -0.995  -0.639  0.00  0.00     0.058 A 
ENDROOT
TORSDOF 0
ENDMDL
