MODEL 1
REMARK minimizedAffinity 3.91676307
REMARK minimizedRMSD -1
REMARK  0 active torsions:
REMARK  status: ('A' for Active; 'I' for Inactive)
ROOT
ATOM      1  O1  BZF d   1      -0.778   0.082   4.468  0.00  0.00    -0.204 OA
ATOM      2  C2  BZF d   1       0.449  -0.366   4.917  0.00  0.00     0.174 A 
ATOM      3  C3  BZF d   1       1.352  -0.371   3.915  0.00  0.00    -0.012 A 
ATOM      4  C3A BZF d   1       0.669   0.191   2.790  0.00  0.00    -0.107 A 
ATOM      5  C4  BZF d   1       1.043   0.462   1.505  0.00  0.00     0.055 A 
ATOM      6  C5  BZF d   1       0.116   0.942   0.635  0.00  0.00    -0.016 A 
ATOM      7  C6  BZF d   1      -1.193   1.157   1.014  0.00  0.00     0.022 A 
ATOM      8  C7  BZF d   1      -1.610   0.908   2.280  0.00  0.00     0.029 A 
ATOM      9  C7A BZF d   1      -0.667   0.453   3.170  0.00  0.00     0.058 A 
ENDROOT
TORSDOF 0
ENDMDL
