MODEL 1
REMARK minimizedAffinity 12.3808527
REMARK minimizedRMSD -1
REMARK  0 active torsions:
REMARK  status: ('A' for Active; 'I' for Inactive)
ROOT
ATOM      1  O1  BZF d   1      -0.527   1.065  -1.068  0.00  0.00    -0.204 OA
ATOM      2  C2  BZF d   1      -1.908   1.057  -1.099  0.00  0.00     0.174 A 
ATOM      3  C3  BZF d   1      -2.414   0.962   0.148  0.00  0.00    -0.012 A 
ATOM      4  C3A BZF d   1      -1.279   1.000   1.018  0.00  0.00    -0.107 A 
ATOM      5  C4  BZF d   1      -1.136   0.960   2.376  0.00  0.00     0.055 A 
ATOM      6  C5  BZF d   1       0.115   0.942   2.907  0.00  0.00    -0.016 A 
ATOM      7  C6  BZF d   1       1.242   0.959   2.112  0.00  0.00     0.022 A 
ATOM      8  C7  BZF d   1       1.150   1.004   0.761  0.00  0.00     0.029 A 
ATOM      9  C7A BZF d   1      -0.112   1.055   0.221  0.00  0.00     0.058 A 
ENDROOT
TORSDOF 0
ENDMDL
