MODEL 1
REMARK minimizedAffinity 7.21709585
REMARK minimizedRMSD -1
REMARK  0 active torsions:
REMARK  status: ('A' for Active; 'I' for Inactive)
ROOT
ATOM      1  O1  BZF d   1      -1.059   0.593  -3.124  0.00  0.00    -0.204 OA
ATOM      2  C2  BZF d   1      -1.329  -0.253  -2.067  0.00  0.00     0.174 A 
ATOM      3  C3  BZF d   1      -2.636  -0.583  -2.040  0.00  0.00    -0.012 A 
ATOM      4  C3A BZF d   1      -3.202   0.026  -3.204  0.00  0.00    -0.107 A 
ATOM      5  C4  BZF d   1      -4.460   0.048  -3.735  0.00  0.00     0.055 A 
ATOM      6  C5  BZF d   1      -4.696   0.797  -4.844  0.00  0.00    -0.016 A 
ATOM      7  C6  BZF d   1      -3.700   1.540  -5.444  0.00  0.00     0.022 A 
ATOM      8  C7  BZF d   1      -2.436   1.546  -4.956  0.00  0.00     0.029 A 
ATOM      9  C7A BZF d   1      -2.186   0.764  -3.855  0.00  0.00     0.058 A 
ENDROOT
TORSDOF 0
ENDMDL
