MODEL 1
REMARK minimizedAffinity 2.69694352
REMARK minimizedRMSD -1
REMARK  0 active torsions:
REMARK  status: ('A' for Active; 'I' for Inactive)
ROOT
ATOM      1  O1  BZF d   1      -0.022   1.449  -0.430  0.00  0.00    -0.204 OA
ATOM      2  C2  BZF d   1      -1.386   1.447  -0.647  0.00  0.00     0.174 A 
ATOM      3  C3  BZF d   1      -2.056   1.340   0.518  0.00  0.00    -0.012 A 
ATOM      4  C3A BZF d   1      -1.049   1.364   1.535  0.00  0.00    -0.107 A 
ATOM      5  C4  BZF d   1      -1.091   1.309   2.899  0.00  0.00     0.055 A 
ATOM      6  C5  BZF d   1       0.076   1.280   3.594  0.00  0.00    -0.016 A 
ATOM      7  C6  BZF d   1       1.301   1.301   2.959  0.00  0.00     0.022 A 
ATOM      8  C7  BZF d   1       1.392   1.360   1.608  0.00  0.00     0.029 A 
ATOM      9  C7A BZF d   1       0.215   1.423   0.904  0.00  0.00     0.058 A 
ENDROOT
TORSDOF 0
ENDMDL
