MODEL 1
REMARK minimizedAffinity 2.53675342
REMARK minimizedRMSD -1
REMARK  0 active torsions:
REMARK  status: ('A' for Active; 'I' for Inactive)
ROOT
ATOM      1  O1  BZF d   1      -0.313   1.132  -0.604  0.00  0.00    -0.204 OA
ATOM      2  C2  BZF d   1      -1.572   1.692  -0.515  0.00  0.00     0.174 A 
ATOM      3  C3  BZF d   1      -1.984   1.743   0.768  0.00  0.00    -0.012 A 
ATOM      4  C3A BZF d   1      -0.877   1.264   1.538  0.00  0.00    -0.107 A 
ATOM      5  C4  BZF d   1      -0.669   1.092   2.877  0.00  0.00     0.055 A 
ATOM      6  C5  BZF d   1       0.497   0.534   3.297  0.00  0.00    -0.016 A 
ATOM      7  C6  BZF d   1       1.472   0.132   2.408  0.00  0.00     0.022 A 
ATOM      8  C7  BZF d   1       1.312   0.286   1.071  0.00  0.00     0.029 A 
ATOM      9  C7A BZF d   1       0.149   0.880   0.645  0.00  0.00     0.058 A 
ENDROOT
TORSDOF 0
ENDMDL
