MODEL 1
REMARK minimizedAffinity 6.96524525
REMARK minimizedRMSD -1
REMARK  0 active torsions:
REMARK  status: ('A' for Active; 'I' for Inactive)
ROOT
ATOM      1  O1  BZF d   1      -0.584   1.500  -1.003  0.00  0.00    -0.204 OA
ATOM      2  C2  BZF d   1      -1.917   1.821  -0.832  0.00  0.00     0.174 A 
ATOM      3  C3  BZF d   1      -2.265   1.739   0.468  0.00  0.00    -0.012 A 
ATOM      4  C3A BZF d   1      -1.054   1.431   1.164  0.00  0.00    -0.107 A 
ATOM      5  C4  BZF d   1      -0.750   1.240   2.482  0.00  0.00     0.055 A 
ATOM      6  C5  BZF d   1       0.515   0.881   2.823  0.00  0.00    -0.016 A 
ATOM      7  C6  BZF d   1       1.499   0.700   1.873  0.00  0.00     0.022 A 
ATOM      8  C7  BZF d   1       1.248   0.884   0.554  0.00  0.00     0.029 A 
ATOM      9  C7A BZF d   1      -0.022   1.279   0.209  0.00  0.00     0.058 A 
ENDROOT
TORSDOF 0
ENDMDL
