MODEL 1
REMARK minimizedAffinity 1.68821156
REMARK minimizedRMSD -1
REMARK  0 active torsions:
REMARK  status: ('A' for Active; 'I' for Inactive)
ROOT
ATOM      1  C   UNL d   1       2.709   2.637   1.297  0.00  0.00    -0.002 A 
ATOM      2  C1  UNL d   1       1.490   3.293   1.396  0.00  0.00     0.010 A 
ATOM      3  C2  UNL d   1       0.302   2.639   1.064  0.00  0.00     0.041 A 
ATOM      4  C3  UNL d   1       0.360   1.300   0.629  0.00  0.00    -0.075 A 
ATOM      5  S   UNL d   1      -0.966   0.298   0.170  0.00  0.00     0.015 SA
ATOM      6  C4  UNL d   1       0.054  -1.025  -0.167  0.00  0.00     0.022 A 
ATOM      7  C5  UNL d   1       1.377  -0.727   0.059  0.00  0.00     0.026 A 
ATOM      8  C6  UNL d   1       1.575   0.618   0.522  0.00  0.00    -0.082 A 
ATOM      9  C7  UNL d   1       2.762   1.309   0.865  0.00  0.00     0.045 A 
ENDROOT
TORSDOF 0
ENDMDL
