MODEL 1
REMARK minimizedAffinity -1.19608259
REMARK minimizedRMSD -1
REMARK  0 active torsions:
REMARK  status: ('A' for Active; 'I' for Inactive)
ROOT
ATOM      1  C   UNL d   1       2.263   3.017   1.437  0.00  0.00    -0.002 A 
ATOM      2  C1  UNL d   1       3.148   1.982   1.173  0.00  0.00     0.010 A 
ATOM      3  C2  UNL d   1       2.683   0.756   0.692  0.00  0.00     0.041 A 
ATOM      4  C3  UNL d   1       1.301   0.588   0.478  0.00  0.00    -0.075 A 
ATOM      5  S   UNL d   1       0.503  -0.825  -0.107  0.00  0.00     0.015 SA
ATOM      6  C4  UNL d   1      -1.030  -0.086  -0.020  0.00  0.00     0.022 A 
ATOM      7  C5  UNL d   1      -0.954   1.206   0.442  0.00  0.00     0.026 A 
ATOM      8  C6  UNL d   1       0.390   1.616   0.736  0.00  0.00    -0.082 A 
ATOM      9  C7  UNL d   1       0.893   2.847   1.224  0.00  0.00     0.045 A 
ENDROOT
TORSDOF 0
ENDMDL
