MODEL 1
REMARK minimizedAffinity -2.68806267
REMARK minimizedRMSD -1
REMARK  0 active torsions:
REMARK  status: ('A' for Active; 'I' for Inactive)
ROOT
ATOM      1  C   UNL d   1      -1.422  -2.848  -1.846  0.00  0.00    -0.002 A 
ATOM      2  C1  UNL d   1      -0.219  -3.268  -1.298  0.00  0.00     0.010 A 
ATOM      3  C2  UNL d   1       0.591  -2.376  -0.591  0.00  0.00     0.041 A 
ATOM      4  C3  UNL d   1       0.165  -1.041  -0.442  0.00  0.00    -0.075 A 
ATOM      5  S   UNL d   1       0.991   0.227   0.383  0.00  0.00     0.015 SA
ATOM      6  C4  UNL d   1      -0.235   1.357   0.028  0.00  0.00     0.022 A 
ATOM      7  C5  UNL d   1      -1.257   0.797  -0.702  0.00  0.00     0.026 A 
ATOM      8  C6  UNL d   1      -1.044  -0.595  -0.984  0.00  0.00    -0.082 A 
ATOM      9  C7  UNL d   1      -1.841  -1.523  -1.696  0.00  0.00     0.045 A 
ENDROOT
TORSDOF 0
ENDMDL
