MODEL 1
REMARK minimizedAffinity -0.740023255
REMARK minimizedRMSD -1
REMARK  0 active torsions:
REMARK  status: ('A' for Active; 'I' for Inactive)
ROOT
ATOM      1  C   UNL d   1      -0.018   0.342   0.893  0.00  0.00    -0.002 A 
ATOM      2  C1  UNL d   1      -1.126   0.736   0.157  0.00  0.00     0.010 A 
ATOM      3  C2  UNL d   1      -1.628  -0.077  -0.861  0.00  0.00     0.041 A 
ATOM      4  C3  UNL d   1      -0.993  -1.306  -1.128  0.00  0.00    -0.075 A 
ATOM      5  S   UNL d   1      -1.434  -2.465  -2.326  0.00  0.00     0.015 SA
ATOM      6  C4  UNL d   1      -0.162  -3.512  -1.887  0.00  0.00     0.022 A 
ATOM      7  C5  UNL d   1       0.590  -3.005  -0.854  0.00  0.00     0.026 A 
ATOM      8  C6  UNL d   1       0.123  -1.725  -0.399  0.00  0.00    -0.082 A 
ATOM      9  C7  UNL d   1       0.609  -0.878   0.626  0.00  0.00     0.045 A 
ENDROOT
TORSDOF 0
ENDMDL
