MODEL 1
REMARK minimizedAffinity -2.30962253
REMARK minimizedRMSD -1
REMARK  0 active torsions:
REMARK  status: ('A' for Active; 'I' for Inactive)
ROOT
ATOM      1  C   UNL d   1      -1.963   2.283   0.543  0.00  0.00    -0.002 A 
ATOM      2  C1  UNL d   1      -0.780   3.005   0.474  0.00  0.00     0.010 A 
ATOM      3  C2  UNL d   1       0.445   2.349   0.337  0.00  0.00     0.041 A 
ATOM      4  C3  UNL d   1       0.461   0.942   0.268  0.00  0.00    -0.075 A 
ATOM      5  S   UNL d   1       1.842  -0.076   0.099  0.00  0.00     0.015 SA
ATOM      6  C4  UNL d   1       0.894  -1.492   0.113  0.00  0.00     0.022 A 
ATOM      7  C5  UNL d   1      -0.446  -1.214   0.243  0.00  0.00     0.026 A 
ATOM      8  C6  UNL d   1      -0.718   0.193   0.334  0.00  0.00    -0.082 A 
ATOM      9  C7  UNL d   1      -1.944   0.888   0.474  0.00  0.00     0.045 A 
ENDROOT
TORSDOF 0
ENDMDL
