MODEL 1
REMARK minimizedAffinity -0.561124921
REMARK minimizedRMSD -1
REMARK  0 active torsions:
REMARK  status: ('A' for Active; 'I' for Inactive)
ROOT
ATOM      1  C   UNL d   1      -0.419  -3.671  -2.419  0.00  0.00    -0.002 A 
ATOM      2  C1  UNL d   1      -1.273  -3.978  -1.369  0.00  0.00     0.010 A 
ATOM      3  C2  UNL d   1      -1.449  -3.083  -0.312  0.00  0.00     0.041 A 
ATOM      4  C3  UNL d   1      -0.747  -1.862  -0.328  0.00  0.00    -0.075 A 
ATOM      5  S   UNL d   1      -0.806  -0.613   0.859  0.00  0.00     0.015 SA
ATOM      6  C4  UNL d   1       0.301   0.358   0.001  0.00  0.00     0.022 A 
ATOM      7  C5  UNL d   1       0.716  -0.241  -1.165  0.00  0.00     0.026 A 
ATOM      8  C6  UNL d   1       0.119  -1.530  -1.374  0.00  0.00    -0.082 A 
ATOM      9  C7  UNL d   1       0.276  -2.458  -2.431  0.00  0.00     0.045 A 
ENDROOT
TORSDOF 0
ENDMDL
