MODEL 1
REMARK minimizedAffinity -4.2094841
REMARK minimizedRMSD -1
REMARK  0 active torsions:
REMARK  status: ('A' for Active; 'I' for Inactive)
ROOT
ATOM      1  C   UNL d   1       0.281  -3.039  -1.121  0.00  0.00    -0.002 A 
ATOM      2  C1  UNL d   1      -0.167  -3.285  -2.411  0.00  0.00     0.010 A 
ATOM      3  C2  UNL d   1      -1.402  -3.899  -2.629  0.00  0.00     0.041 A 
ATOM      4  C3  UNL d   1      -2.188  -4.262  -1.518  0.00  0.00    -0.075 A 
ATOM      5  S   UNL d   1      -3.734  -5.024  -1.543  0.00  0.00     0.015 SA
ATOM      6  C4  UNL d   1      -3.837  -5.040   0.158  0.00  0.00     0.022 A 
ATOM      7  C5  UNL d   1      -2.728  -4.481   0.747  0.00  0.00     0.026 A 
ATOM      8  C6  UNL d   1      -1.759  -4.024  -0.209  0.00  0.00    -0.082 A 
ATOM      9  C7  UNL d   1      -0.502  -3.401  -0.021  0.00  0.00     0.045 A 
ENDROOT
TORSDOF 0
ENDMDL
