MODEL 1
REMARK minimizedAffinity -3.13708448
REMARK minimizedRMSD -1
REMARK  0 active torsions:
REMARK  status: ('A' for Active; 'I' for Inactive)
ROOT
ATOM      1  C   UNL d   1      -0.376   0.830   0.617  0.00  0.00    -0.002 A 
ATOM      2  C1  UNL d   1      -1.642   1.045   0.090  0.00  0.00     0.010 A 
ATOM      3  C2  UNL d   1      -2.270   0.060  -0.674  0.00  0.00     0.041 A 
ATOM      4  C3  UNL d   1      -1.598  -1.158  -0.901  0.00  0.00    -0.075 A 
ATOM      5  S   UNL d   1      -2.172  -2.508  -1.806  0.00  0.00     0.015 SA
ATOM      6  C4  UNL d   1      -0.751  -3.403  -1.515  0.00  0.00     0.022 A 
ATOM      7  C5  UNL d   1       0.150  -2.703  -0.748  0.00  0.00     0.026 A 
ATOM      8  C6  UNL d   1      -0.324  -1.398  -0.381  0.00  0.00    -0.082 A 
ATOM      9  C7  UNL d   1       0.287  -0.379   0.389  0.00  0.00     0.045 A 
ENDROOT
TORSDOF 0
ENDMDL
