MODEL 1
REMARK minimizedAffinity -3.86698294
REMARK minimizedRMSD -1
REMARK  0 active torsions:
REMARK  status: ('A' for Active; 'I' for Inactive)
ROOT
ATOM      1  C   UNL d   1       2.462  -0.435   0.505  0.00  0.00    -0.002 A 
ATOM      2  C1  UNL d   1       1.321  -1.145   0.848  0.00  0.00     0.010 A 
ATOM      3  C2  UNL d   1       0.057  -0.567   0.714  0.00  0.00     0.041 A 
ATOM      4  C3  UNL d   1      -0.041   0.750   0.223  0.00  0.00    -0.075 A 
ATOM      5  S   UNL d   1      -1.483   1.661  -0.027  0.00  0.00     0.015 SA
ATOM      6  C4  UNL d   1      -0.618   3.015  -0.595  0.00  0.00     0.022 A 
ATOM      7  C5  UNL d   1       0.739   2.795  -0.601  0.00  0.00     0.026 A 
ATOM      8  C6  UNL d   1       1.094   1.485  -0.130  0.00  0.00    -0.082 A 
ATOM      9  C7  UNL d   1       2.361   0.871   0.018  0.00  0.00     0.045 A 
ENDROOT
TORSDOF 0
ENDMDL
