MODEL 1
REMARK minimizedAffinity 1.0771302
REMARK minimizedRMSD -1
REMARK  0 active torsions:
REMARK  status: ('A' for Active; 'I' for Inactive)
ROOT
ATOM      1  C   UNL d   1       1.976   2.936   1.510  0.00  0.00    -0.002 A 
ATOM      2  C1  UNL d   1       2.887   1.946   1.174  0.00  0.00     0.010 A 
ATOM      3  C2  UNL d   1       2.454   0.741   0.617  0.00  0.00     0.041 A 
ATOM      4  C3  UNL d   1       1.076   0.548   0.398  0.00  0.00    -0.075 A 
ATOM      5  S   UNL d   1       0.315  -0.846  -0.274  0.00  0.00     0.015 SA
ATOM      6  C4  UNL d   1      -1.238  -0.158  -0.132  0.00  0.00     0.022 A 
ATOM      7  C5  UNL d   1      -1.196   1.103   0.412  0.00  0.00     0.026 A 
ATOM      8  C6  UNL d   1       0.138   1.531   0.726  0.00  0.00    -0.082 A 
ATOM      9  C7  UNL d   1       0.609   2.741   1.291  0.00  0.00     0.045 A 
ENDROOT
TORSDOF 0
ENDMDL
