MODEL 1
REMARK minimizedAffinity -3.41493773
REMARK minimizedRMSD -1
REMARK  0 active torsions:
REMARK  status: ('A' for Active; 'I' for Inactive)
ROOT
ATOM      1  C   UNL d   1       0.012   1.195   0.286  0.00  0.00    -0.002 A 
ATOM      2  C1  UNL d   1      -0.886   1.407  -0.750  0.00  0.00     0.010 A 
ATOM      3  C2  UNL d   1      -1.318   0.343  -1.545  0.00  0.00     0.041 A 
ATOM      4  C3  UNL d   1      -0.828  -0.950  -1.277  0.00  0.00    -0.075 A 
ATOM      5  S   UNL d   1      -1.218  -2.404  -2.118  0.00  0.00     0.015 SA
ATOM      6  C4  UNL d   1      -0.202  -3.341  -1.120  0.00  0.00     0.022 A 
ATOM      7  C5  UNL d   1       0.427  -2.580  -0.164  0.00  0.00     0.026 A 
ATOM      8  C6  UNL d   1       0.076  -1.189  -0.238  0.00  0.00    -0.082 A 
ATOM      9  C7  UNL d   1       0.495  -0.090   0.549  0.00  0.00     0.045 A 
ENDROOT
TORSDOF 0
ENDMDL
