MODEL 1
REMARK minimizedAffinity -2.1586616
REMARK minimizedRMSD -1
REMARK  0 active torsions:
REMARK  status: ('A' for Active; 'I' for Inactive)
ROOT
ATOM      1  C4' PXY d   1      -3.589  -2.100   0.481  0.00  0.00     0.077 C 
ATOM      2  C1' PXY d   1       1.284   1.008   0.582  0.00  0.00     0.077 C 
ATOM      3  C1  PXY d   1       0.013   0.182   0.553  0.00  0.00    -0.082 A 
ATOM      4  C2  PXY d   1      -1.141   0.768   0.281  0.00  0.00     0.003 A 
ATOM      5  C3  PXY d   1      -2.305   0.042   0.282  0.00  0.00     0.003 A 
ATOM      6  C4  PXY d   1      -2.279  -1.307   0.512  0.00  0.00    -0.082 A 
ATOM      7  C5  PXY d   1      -1.103  -1.914   0.780  0.00  0.00     0.003 A 
ATOM      8  C6  PXY d   1       0.061  -1.152   0.815  0.00  0.00     0.003 A 
ENDROOT
TORSDOF 0
ENDMDL
