MODEL 1
REMARK minimizedAffinity -5.09405565
REMARK minimizedRMSD -1
REMARK  0 active torsions:
REMARK  status: ('A' for Active; 'I' for Inactive)
ROOT
ATOM      1  C4' PXY d   1      -3.013  -1.361  -0.326  0.00  0.00     0.077 C 
ATOM      2  C1' PXY d   1       2.280   0.959  -0.181  0.00  0.00     0.077 C 
ATOM      3  C1  PXY d   1       0.888   0.360  -0.227  0.00  0.00    -0.082 A 
ATOM      4  C2  PXY d   1       0.460  -0.379   0.783  0.00  0.00     0.003 A 
ATOM      5  C3  PXY d   1      -0.784  -0.955   0.743  0.00  0.00     0.003 A 
ATOM      6  C4  PXY d   1      -1.619  -0.728  -0.318  0.00  0.00    -0.082 A 
ATOM      7  C5  PXY d   1      -1.193   0.034  -1.348  0.00  0.00     0.003 A 
ATOM      8  C6  PXY d   1       0.088   0.575  -1.307  0.00  0.00     0.003 A 
ENDROOT
TORSDOF 0
ENDMDL
