MODEL 1
REMARK minimizedAffinity -2.78908896
REMARK minimizedRMSD -1
REMARK  0 active torsions:
REMARK  status: ('A' for Active; 'I' for Inactive)
ROOT
ATOM      1  C4' PXY d   1       1.990   1.935   0.739  0.00  0.00     0.077 C 
ATOM      2  C1' PXY d   1      -2.686  -1.103  -0.785  0.00  0.00     0.077 C 
ATOM      3  C1  PXY d   1      -1.452  -0.317  -0.385  0.00  0.00    -0.082 A 
ATOM      4  C2  PXY d   1      -1.589   0.842   0.239  0.00  0.00     0.003 A 
ATOM      5  C3  PXY d   1      -0.485   1.580   0.579  0.00  0.00     0.003 A 
ATOM      6  C4  PXY d   1       0.773   1.103   0.325  0.00  0.00    -0.082 A 
ATOM      7  C5  PXY d   1       0.921  -0.083  -0.302  0.00  0.00     0.003 A 
ATOM      8  C6  PXY d   1      -0.213  -0.798  -0.676  0.00  0.00     0.003 A 
ENDROOT
TORSDOF 0
ENDMDL
