MODEL 1
REMARK minimizedAffinity 1.9744668
REMARK minimizedRMSD -1
REMARK  0 active torsions:
REMARK  status: ('A' for Active; 'I' for Inactive)
ROOT
ATOM      1  C4' PXY d   1      -2.522  -2.245  -3.374  0.00  0.00     0.077 C 
ATOM      2  C1' PXY d   1      -1.508  -0.315   1.979  0.00  0.00     0.077 C 
ATOM      3  C1  PXY d   1      -1.769  -0.810   0.570  0.00  0.00    -0.082 A 
ATOM      4  C2  PXY d   1      -2.700  -1.727   0.361  0.00  0.00     0.003 A 
ATOM      5  C3  PXY d   1      -2.927  -2.209  -0.902  0.00  0.00     0.003 A 
ATOM      6  C4  PXY d   1      -2.231  -1.709  -1.970  0.00  0.00    -0.082 A 
ATOM      7  C5  PXY d   1      -1.287  -0.766  -1.766  0.00  0.00     0.003 A 
ATOM      8  C6  PXY d   1      -1.043  -0.319  -0.471  0.00  0.00     0.003 A 
ENDROOT
TORSDOF 0
ENDMDL
