MODEL 1
REMARK minimizedAffinity -4.96202564
REMARK minimizedRMSD -1
REMARK  0 active torsions:
REMARK  status: ('A' for Active; 'I' for Inactive)
ROOT
ATOM      1  C4' PXY d   1      -4.020  -1.412   0.096  0.00  0.00     0.077 C 
ATOM      2  C1' PXY d   1       1.572  -0.003  -0.303  0.00  0.00     0.077 C 
ATOM      3  C1  PXY d   1       0.103  -0.363  -0.207  0.00  0.00    -0.082 A 
ATOM      4  C2  PXY d   1      -0.350  -0.982   0.872  0.00  0.00     0.003 A 
ATOM      5  C3  PXY d   1      -1.670  -1.343   0.961  0.00  0.00     0.003 A 
ATOM      6  C4  PXY d   1      -2.546  -1.021  -0.040  0.00  0.00    -0.082 A 
ATOM      7  C5  PXY d   1      -2.094  -0.380  -1.139  0.00  0.00     0.003 A 
ATOM      8  C6  PXY d   1      -0.743  -0.058  -1.229  0.00  0.00     0.003 A 
ENDROOT
TORSDOF 0
ENDMDL
