MODEL 1
REMARK minimizedAffinity -3.94390678
REMARK minimizedRMSD -1
REMARK  0 active torsions:
REMARK  status: ('A' for Active; 'I' for Inactive)
ROOT
ATOM      1  C4' PXY d   1       2.171   1.039   0.240  0.00  0.00     0.077 C 
ATOM      2  C1' PXY d   1      -3.061  -1.373  -0.239  0.00  0.00     0.077 C 
ATOM      3  C1  PXY d   1      -1.688  -0.740  -0.127  0.00  0.00    -0.082 A 
ATOM      4  C2  PXY d   1      -0.986  -0.895   0.984  0.00  0.00     0.003 A 
ATOM      5  C3  PXY d   1       0.244  -0.303   1.115  0.00  0.00     0.003 A 
ATOM      6  C4  PXY d   1       0.784   0.410   0.078  0.00  0.00    -0.082 A 
ATOM      7  C5  PXY d   1       0.078   0.563  -1.062  0.00  0.00     0.003 A 
ATOM      8  C6  PXY d   1      -1.186  -0.011  -1.160  0.00  0.00     0.003 A 
ENDROOT
TORSDOF 0
ENDMDL
