MODEL 1
REMARK minimizedAffinity -3.43934941
REMARK minimizedRMSD -1
REMARK  0 active torsions:
REMARK  status: ('A' for Active; 'I' for Inactive)
ROOT
ATOM      1  C4' PXY d   1      -3.097  -1.271  -0.464  0.00  0.00     0.077 C 
ATOM      2  C1' PXY d   1       2.284   0.767   0.089  0.00  0.00     0.077 C 
ATOM      3  C1  PXY d   1       0.876   0.223  -0.048  0.00  0.00    -0.082 A 
ATOM      4  C2  PXY d   1       0.169   0.502  -1.131  0.00  0.00     0.003 A 
ATOM      5  C3  PXY d   1      -1.117   0.045  -1.257  0.00  0.00     0.003 A 
ATOM      6  C4  PXY d   1      -1.668  -0.751  -0.288  0.00  0.00    -0.082 A 
ATOM      7  C5  PXY d   1      -0.949  -1.049   0.816  0.00  0.00     0.003 A 
ATOM      8  C6  PXY d   1       0.340  -0.541   0.943  0.00  0.00     0.003 A 
ENDROOT
TORSDOF 0
ENDMDL
