MODEL 1
REMARK minimizedAffinity -1.63749456
REMARK minimizedRMSD -1
REMARK  0 active torsions:
REMARK  status: ('A' for Active; 'I' for Inactive)
ROOT
ATOM      1  C4' PXY d   1       2.515   1.567   0.443  0.00  0.00     0.077 C 
ATOM      2  C1' PXY d   1      -2.224  -1.328  -1.163  0.00  0.00     0.077 C 
ATOM      3  C1  PXY d   1      -0.985  -0.569  -0.729  0.00  0.00    -0.082 A 
ATOM      4  C2  PXY d   1      -0.361   0.213  -1.595  0.00  0.00     0.003 A 
ATOM      5  C3  PXY d   1       0.779   0.881  -1.229  0.00  0.00     0.003 A 
ATOM      6  C4  PXY d   1       1.255   0.790   0.052  0.00  0.00    -0.082 A 
ATOM      7  C5  PXY d   1       0.618   0.002   0.944  0.00  0.00     0.003 A 
ATOM      8  C6  PXY d   1      -0.514  -0.700   0.540  0.00  0.00     0.003 A 
ENDROOT
TORSDOF 0
ENDMDL
