MODEL 1
REMARK minimizedAffinity -2.67979383
REMARK minimizedRMSD -1
REMARK  0 active torsions:
REMARK  status: ('A' for Active; 'I' for Inactive)
ROOT
ATOM      1  C4' PXY d   1       1.693   0.760  -0.393  0.00  0.00     0.077 C 
ATOM      2  C1' PXY d   1      -3.537  -1.684  -0.104  0.00  0.00     0.077 C 
ATOM      3  C1  PXY d   1      -2.167  -1.040  -0.192  0.00  0.00    -0.082 A 
ATOM      4  C2  PXY d   1      -1.227  -1.382   0.674  0.00  0.00     0.003 A 
ATOM      5  C3  PXY d   1       0.007  -0.787   0.628  0.00  0.00     0.003 A 
ATOM      6  C4  PXY d   1       0.299   0.129  -0.347  0.00  0.00    -0.082 A 
ATOM      7  C5  PXY d   1      -0.652   0.476  -1.240  0.00  0.00     0.003 A 
ATOM      8  C6  PXY d   1      -1.911  -0.110  -1.152  0.00  0.00     0.003 A 
ENDROOT
TORSDOF 0
ENDMDL
