MODEL 1
REMARK minimizedAffinity -4.41290522
REMARK minimizedRMSD -1
REMARK  0 active torsions:
REMARK  status: ('A' for Active; 'I' for Inactive)
ROOT
ATOM      1  C4' PXY d   1       2.178   0.620   0.244  0.00  0.00     0.077 C 
ATOM      2  C1' PXY d   1      -3.090  -0.887  -1.601  0.00  0.00     0.077 C 
ATOM      3  C1  PXY d   1      -1.710  -0.498  -1.106  0.00  0.00    -0.082 A 
ATOM      4  C2  PXY d   1      -1.111   0.568  -1.611  0.00  0.00     0.003 A 
ATOM      5  C3  PXY d   1       0.150   0.916  -1.197  0.00  0.00     0.003 A 
ATOM      6  C4  PXY d   1       0.781   0.195  -0.219  0.00  0.00    -0.082 A 
ATOM      7  C5  PXY d   1       0.172  -0.887   0.308  0.00  0.00     0.003 A 
ATOM      8  C6  PXY d   1      -1.091  -1.247  -0.154  0.00  0.00     0.003 A 
ENDROOT
TORSDOF 0
ENDMDL
