MODEL 1
REMARK minimizedAffinity -3.35748625
REMARK minimizedRMSD -1
REMARK  0 active torsions:
REMARK  status: ('A' for Active; 'I' for Inactive)
ROOT
ATOM      1  C4' PXY d   1      -3.433  -1.889  -0.032  0.00  0.00     0.077 C 
ATOM      2  C1' PXY d   1       1.388   1.298   0.112  0.00  0.00     0.077 C 
ATOM      3  C1  PXY d   1       0.117   0.472   0.068  0.00  0.00    -0.082 A 
ATOM      4  C2  PXY d   1      -0.053  -0.513   0.936  0.00  0.00     0.003 A 
ATOM      5  C3  PXY d   1      -1.181  -1.290   0.890  0.00  0.00     0.003 A 
ATOM      6  C4  PXY d   1      -2.170  -1.023  -0.019  0.00  0.00    -0.082 A 
ATOM      7  C5  PXY d   1      -2.009  -0.013  -0.900  0.00  0.00     0.003 A 
ATOM      8  C6  PXY d   1      -0.838   0.738  -0.864  0.00  0.00     0.003 A 
ENDROOT
TORSDOF 0
ENDMDL
