MODEL 1
REMARK minimizedAffinity -4.63979292
REMARK minimizedRMSD -1
REMARK  0 active torsions:
REMARK  status: ('A' for Active; 'I' for Inactive)
ROOT
ATOM      1  C4' PXY d   1       1.717   0.492  -0.024  0.00  0.00     0.077 C 
ATOM      2  C1' PXY d   1      -3.668  -1.605   0.115  0.00  0.00     0.077 C 
ATOM      3  C1  PXY d   1      -2.257  -1.054   0.066  0.00  0.00    -0.082 A 
ATOM      4  C2  PXY d   1      -1.405  -1.351   1.034  0.00  0.00     0.003 A 
ATOM      5  C3  PXY d   1      -0.134  -0.835   1.021  0.00  0.00     0.003 A 
ATOM      6  C4  PXY d   1       0.285  -0.050  -0.020  0.00  0.00    -0.082 A 
ATOM      7  C5  PXY d   1      -0.576   0.248  -1.016  0.00  0.00     0.003 A 
ATOM      8  C6  PXY d   1      -1.874  -0.252  -0.964  0.00  0.00     0.003 A 
ENDROOT
TORSDOF 0
ENDMDL
