MODEL 1
REMARK minimizedAffinity -3.84187174
REMARK minimizedRMSD -1
REMARK  0 active torsions:
REMARK  status: ('A' for Active; 'I' for Inactive)
ROOT
ATOM      1  C4' PXY d   1      -3.608  -1.991  -0.187  0.00  0.00     0.077 C 
ATOM      2  C1' PXY d   1       1.418   0.817   0.330  0.00  0.00     0.077 C 
ATOM      3  C1  PXY d   1       0.104   0.070   0.202  0.00  0.00    -0.082 A 
ATOM      4  C2  PXY d   1      -0.687   0.312  -0.830  0.00  0.00     0.003 A 
ATOM      5  C3  PXY d   1      -1.893  -0.330  -0.945  0.00  0.00     0.003 A 
ATOM      6  C4  PXY d   1      -2.269  -1.268  -0.021  0.00  0.00    -0.082 A 
ATOM      7  C5  PXY d   1      -1.462  -1.529   1.029  0.00  0.00     0.003 A 
ATOM      8  C6  PXY d   1      -0.261  -0.836   1.149  0.00  0.00     0.003 A 
ENDROOT
TORSDOF 0
ENDMDL
