MODEL 1
REMARK minimizedAffinity -5.22915506
REMARK minimizedRMSD -1
REMARK  0 active torsions:
REMARK  status: ('A' for Active; 'I' for Inactive)
ROOT
ATOM      1  C4' PXY d   1      -3.588  -2.531   0.875  0.00  0.00     0.077 C 
ATOM      2  C1' PXY d   1       1.478   0.031  -0.216  0.00  0.00     0.077 C 
ATOM      3  C1  PXY d   1       0.143  -0.630   0.066  0.00  0.00    -0.082 A 
ATOM      4  C2  PXY d   1       0.076  -1.622   0.939  0.00  0.00     0.003 A 
ATOM      5  C3  PXY d   1      -1.117  -2.252   1.183  0.00  0.00     0.003 A 
ATOM      6  C4  PXY d   1      -2.263  -1.828   0.565  0.00  0.00    -0.082 A 
ATOM      7  C5  PXY d   1      -2.205  -0.810  -0.319  0.00  0.00     0.003 A 
ATOM      8  C6  PXY d   1      -0.977  -0.210  -0.583  0.00  0.00     0.003 A 
ENDROOT
TORSDOF 0
ENDMDL
