MODEL 1
REMARK minimizedAffinity -5.31966734
REMARK minimizedRMSD -1
REMARK  0 active torsions:
REMARK  status: ('A' for Active; 'I' for Inactive)
ROOT
ATOM      1  C4' PXY d   1       1.730   1.001   0.222  0.00  0.00     0.077 C 
ATOM      2  C1' PXY d   1      -3.306  -1.822  -0.060  0.00  0.00     0.077 C 
ATOM      3  C1  PXY d   1      -1.984  -1.087   0.026  0.00  0.00    -0.082 A 
ATOM      4  C2  PXY d   1      -1.786  -0.008  -0.714  0.00  0.00     0.003 A 
ATOM      5  C3  PXY d   1      -0.584   0.651  -0.672  0.00  0.00     0.003 A 
ATOM      6  C4  PXY d   1       0.407   0.232   0.175  0.00  0.00    -0.082 A 
ATOM      7  C5  PXY d   1       0.209  -0.862   0.941  0.00  0.00     0.003 A 
ATOM      8  C6  PXY d   1      -1.003  -1.540   0.854  0.00  0.00     0.003 A 
ENDROOT
TORSDOF 0
ENDMDL
