MODEL 1
REMARK minimizedAffinity -3.26382136
REMARK minimizedRMSD -1
REMARK  0 active torsions:
REMARK  status: ('A' for Active; 'I' for Inactive)
ROOT
ATOM      1  C4' PXY d   1       2.169   1.356   0.572  0.00  0.00     0.077 C 
ATOM      2  C1' PXY d   1      -3.210  -0.563  -0.318  0.00  0.00     0.077 C 
ATOM      3  C1  PXY d   1      -1.795  -0.068  -0.094  0.00  0.00    -0.082 A 
ATOM      4  C2  PXY d   1      -1.468   0.473   1.068  0.00  0.00     0.003 A 
ATOM      5  C3  PXY d   1      -0.201   0.955   1.277  0.00  0.00     0.003 A 
ATOM      6  C4  PXY d   1       0.755   0.834   0.304  0.00  0.00    -0.082 A 
ATOM      7  C5  PXY d   1       0.431   0.274  -0.881  0.00  0.00     0.003 A 
ATOM      8  C6  PXY d   1      -0.871  -0.171  -1.087  0.00  0.00     0.003 A 
ENDROOT
TORSDOF 0
ENDMDL
