MODEL 1
REMARK minimizedAffinity -3.87917686
REMARK minimizedRMSD -1
REMARK  0 active torsions:
REMARK  status: ('A' for Active; 'I' for Inactive)
ROOT
ATOM      1  C4' PXY d   1       1.984   0.476   0.397  0.00  0.00     0.077 C 
ATOM      2  C1' PXY d   1      -3.371  -1.673   0.041  0.00  0.00     0.077 C 
ATOM      3  C1  PXY d   1      -1.966  -1.108   0.121  0.00  0.00    -0.082 A 
ATOM      4  C2  PXY d   1      -1.180  -1.450   1.129  0.00  0.00     0.003 A 
ATOM      5  C3  PXY d   1       0.081  -0.923   1.234  0.00  0.00     0.003 A 
ATOM      6  C4  PXY d   1       0.562  -0.078   0.270  0.00  0.00    -0.082 A 
ATOM      7  C5  PXY d   1      -0.230   0.268  -0.767  0.00  0.00     0.003 A 
ATOM      8  C6  PXY d   1      -1.522  -0.246  -0.834  0.00  0.00     0.003 A 
ENDROOT
TORSDOF 0
ENDMDL
