MODEL 1
REMARK minimizedAffinity -3.57586861
REMARK minimizedRMSD -1
REMARK  0 active torsions:
REMARK  status: ('A' for Active; 'I' for Inactive)
ROOT
ATOM      1  C4' PXY d   1       2.425   1.648   0.025  0.00  0.00     0.077 C 
ATOM      2  C1' PXY d   1      -2.544  -1.100  -1.061  0.00  0.00     0.077 C 
ATOM      3  C1  PXY d   1      -1.243  -0.381  -0.763  0.00  0.00    -0.082 A 
ATOM      4  C2  PXY d   1      -0.773   0.506  -1.625  0.00  0.00     0.003 A 
ATOM      5  C3  PXY d   1       0.418   1.141  -1.387  0.00  0.00     0.003 A 
ATOM      6  C4  PXY d   1       1.110   0.905  -0.229  0.00  0.00    -0.082 A 
ATOM      7  C5  PXY d   1       0.632   0.009   0.660  0.00  0.00     0.003 A 
ATOM      8  C6  PXY d   1      -0.558  -0.656   0.380  0.00  0.00     0.003 A 
ENDROOT
TORSDOF 0
ENDMDL
