MODEL 1
REMARK minimizedAffinity -5.09498024
REMARK minimizedRMSD -1
REMARK  0 active torsions:
REMARK  status: ('A' for Active; 'I' for Inactive)
ROOT
ATOM      1  C4' PXY d   1       1.975  -1.285   0.808  0.00  0.00     0.077 C 
ATOM      2  C1' PXY d   1      -3.734  -1.980   0.229  0.00  0.00     0.077 C 
ATOM      3  C1  PXY d   1      -2.237  -1.792   0.369  0.00  0.00    -0.082 A 
ATOM      4  C2  PXY d   1      -1.549  -2.592   1.168  0.00  0.00     0.003 A 
ATOM      5  C3  PXY d   1      -0.199  -2.415   1.331  0.00  0.00     0.003 A 
ATOM      6  C4  PXY d   1       0.463  -1.444   0.629  0.00  0.00    -0.082 A 
ATOM      7  C5  PXY d   1      -0.230  -0.631  -0.197  0.00  0.00     0.003 A 
ATOM      8  C6  PXY d   1      -1.607  -0.800  -0.317  0.00  0.00     0.003 A 
ENDROOT
TORSDOF 0
ENDMDL
