MODEL 1
REMARK minimizedAffinity -1.08914018
REMARK minimizedRMSD -1
REMARK  0 active torsions:
REMARK  status: ('A' for Active; 'I' for Inactive)
ROOT
ATOM      1  C   UNL d   1       1.364   4.136  -4.835  0.00  0.00     0.078 C 
ATOM      2  C1  UNL d   1       2.707   3.610  -5.246  0.00  0.00    -0.077 A 
ATOM      3  C2  UNL d   1       2.973   2.235  -5.247  0.00  0.00    -0.001 A 
ATOM      4  C3  UNL d   1       4.231   1.760  -5.623  0.00  0.00     0.003 A 
ATOM      5  C4  UNL d   1       5.232   2.653  -5.999  0.00  0.00    -0.005 A 
ATOM      6  C5  UNL d   1       4.977   4.023  -5.999  0.00  0.00     0.003 A 
ATOM      7  C6  UNL d   1       3.720   4.500  -5.624  0.00  0.00    -0.001 A 
ENDROOT
TORSDOF 0
ENDMDL
