MODEL 1
REMARK minimizedAffinity 0.244465172
REMARK minimizedRMSD -1
REMARK  0 active torsions:
REMARK  status: ('A' for Active; 'I' for Inactive)
ROOT
ATOM      1  C   UNL d   1       4.876   1.086  -3.699  0.00  0.00     0.078 C 
ATOM      2  C1  UNL d   1       4.365   2.250  -4.495  0.00  0.00    -0.077 A 
ATOM      3  C2  UNL d   1       3.019   2.329  -4.874  0.00  0.00    -0.001 A 
ATOM      4  C3  UNL d   1       2.560   3.414  -5.623  0.00  0.00     0.003 A 
ATOM      5  C4  UNL d   1       3.440   4.427  -6.000  0.00  0.00    -0.005 A 
ATOM      6  C5  UNL d   1       4.781   4.356  -5.629  0.00  0.00     0.003 A 
ATOM      7  C6  UNL d   1       5.242   3.272  -4.880  0.00  0.00    -0.001 A 
ENDROOT
TORSDOF 0
ENDMDL
