MODEL 1
REMARK minimizedAffinity -2.23261094
REMARK minimizedRMSD -1
REMARK  0 active torsions:
REMARK  status: ('A' for Active; 'I' for Inactive)
ROOT
ATOM      1  C   UNL d   1       1.161   5.205  -5.622  0.00  0.00     0.078 C 
ATOM      2  C1  UNL d   1       2.475   4.484  -5.618  0.00  0.00    -0.077 A 
ATOM      3  C2  UNL d   1       3.655   5.134  -6.000  0.00  0.00    -0.001 A 
ATOM      4  C3  UNL d   1       4.871   4.447  -6.000  0.00  0.00     0.003 A 
ATOM      5  C4  UNL d   1       4.918   3.107  -5.621  0.00  0.00    -0.005 A 
ATOM      6  C5  UNL d   1       3.749   2.452  -5.241  0.00  0.00     0.003 A 
ATOM      7  C6  UNL d   1       2.532   3.136  -5.240  0.00  0.00    -0.001 A 
ENDROOT
TORSDOF 0
ENDMDL
