MODEL 1
REMARK minimizedAffinity -3.44238377
REMARK minimizedRMSD -1
REMARK  0 active torsions:
REMARK  status: ('A' for Active; 'I' for Inactive)
ROOT
ATOM      1  C   UNL d   1       0.995   5.254  -5.503  0.00  0.00     0.078 C 
ATOM      2  C1  UNL d   1       2.353   4.630  -5.624  0.00  0.00    -0.077 A 
ATOM      3  C2  UNL d   1       3.486   5.412  -5.879  0.00  0.00    -0.001 A 
ATOM      4  C3  UNL d   1       4.743   4.816  -6.000  0.00  0.00     0.003 A 
ATOM      5  C4  UNL d   1       4.878   3.436  -5.867  0.00  0.00    -0.005 A 
ATOM      6  C5  UNL d   1       3.756   2.649  -5.615  0.00  0.00     0.003 A 
ATOM      7  C6  UNL d   1       2.499   3.243  -5.495  0.00  0.00    -0.001 A 
ENDROOT
TORSDOF 0
ENDMDL
