MODEL 1
REMARK minimizedAffinity -4.45167446
REMARK minimizedRMSD -1
REMARK  0 active torsions:
REMARK  status: ('A' for Active; 'I' for Inactive)
ROOT
ATOM      1  C   UNL d   1       0.721   4.501  -4.872  0.00  0.00     0.078 C 
ATOM      2  C1  UNL d   1       2.182   4.253  -5.105  0.00  0.00    -0.077 A 
ATOM      3  C2  UNL d   1       2.974   5.189  -5.780  0.00  0.00    -0.001 A 
ATOM      4  C3  UNL d   1       4.330   4.940  -5.998  0.00  0.00     0.003 A 
ATOM      5  C4  UNL d   1       4.905   3.755  -5.545  0.00  0.00    -0.005 A 
ATOM      6  C5  UNL d   1       4.124   2.816  -4.875  0.00  0.00     0.003 A 
ATOM      7  C6  UNL d   1       2.768   3.063  -4.655  0.00  0.00    -0.001 A 
ENDROOT
TORSDOF 0
ENDMDL
