MODEL 1
REMARK minimizedAffinity -3.07337809
REMARK minimizedRMSD -1
REMARK  0 active torsions:
REMARK  status: ('A' for Active; 'I' for Inactive)
ROOT
ATOM      1  C   UNL d   1       1.771   5.797  -5.627  0.00  0.00     0.078 C 
ATOM      2  C1  UNL d   1       3.039   5.001  -5.698  0.00  0.00    -0.077 A 
ATOM      3  C2  UNL d   1       4.272   5.626  -5.926  0.00  0.00    -0.001 A 
ATOM      4  C3  UNL d   1       5.443   4.871  -5.998  0.00  0.00     0.003 A 
ATOM      5  C4  UNL d   1       5.394   3.487  -5.845  0.00  0.00    -0.005 A 
ATOM      6  C5  UNL d   1       4.173   2.856  -5.620  0.00  0.00     0.003 A 
ATOM      7  C6  UNL d   1       3.000   3.609  -5.547  0.00  0.00    -0.001 A 
ENDROOT
TORSDOF 0
ENDMDL
