MODEL 1
REMARK minimizedAffinity -2.93087482
REMARK minimizedRMSD -1
REMARK  0 active torsions:
REMARK  status: ('A' for Active; 'I' for Inactive)
ROOT
ATOM      1  C   UNL d   1       0.926   3.864  -5.628  0.00  0.00     0.078 C 
ATOM      2  C1  UNL d   1       2.425   3.815  -5.615  0.00  0.00    -0.077 A 
ATOM      3  C2  UNL d   1       3.105   2.661  -5.210  0.00  0.00    -0.001 A 
ATOM      4  C3  UNL d   1       4.501   2.633  -5.193  0.00  0.00     0.003 A 
ATOM      5  C4  UNL d   1       5.227   3.757  -5.580  0.00  0.00    -0.005 A 
ATOM      6  C5  UNL d   1       4.559   4.911  -5.983  0.00  0.00     0.003 A 
ATOM      7  C6  UNL d   1       3.164   4.941  -6.000  0.00  0.00    -0.001 A 
ENDROOT
TORSDOF 0
ENDMDL
