MODEL 1
REMARK minimizedAffinity 1.85241067
REMARK minimizedRMSD -1
REMARK  0 active torsions:
REMARK  status: ('A' for Active; 'I' for Inactive)
ROOT
ATOM      1  C   UNL d   1       3.766   1.552  -5.954  0.00  0.00     0.078 C 
ATOM      2  C1  UNL d   1       3.043   2.811  -5.578  0.00  0.00    -0.077 A 
ATOM      3  C2  UNL d   1       1.728   3.041  -5.999  0.00  0.00    -0.001 A 
ATOM      4  C3  UNL d   1       1.071   4.222  -5.650  0.00  0.00     0.003 A 
ATOM      5  C4  UNL d   1       1.722   5.184  -4.881  0.00  0.00    -0.005 A 
ATOM      6  C5  UNL d   1       3.033   4.965  -4.460  0.00  0.00     0.003 A 
ATOM      7  C6  UNL d   1       3.691   3.785  -4.807  0.00  0.00    -0.001 A 
ENDROOT
TORSDOF 0
ENDMDL
