MODEL 1
REMARK minimizedAffinity -1.59932017
REMARK minimizedRMSD -1
REMARK  0 active torsions:
REMARK  status: ('A' for Active; 'I' for Inactive)
ROOT
ATOM      1  C   UNL d   1       0.755   4.128  -5.515  0.00  0.00     0.078 C 
ATOM      2  C1  UNL d   1       2.221   3.857  -5.673  0.00  0.00    -0.077 A 
ATOM      3  C2  UNL d   1       3.134   4.905  -5.844  0.00  0.00    -0.001 A 
ATOM      4  C3  UNL d   1       4.495   4.638  -5.999  0.00  0.00     0.003 A 
ATOM      5  C4  UNL d   1       4.956   3.323  -5.987  0.00  0.00    -0.005 A 
ATOM      6  C5  UNL d   1       4.055   2.273  -5.820  0.00  0.00     0.003 A 
ATOM      7  C6  UNL d   1       2.693   2.538  -5.665  0.00  0.00    -0.001 A 
ENDROOT
TORSDOF 0
ENDMDL
