MODEL 1
REMARK minimizedAffinity -3.56708002
REMARK minimizedRMSD -1
REMARK  0 active torsions:
REMARK  status: ('A' for Active; 'I' for Inactive)
ROOT
ATOM      1  C   UNL d   1       1.583   4.638  -4.861  0.00  0.00     0.078 C 
ATOM      2  C1  UNL d   1       2.978   4.230  -5.228  0.00  0.00    -0.077 A 
ATOM      3  C2  UNL d   1       3.924   5.179  -5.635  0.00  0.00    -0.001 A 
ATOM      4  C3  UNL d   1       5.217   4.783  -5.983  0.00  0.00     0.003 A 
ATOM      5  C4  UNL d   1       5.575   3.438  -5.929  0.00  0.00    -0.005 A 
ATOM      6  C5  UNL d   1       4.640   2.486  -5.528  0.00  0.00     0.003 A 
ATOM      7  C6  UNL d   1       3.347   2.879  -5.179  0.00  0.00    -0.001 A 
ENDROOT
TORSDOF 0
ENDMDL
