MODEL 1
REMARK minimizedAffinity -2.88830066
REMARK minimizedRMSD -1
REMARK  0 active torsions:
REMARK  status: ('A' for Active; 'I' for Inactive)
ROOT
ATOM      1  C   UNL d   1       0.777   4.127  -5.626  0.00  0.00     0.078 C 
ATOM      2  C1  UNL d   1       2.277   4.130  -5.625  0.00  0.00    -0.077 A 
ATOM      3  C2  UNL d   1       2.996   5.273  -5.995  0.00  0.00    -0.001 A 
ATOM      4  C3  UNL d   1       4.391   5.259  -6.000  0.00  0.00     0.003 A 
ATOM      5  C4  UNL d   1       5.080   4.103  -5.636  0.00  0.00    -0.005 A 
ATOM      6  C5  UNL d   1       4.373   2.960  -5.268  0.00  0.00     0.003 A 
ATOM      7  C6  UNL d   1       2.978   2.973  -5.263  0.00  0.00    -0.001 A 
ENDROOT
TORSDOF 0
ENDMDL
