MODEL 1
REMARK minimizedAffinity -2.73923659
REMARK minimizedRMSD -1
REMARK  0 active torsions:
REMARK  status: ('A' for Active; 'I' for Inactive)
ROOT
ATOM      1  C   UNL d   1       4.139   1.759  -4.528  0.00  0.00     0.078 C 
ATOM      2  C1  UNL d   1       3.683   3.090  -5.047  0.00  0.00    -0.077 A 
ATOM      3  C2  UNL d   1       4.604   4.029  -5.529  0.00  0.00    -0.001 A 
ATOM      4  C3  UNL d   1       4.166   5.268  -6.000  0.00  0.00     0.003 A 
ATOM      5  C4  UNL d   1       2.808   5.580  -5.993  0.00  0.00    -0.005 A 
ATOM      6  C5  UNL d   1       1.885   4.652  -5.514  0.00  0.00     0.003 A 
ATOM      7  C6  UNL d   1       2.321   3.413  -5.042  0.00  0.00    -0.001 A 
ENDROOT
TORSDOF 0
ENDMDL
