MODEL 1
REMARK minimizedAffinity -3.75772619
REMARK minimizedRMSD -1
REMARK  0 active torsions:
REMARK  status: ('A' for Active; 'I' for Inactive)
ROOT
ATOM      1  C   UNL d   1       0.740   4.529  -5.617  0.00  0.00     0.078 C 
ATOM      2  C1  UNL d   1       2.202   4.194  -5.617  0.00  0.00    -0.077 A 
ATOM      3  C2  UNL d   1       2.651   2.924  -5.233  0.00  0.00    -0.001 A 
ATOM      4  C3  UNL d   1       4.015   2.630  -5.229  0.00  0.00     0.003 A 
ATOM      5  C4  UNL d   1       4.942   3.600  -5.606  0.00  0.00    -0.005 A 
ATOM      6  C5  UNL d   1       4.505   4.867  -5.988  0.00  0.00     0.003 A 
ATOM      7  C6  UNL d   1       3.141   5.163  -5.993  0.00  0.00    -0.001 A 
ENDROOT
TORSDOF 0
ENDMDL
