MODEL 1
REMARK minimizedAffinity -2.922328
REMARK minimizedRMSD -1
REMARK  0 active torsions:
REMARK  status: ('A' for Active; 'I' for Inactive)
ROOT
ATOM      1  C   UNL d   1       3.768   2.042  -5.360  0.00  0.00     0.078 C 
ATOM      2  C1  UNL d   1       3.231   3.423  -5.589  0.00  0.00    -0.077 A 
ATOM      3  C2  UNL d   1       4.083   4.534  -5.606  0.00  0.00    -0.001 A 
ATOM      4  C3  UNL d   1       3.568   5.815  -5.811  0.00  0.00     0.003 A 
ATOM      5  C4  UNL d   1       2.199   5.997  -6.000  0.00  0.00    -0.005 A 
ATOM      6  C5  UNL d   1       1.344   4.897  -5.983  0.00  0.00     0.003 A 
ATOM      7  C6  UNL d   1       1.857   3.616  -5.778  0.00  0.00    -0.001 A 
ENDROOT
TORSDOF 0
ENDMDL
