MODEL 1
REMARK minimizedAffinity -3.57649398
REMARK minimizedRMSD -1
REMARK  0 active torsions:
REMARK  status: ('A' for Active; 'I' for Inactive)
ROOT
ATOM      1  C   UNL d   1       5.011   1.940  -6.000  0.00  0.00     0.078 C 
ATOM      2  C1  UNL d   1       4.138   3.112  -5.666  0.00  0.00    -0.077 A 
ATOM      3  C2  UNL d   1       2.777   3.115  -5.997  0.00  0.00    -0.001 A 
ATOM      4  C3  UNL d   1       1.978   4.217  -5.689  0.00  0.00     0.003 A 
ATOM      5  C4  UNL d   1       2.530   5.324  -5.048  0.00  0.00    -0.005 A 
ATOM      6  C5  UNL d   1       3.883   5.331  -4.717  0.00  0.00     0.003 A 
ATOM      7  C6  UNL d   1       4.684   4.230  -5.024  0.00  0.00    -0.001 A 
ENDROOT
TORSDOF 0
ENDMDL
