MODEL 1
REMARK minimizedAffinity -2.69909406
REMARK minimizedRMSD -1
REMARK  0 active torsions:
REMARK  status: ('A' for Active; 'I' for Inactive)
ROOT
ATOM      1  C   UNL d   1       1.882   4.501  -4.875  0.00  0.00     0.078 C 
ATOM      2  C1  UNL d   1       3.306   4.227  -5.259  0.00  0.00    -0.077 A 
ATOM      3  C2  UNL d   1       4.260   5.252  -5.271  0.00  0.00    -0.001 A 
ATOM      4  C3  UNL d   1       5.579   4.984  -5.639  0.00  0.00     0.003 A 
ATOM      5  C4  UNL d   1       5.956   3.692  -6.000  0.00  0.00    -0.005 A 
ATOM      6  C5  UNL d   1       5.014   2.666  -5.993  0.00  0.00     0.003 A 
ATOM      7  C6  UNL d   1       3.694   2.932  -5.625  0.00  0.00    -0.001 A 
ENDROOT
TORSDOF 0
ENDMDL
