MODEL 1
REMARK minimizedAffinity -1.57911241
REMARK minimizedRMSD -1
REMARK  0 active torsions:
REMARK  status: ('A' for Active; 'I' for Inactive)
ROOT
ATOM      1  C   UNL d   1       4.042   1.690  -5.974  0.00  0.00     0.078 C 
ATOM      2  C1  UNL d   1       3.900   3.183  -5.990  0.00  0.00    -0.077 A 
ATOM      3  C2  UNL d   1       5.027   4.014  -5.992  0.00  0.00    -0.001 A 
ATOM      4  C3  UNL d   1       4.881   5.402  -5.997  0.00  0.00     0.003 A 
ATOM      5  C4  UNL d   1       3.609   5.971  -6.000  0.00  0.00    -0.005 A 
ATOM      6  C5  UNL d   1       2.481   5.152  -5.996  0.00  0.00     0.003 A 
ATOM      7  C6  UNL d   1       2.626   3.764  -5.991  0.00  0.00    -0.001 A 
ENDROOT
TORSDOF 0
ENDMDL
