MODEL 1
REMARK minimizedAffinity 6.17349243
REMARK minimizedRMSD -1
REMARK  0 active torsions:
REMARK  status: ('A' for Active; 'I' for Inactive)
ROOT
ATOM      1  C   UNL d   1      -0.334  -5.163  -5.999  0.00  0.00     0.078 C 
ATOM      2  C1  UNL d   1      -0.996  -4.027  -5.278  0.00  0.00    -0.077 A 
ATOM      3  C2  UNL d   1      -1.165  -4.055  -3.889  0.00  0.00    -0.001 A 
ATOM      4  C3  UNL d   1      -1.791  -2.995  -3.232  0.00  0.00     0.003 A 
ATOM      5  C4  UNL d   1      -2.255  -1.899  -3.957  0.00  0.00    -0.005 A 
ATOM      6  C5  UNL d   1      -2.093  -1.863  -5.341  0.00  0.00     0.003 A 
ATOM      7  C6  UNL d   1      -1.467  -2.922  -5.999  0.00  0.00    -0.001 A 
ENDROOT
TORSDOF 0
ENDMDL
