MODEL 1
REMARK minimizedAffinity 4.30532742
REMARK minimizedRMSD -1
REMARK  1 active torsions:
REMARK  status: ('A' for Active; 'I' for Inactive)
REMARK    1  A    between atoms: C1_2  and  C2_3 
ROOT
ATOM      1  C2  UNL d   1      -4.112   3.691  -4.807  0.00  0.00    -0.077 A 
ATOM      2  C3  UNL d   1      -3.843   4.821  -4.022  0.00  0.00     0.002 A 
ATOM      3  C4  UNL d   1      -4.626   5.970  -4.146  0.00  0.00     0.002 A 
ATOM      4  C5  UNL d   1      -5.685   5.999  -5.051  0.00  0.00    -0.004 A 
ATOM      5  C6  UNL d   1      -5.959   4.881  -5.838  0.00  0.00     0.002 A 
ATOM      6  C7  UNL d   1      -5.177   3.732  -5.716  0.00  0.00     0.002 A 
ENDROOT
BRANCH   1   7
ATOM      7  C1  UNL d   1      -3.299   2.434  -4.639  0.00  0.00     0.055 C 
ATOM      8  C   UNL d   1      -3.866   1.552  -3.537  0.00  0.00     0.019 C 
ENDBRANCH   1   7
TORSDOF 1
ENDMDL
