MODEL 1
REMARK minimizedAffinity 0.27501142
REMARK minimizedRMSD -1
REMARK  1 active torsions:
REMARK  status: ('A' for Active; 'I' for Inactive)
REMARK    1  A    between atoms: C1_2  and  C2_3 
ROOT
ATOM      1  C2  UNL d   1       1.780  -1.843   1.686  0.00  0.00    -0.077 A 
ATOM      2  C3  UNL d   1       1.374  -3.141   2.024  0.00  0.00     0.002 A 
ATOM      3  C4  UNL d   1       0.206  -3.347   2.761  0.00  0.00     0.002 A 
ATOM      4  C5  UNL d   1      -0.567  -2.260   3.163  0.00  0.00    -0.004 A 
ATOM      5  C6  UNL d   1      -0.170  -0.964   2.834  0.00  0.00     0.002 A 
ATOM      6  C7  UNL d   1       0.997  -0.756   2.098  0.00  0.00     0.002 A 
ENDROOT
BRANCH   1   7
ATOM      7  C1  UNL d   1       3.012  -1.621   0.849  0.00  0.00     0.055 C 
ATOM      8  C   UNL d   1       2.802  -2.096  -0.582  0.00  0.00     0.019 C 
ENDBRANCH   1   7
TORSDOF 1
ENDMDL
