MODEL 1
REMARK minimizedAffinity 2.65529585
REMARK minimizedRMSD -1
REMARK  1 active torsions:
REMARK  status: ('A' for Active; 'I' for Inactive)
REMARK    1  A    between atoms: C1_2  and  C2_3 
ROOT
ATOM      1  C2  UNL d   1       1.569  -1.266   1.347  0.00  0.00    -0.077 A 
ATOM      2  C3  UNL d   1       0.183  -1.475   1.314  0.00  0.00     0.002 A 
ATOM      3  C4  UNL d   1      -0.601  -1.188   2.433  0.00  0.00     0.002 A 
ATOM      4  C5  UNL d   1      -0.010  -0.687   3.591  0.00  0.00    -0.004 A 
ATOM      5  C6  UNL d   1       1.368  -0.478   3.634  0.00  0.00     0.002 A 
ATOM      6  C7  UNL d   1       2.154  -0.765   2.518  0.00  0.00     0.002 A 
ENDROOT
BRANCH   1   7
ATOM      7  C1  UNL d   1       2.410  -1.528   0.126  0.00  0.00     0.055 C 
ATOM      8  C   UNL d   1       1.682  -1.118  -1.146  0.00  0.00     0.019 C 
ENDBRANCH   1   7
TORSDOF 1
ENDMDL
