MODEL 1
REMARK minimizedAffinity 1.6498723
REMARK minimizedRMSD -1
REMARK  1 active torsions:
REMARK  status: ('A' for Active; 'I' for Inactive)
REMARK    1  A    between atoms: C1_2  and  C2_3 
ROOT
ATOM      1  C2  UNL d   1       1.786  -1.584   1.653  0.00  0.00    -0.077 A 
ATOM      2  C3  UNL d   1       1.045  -0.870   0.700  0.00  0.00     0.002 A 
ATOM      3  C4  UNL d   1       1.433  -0.871  -0.641  0.00  0.00     0.002 A 
ATOM      4  C5  UNL d   1       2.558  -1.587  -1.042  0.00  0.00    -0.004 A 
ATOM      5  C6  UNL d   1       3.302  -2.299  -0.102  0.00  0.00     0.002 A 
ATOM      6  C7  UNL d   1       2.917  -2.298   1.239  0.00  0.00     0.002 A 
ENDROOT
BRANCH   1   7
ATOM      7  C1  UNL d   1       1.341  -1.624   3.092  0.00  0.00     0.055 C 
ATOM      8  C   UNL d   1      -0.096  -1.146   3.241  0.00  0.00     0.019 C 
ENDBRANCH   1   7
TORSDOF 1
ENDMDL
