MODEL 1
REMARK minimizedAffinity 8.17792892
REMARK minimizedRMSD -1
REMARK  1 active torsions:
REMARK  status: ('A' for Active; 'I' for Inactive)
REMARK    1  A    between atoms: C1_2  and  C2_3 
ROOT
ATOM      1  C2  UNL d   1      -0.202   0.040   3.142  0.00  0.00    -0.077 A 
ATOM      2  C3  UNL d   1       1.071  -0.198   3.679  0.00  0.00     0.002 A 
ATOM      3  C4  UNL d   1       1.985  -1.005   2.999  0.00  0.00     0.002 A 
ATOM      4  C5  UNL d   1       1.636  -1.578   1.777  0.00  0.00    -0.004 A 
ATOM      5  C6  UNL d   1       0.372  -1.349   1.236  0.00  0.00     0.002 A 
ATOM      6  C7  UNL d   1      -0.543  -0.543   1.915  0.00  0.00     0.002 A 
ENDROOT
BRANCH   1   7
ATOM      7  C1  UNL d   1      -1.171   0.950   3.851  0.00  0.00     0.055 C 
ATOM      8  C   UNL d   1      -2.406   1.213   3.001  0.00  0.00     0.019 C 
ENDBRANCH   1   7
TORSDOF 1
ENDMDL
