MODEL 1
REMARK minimizedAffinity 7.84960604
REMARK minimizedRMSD -1
REMARK  1 active torsions:
REMARK  status: ('A' for Active; 'I' for Inactive)
REMARK    1  A    between atoms: C1_2  and  C2_3 
ROOT
ATOM      1  C2  UNL d   1      -1.227   0.196   3.805  0.00  0.00    -0.077 A 
ATOM      2  C3  UNL d   1      -2.518   0.091   4.342  0.00  0.00     0.002 A 
ATOM      3  C4  UNL d   1      -3.333   1.220   4.446  0.00  0.00     0.002 A 
ATOM      4  C5  UNL d   1      -2.868   2.460   4.012  0.00  0.00    -0.004 A 
ATOM      5  C6  UNL d   1      -1.585   2.575   3.479  0.00  0.00     0.002 A 
ATOM      6  C7  UNL d   1      -0.769   1.448   3.375  0.00  0.00     0.002 A 
ENDROOT
BRANCH   1   7
ATOM      7  C1  UNL d   1      -0.364  -1.028   3.646  0.00  0.00     0.055 C 
ATOM      8  C   UNL d   1      -0.085  -1.322   2.179  0.00  0.00     0.019 C 
ENDBRANCH   1   7
TORSDOF 1
ENDMDL
