MODEL 1
REMARK minimizedAffinity 5.86243725
REMARK minimizedRMSD -1
REMARK  1 active torsions:
REMARK  status: ('A' for Active; 'I' for Inactive)
REMARK    1  A    between atoms: C1_2  and  C2_3 
ROOT
ATOM      1  C2  UNL d   1       1.353  -1.487   2.233  0.00  0.00    -0.077 A 
ATOM      2  C3  UNL d   1       0.984  -0.860   3.432  0.00  0.00     0.002 A 
ATOM      3  C4  UNL d   1      -0.248  -0.213   3.541  0.00  0.00     0.002 A 
ATOM      4  C5  UNL d   1      -1.123  -0.190   2.457  0.00  0.00    -0.004 A 
ATOM      5  C6  UNL d   1      -0.765  -0.809   1.260  0.00  0.00     0.002 A 
ATOM      6  C7  UNL d   1       0.467  -1.455   1.148  0.00  0.00     0.002 A 
ENDROOT
BRANCH   1   7
ATOM      7  C1  UNL d   1       2.661  -2.227   2.129  0.00  0.00     0.055 C 
ATOM      8  C   UNL d   1       3.054  -2.454   0.677  0.00  0.00     0.019 C 
ENDBRANCH   1   7
TORSDOF 1
ENDMDL
