MODEL 1
REMARK minimizedAffinity 8.31769371
REMARK minimizedRMSD -1
REMARK  1 active torsions:
REMARK  status: ('A' for Active; 'I' for Inactive)
REMARK    1  A    between atoms: C1_2  and  C2_3 
ROOT
ATOM      1  C2  UNL d   1       0.606  -0.946   1.133  0.00  0.00    -0.077 A 
ATOM      2  C3  UNL d   1      -0.594  -0.222   1.180  0.00  0.00     0.002 A 
ATOM      3  C4  UNL d   1      -1.289  -0.084   2.383  0.00  0.00     0.002 A 
ATOM      4  C5  UNL d   1      -0.791  -0.664   3.548  0.00  0.00    -0.004 A 
ATOM      5  C6  UNL d   1       0.400  -1.388   3.511  0.00  0.00     0.002 A 
ATOM      6  C7  UNL d   1       1.096  -1.528   2.309  0.00  0.00     0.002 A 
ENDROOT
BRANCH   1   7
ATOM      7  C1  UNL d   1       1.382  -1.054  -0.153  0.00  0.00     0.055 C 
ATOM      8  C   UNL d   1       2.754  -1.672   0.078  0.00  0.00     0.019 C 
ENDBRANCH   1   7
TORSDOF 1
ENDMDL
