MODEL 1
REMARK minimizedAffinity -1.90640414
REMARK minimizedRMSD -1
REMARK  0 active torsions:
REMARK  status: ('A' for Active; 'I' for Inactive)
ROOT
ATOM      1  C   UNL d   1       0.635  -0.625  -1.649  0.00  0.00     0.124 A 
ATOM      2  C1  UNL d   1       0.394  -1.434  -0.547  0.00  0.00     0.062 A 
ATOM      3  C2  UNL d   1      -0.495  -1.022   0.442  0.00  0.00     0.162 A 
ATOM      4  C3  UNL d   1      -1.151   0.204   0.332  0.00  0.00    -0.034 A 
ATOM      5  C4  UNL d   1      -0.903   1.012  -0.779  0.00  0.00     0.162 A 
ATOM      6  C5  UNL d   1      -0.013   0.596  -1.764  0.00  0.00     0.062 A 
ATOM      7  F   UNL d   1       0.219   1.378  -2.828  0.00  0.00    -0.097 F 
ATOM      8  F1  UNL d   1      -1.516   2.197  -0.916  0.00  0.00    -0.096 F 
ATOM      9  I   UNL d   1      -2.481   0.824   1.808  0.00  0.00    -0.060 I 
ATOM     10  F2  UNL d   1      -0.709  -1.823   1.496  0.00  0.00    -0.096 F 
ATOM     11  F3  UNL d   1       1.019  -2.614  -0.433  0.00  0.00    -0.097 F 
ATOM     12  F4  UNL d   1       1.492  -1.024  -2.598  0.00  0.00    -0.092 F 
ENDROOT
TORSDOF 0
ENDMDL
