MODEL 1
REMARK minimizedAffinity -2.65013266
REMARK minimizedRMSD -1
REMARK  0 active torsions:
REMARK  status: ('A' for Active; 'I' for Inactive)
ROOT
ATOM      1  C   UNL d   1       1.822  -1.148  -2.449  0.00  0.00     0.124 A 
ATOM      2  C1  UNL d   1       1.529  -2.101  -1.483  0.00  0.00     0.062 A 
ATOM      3  C2  UNL d   1       0.661  -1.796  -0.439  0.00  0.00     0.162 A 
ATOM      4  C3  UNL d   1       0.078  -0.531  -0.355  0.00  0.00    -0.034 A 
ATOM      5  C4  UNL d   1       0.379   0.422  -1.329  0.00  0.00     0.162 A 
ATOM      6  C5  UNL d   1       1.247   0.112  -2.371  0.00  0.00     0.062 A 
ATOM      7  F   UNL d   1       1.530   1.035  -3.303  0.00  0.00    -0.097 F 
ATOM      8  F1  UNL d   1      -0.163   1.648  -1.279  0.00  0.00    -0.096 F 
ATOM      9  I   UNL d   1      -1.220  -0.071   1.205  0.00  0.00    -0.060 I 
ATOM     10  F2  UNL d   1       0.395  -2.737   0.480  0.00  0.00    -0.096 F 
ATOM     11  F3  UNL d   1       2.084  -3.320  -1.556  0.00  0.00    -0.097 F 
ATOM     12  F4  UNL d   1       2.658  -1.445  -3.452  0.00  0.00    -0.092 F 
ENDROOT
TORSDOF 0
ENDMDL
