MODEL 1
REMARK minimizedAffinity -0.819888115
REMARK minimizedRMSD -1
REMARK  0 active torsions:
REMARK  status: ('A' for Active; 'I' for Inactive)
ROOT
ATOM      1  C   UNL d   1       1.173  -1.427  -1.863  0.00  0.00     0.124 A 
ATOM      2  C1  UNL d   1       0.887  -2.250  -0.783  0.00  0.00     0.062 A 
ATOM      3  C2  UNL d   1       0.120  -1.775   0.277  0.00  0.00     0.162 A 
ATOM      4  C3  UNL d   1      -0.368  -0.468   0.261  0.00  0.00    -0.034 A 
ATOM      5  C4  UNL d   1      -0.076   0.355  -0.828  0.00  0.00     0.162 A 
ATOM      6  C5  UNL d   1       0.691  -0.125  -1.884  0.00  0.00     0.062 A 
ATOM      7  F   UNL d   1       0.966   0.672  -2.927  0.00  0.00    -0.097 F 
ATOM      8  F1  UNL d   1      -0.530   1.616  -0.875  0.00  0.00    -0.096 F 
ATOM      9  I   UNL d   1      -1.516   0.247   1.844  0.00  0.00    -0.060 I 
ATOM     10  F2  UNL d   1      -0.140  -2.593   1.308  0.00  0.00    -0.096 F 
ATOM     11  F3  UNL d   1       1.352  -3.508  -0.759  0.00  0.00    -0.097 F 
ATOM     12  F4  UNL d   1       1.912  -1.886  -2.880  0.00  0.00    -0.092 F 
ENDROOT
TORSDOF 0
ENDMDL
