MODEL 1
REMARK minimizedAffinity -1.76685679
REMARK minimizedRMSD -1
REMARK  0 active torsions:
REMARK  status: ('A' for Active; 'I' for Inactive)
ROOT
ATOM      1  C   UNL d   1       2.393  -0.780  -1.915  0.00  0.00     0.124 A 
ATOM      2  C1  UNL d   1       1.517  -1.820  -1.633  0.00  0.00     0.062 A 
ATOM      3  C2  UNL d   1       0.372  -1.585  -0.878  0.00  0.00     0.162 A 
ATOM      4  C3  UNL d   1       0.094  -0.304  -0.400  0.00  0.00    -0.034 A 
ATOM      5  C4  UNL d   1       0.980   0.736  -0.687  0.00  0.00     0.162 A 
ATOM      6  C5  UNL d   1       2.123   0.496  -1.442  0.00  0.00     0.062 A 
ATOM      7  F   UNL d   1       2.968   1.502  -1.714  0.00  0.00    -0.097 F 
ATOM      8  F1  UNL d   1       0.743   1.980  -0.244  0.00  0.00    -0.096 F 
ATOM      9  I   UNL d   1      -1.618   0.052   0.729  0.00  0.00    -0.060 I 
ATOM     10  F2  UNL d   1      -0.456  -2.608  -0.621  0.00  0.00    -0.096 F 
ATOM     11  F3  UNL d   1       1.776  -3.054  -2.087  0.00  0.00    -0.097 F 
ATOM     12  F4  UNL d   1       3.495  -1.009  -2.640  0.00  0.00    -0.092 F 
ENDROOT
TORSDOF 0
ENDMDL
