MODEL 1
REMARK minimizedAffinity -3.08782029
REMARK minimizedRMSD -1
REMARK  0 active torsions:
REMARK  status: ('A' for Active; 'I' for Inactive)
ROOT
ATOM      1  C   UNL d   1       1.260  -2.094  -1.266  0.00  0.00     0.124 A 
ATOM      2  C1  UNL d   1       1.614  -1.126  -2.196  0.00  0.00     0.062 A 
ATOM      3  C2  UNL d   1       1.446   0.224  -1.901  0.00  0.00     0.162 A 
ATOM      4  C3  UNL d   1       0.920   0.614  -0.669  0.00  0.00    -0.034 A 
ATOM      5  C4  UNL d   1       0.565  -0.364   0.261  0.00  0.00     0.162 A 
ATOM      6  C5  UNL d   1       0.736  -1.712  -0.039  0.00  0.00     0.062 A 
ATOM      7  F   UNL d   1       0.392  -2.645   0.861  0.00  0.00    -0.097 F 
ATOM      8  F1  UNL d   1       0.057  -0.023   1.454  0.00  0.00    -0.096 F 
ATOM      9  I   UNL d   1       0.667   2.632  -0.224  0.00  0.00    -0.060 I 
ATOM     10  F2  UNL d   1       1.797   1.137  -2.819  0.00  0.00    -0.096 F 
ATOM     11  F3  UNL d   1       2.120  -1.492  -3.383  0.00  0.00    -0.097 F 
ATOM     12  F4  UNL d   1       1.422  -3.392  -1.553  0.00  0.00    -0.092 F 
ENDROOT
TORSDOF 0
ENDMDL
