MODEL 1
REMARK minimizedAffinity -5.35405016
REMARK minimizedRMSD -1
REMARK  0 active torsions:
REMARK  status: ('A' for Active; 'I' for Inactive)
ROOT
ATOM      1  C   UNL d   1       1.552  -0.874  -2.054  0.00  0.00     0.124 A 
ATOM      2  C1  UNL d   1       0.779   0.259  -2.270  0.00  0.00     0.062 A 
ATOM      3  C2  UNL d   1      -0.221   0.607  -1.366  0.00  0.00     0.162 A 
ATOM      4  C3  UNL d   1      -0.453  -0.179  -0.237  0.00  0.00    -0.034 A 
ATOM      5  C4  UNL d   1       0.328  -1.317  -0.027  0.00  0.00     0.162 A 
ATOM      6  C5  UNL d   1       1.326  -1.660  -0.933  0.00  0.00     0.062 A 
ATOM      7  F   UNL d   1       2.072  -2.754  -0.723  0.00  0.00    -0.097 F 
ATOM      8  F1  UNL d   1       0.132  -2.094   1.049  0.00  0.00    -0.096 F 
ATOM      9  I   UNL d   1      -1.947   0.338   1.117  0.00  0.00    -0.060 I 
ATOM     10  F2  UNL d   1      -0.953   1.706  -1.600  0.00  0.00    -0.096 F 
ATOM     11  F3  UNL d   1       0.994   1.020  -3.353  0.00  0.00    -0.097 F 
ATOM     12  F4  UNL d   1       2.512  -1.207  -2.926  0.00  0.00    -0.092 F 
ENDROOT
TORSDOF 0
ENDMDL
