MODEL 1
REMARK minimizedAffinity -4.3001833
REMARK minimizedRMSD -1
REMARK  0 active torsions:
REMARK  status: ('A' for Active; 'I' for Inactive)
ROOT
ATOM      1  C   UNL d   1      -3.116   0.829   1.812  0.00  0.00     0.124 A 
ATOM      2  C1  UNL d   1      -3.019   1.448   0.574  0.00  0.00     0.062 A 
ATOM      3  C2  UNL d   1      -1.871   1.295  -0.198  0.00  0.00     0.162 A 
ATOM      4  C3  UNL d   1      -0.810   0.518   0.266  0.00  0.00    -0.034 A 
ATOM      5  C4  UNL d   1      -0.914  -0.101   1.513  0.00  0.00     0.162 A 
ATOM      6  C5  UNL d   1      -2.064   0.055   2.281  0.00  0.00     0.062 A 
ATOM      7  F   UNL d   1      -2.155  -0.544   3.477  0.00  0.00    -0.097 F 
ATOM      8  F1  UNL d   1       0.088  -0.855   1.990  0.00  0.00    -0.096 F 
ATOM      9  I   UNL d   1       0.909   0.286  -0.885  0.00  0.00    -0.060 I 
ATOM     10  F2  UNL d   1      -1.806   1.905  -1.391  0.00  0.00    -0.096 F 
ATOM     11  F3  UNL d   1      -4.035   2.197   0.119  0.00  0.00    -0.097 F 
ATOM     12  F4  UNL d   1      -4.221   0.979   2.553  0.00  0.00    -0.092 F 
ENDROOT
TORSDOF 0
ENDMDL
