MODEL 1
REMARK minimizedAffinity -4.63419914
REMARK minimizedRMSD -1
REMARK  0 active torsions:
REMARK  status: ('A' for Active; 'I' for Inactive)
ROOT
ATOM      1  C   UNL d   1      -1.568   0.055   1.599  0.00  0.00     0.124 A 
ATOM      2  C1  UNL d   1      -1.801   1.033   0.641  0.00  0.00     0.062 A 
ATOM      3  C2  UNL d   1      -0.950   1.158  -0.453  0.00  0.00     0.162 A 
ATOM      4  C3  UNL d   1       0.142   0.302  -0.597  0.00  0.00    -0.034 A 
ATOM      5  C4  UNL d   1       0.371  -0.678   0.370  0.00  0.00     0.162 A 
ATOM      6  C5  UNL d   1      -0.482  -0.799   1.462  0.00  0.00     0.062 A 
ATOM      7  F   UNL d   1      -0.256  -1.744   2.386  0.00  0.00    -0.097 F 
ATOM      8  F1  UNL d   1       1.411  -1.517   0.263  0.00  0.00    -0.096 F 
ATOM      9  I   UNL d   1       1.417   0.486  -2.232  0.00  0.00    -0.060 I 
ATOM     10  F2  UNL d   1      -1.199   2.112  -1.363  0.00  0.00    -0.096 F 
ATOM     11  F3  UNL d   1      -2.848   1.860   0.771  0.00  0.00    -0.097 F 
ATOM     12  F4  UNL d   1      -2.387  -0.062   2.651  0.00  0.00    -0.092 F 
ENDROOT
TORSDOF 0
ENDMDL
