MODEL 1
REMARK minimizedAffinity -1.48751986
REMARK minimizedRMSD -1
REMARK  0 active torsions:
REMARK  status: ('A' for Active; 'I' for Inactive)
ROOT
ATOM      1  C   UNL d   1       0.194   0.431   0.991  0.00  0.00     0.124 A 
ATOM      2  C1  UNL d   1       0.013  -0.853   0.494  0.00  0.00     0.062 A 
ATOM      3  C2  UNL d   1       0.563  -1.212  -0.733  0.00  0.00     0.162 A 
ATOM      4  C3  UNL d   1       1.301  -0.287  -1.471  0.00  0.00    -0.034 A 
ATOM      5  C4  UNL d   1       1.478   1.002  -0.966  0.00  0.00     0.162 A 
ATOM      6  C5  UNL d   1       0.926   1.357   0.261  0.00  0.00     0.062 A 
ATOM      7  F   UNL d   1       1.101   2.597   0.740  0.00  0.00    -0.097 F 
ATOM      8  F1  UNL d   1       2.181   1.916  -1.650  0.00  0.00    -0.096 F 
ATOM      9  I   UNL d   1       2.125  -0.821  -3.306  0.00  0.00    -0.060 I 
ATOM     10  F2  UNL d   1       0.373  -2.459  -1.188  0.00  0.00    -0.096 F 
ATOM     11  F3  UNL d   1      -0.694  -1.749   1.197  0.00  0.00    -0.097 F 
ATOM     12  F4  UNL d   1      -0.338   0.774   2.171  0.00  0.00    -0.092 F 
ENDROOT
TORSDOF 0
ENDMDL
