MODEL 1
REMARK minimizedAffinity 3.62448168
REMARK minimizedRMSD -1
REMARK  0 active torsions:
REMARK  status: ('A' for Active; 'I' for Inactive)
ROOT
ATOM      1  C   UNL d   1      -3.287   1.111   2.281  0.00  0.00     0.124 A 
ATOM      2  C1  UNL d   1      -2.018   0.944   2.816  0.00  0.00     0.062 A 
ATOM      3  C2  UNL d   1      -1.038   0.268   2.096  0.00  0.00     0.162 A 
ATOM      4  C3  UNL d   1      -1.323  -0.246   0.830  0.00  0.00    -0.034 A 
ATOM      5  C4  UNL d   1      -2.602  -0.074   0.299  0.00  0.00     0.162 A 
ATOM      6  C5  UNL d   1      -3.578   0.602   1.023  0.00  0.00     0.062 A 
ATOM      7  F   UNL d   1      -4.805   0.762   0.505  0.00  0.00    -0.097 F 
ATOM      8  F1  UNL d   1      -2.910  -0.555  -0.915  0.00  0.00    -0.096 F 
ATOM      9  I   UNL d   1       0.140  -1.257  -0.251  0.00  0.00    -0.060 I 
ATOM     10  F2  UNL d   1       0.181   0.121   2.637  0.00  0.00    -0.096 F 
ATOM     11  F3  UNL d   1      -1.734   1.434   4.032  0.00  0.00    -0.097 F 
ATOM     12  F4  UNL d   1      -4.229   1.761   2.977  0.00  0.00    -0.092 F 
ENDROOT
TORSDOF 0
ENDMDL
