MODEL 1
REMARK minimizedAffinity -2.34529972
REMARK minimizedRMSD -1
REMARK  0 active torsions:
REMARK  status: ('A' for Active; 'I' for Inactive)
ROOT
ATOM      1  C   UNL d   1       0.668  -1.401  -0.866  0.00  0.00     0.124 A 
ATOM      2  C1  UNL d   1       1.368  -0.409  -1.538  0.00  0.00     0.062 A 
ATOM      3  C2  UNL d   1       1.481   0.864  -0.986  0.00  0.00     0.162 A 
ATOM      4  C3  UNL d   1       0.894   1.152   0.246  0.00  0.00    -0.034 A 
ATOM      5  C4  UNL d   1       0.190   0.149   0.915  0.00  0.00     0.162 A 
ATOM      6  C5  UNL d   1       0.080  -1.122   0.360  0.00  0.00     0.062 A 
ATOM      7  F   UNL d   1      -0.598  -2.079   1.010  0.00  0.00    -0.097 F 
ATOM      8  F1  UNL d   1      -0.388   0.392   2.101  0.00  0.00    -0.096 F 
ATOM      9  I   UNL d   1       1.061   3.054   1.074  0.00  0.00    -0.060 I 
ATOM     10  F2  UNL d   1       2.164   1.803  -1.658  0.00  0.00    -0.096 F 
ATOM     11  F3  UNL d   1       1.937  -0.677  -2.722  0.00  0.00    -0.097 F 
ATOM     12  F4  UNL d   1       0.560  -2.625  -1.399  0.00  0.00    -0.092 F 
ENDROOT
TORSDOF 0
ENDMDL
