MODEL 1
REMARK minimizedAffinity -3.75652981
REMARK minimizedRMSD -1
REMARK  0 active torsions:
REMARK  status: ('A' for Active; 'I' for Inactive)
ROOT
ATOM      1  C   UNL d   1       1.259   0.339  -1.130  0.00  0.00     0.124 A 
ATOM      2  C1  UNL d   1       0.364  -0.416  -1.876  0.00  0.00     0.062 A 
ATOM      3  C2  UNL d   1      -0.904  -0.694  -1.375  0.00  0.00     0.162 A 
ATOM      4  C3  UNL d   1      -1.286  -0.216  -0.121  0.00  0.00    -0.034 A 
ATOM      5  C4  UNL d   1      -0.380   0.541   0.623  0.00  0.00     0.162 A 
ATOM      6  C5  UNL d   1       0.886   0.817   0.118  0.00  0.00     0.062 A 
ATOM      7  F   UNL d   1       1.750   1.546   0.840  0.00  0.00    -0.097 F 
ATOM      8  F1  UNL d   1      -0.715   1.016   1.832  0.00  0.00    -0.096 F 
ATOM      9  I   UNL d   1      -3.182  -0.630   0.632  0.00  0.00    -0.060 I 
ATOM     10  F2  UNL d   1      -1.749  -1.426  -2.117  0.00  0.00    -0.096 F 
ATOM     11  F3  UNL d   1       0.722  -0.879  -3.082  0.00  0.00    -0.097 F 
ATOM     12  F4  UNL d   1       2.479   0.604  -1.615  0.00  0.00    -0.092 F 
ENDROOT
TORSDOF 0
ENDMDL
