MODEL 1
REMARK minimizedAffinity -5.04570436
REMARK minimizedRMSD -1
REMARK  0 active torsions:
REMARK  status: ('A' for Active; 'I' for Inactive)
ROOT
ATOM      1  C   UNL d   1      -3.562   0.629   1.656  0.00  0.00     0.124 A 
ATOM      2  C1  UNL d   1      -2.348   0.419   2.295  0.00  0.00     0.062 A 
ATOM      3  C2  UNL d   1      -1.186   0.244   1.549  0.00  0.00     0.162 A 
ATOM      4  C3  UNL d   1      -1.232   0.279   0.155  0.00  0.00    -0.034 A 
ATOM      5  C4  UNL d   1      -2.457   0.490  -0.480  0.00  0.00     0.162 A 
ATOM      6  C5  UNL d   1      -3.615   0.664   0.270  0.00  0.00     0.062 A 
ATOM      7  F   UNL d   1      -4.788   0.866  -0.349  0.00  0.00    -0.097 F 
ATOM      8  F1  UNL d   1      -2.537   0.529  -1.818  0.00  0.00    -0.096 F 
ATOM      9  I   UNL d   1       0.504   0.018  -0.963  0.00  0.00    -0.060 I 
ATOM     10  F2  UNL d   1      -0.026   0.043   2.193  0.00  0.00    -0.096 F 
ATOM     11  F3  UNL d   1      -2.294   0.383   3.634  0.00  0.00    -0.097 F 
ATOM     12  F4  UNL d   1      -4.679   0.796   2.376  0.00  0.00    -0.092 F 
ENDROOT
TORSDOF 0
ENDMDL
