MODEL 1
REMARK minimizedAffinity -3.31961036
REMARK minimizedRMSD -1
REMARK  0 active torsions:
REMARK  status: ('A' for Active; 'I' for Inactive)
ROOT
ATOM      1  C   UNL d   1       1.527  -0.634  -1.651  0.00  0.00     0.124 A 
ATOM      2  C1  UNL d   1       1.115   0.687  -1.540  0.00  0.00     0.062 A 
ATOM      3  C2  UNL d   1       0.126   1.037  -0.624  0.00  0.00     0.162 A 
ATOM      4  C3  UNL d   1      -0.456   0.064   0.189  0.00  0.00    -0.034 A 
ATOM      5  C4  UNL d   1      -0.037  -1.262   0.070  0.00  0.00     0.162 A 
ATOM      6  C5  UNL d   1       0.951  -1.606  -0.846  0.00  0.00     0.062 A 
ATOM      7  F   UNL d   1       1.348  -2.883  -0.953  0.00  0.00    -0.097 F 
ATOM      8  F1  UNL d   1      -0.576  -2.222   0.836  0.00  0.00    -0.096 F 
ATOM      9  I   UNL d   1      -1.934   0.584   1.559  0.00  0.00    -0.060 I 
ATOM     10  F2  UNL d   1      -0.252   2.321  -0.538  0.00  0.00    -0.096 F 
ATOM     11  F3  UNL d   1       1.669   1.629  -2.317  0.00  0.00    -0.097 F 
ATOM     12  F4  UNL d   1       2.477  -0.968  -2.534  0.00  0.00    -0.092 F 
ENDROOT
TORSDOF 0
ENDMDL
