MODEL 1
REMARK minimizedAffinity 5.46350002
REMARK minimizedRMSD -1
REMARK  1 active torsions:
REMARK  status: ('A' for Active; 'I' for Inactive)
REMARK    1  A    between atoms: C1_2  and  C2_3 
ROOT
ATOM      1  C2  UNL d   1       1.038   2.709  -3.038  0.00  0.00    -0.073 A 
ATOM      2  C3  UNL d   1       1.985   3.242  -2.156  0.00  0.00    -0.002 A 
ATOM      3  C4  UNL d   1       2.782   2.396  -1.383  0.00  0.00     0.004 A 
ATOM      4  C5  UNL d   1       2.646   1.012  -1.490  0.00  0.00    -0.004 A 
ATOM      5  C6  UNL d   1       1.713   0.461  -2.374  0.00  0.00    -0.075 A 
ATOM      6  C7  UNL d   1       1.552  -1.026  -2.499  0.00  0.00     0.076 C 
ATOM      7  C8  UNL d   1       0.914   1.317  -3.145  0.00  0.00     0.001 A 
ENDROOT
BRANCH   1   8
ATOM      8  C1  UNL d   1       0.179   3.618  -3.879  0.00  0.00     0.053 C 
ATOM      9  C   UNL d   1      -1.300   3.457  -3.565  0.00  0.00     0.018 C 
ENDBRANCH   1   8
TORSDOF 1
ENDMDL
