MODEL 1
REMARK minimizedAffinity 3.92245269
REMARK minimizedRMSD -1
REMARK  1 active torsions:
REMARK  status: ('A' for Active; 'I' for Inactive)
REMARK    1  A    between atoms: C1_2  and  C2_3 
ROOT
ATOM      1  C2  UNL d   1       1.617   0.172  -0.995  0.00  0.00    -0.073 A 
ATOM      2  C3  UNL d   1       2.554   0.931  -0.286  0.00  0.00    -0.002 A 
ATOM      3  C4  UNL d   1       2.662   2.305  -0.508  0.00  0.00     0.004 A 
ATOM      4  C5  UNL d   1       1.830   2.933  -1.435  0.00  0.00    -0.004 A 
ATOM      5  C6  UNL d   1       0.879   2.193  -2.145  0.00  0.00    -0.075 A 
ATOM      6  C7  UNL d   1      -0.021   2.854  -3.147  0.00  0.00     0.076 C 
ATOM      7  C8  UNL d   1       0.779   0.814  -1.918  0.00  0.00     0.001 A 
ENDROOT
BRANCH   1   8
ATOM      8  C1  UNL d   1       1.492  -1.310  -0.754  0.00  0.00     0.053 C 
ATOM      9  C   UNL d   1       2.046  -1.716   0.603  0.00  0.00     0.018 C 
ENDBRANCH   1   8
TORSDOF 1
ENDMDL
