MODEL 1
REMARK minimizedAffinity 5.20720863
REMARK minimizedRMSD -1
REMARK  1 active torsions:
REMARK  status: ('A' for Active; 'I' for Inactive)
REMARK    1  A    between atoms: C1_2  and  C2_3 
ROOT
ATOM      1  C2  UNL d   1      -0.290  -0.667   2.182  0.00  0.00    -0.073 A 
ATOM      2  C3  UNL d   1       0.344  -0.391   3.398  0.00  0.00    -0.002 A 
ATOM      3  C4  UNL d   1       1.715  -0.609   3.543  0.00  0.00     0.004 A 
ATOM      4  C5  UNL d   1       2.465  -1.098   2.473  0.00  0.00    -0.004 A 
ATOM      5  C6  UNL d   1       1.851  -1.368   1.246  0.00  0.00    -0.075 A 
ATOM      6  C7  UNL d   1       2.644  -1.896   0.087  0.00  0.00     0.076 C 
ATOM      7  C8  UNL d   1       0.474  -1.149   1.109  0.00  0.00     0.001 A 
ENDROOT
BRANCH   1   8
ATOM      8  C1  UNL d   1      -1.769  -0.427   2.018  0.00  0.00     0.053 C 
ATOM      9  C   UNL d   1      -2.255   0.738   2.866  0.00  0.00     0.018 C 
ENDBRANCH   1   8
TORSDOF 1
ENDMDL
