MODEL 1
REMARK minimizedAffinity -0.584332645
REMARK minimizedRMSD -1
REMARK  1 active torsions:
REMARK  status: ('A' for Active; 'I' for Inactive)
REMARK    1  A    between atoms: C1_2  and  C2_3 
ROOT
ATOM      1  C2  UNL d   1       1.653  -0.696  -1.119  0.00  0.00    -0.073 A 
ATOM      2  C3  UNL d   1       2.792  -1.505  -1.195  0.00  0.00    -0.002 A 
ATOM      3  C4  UNL d   1       3.054  -2.448  -0.201  0.00  0.00     0.004 A 
ATOM      4  C5  UNL d   1       2.177  -2.598   0.874  0.00  0.00    -0.004 A 
ATOM      5  C6  UNL d   1       1.027  -1.807   0.961  0.00  0.00    -0.075 A 
ATOM      6  C7  UNL d   1       0.075  -1.954   2.111  0.00  0.00     0.076 C 
ATOM      7  C8  UNL d   1       0.772  -0.860  -0.040  0.00  0.00     0.001 A 
ENDROOT
BRANCH   1   8
ATOM      8  C1  UNL d   1       1.363   0.320  -2.194  0.00  0.00     0.053 C 
ATOM      9  C   UNL d   1       1.314   1.736  -1.642  0.00  0.00     0.018 C 
ENDBRANCH   1   8
TORSDOF 1
ENDMDL
