MODEL 1
REMARK minimizedAffinity 10.6642895
REMARK minimizedRMSD -1
REMARK  0 active torsions:
REMARK  status: ('A' for Active; 'I' for Inactive)
ROOT
ATOM      1  O1  BZF d   1      -4.889   4.237   5.039  0.00  0.00    -0.204 OA
ATOM      2  C2  BZF d   1      -4.117   4.859   6.000  0.00  0.00     0.174 A 
ATOM      3  C3  BZF d   1      -2.862   4.364   6.000  0.00  0.00    -0.012 A 
ATOM      4  C3A BZF d   1      -2.825   3.435   4.912  0.00  0.00    -0.107 A 
ATOM      5  C4  BZF d   1      -1.847   2.634   4.395  0.00  0.00     0.055 A 
ATOM      6  C5  BZF d   1      -2.156   1.790   3.375  0.00  0.00    -0.016 A 
ATOM      7  C6  BZF d   1      -3.430   1.717   2.853  0.00  0.00     0.022 A 
ATOM      8  C7  BZF d   1      -4.432   2.496   3.330  0.00  0.00     0.029 A 
ATOM      9  C7A BZF d   1      -4.116   3.373   4.338  0.00  0.00     0.058 A 
ENDROOT
TORSDOF 0
ENDMDL
