MODEL 1
REMARK minimizedAffinity 1.0867306
REMARK minimizedRMSD -1
REMARK  0 active torsions:
REMARK  status: ('A' for Active; 'I' for Inactive)
ROOT
ATOM      1  O1  BZF d   1       4.885   3.639  -5.508  0.00  0.00    -0.204 OA
ATOM      2  C2  BZF d   1       5.674   4.753  -5.722  0.00  0.00     0.174 A 
ATOM      3  C3  BZF d   1       4.913   5.831  -5.999  0.00  0.00    -0.012 A 
ATOM      4  C3A BZF d   1       3.561   5.382  -5.865  0.00  0.00    -0.107 A 
ATOM      5  C4  BZF d   1       2.349   5.998  -6.000  0.00  0.00     0.055 A 
ATOM      6  C5  BZF d   1       1.215   5.260  -5.874  0.00  0.00    -0.016 A 
ATOM      7  C6  BZF d   1       1.256   3.905  -5.619  0.00  0.00     0.022 A 
ATOM      8  C7  BZF d   1       2.434   3.251  -5.472  0.00  0.00     0.029 A 
ATOM      9  C7A BZF d   1       3.581   4.000  -5.566  0.00  0.00     0.058 A 
ENDROOT
TORSDOF 0
ENDMDL
