MODEL 1
REMARK minimizedAffinity 4.30005741
REMARK minimizedRMSD -1
REMARK  0 active torsions:
REMARK  status: ('A' for Active; 'I' for Inactive)
ROOT
ATOM      1  O1  BZF d   1       0.055  -0.884   3.511  0.00  0.00    -0.204 OA
ATOM      2  C2  BZF d   1       1.185  -0.149   3.207  0.00  0.00     0.174 A 
ATOM      3  C3  BZF d   1       1.926  -0.777   2.271  0.00  0.00    -0.012 A 
ATOM      4  C3A BZF d   1       1.168  -1.934   1.905  0.00  0.00    -0.107 A 
ATOM      5  C4  BZF d   1       1.372  -2.945   1.010  0.00  0.00     0.055 A 
ATOM      6  C5  BZF d   1       0.474  -3.963   0.947  0.00  0.00    -0.016 A 
ATOM      7  C6  BZF d   1      -0.635  -4.005   1.767  0.00  0.00     0.022 A 
ATOM      8  C7  BZF d   1      -0.882  -3.022   2.667  0.00  0.00     0.029 A 
ATOM      9  C7A BZF d   1       0.006  -1.975   2.709  0.00  0.00     0.058 A 
ENDROOT
TORSDOF 0
ENDMDL
