MODEL 1
REMARK minimizedAffinity -3.58869791
REMARK minimizedRMSD -1
REMARK  0 active torsions:
REMARK  status: ('A' for Active; 'I' for Inactive)
ROOT
ATOM      1  O1  BZF d   1      -1.951   4.136   5.126  0.00  0.00    -0.204 OA
ATOM      2  C2  BZF d   1      -1.754   5.448   4.740  0.00  0.00     0.174 A 
ATOM      3  C3  BZF d   1      -2.899   5.986   4.273  0.00  0.00    -0.012 A 
ATOM      4  C3A BZF d   1      -3.894   4.974   4.459  0.00  0.00    -0.107 A 
ATOM      5  C4  BZF d   1      -5.234   4.917   4.203  0.00  0.00     0.055 A 
ATOM      6  C5  BZF d   1      -5.901   3.756   4.433  0.00  0.00    -0.016 A 
ATOM      7  C6  BZF d   1      -5.260   2.632   4.913  0.00  0.00     0.022 A 
ATOM      8  C7  BZF d   1      -3.932   2.642   5.186  0.00  0.00     0.029 A 
ATOM      9  C7A BZF d   1      -3.262   3.824   4.986  0.00  0.00     0.058 A 
ENDROOT
TORSDOF 0
ENDMDL
