MODEL 1
REMARK minimizedAffinity 4.67489386
REMARK minimizedRMSD -1
REMARK  0 active torsions:
REMARK  status: ('A' for Active; 'I' for Inactive)
ROOT
ATOM      1  O1  BZF d   1       0.191  -1.886   2.329  0.00  0.00    -0.204 OA
ATOM      2  C2  BZF d   1       0.552  -1.036   3.356  0.00  0.00     0.174 A 
ATOM      3  C3  BZF d   1       1.767  -0.498   3.128  0.00  0.00    -0.012 A 
ATOM      4  C3A BZF d   1       2.153  -0.976   1.835  0.00  0.00    -0.107 A 
ATOM      5  C4  BZF d   1       3.253  -0.778   1.050  0.00  0.00     0.055 A 
ATOM      6  C5  BZF d   1       3.353  -1.448  -0.127  0.00  0.00    -0.016 A 
ATOM      7  C6  BZF d   1       2.377  -2.327  -0.548  0.00  0.00     0.022 A 
ATOM      8  C7  BZF d   1       1.265  -2.553   0.193  0.00  0.00     0.029 A 
ATOM      9  C7A BZF d   1       1.145  -1.851   1.368  0.00  0.00     0.058 A 
ENDROOT
TORSDOF 0
ENDMDL
