MODEL 1
REMARK minimizedAffinity 5.76630449
REMARK minimizedRMSD -1
REMARK  0 active torsions:
REMARK  status: ('A' for Active; 'I' for Inactive)
ROOT
ATOM      1  O1  BZF d   1      -1.998   3.452  -2.950  0.00  0.00    -0.204 OA
ATOM      2  C2  BZF d   1      -1.381   2.225  -3.101  0.00  0.00     0.174 A 
ATOM      3  C3  BZF d   1      -2.123   1.409  -3.877  0.00  0.00    -0.012 A 
ATOM      4  C3A BZF d   1      -3.230   2.206  -4.311  0.00  0.00    -0.107 A 
ATOM      5  C4  BZF d   1      -4.304   1.960  -5.117  0.00  0.00     0.055 A 
ATOM      6  C5  BZF d   1      -5.243   2.929  -5.279  0.00  0.00    -0.016 A 
ATOM      7  C6  BZF d   1      -5.142   4.151  -4.647  0.00  0.00     0.022 A 
ATOM      8  C7  BZF d   1      -4.092   4.443  -3.842  0.00  0.00     0.029 A 
ATOM      9  C7A BZF d   1      -3.124   3.478  -3.702  0.00  0.00     0.058 A 
ENDROOT
TORSDOF 0
ENDMDL
