MODEL 1
REMARK minimizedAffinity 9.32077503
REMARK minimizedRMSD -1
REMARK  0 active torsions:
REMARK  status: ('A' for Active; 'I' for Inactive)
ROOT
ATOM      1  O1  BZF d   1       0.455  -2.661   0.296  0.00  0.00    -0.204 OA
ATOM      2  C2  BZF d   1       1.787  -2.687  -0.069  0.00  0.00     0.174 A 
ATOM      3  C3  BZF d   1       2.505  -1.825   0.679  0.00  0.00    -0.012 A 
ATOM      4  C3A BZF d   1       1.580  -1.290   1.630  0.00  0.00    -0.107 A 
ATOM      5  C4  BZF d   1       1.698  -0.394   2.653  0.00  0.00     0.055 A 
ATOM      6  C5  BZF d   1       0.586  -0.031   3.345  0.00  0.00    -0.016 A 
ATOM      7  C6  BZF d   1      -0.659  -0.540   3.037  0.00  0.00     0.022 A 
ATOM      8  C7  BZF d   1      -0.825  -1.435   2.034  0.00  0.00     0.029 A 
ATOM      9  C7A BZF d   1       0.302  -1.829   1.354  0.00  0.00     0.058 A 
ENDROOT
TORSDOF 0
ENDMDL
