MODEL 1
REMARK minimizedAffinity 15.570982
REMARK minimizedRMSD -1
REMARK  0 active torsions:
REMARK  status: ('A' for Active; 'I' for Inactive)
ROOT
ATOM      1  O1  BZF d   1       0.863  -2.420   0.920  0.00  0.00    -0.204 OA
ATOM      2  C2  BZF d   1       2.048  -1.916   1.420  0.00  0.00     0.174 A 
ATOM      3  C3  BZF d   1       1.812  -0.913   2.290  0.00  0.00    -0.012 A 
ATOM      4  C3A BZF d   1       0.388  -0.843   2.407  0.00  0.00    -0.107 A 
ATOM      5  C4  BZF d   1      -0.456  -0.055   3.136  0.00  0.00     0.055 A 
ATOM      6  C5  BZF d   1      -1.798  -0.192   2.967  0.00  0.00    -0.016 A 
ATOM      7  C6  BZF d   1      -2.328  -1.102   2.075  0.00  0.00     0.022 A 
ATOM      8  C7  BZF d   1      -1.531  -1.908   1.334  0.00  0.00     0.029 A 
ATOM      9  C7A BZF d   1      -0.175  -1.795   1.527  0.00  0.00     0.058 A 
ENDROOT
TORSDOF 0
ENDMDL
