MODEL 1
REMARK minimizedAffinity -4.85943699
REMARK minimizedRMSD -1
REMARK  1 active torsions:
REMARK  status: ('A' for Active; 'I' for Inactive)
REMARK    1  A    between atoms: C1_2  and  C2_3 
ROOT
ATOM      1  C2  UNL d   1      -0.083   0.312   0.336  0.00  0.00    -0.073 A 
ATOM      2  C3  UNL d   1       0.780  -0.777   0.167  0.00  0.00    -0.002 A 
ATOM      3  C4  UNL d   1       0.418  -2.042   0.631  0.00  0.00     0.004 A 
ATOM      4  C5  UNL d   1      -0.811  -2.234   1.261  0.00  0.00    -0.004 A 
ATOM      5  C6  UNL d   1      -1.693  -1.161   1.428  0.00  0.00    -0.075 A 
ATOM      6  C7  UNL d   1      -3.018  -1.350   2.106  0.00  0.00     0.076 C 
ATOM      7  C8  UNL d   1      -1.321   0.107   0.962  0.00  0.00     0.001 A 
ENDROOT
BRANCH   1   8
ATOM      8  C1  UNL d   1       0.300   1.679  -0.169  0.00  0.00     0.053 C 
ATOM      9  C   UNL d   1       1.441   1.616  -1.173  0.00  0.00     0.018 C 
ENDBRANCH   1   8
TORSDOF 1
ENDMDL
