MODEL 1
REMARK minimizedAffinity -0.76690048
REMARK minimizedRMSD -1
REMARK  1 active torsions:
REMARK  status: ('A' for Active; 'I' for Inactive)
REMARK    1  A    between atoms: C1_2  and  C2_3 
ROOT
ATOM      1  C2  UNL d   1      -0.113  -0.329   0.333  0.00  0.00    -0.073 A 
ATOM      2  C3  UNL d   1       1.070  -1.069   0.437  0.00  0.00    -0.002 A 
ATOM      3  C4  UNL d   1       1.038  -2.389   0.888  0.00  0.00     0.004 A 
ATOM      4  C5  UNL d   1      -0.176  -2.985   1.232  0.00  0.00    -0.004 A 
ATOM      5  C6  UNL d   1      -1.370  -2.265   1.123  0.00  0.00    -0.075 A 
ATOM      6  C7  UNL d   1      -2.684  -2.890   1.491  0.00  0.00     0.076 C 
ATOM      7  C8  UNL d   1      -1.330  -0.939   0.672  0.00  0.00     0.001 A 
ENDROOT
BRANCH   1   8
ATOM      8  C1  UNL d   1      -0.084   1.095  -0.159  0.00  0.00     0.053 C 
ATOM      9  C   UNL d   1       0.623   1.221  -1.499  0.00  0.00     0.018 C 
ENDBRANCH   1   8
TORSDOF 1
ENDMDL
