MODEL 1
REMARK minimizedAffinity -2.53816462
REMARK minimizedRMSD -1
REMARK  1 active torsions:
REMARK  status: ('A' for Active; 'I' for Inactive)
REMARK    1  A    between atoms: C1_2  and  C2_3 
ROOT
ATOM      1  C2  UNL d   1      -0.267  -1.438   0.797  0.00  0.00    -0.073 A 
ATOM      2  C3  UNL d   1      -0.797  -2.589   1.392  0.00  0.00    -0.002 A 
ATOM      3  C4  UNL d   1      -2.060  -2.557   1.985  0.00  0.00     0.004 A 
ATOM      4  C5  UNL d   1      -2.807  -1.380   1.983  0.00  0.00    -0.004 A 
ATOM      5  C6  UNL d   1      -2.300  -0.223   1.384  0.00  0.00    -0.075 A 
ATOM      6  C7  UNL d   1      -3.090   1.053   1.376  0.00  0.00     0.076 C 
ATOM      7  C8  UNL d   1      -1.030  -0.261   0.792  0.00  0.00     0.001 A 
ENDROOT
BRANCH   1   8
ATOM      8  C1  UNL d   1       1.093  -1.469   0.149  0.00  0.00     0.053 C 
ATOM      9  C   UNL d   1       1.740  -0.093   0.117  0.00  0.00     0.018 C 
ENDBRANCH   1   8
TORSDOF 1
ENDMDL
