MODEL 1
REMARK minimizedAffinity -5.64331818
REMARK minimizedRMSD -1
REMARK  1 active torsions:
REMARK  status: ('A' for Active; 'I' for Inactive)
REMARK    1  A    between atoms: C1_2  and  C2_3 
ROOT
ATOM      1  C2  UNL d   1       0.704   0.090   0.083  0.00  0.00    -0.073 A 
ATOM      2  C3  UNL d   1       1.858  -0.699   0.016  0.00  0.00    -0.002 A 
ATOM      3  C4  UNL d   1       1.801  -2.058   0.331  0.00  0.00     0.004 A 
ATOM      4  C5  UNL d   1       0.592  -2.641   0.708  0.00  0.00    -0.004 A 
ATOM      5  C6  UNL d   1      -0.574  -1.871   0.769  0.00  0.00    -0.075 A 
ATOM      6  C7  UNL d   1      -1.883  -2.484   1.175  0.00  0.00     0.076 C 
ATOM      7  C8  UNL d   1      -0.509  -0.507   0.454  0.00  0.00     0.001 A 
ENDROOT
BRANCH   1   8
ATOM      8  C1  UNL d   1       0.759   1.556  -0.262  0.00  0.00     0.053 C 
ATOM      9  C   UNL d   1       0.795   1.787  -1.764  0.00  0.00     0.018 C 
ENDBRANCH   1   8
TORSDOF 1
ENDMDL
