MODEL 1
REMARK minimizedAffinity -3.40521383
REMARK minimizedRMSD -1
REMARK  1 active torsions:
REMARK  status: ('A' for Active; 'I' for Inactive)
REMARK    1  A    between atoms: C1_2  and  C2_3 
ROOT
ATOM      1  C2  UNL d   1       0.231   1.534   0.150  0.00  0.00    -0.073 A 
ATOM      2  C3  UNL d   1       0.869   0.293   0.044  0.00  0.00    -0.002 A 
ATOM      3  C4  UNL d   1       0.287  -0.848   0.599  0.00  0.00     0.004 A 
ATOM      4  C5  UNL d   1      -0.940  -0.761   1.258  0.00  0.00    -0.004 A 
ATOM      5  C6  UNL d   1      -1.598   0.469   1.363  0.00  0.00    -0.075 A 
ATOM      6  C7  UNL d   1      -2.916   0.580   2.071  0.00  0.00     0.076 C 
ATOM      7  C8  UNL d   1      -1.006   1.610   0.806  0.00  0.00     0.001 A 
ENDROOT
BRANCH   1   8
ATOM      8  C1  UNL d   1       0.852   2.767  -0.454  0.00  0.00     0.053 C 
ATOM      9  C   UNL d   1       1.413   2.502  -1.842  0.00  0.00     0.018 C 
ENDBRANCH   1   8
TORSDOF 1
ENDMDL
