MODEL 1
REMARK minimizedAffinity -2.74182749
REMARK minimizedRMSD -1
REMARK  1 active torsions:
REMARK  status: ('A' for Active; 'I' for Inactive)
REMARK    1  A    between atoms: C1_2  and  C2_3 
ROOT
ATOM      1  C2  UNL d   1      -0.133   0.181   0.095  0.00  0.00    -0.073 A 
ATOM      2  C3  UNL d   1       1.080  -0.475   0.336  0.00  0.00    -0.002 A 
ATOM      3  C4  UNL d   1       1.098  -1.840   0.627  0.00  0.00     0.004 A 
ATOM      4  C5  UNL d   1      -0.094  -2.563   0.673  0.00  0.00    -0.004 A 
ATOM      5  C6  UNL d   1      -1.315  -1.929   0.424  0.00  0.00    -0.075 A 
ATOM      6  C7  UNL d   1      -2.605  -2.692   0.472  0.00  0.00     0.076 C 
ATOM      7  C8  UNL d   1      -1.325  -0.557   0.135  0.00  0.00     0.001 A 
ENDROOT
BRANCH   1   8
ATOM      8  C1  UNL d   1      -0.157   1.653  -0.226  0.00  0.00     0.053 C 
ATOM      9  C   UNL d   1       0.922   2.035  -1.227  0.00  0.00     0.018 C 
ENDBRANCH   1   8
TORSDOF 1
ENDMDL
