MODEL 1
REMARK minimizedAffinity -4.71181822
REMARK minimizedRMSD -1
REMARK  1 active torsions:
REMARK  status: ('A' for Active; 'I' for Inactive)
REMARK    1  A    between atoms: C1_2  and  C2_3 
ROOT
ATOM      1  C2  UNL d   1      -0.023  -1.053   0.372  0.00  0.00    -0.073 A 
ATOM      2  C3  UNL d   1      -0.088  -2.431   0.603  0.00  0.00    -0.002 A 
ATOM      3  C4  UNL d   1      -1.238  -3.000   1.153  0.00  0.00     0.004 A 
ATOM      4  C5  UNL d   1      -2.334  -2.199   1.471  0.00  0.00    -0.004 A 
ATOM      5  C6  UNL d   1      -2.293  -0.821   1.237  0.00  0.00    -0.075 A 
ATOM      6  C7  UNL d   1      -3.463   0.055   1.576  0.00  0.00     0.076 C 
ATOM      7  C8  UNL d   1      -1.134  -0.257   0.687  0.00  0.00     0.001 A 
ENDROOT
BRANCH   1   8
ATOM      8  C1  UNL d   1       1.213  -0.435  -0.228  0.00  0.00     0.053 C 
ATOM      9  C   UNL d   1       0.976   1.000  -0.671  0.00  0.00     0.018 C 
ENDBRANCH   1   8
TORSDOF 1
ENDMDL
