MODEL 1
REMARK minimizedAffinity 0.741818309
REMARK minimizedRMSD -1
REMARK  1 active torsions:
REMARK  status: ('A' for Active; 'I' for Inactive)
REMARK    1  A    between atoms: C1_2  and  C2_3 
ROOT
ATOM      1  C2  UNL d   1       0.511   0.772  -0.699  0.00  0.00    -0.073 A 
ATOM      2  C3  UNL d   1      -0.644   1.432  -0.265  0.00  0.00    -0.002 A 
ATOM      3  C4  UNL d   1      -1.557   0.781   0.567  0.00  0.00     0.004 A 
ATOM      4  C5  UNL d   1      -1.320  -0.530   0.978  0.00  0.00    -0.004 A 
ATOM      5  C6  UNL d   1      -0.166  -1.202   0.565  0.00  0.00    -0.075 A 
ATOM      6  C7  UNL d   1       0.102  -2.614   0.996  0.00  0.00     0.076 C 
ATOM      7  C8  UNL d   1       0.744  -0.543  -0.273  0.00  0.00     0.001 A 
ENDROOT
BRANCH   1   8
ATOM      8  C1  UNL d   1       1.502   1.473  -1.592  0.00  0.00     0.053 C 
ATOM      9  C   UNL d   1       0.859   1.969  -2.878  0.00  0.00     0.018 C 
ENDBRANCH   1   8
TORSDOF 1
ENDMDL
