MODEL 1
REMARK minimizedAffinity -6.21123123
REMARK minimizedRMSD -1
REMARK  1 active torsions:
REMARK  status: ('A' for Active; 'I' for Inactive)
REMARK    1  A    between atoms: C1_2  and  C2_3 
ROOT
ATOM      1  C2  UNL d   1       0.154   0.075   0.047  0.00  0.00    -0.073 A 
ATOM      2  C3  UNL d   1       1.387  -0.577   0.168  0.00  0.00    -0.002 A 
ATOM      3  C4  UNL d   1       1.440  -1.917   0.554  0.00  0.00     0.004 A 
ATOM      4  C5  UNL d   1       0.263  -2.619   0.816  0.00  0.00    -0.004 A 
ATOM      5  C6  UNL d   1      -0.978  -1.988   0.689  0.00  0.00    -0.075 A 
ATOM      6  C7  UNL d   1      -2.253  -2.729   0.969  0.00  0.00     0.076 C 
ATOM      7  C8  UNL d   1      -1.023  -0.641   0.303  0.00  0.00     0.001 A 
ENDROOT
BRANCH   1   8
ATOM      8  C1  UNL d   1       0.092   1.520  -0.376  0.00  0.00     0.053 C 
ATOM      9  C   UNL d   1       0.589   1.720  -1.799  0.00  0.00     0.018 C 
ENDBRANCH   1   8
TORSDOF 1
ENDMDL
