MODEL 1
REMARK minimizedAffinity -2.89674497
REMARK minimizedRMSD -1
REMARK  1 active torsions:
REMARK  status: ('A' for Active; 'I' for Inactive)
REMARK    1  A    between atoms: C1_2  and  C2_3 
ROOT
ATOM      1  C2  UNL d   1       0.138   0.014   0.025  0.00  0.00    -0.073 A 
ATOM      2  C3  UNL d   1       1.280  -0.780  -0.131  0.00  0.00    -0.002 A 
ATOM      3  C4  UNL d   1       1.250  -2.132   0.213  0.00  0.00     0.004 A 
ATOM      4  C5  UNL d   1       0.078  -2.705   0.708  0.00  0.00    -0.004 A 
ATOM      5  C6  UNL d   1      -1.076  -1.930   0.859  0.00  0.00    -0.075 A 
ATOM      6  C7  UNL d   1      -2.344  -2.530   1.393  0.00  0.00     0.076 C 
ATOM      7  C8  UNL d   1      -1.038  -0.572   0.515  0.00  0.00     0.001 A 
ENDROOT
BRANCH   1   8
ATOM      8  C1  UNL d   1       0.164   1.474  -0.351  0.00  0.00     0.053 C 
ATOM      9  C   UNL d   1       1.309   1.798  -1.297  0.00  0.00     0.018 C 
ENDBRANCH   1   8
TORSDOF 1
ENDMDL
