MODEL 1
REMARK minimizedAffinity -3.72612643
REMARK minimizedRMSD -1
REMARK  1 active torsions:
REMARK  status: ('A' for Active; 'I' for Inactive)
REMARK    1  A    between atoms: C1_2  and  C2_3 
ROOT
ATOM      1  C2  UNL d   1      -0.915  -1.526   0.204  0.00  0.00    -0.073 A 
ATOM      2  C3  UNL d   1      -1.158  -0.164  -0.001  0.00  0.00    -0.002 A 
ATOM      3  C4  UNL d   1      -0.106   0.753   0.027  0.00  0.00     0.004 A 
ATOM      4  C5  UNL d   1       1.199   0.316   0.253  0.00  0.00    -0.004 A 
ATOM      5  C6  UNL d   1       1.464  -1.043   0.449  0.00  0.00    -0.075 A 
ATOM      6  C7  UNL d   1       2.862  -1.529   0.696  0.00  0.00     0.076 C 
ATOM      7  C8  UNL d   1       0.402  -1.957   0.422  0.00  0.00     0.001 A 
ENDROOT
BRANCH   1   8
ATOM      8  C1  UNL d   1      -2.047  -2.520   0.168  0.00  0.00     0.053 C 
ATOM      9  C   UNL d   1      -2.349  -3.090   1.545  0.00  0.00     0.018 C 
ENDBRANCH   1   8
TORSDOF 1
ENDMDL
