MODEL 1
REMARK minimizedAffinity -5.37618828
REMARK minimizedRMSD -1
REMARK  1 active torsions:
REMARK  status: ('A' for Active; 'I' for Inactive)
REMARK    1  A    between atoms: C1_2  and  C2_3 
ROOT
ATOM      1  C2  UNL d   1      -0.069   0.179  -0.037  0.00  0.00    -0.073 A 
ATOM      2  C3  UNL d   1       1.140  -0.506   0.126  0.00  0.00    -0.002 A 
ATOM      3  C4  UNL d   1       1.147  -1.829   0.568  0.00  0.00     0.004 A 
ATOM      4  C5  UNL d   1      -0.054  -2.483   0.845  0.00  0.00    -0.004 A 
ATOM      5  C6  UNL d   1      -1.274  -1.819   0.677  0.00  0.00    -0.075 A 
ATOM      6  C7  UNL d   1      -2.574  -2.507   0.972  0.00  0.00     0.076 C 
ATOM      7  C8  UNL d   1      -1.272  -0.489   0.235  0.00  0.00     0.001 A 
ENDROOT
BRANCH   1   8
ATOM      8  C1  UNL d   1      -0.082   1.607  -0.521  0.00  0.00     0.053 C 
ATOM      9  C   UNL d   1       0.924   1.839  -1.638  0.00  0.00     0.018 C 
ENDBRANCH   1   8
TORSDOF 1
ENDMDL
