MODEL 1
REMARK minimizedAffinity -3.05841017
REMARK minimizedRMSD -1
REMARK  0 active torsions:
REMARK  status: ('A' for Active; 'I' for Inactive)
ROOT
ATOM      1  C1  DEN d   1      -3.185   0.213   2.854  0.00  0.00     0.130 A 
ATOM      2  C2  DEN d   1      -3.535   1.524   3.394  0.00  0.00    -0.031 A 
ATOM      3  C3  DEN d   1      -2.437   2.458   3.072  0.00  0.00     0.027 A 
ATOM      4  C4  DEN d   1      -0.245   2.005   1.792  0.00  0.00     0.027 A 
ATOM      5  C5  DEN d   1       0.502   1.042   1.150  0.00  0.00    -0.003 A 
ATOM      6  C6  DEN d   1       0.092  -0.262   1.062  0.00  0.00     0.001 A 
ATOM      7  C7  DEN d   1      -1.120  -0.629   1.585  0.00  0.00     0.017 A 
ATOM      8  C8  DEN d   1      -1.875   0.335   2.240  0.00  0.00    -0.094 A 
ATOM      9  C9  DEN d   1      -1.448   1.651   2.308  0.00  0.00    -0.072 A 
ENDROOT
TORSDOF 0
ENDMDL
