MODEL 1
REMARK minimizedAffinity -1.75299954
REMARK minimizedRMSD -1
REMARK  0 active torsions:
REMARK  status: ('A' for Active; 'I' for Inactive)
ROOT
ATOM      1  C1  DEN d   1      -3.060   1.602   3.634  0.00  0.00     0.130 A 
ATOM      2  C2  DEN d   1      -3.846   0.422   3.983  0.00  0.00    -0.031 A 
ATOM      3  C3  DEN d   1      -3.183  -0.759   3.393  0.00  0.00     0.027 A 
ATOM      4  C4  DEN d   1      -1.026  -0.874   1.984  0.00  0.00     0.027 A 
ATOM      5  C5  DEN d   1      -0.015  -0.130   1.417  0.00  0.00    -0.003 A 
ATOM      6  C6  DEN d   1       0.033   1.235   1.519  0.00  0.00     0.001 A 
ATOM      7  C7  DEN d   1      -0.924   1.896   2.243  0.00  0.00     0.017 A 
ATOM      8  C8  DEN d   1      -1.950   1.153   2.812  0.00  0.00    -0.094 A 
ATOM      9  C9  DEN d   1      -1.975  -0.227   2.707  0.00  0.00    -0.072 A 
ENDROOT
TORSDOF 0
ENDMDL
