MODEL 1
REMARK minimizedAffinity -3.99139762
REMARK minimizedRMSD -1
REMARK  0 active torsions:
REMARK  status: ('A' for Active; 'I' for Inactive)
ROOT
ATOM      1  C1  DEN d   1      -2.463   2.203   3.099  0.00  0.00     0.130 A 
ATOM      2  C2  DEN d   1      -3.432   1.151   3.392  0.00  0.00    -0.031 A 
ATOM      3  C3  DEN d   1      -2.935  -0.106   2.798  0.00  0.00     0.027 A 
ATOM      4  C4  DEN d   1      -0.766  -0.525   1.466  0.00  0.00     0.027 A 
ATOM      5  C5  DEN d   1       0.367   0.065   0.953  0.00  0.00    -0.003 A 
ATOM      6  C6  DEN d   1       0.618   1.405   1.088  0.00  0.00     0.001 A 
ATOM      7  C7  DEN d   1      -0.255   2.191   1.793  0.00  0.00     0.017 A 
ATOM      8  C8  DEN d   1      -1.404   1.605   2.307  0.00  0.00    -0.094 A 
ATOM      9  C9  DEN d   1      -1.633   0.246   2.169  0.00  0.00    -0.072 A 
ENDROOT
TORSDOF 0
ENDMDL
