MODEL 1
REMARK minimizedAffinity 1.44326448
REMARK minimizedRMSD -1
REMARK  0 active torsions:
REMARK  status: ('A' for Active; 'I' for Inactive)
ROOT
ATOM      1  C1  DEN d   1      -2.881   2.753   3.684  0.00  0.00     0.130 A 
ATOM      2  C2  DEN d   1      -3.873   1.757   4.078  0.00  0.00    -0.031 A 
ATOM      3  C3  DEN d   1      -3.430   0.444   3.568  0.00  0.00     0.027 A 
ATOM      4  C4  DEN d   1      -1.312  -0.141   2.217  0.00  0.00     0.027 A 
ATOM      5  C5  DEN d   1      -0.176   0.372   1.633  0.00  0.00    -0.003 A 
ATOM      6  C6  DEN d   1       0.120   1.710   1.663  0.00  0.00     0.001 A 
ATOM      7  C7  DEN d   1      -0.710   2.573   2.328  0.00  0.00     0.017 A 
ATOM      8  C8  DEN d   1      -1.862   2.064   2.912  0.00  0.00    -0.094 A 
ATOM      9  C9  DEN d   1      -2.136   0.707   2.882  0.00  0.00    -0.072 A 
ENDROOT
TORSDOF 0
ENDMDL
