MODEL 1
REMARK minimizedAffinity -6.02188301
REMARK minimizedRMSD -1
REMARK  0 active torsions:
REMARK  status: ('A' for Active; 'I' for Inactive)
ROOT
ATOM      1  C1  DEN d   1      -0.729  -0.443   0.973  0.00  0.00     0.130 A 
ATOM      2  C2  DEN d   1       0.449   0.364   0.669  0.00  0.00    -0.031 A 
ATOM      3  C3  DEN d   1       0.239   1.710   1.239  0.00  0.00     0.027 A 
ATOM      4  C4  DEN d   1      -1.782   2.616   2.561  0.00  0.00     0.027 A 
ATOM      5  C5  DEN d   1      -3.028   2.305   3.058  0.00  0.00    -0.003 A 
ATOM      6  C6  DEN d   1      -3.605   1.078   2.867  0.00  0.00     0.001 A 
ATOM      7  C7  DEN d   1      -2.916   0.100   2.200  0.00  0.00     0.017 A 
ATOM      8  C8  DEN d   1      -1.662   0.408   1.689  0.00  0.00    -0.094 A 
ATOM      9  C9  DEN d   1      -1.091   1.651   1.903  0.00  0.00    -0.072 A 
ENDROOT
TORSDOF 0
ENDMDL
