MODEL 1
REMARK minimizedAffinity -3.00954223
REMARK minimizedRMSD -1
REMARK  0 active torsions:
REMARK  status: ('A' for Active; 'I' for Inactive)
ROOT
ATOM      1  C1  DEN d   1      -0.363  -0.941   1.179  0.00  0.00     0.130 A 
ATOM      2  C2  DEN d   1       0.990  -0.422   0.994  0.00  0.00    -0.031 A 
ATOM      3  C3  DEN d   1       0.960   1.033   1.247  0.00  0.00     0.027 A 
ATOM      4  C4  DEN d   1      -1.038   2.524   1.908  0.00  0.00     0.027 A 
ATOM      5  C5  DEN d   1      -2.390   2.537   2.171  0.00  0.00    -0.003 A 
ATOM      6  C6  DEN d   1      -3.161   1.408   2.090  0.00  0.00     0.001 A 
ATOM      7  C7  DEN d   1      -2.577   0.208   1.781  0.00  0.00     0.017 A 
ATOM      8  C8  DEN d   1      -1.216   0.188   1.506  0.00  0.00    -0.094 A 
ATOM      9  C9  DEN d   1      -0.451   1.338   1.605  0.00  0.00    -0.072 A 
ENDROOT
TORSDOF 0
ENDMDL
