MODEL 1
REMARK minimizedAffinity 7.06794691
REMARK minimizedRMSD -1
REMARK  0 active torsions:
REMARK  status: ('A' for Active; 'I' for Inactive)
ROOT
ATOM      1  C1  DEN d   1      -3.742  -1.278   0.164  0.00  0.00     0.130 A 
ATOM      2  C2  DEN d   1      -4.431  -0.386  -0.764  0.00  0.00    -0.031 A 
ATOM      3  C3  DEN d   1      -3.627   0.846  -0.896  0.00  0.00     0.027 A 
ATOM      4  C4  DEN d   1      -1.390   1.452   0.236  0.00  0.00     0.027 A 
ATOM      5  C5  DEN d   1      -0.423   1.018   1.115  0.00  0.00    -0.003 A 
ATOM      6  C6  DEN d   1      -0.511  -0.188   1.760  0.00  0.00     0.001 A 
ATOM      7  C7  DEN d   1      -1.566  -1.021   1.500  0.00  0.00     0.017 A 
ATOM      8  C8  DEN d   1      -2.549  -0.587   0.620  0.00  0.00    -0.094 A 
ATOM      9  C9  DEN d   1      -2.436   0.630  -0.030  0.00  0.00    -0.072 A 
ENDROOT
TORSDOF 0
ENDMDL
