MODEL 1
REMARK minimizedAffinity -4.55839109
REMARK minimizedRMSD -1
REMARK  0 active torsions:
REMARK  status: ('A' for Active; 'I' for Inactive)
ROOT
ATOM      1  C1  DEN d   1      -2.716   2.166   2.987  0.00  0.00     0.130 A 
ATOM      2  C2  DEN d   1      -3.573   1.058   3.400  0.00  0.00    -0.031 A 
ATOM      3  C3  DEN d   1      -2.977  -0.194   2.893  0.00  0.00     0.027 A 
ATOM      4  C4  DEN d   1      -0.818  -0.524   1.520  0.00  0.00     0.027 A 
ATOM      5  C5  DEN d   1       0.239   0.122   0.919  0.00  0.00    -0.003 A 
ATOM      6  C6  DEN d   1       0.367   1.486   0.935  0.00  0.00     0.001 A 
ATOM      7  C7  DEN d   1      -0.556   2.246   1.605  0.00  0.00     0.017 A 
ATOM      8  C8  DEN d   1      -1.629   1.602   2.207  0.00  0.00    -0.094 A 
ATOM      9  C9  DEN d   1      -1.733   0.222   2.190  0.00  0.00    -0.072 A 
ENDROOT
TORSDOF 0
ENDMDL
