MODEL 1
REMARK minimizedAffinity -0.0823940113
REMARK minimizedRMSD -1
REMARK  0 active torsions:
REMARK  status: ('A' for Active; 'I' for Inactive)
ROOT
ATOM      1  C1  DEN d   1      -1.806   2.557   2.692  0.00  0.00     0.130 A 
ATOM      2  C2  DEN d   1      -2.955   1.927   3.336  0.00  0.00    -0.031 A 
ATOM      3  C3  DEN d   1      -2.915   0.483   3.030  0.00  0.00     0.027 A 
ATOM      4  C4  DEN d   1      -1.191  -0.831   1.632  0.00  0.00     0.027 A 
ATOM      5  C5  DEN d   1      -0.045  -0.726   0.875  0.00  0.00    -0.003 A 
ATOM      6  C6  DEN d   1       0.570   0.475   0.644  0.00  0.00     0.001 A 
ATOM      7  C7  DEN d   1       0.068   1.615   1.214  0.00  0.00     0.017 A 
ATOM      8  C8  DEN d   1      -1.092   1.519   1.972  0.00  0.00    -0.094 A 
ATOM      9  C9  DEN d   1      -1.692   0.293   2.204  0.00  0.00    -0.072 A 
ENDROOT
TORSDOF 0
ENDMDL
