MODEL 1
REMARK minimizedAffinity 3.76568079
REMARK minimizedRMSD -1
REMARK  0 active torsions:
REMARK  status: ('A' for Active; 'I' for Inactive)
ROOT
ATOM      1  C1  DEN d   1       0.062  -0.118   2.140  0.00  0.00     0.130 A 
ATOM      2  C2  DEN d   1       1.176   0.504   1.429  0.00  0.00    -0.031 A 
ATOM      3  C3  DEN d   1       0.769   1.871   1.049  0.00  0.00     0.027 A 
ATOM      4  C4  DEN d   1      -1.465   3.081   1.492  0.00  0.00     0.027 A 
ATOM      5  C5  DEN d   1      -2.719   2.956   2.049  0.00  0.00    -0.003 A 
ATOM      6  C6  DEN d   1      -3.142   1.795   2.640  0.00  0.00     0.001 A 
ATOM      7  C7  DEN d   1      -2.288   0.727   2.728  0.00  0.00     0.017 A 
ATOM      8  C8  DEN d   1      -1.025   0.844   2.163  0.00  0.00    -0.094 A 
ATOM      9  C9  DEN d   1      -0.612   2.030   1.581  0.00  0.00    -0.072 A 
ENDROOT
TORSDOF 0
ENDMDL
