MODEL 1
REMARK minimizedAffinity 4.23053169
REMARK minimizedRMSD -1
REMARK  0 active torsions:
REMARK  status: ('A' for Active; 'I' for Inactive)
ROOT
ATOM      1  C1  DEN d   1       2.843  -0.320  -0.318  0.00  0.00     0.130 A 
ATOM      2  C2  DEN d   1       3.171   0.615  -1.391  0.00  0.00    -0.031 A 
ATOM      3  C3  DEN d   1       2.227   1.747  -1.313  0.00  0.00     0.027 A 
ATOM      4  C4  DEN d   1       0.302   2.144   0.357  0.00  0.00     0.027 A 
ATOM      5  C5  DEN d   1      -0.370   1.621   1.440  0.00  0.00    -0.003 A 
ATOM      6  C6  DEN d   1      -0.043   0.409   1.987  0.00  0.00     0.001 A 
ATOM      7  C7  DEN d   1       1.013  -0.301   1.481  0.00  0.00     0.017 A 
ATOM      8  C8  DEN d   1       1.691   0.216   0.384  0.00  0.00    -0.094 A 
ATOM      9  C9  DEN d   1       1.353   1.449  -0.147  0.00  0.00    -0.072 A 
ENDROOT
TORSDOF 0
ENDMDL
