MODEL 1
REMARK minimizedAffinity 1.00074482
REMARK minimizedRMSD -1
REMARK  0 active torsions:
REMARK  status: ('A' for Active; 'I' for Inactive)
ROOT
ATOM      1  C   UNL d   1       4.887   5.756  -1.660  0.00  0.00     0.078 C 
ATOM      2  C1  UNL d   1       4.840   5.696  -3.157  0.00  0.00    -0.077 A 
ATOM      3  C2  UNL d   1       3.667   5.328  -3.828  0.00  0.00    -0.001 A 
ATOM      4  C3  UNL d   1       3.641   5.267  -5.222  0.00  0.00     0.003 A 
ATOM      5  C4  UNL d   1       4.784   5.572  -5.957  0.00  0.00    -0.005 A 
ATOM      6  C5  UNL d   1       5.957   5.937  -5.299  0.00  0.00     0.003 A 
ATOM      7  C6  UNL d   1       5.985   5.999  -3.905  0.00  0.00    -0.001 A 
ENDROOT
TORSDOF 0
ENDMDL
