MODEL 1
REMARK minimizedAffinity -2.34734201
REMARK minimizedRMSD -1
REMARK  0 active torsions:
REMARK  status: ('A' for Active; 'I' for Inactive)
ROOT
ATOM      1  C   UNL d   1       4.943   5.961  -5.722  0.00  0.00     0.078 C 
ATOM      2  C1  UNL d   1       4.519   5.558  -4.342  0.00  0.00    -0.077 A 
ATOM      3  C2  UNL d   1       3.386   4.760  -4.139  0.00  0.00    -0.001 A 
ATOM      4  C3  UNL d   1       2.998   4.400  -2.847  0.00  0.00     0.003 A 
ATOM      5  C4  UNL d   1       3.736   4.834  -1.748  0.00  0.00    -0.005 A 
ATOM      6  C5  UNL d   1       4.864   5.630  -1.940  0.00  0.00     0.003 A 
ATOM      7  C6  UNL d   1       5.254   5.991  -3.231  0.00  0.00    -0.001 A 
ENDROOT
TORSDOF 0
ENDMDL
