MODEL 1
REMARK minimizedAffinity 10.8255215
REMARK minimizedRMSD -1
REMARK  0 active torsions:
REMARK  status: ('A' for Active; 'I' for Inactive)
ROOT
ATOM      1  C   UNL d   1      -2.158   2.644   0.636  0.00  0.00     0.078 C 
ATOM      2  C1  UNL d   1      -0.819   2.086   1.015  0.00  0.00    -0.077 A 
ATOM      3  C2  UNL d   1       0.216   2.926   1.446  0.00  0.00    -0.001 A 
ATOM      4  C3  UNL d   1       1.461   2.394   1.786  0.00  0.00     0.003 A 
ATOM      5  C4  UNL d   1       1.683   1.021   1.697  0.00  0.00    -0.005 A 
ATOM      6  C5  UNL d   1       0.660   0.178   1.267  0.00  0.00     0.003 A 
ATOM      7  C6  UNL d   1      -0.585   0.708   0.927  0.00  0.00    -0.001 A 
ENDROOT
TORSDOF 0
ENDMDL
