MODEL 1
REMARK minimizedAffinity 2.58709741
REMARK minimizedRMSD -1
REMARK  0 active torsions:
REMARK  status: ('A' for Active; 'I' for Inactive)
ROOT
ATOM      1  C   UNL d   1       1.095  -3.042   3.768  0.00  0.00     0.078 C 
ATOM      2  C1  UNL d   1       1.606  -2.064   2.753  0.00  0.00    -0.077 A 
ATOM      3  C2  UNL d   1       2.884  -2.202   2.197  0.00  0.00    -0.001 A 
ATOM      4  C3  UNL d   1       3.350  -1.279   1.260  0.00  0.00     0.003 A 
ATOM      5  C4  UNL d   1       2.545  -0.209   0.872  0.00  0.00    -0.005 A 
ATOM      6  C5  UNL d   1       1.274  -0.062   1.422  0.00  0.00     0.003 A 
ATOM      7  C6  UNL d   1       0.806  -0.984   2.359  0.00  0.00    -0.001 A 
ENDROOT
TORSDOF 0
ENDMDL
