MODEL 1
REMARK minimizedAffinity 3.7225008
REMARK minimizedRMSD -1
REMARK  0 active torsions:
REMARK  status: ('A' for Active; 'I' for Inactive)
ROOT
ATOM      1  C   UNL d   1       1.157  -1.595   5.445  0.00  0.00     0.078 C 
ATOM      2  C1  UNL d   1       1.337  -1.350   3.976  0.00  0.00    -0.077 A 
ATOM      3  C2  UNL d   1       2.060  -2.246   3.179  0.00  0.00    -0.001 A 
ATOM      4  C3  UNL d   1       2.227  -2.001   1.815  0.00  0.00     0.003 A 
ATOM      5  C4  UNL d   1       1.677  -0.859   1.237  0.00  0.00    -0.005 A 
ATOM      6  C5  UNL d   1       0.958   0.040   2.022  0.00  0.00     0.003 A 
ATOM      7  C6  UNL d   1       0.789  -0.204   3.386  0.00  0.00    -0.001 A 
ENDROOT
TORSDOF 0
ENDMDL
