MODEL 1
REMARK minimizedAffinity 3.70280004
REMARK minimizedRMSD -1
REMARK  0 active torsions:
REMARK  status: ('A' for Active; 'I' for Inactive)
ROOT
ATOM      1  C   UNL d   1      -4.508  -2.219  -3.448  0.00  0.00     0.078 C 
ATOM      2  C1  UNL d   1      -4.560  -3.530  -4.174  0.00  0.00    -0.077 A 
ATOM      3  C2  UNL d   1      -5.319  -3.679  -5.340  0.00  0.00    -0.001 A 
ATOM      4  C3  UNL d   1      -5.367  -4.909  -6.000  0.00  0.00     0.003 A 
ATOM      5  C4  UNL d   1      -4.658  -5.999  -5.499  0.00  0.00    -0.005 A 
ATOM      6  C5  UNL d   1      -3.901  -5.861  -4.338  0.00  0.00     0.003 A 
ATOM      7  C6  UNL d   1      -3.852  -4.632  -3.677  0.00  0.00    -0.001 A 
ENDROOT
TORSDOF 0
ENDMDL
