MODEL 1
REMARK minimizedAffinity -2.53327727
REMARK minimizedRMSD -1
REMARK  0 active torsions:
REMARK  status: ('A' for Active; 'I' for Inactive)
ROOT
ATOM      1  C   UNL d   1       1.305  -2.619   5.653  0.00  0.00     0.078 C 
ATOM      2  C1  UNL d   1       1.524  -1.779   4.430  0.00  0.00    -0.077 A 
ATOM      3  C2  UNL d   1       1.244  -0.407   4.438  0.00  0.00    -0.001 A 
ATOM      4  C3  UNL d   1       1.444   0.360   3.289  0.00  0.00     0.003 A 
ATOM      5  C4  UNL d   1       1.922  -0.236   2.124  0.00  0.00    -0.005 A 
ATOM      6  C5  UNL d   1       2.202  -1.601   2.106  0.00  0.00     0.003 A 
ATOM      7  C6  UNL d   1       2.003  -2.370   3.254  0.00  0.00    -0.001 A 
ENDROOT
TORSDOF 0
ENDMDL
