MODEL 1
REMARK minimizedAffinity 8.75389767
REMARK minimizedRMSD -1
REMARK  1 active torsions:
REMARK  status: ('A' for Active; 'I' for Inactive)
REMARK    1  A    between atoms: C1_2  and  C2_3 
ROOT
ATOM      1  C2  UNL d   1      -3.648   2.365  -3.231  0.00  0.00    -0.073 A 
ATOM      2  C3  UNL d   1      -4.473   3.090  -2.363  0.00  0.00    -0.002 A 
ATOM      3  C4  UNL d   1      -4.836   4.402  -2.668  0.00  0.00     0.004 A 
ATOM      4  C5  UNL d   1      -4.386   5.000  -3.845  0.00  0.00    -0.004 A 
ATOM      5  C6  UNL d   1      -3.571   4.288  -4.731  0.00  0.00    -0.075 A 
ATOM      6  C7  UNL d   1      -3.077   4.917  -6.000  0.00  0.00     0.076 C 
ATOM      7  C8  UNL d   1      -3.208   2.971  -4.416  0.00  0.00     0.001 A 
ENDROOT
BRANCH   1   8
ATOM      8  C1  UNL d   1      -3.259   0.945  -2.909  0.00  0.00     0.053 C 
ATOM      9  C   UNL d   1      -2.292   0.871  -1.738  0.00  0.00     0.018 C 
ENDBRANCH   1   8
TORSDOF 1
ENDMDL
