MODEL 1
REMARK minimizedAffinity 12.3972549
REMARK minimizedRMSD -1
REMARK  1 active torsions:
REMARK  status: ('A' for Active; 'I' for Inactive)
REMARK    1  A    between atoms: C1_2  and  C2_3 
ROOT
ATOM      1  C2  UNL d   1       1.644  -2.097   1.113  0.00  0.00    -0.073 A 
ATOM      2  C3  UNL d   1       0.659  -3.023   1.473  0.00  0.00    -0.002 A 
ATOM      3  C4  UNL d   1       0.303  -4.050   0.598  0.00  0.00     0.004 A 
ATOM      4  C5  UNL d   1       0.932  -4.166  -0.641  0.00  0.00    -0.004 A 
ATOM      5  C6  UNL d   1       1.928  -3.257  -1.015  0.00  0.00    -0.075 A 
ATOM      6  C7  UNL d   1       2.613  -3.367  -2.345  0.00  0.00     0.076 C 
ATOM      7  C8  UNL d   1       2.278  -2.227  -0.131  0.00  0.00     0.001 A 
ENDROOT
BRANCH   1   8
ATOM      8  C1  UNL d   1       2.036  -0.990   2.057  0.00  0.00     0.053 C 
ATOM      9  C   UNL d   1       1.576  -1.265   3.480  0.00  0.00     0.018 C 
ENDBRANCH   1   8
TORSDOF 1
ENDMDL
