MODEL 1
REMARK minimizedAffinity 12.4702864
REMARK minimizedRMSD -1
REMARK  1 active torsions:
REMARK  status: ('A' for Active; 'I' for Inactive)
REMARK    1  A    between atoms: C1_2  and  C2_3 
ROOT
ATOM      1  C2  UNL d   1       3.197  -4.471  -0.887  0.00  0.00    -0.073 A 
ATOM      2  C3  UNL d   1       3.929  -3.829   0.118  0.00  0.00    -0.002 A 
ATOM      3  C4  UNL d   1       5.323  -3.878   0.116  0.00  0.00     0.004 A 
ATOM      4  C5  UNL d   1       6.000  -4.564  -0.893  0.00  0.00    -0.004 A 
ATOM      5  C6  UNL d   1       5.287  -5.202  -1.912  0.00  0.00    -0.075 A 
ATOM      6  C7  UNL d   1       5.999  -5.946  -3.004  0.00  0.00     0.076 C 
ATOM      7  C8  UNL d   1       3.886  -5.150  -1.902  0.00  0.00     0.001 A 
ENDROOT
BRANCH   1   8
ATOM      8  C1  UNL d   1       1.691  -4.415  -0.892  0.00  0.00     0.053 C 
ATOM      9  C   UNL d   1       1.116  -4.689  -2.272  0.00  0.00     0.018 C 
ENDBRANCH   1   8
TORSDOF 1
ENDMDL
