MODEL 1
REMARK minimizedAffinity 12.6830597
REMARK minimizedRMSD -1
REMARK  1 active torsions:
REMARK  status: ('A' for Active; 'I' for Inactive)
REMARK    1  A    between atoms: C1_2  and  C2_3 
ROOT
ATOM      1  C2  UNL d   1       0.278  -3.085   0.818  0.00  0.00    -0.073 A 
ATOM      2  C3  UNL d   1       1.200  -3.853   0.098  0.00  0.00    -0.002 A 
ATOM      3  C4  UNL d   1       0.765  -4.913  -0.698  0.00  0.00     0.004 A 
ATOM      4  C5  UNL d   1      -0.595  -5.210  -0.789  0.00  0.00    -0.004 A 
ATOM      5  C6  UNL d   1      -1.533  -4.446  -0.087  0.00  0.00    -0.075 A 
ATOM      6  C7  UNL d   1      -2.999  -4.755  -0.173  0.00  0.00     0.076 C 
ATOM      7  C8  UNL d   1      -1.088  -3.385   0.713  0.00  0.00     0.001 A 
ENDROOT
BRANCH   1   8
ATOM      8  C1  UNL d   1       0.743  -1.935   1.674  0.00  0.00     0.053 C 
ATOM      9  C   UNL d   1       2.043  -1.333   1.164  0.00  0.00     0.018 C 
ENDBRANCH   1   8
TORSDOF 1
ENDMDL
