MODEL 1
REMARK minimizedAffinity 1.50265586
REMARK minimizedRMSD -1
REMARK  1 active torsions:
REMARK  status: ('A' for Active; 'I' for Inactive)
REMARK    1  A    between atoms: C1_2  and  C2_3 
ROOT
ATOM      1  C2  UNL d   1      -3.834   2.539  -3.112  0.00  0.00    -0.073 A 
ATOM      2  C3  UNL d   1      -4.474   3.354  -2.172  0.00  0.00    -0.002 A 
ATOM      3  C4  UNL d   1      -4.686   4.707  -2.441  0.00  0.00     0.004 A 
ATOM      4  C5  UNL d   1      -4.267   5.256  -3.653  0.00  0.00    -0.004 A 
ATOM      5  C6  UNL d   1      -3.637   4.455  -4.610  0.00  0.00    -0.075 A 
ATOM      6  C7  UNL d   1      -3.178   5.030  -5.917  0.00  0.00     0.076 C 
ATOM      7  C8  UNL d   1      -3.425   3.098  -4.331  0.00  0.00     0.001 A 
ENDROOT
BRANCH   1   8
ATOM      8  C1  UNL d   1      -3.609   1.076  -2.829  0.00  0.00     0.053 C 
ATOM      9  C   UNL d   1      -2.449   0.853  -1.871  0.00  0.00     0.018 C 
ENDBRANCH   1   8
TORSDOF 1
ENDMDL
