MODEL 1
REMARK minimizedAffinity 8.71892452
REMARK minimizedRMSD -1
REMARK  1 active torsions:
REMARK  status: ('A' for Active; 'I' for Inactive)
REMARK    1  A    between atoms: C1_2  and  C2_3 
ROOT
ATOM      1  C2  UNL d   1       3.935  -3.477   0.754  0.00  0.00    -0.073 A 
ATOM      2  C3  UNL d   1       3.108  -4.539   1.135  0.00  0.00    -0.002 A 
ATOM      3  C4  UNL d   1       1.811  -4.295   1.590  0.00  0.00     0.004 A 
ATOM      4  C5  UNL d   1       1.327  -2.989   1.661  0.00  0.00    -0.004 A 
ATOM      5  C6  UNL d   1       2.134  -1.915   1.274  0.00  0.00    -0.075 A 
ATOM      6  C7  UNL d   1       1.629  -0.504   1.347  0.00  0.00     0.076 C 
ATOM      7  C8  UNL d   1       3.436  -2.168   0.821  0.00  0.00     0.001 A 
ENDROOT
BRANCH   1   8
ATOM      8  C1  UNL d   1       5.334  -3.736   0.257  0.00  0.00     0.053 C 
ATOM      9  C   UNL d   1       5.999  -4.884   1.000  0.00  0.00     0.018 C 
ENDBRANCH   1   8
TORSDOF 1
ENDMDL
