MODEL 1
REMARK minimizedAffinity 4.13033438
REMARK minimizedRMSD -1
REMARK  0 active torsions:
REMARK  status: ('A' for Active; 'I' for Inactive)
ROOT
ATOM      1  O1  BZF d   1       0.586  -0.670   0.121  0.00  0.00    -0.204 OA
ATOM      2  C2  BZF d   1       0.415  -1.016  -1.205  0.00  0.00     0.174 A 
ATOM      3  C3  BZF d   1      -0.882  -0.914  -1.562  0.00  0.00    -0.012 A 
ATOM      4  C3A BZF d   1      -1.549  -0.388  -0.411  0.00  0.00    -0.107 A 
ATOM      5  C4  BZF d   1      -2.846  -0.050  -0.150  0.00  0.00     0.055 A 
ATOM      6  C5  BZF d   1      -3.182   0.366   1.099  0.00  0.00    -0.016 A 
ATOM      7  C6  BZF d   1      -2.249   0.452   2.111  0.00  0.00     0.022 A 
ATOM      8  C7  BZF d   1      -0.949   0.133   1.899  0.00  0.00     0.029 A 
ATOM      9  C7A BZF d   1      -0.600  -0.257   0.629  0.00  0.00     0.058 A 
ENDROOT
TORSDOF 0
ENDMDL
