MODEL 1
REMARK minimizedAffinity -1.72950697
REMARK minimizedRMSD -1
REMARK  0 active torsions:
REMARK  status: ('A' for Active; 'I' for Inactive)
ROOT
ATOM      1  O1  BZF d   1       1.461   0.745   0.679  0.00  0.00    -0.204 OA
ATOM      2  C2  BZF d   1       2.007   0.461  -0.558  0.00  0.00     0.174 A 
ATOM      3  C3  BZF d   1       1.086  -0.096  -1.371  0.00  0.00    -0.012 A 
ATOM      4  C3A BZF d   1      -0.135  -0.079  -0.624  0.00  0.00    -0.107 A 
ATOM      5  C4  BZF d   1      -1.410  -0.482  -0.900  0.00  0.00     0.055 A 
ATOM      6  C5  BZF d   1      -2.355  -0.394   0.073  0.00  0.00    -0.016 A 
ATOM      7  C6  BZF d   1      -2.060   0.086   1.331  0.00  0.00     0.022 A 
ATOM      8  C7  BZF d   1      -0.810   0.503   1.651  0.00  0.00     0.029 A 
ATOM      9  C7A BZF d   1       0.140   0.446   0.660  0.00  0.00     0.058 A 
ENDROOT
TORSDOF 0
ENDMDL
