MODEL 1
REMARK minimizedAffinity 2.58676171
REMARK minimizedRMSD -1
REMARK  0 active torsions:
REMARK  status: ('A' for Active; 'I' for Inactive)
ROOT
ATOM      1  O1  BZF d   1      -1.926  -0.288   2.961  0.00  0.00    -0.204 OA
ATOM      2  C2  BZF d   1      -0.887  -0.655   3.794  0.00  0.00     0.174 A 
ATOM      3  C3  BZF d   1       0.243  -0.861   3.088  0.00  0.00    -0.012 A 
ATOM      4  C3A BZF d   1      -0.089  -0.518   1.739  0.00  0.00    -0.107 A 
ATOM      5  C4  BZF d   1       0.622  -0.500   0.573  0.00  0.00     0.055 A 
ATOM      6  C5  BZF d   1      -0.017  -0.186  -0.585  0.00  0.00    -0.016 A 
ATOM      7  C6  BZF d   1      -1.364   0.112  -0.614  0.00  0.00     0.022 A 
ATOM      8  C7  BZF d   1      -2.109   0.113   0.518  0.00  0.00     0.029 A 
ATOM      9  C7A BZF d   1      -1.459  -0.173   1.694  0.00  0.00     0.058 A 
ENDROOT
TORSDOF 0
ENDMDL
