MODEL 1
REMARK minimizedAffinity 1.51329434
REMARK minimizedRMSD -1
REMARK  0 active torsions:
REMARK  status: ('A' for Active; 'I' for Inactive)
ROOT
ATOM      1  O1  BZF d   1       1.739  -0.548   1.405  0.00  0.00    -0.204 OA
ATOM      2  C2  BZF d   1       1.455  -0.147   0.114  0.00  0.00     0.174 A 
ATOM      3  C3  BZF d   1       0.128   0.036  -0.049  0.00  0.00    -0.012 A 
ATOM      4  C3A BZF d   1      -0.443  -0.180   1.245  0.00  0.00    -0.107 A 
ATOM      5  C4  BZF d   1      -1.719  -0.128   1.728  0.00  0.00     0.055 A 
ATOM      6  C5  BZF d   1      -1.949  -0.464   3.025  0.00  0.00    -0.016 A 
ATOM      7  C6  BZF d   1      -0.928  -0.863   3.863  0.00  0.00     0.022 A 
ATOM      8  C7  BZF d   1       0.355  -0.926   3.430  0.00  0.00     0.029 A 
ATOM      9  C7A BZF d   1       0.594  -0.554   2.130  0.00  0.00     0.058 A 
ENDROOT
TORSDOF 0
ENDMDL
