MODEL 1
REMARK minimizedAffinity 3.17934203
REMARK minimizedRMSD -1
REMARK  0 active torsions:
REMARK  status: ('A' for Active; 'I' for Inactive)
ROOT
ATOM      1  O1  BZF d   1      -0.952  -1.328   0.300  0.00  0.00    -0.204 OA
ATOM      2  C2  BZF d   1      -1.734  -0.447  -0.422  0.00  0.00     0.174 A 
ATOM      3  C3  BZF d   1      -0.977   0.524  -0.972  0.00  0.00    -0.012 A 
ATOM      4  C3A BZF d   1       0.373   0.180  -0.645  0.00  0.00    -0.107 A 
ATOM      5  C4  BZF d   1       1.581   0.751  -0.925  0.00  0.00     0.055 A 
ATOM      6  C5  BZF d   1       2.708   0.205  -0.395  0.00  0.00    -0.016 A 
ATOM      7  C6  BZF d   1       2.662  -0.907   0.420  0.00  0.00     0.022 A 
ATOM      8  C7  BZF d   1       1.487  -1.511   0.721  0.00  0.00     0.029 A 
ATOM      9  C7A BZF d   1       0.350  -0.982   0.161  0.00  0.00     0.058 A 
ENDROOT
TORSDOF 0
ENDMDL
