MODEL 1
REMARK minimizedAffinity 2.56124854
REMARK minimizedRMSD -1
REMARK  0 active torsions:
REMARK  status: ('A' for Active; 'I' for Inactive)
ROOT
ATOM      1  O1  BZF d   1       1.050  -0.772   2.250  0.00  0.00    -0.204 OA
ATOM      2  C2  BZF d   1       2.013  -0.769   1.259  0.00  0.00     0.174 A 
ATOM      3  C3  BZF d   1       1.454  -0.557   0.050  0.00  0.00    -0.012 A 
ATOM      4  C3A BZF d   1       0.067  -0.327   0.312  0.00  0.00    -0.107 A 
ATOM      5  C4  BZF d   1      -1.005  -0.042  -0.485  0.00  0.00     0.055 A 
ATOM      6  C5  BZF d   1      -2.239   0.052   0.075  0.00  0.00    -0.016 A 
ATOM      7  C6  BZF d   1      -2.439  -0.137   1.427  0.00  0.00     0.022 A 
ATOM      8  C7  BZF d   1      -1.406  -0.416   2.259  0.00  0.00     0.029 A 
ATOM      9  C7A BZF d   1      -0.153  -0.479   1.701  0.00  0.00     0.058 A 
ENDROOT
TORSDOF 0
ENDMDL
