MODEL 1
REMARK minimizedAffinity -0.862800956
REMARK minimizedRMSD -1
REMARK  0 active torsions:
REMARK  status: ('A' for Active; 'I' for Inactive)
ROOT
ATOM      1  O1  BZF d   1       1.646  -0.505   1.948  0.00  0.00    -0.204 OA
ATOM      2  C2  BZF d   1       2.432  -0.640   0.820  0.00  0.00     0.174 A 
ATOM      3  C3  BZF d   1       1.668  -0.741  -0.287  0.00  0.00    -0.012 A 
ATOM      4  C3A BZF d   1       0.322  -0.571   0.168  0.00  0.00    -0.107 A 
ATOM      5  C4  BZF d   1      -0.888  -0.554  -0.464  0.00  0.00     0.055 A 
ATOM      6  C5  BZF d   1      -2.020  -0.441   0.279  0.00  0.00    -0.016 A 
ATOM      7  C6  BZF d   1      -1.980  -0.347   1.654  0.00  0.00     0.022 A 
ATOM      8  C7  BZF d   1      -0.803  -0.355   2.326  0.00  0.00     0.029 A 
ATOM      9  C7A BZF d   1       0.345  -0.436   1.576  0.00  0.00     0.058 A 
ENDROOT
TORSDOF 0
ENDMDL
