MODEL 1
REMARK minimizedAffinity 3.61250615
REMARK minimizedRMSD -1
REMARK  0 active torsions:
REMARK  status: ('A' for Active; 'I' for Inactive)
ROOT
ATOM      1  O1  BZF d   1       3.019   1.657  -3.974  0.00  0.00    -0.204 OA
ATOM      2  C2  BZF d   1       1.825   0.970  -4.076  0.00  0.00     0.174 A 
ATOM      3  C3  BZF d   1       1.495   0.405  -2.897  0.00  0.00    -0.012 A 
ATOM      4  C3A BZF d   1       2.502   0.839  -1.977  0.00  0.00    -0.107 A 
ATOM      5  C4  BZF d   1       2.712   0.623  -0.645  0.00  0.00     0.055 A 
ATOM      6  C5  BZF d   1       3.831   1.131  -0.063  0.00  0.00    -0.016 A 
ATOM      7  C6  BZF d   1       4.760   1.853  -0.782  0.00  0.00     0.022 A 
ATOM      8  C7  BZF d   1       4.592   2.097  -2.105  0.00  0.00     0.029 A 
ATOM      9  C7A BZF d   1       3.447   1.614  -2.689  0.00  0.00     0.058 A 
ENDROOT
TORSDOF 0
ENDMDL
