MODEL 1
REMARK minimizedAffinity -1.13346267
REMARK minimizedRMSD -1
REMARK  0 active torsions:
REMARK  status: ('A' for Active; 'I' for Inactive)
ROOT
ATOM      1  O1  BZF d   1      -1.592   0.177   3.784  0.00  0.00    -0.204 OA
ATOM      2  C2  BZF d   1      -0.366  -0.172   4.316  0.00  0.00     0.174 A 
ATOM      3  C3  BZF d   1       0.456  -0.641   3.355  0.00  0.00    -0.012 A 
ATOM      4  C3A BZF d   1      -0.272  -0.495   2.132  0.00  0.00    -0.107 A 
ATOM      5  C4  BZF d   1       0.019  -0.771   0.827  0.00  0.00     0.055 A 
ATOM      6  C5  BZF d   1      -0.938  -0.580  -0.118  0.00  0.00    -0.016 A 
ATOM      7  C6  BZF d   1      -2.198  -0.120   0.207  0.00  0.00     0.022 A 
ATOM      8  C7  BZF d   1      -2.532   0.172   1.487  0.00  0.00     0.029 A 
ATOM      9  C7A BZF d   1      -1.556   0.011   2.440  0.00  0.00     0.058 A 
ENDROOT
TORSDOF 0
ENDMDL
