MODEL 1
REMARK minimizedAffinity -1.70069146
REMARK minimizedRMSD -1
REMARK  0 active torsions:
REMARK  status: ('A' for Active; 'I' for Inactive)
ROOT
ATOM      1  C1  BNZ d   1       1.397   2.690   0.211  0.00  0.00     0.000 A 
ATOM      2  C2  BNZ d   1       1.430   1.537   0.950  0.00  0.00     0.000 A 
ATOM      3  C3  BNZ d   1       1.127   0.332   0.380  0.00  0.00     0.000 A 
ATOM      4  C4  BNZ d   1       0.754   0.286  -0.915  0.00  0.00     0.000 A 
ATOM      5  C5  BNZ d   1       0.707   1.440  -1.670  0.00  0.00     0.000 A 
ATOM      6  C6  BNZ d   1       1.049   2.646  -1.104  0.00  0.00     0.000 A 
ENDROOT
TORSDOF 0
ENDMDL
