MODEL 1
REMARK minimizedAffinity -4.64720345
REMARK minimizedRMSD -1
REMARK  0 active torsions:
REMARK  status: ('A' for Active; 'I' for Inactive)
ROOT
ATOM      1  C1  BNZ d   1       1.465   2.258  -1.861  0.00  0.00     0.000 A 
ATOM      2  C2  BNZ d   1       1.756   0.924  -1.748  0.00  0.00     0.000 A 
ATOM      3  C3  BNZ d   1       1.523   0.253  -0.580  0.00  0.00     0.000 A 
ATOM      4  C4  BNZ d   1       1.038   0.924   0.484  0.00  0.00     0.000 A 
ATOM      5  C5  BNZ d   1       0.749   2.271   0.390  0.00  0.00     0.000 A 
ATOM      6  C6  BNZ d   1       0.948   2.934  -0.799  0.00  0.00     0.000 A 
ENDROOT
TORSDOF 0
ENDMDL
