MODEL 1
REMARK minimizedAffinity -2.96539617
REMARK minimizedRMSD -1
REMARK  0 active torsions:
REMARK  status: ('A' for Active; 'I' for Inactive)
ROOT
ATOM      1  C1  BNZ d   1       1.255   1.471  -2.050  0.00  0.00     0.000 A 
ATOM      2  C2  BNZ d   1       1.247   0.104  -1.984  0.00  0.00     0.000 A 
ATOM      3  C3  BNZ d   1       0.958  -0.538  -0.812  0.00  0.00     0.000 A 
ATOM      4  C4  BNZ d   1       0.718   0.187   0.300  0.00  0.00     0.000 A 
ATOM      5  C5  BNZ d   1       0.732   1.567   0.251  0.00  0.00     0.000 A 
ATOM      6  C6  BNZ d   1       0.985   2.210  -0.940  0.00  0.00     0.000 A 
ENDROOT
TORSDOF 0
ENDMDL
