MODEL 1
REMARK minimizedAffinity -1.60980392
REMARK minimizedRMSD -1
REMARK  0 active torsions:
REMARK  status: ('A' for Active; 'I' for Inactive)
ROOT
ATOM      1  C1  BNZ d   1       0.572   1.368  -0.032  0.00  0.00     0.000 A 
ATOM      2  C2  BNZ d   1       1.118   0.125  -0.211  0.00  0.00     0.000 A 
ATOM      3  C3  BNZ d   1       1.888  -0.150  -1.306  0.00  0.00     0.000 A 
ATOM      4  C4  BNZ d   1       2.079   0.804  -2.240  0.00  0.00     0.000 A 
ATOM      5  C5  BNZ d   1       1.528   2.060  -2.078  0.00  0.00     0.000 A 
ATOM      6  C6  BNZ d   1       0.785   2.345  -0.956  0.00  0.00     0.000 A 
ENDROOT
TORSDOF 0
ENDMDL
