MODEL 1
REMARK minimizedAffinity 0.838932276
REMARK minimizedRMSD -1
REMARK  0 active torsions:
REMARK  status: ('A' for Active; 'I' for Inactive)
ROOT
ATOM      1  C1  BNZ d   1       0.527   1.550   0.097  0.00  0.00     0.000 A 
ATOM      2  C2  BNZ d   1       1.661   1.822   0.815  0.00  0.00     0.000 A 
ATOM      3  C3  BNZ d   1       2.707   0.942   0.833  0.00  0.00     0.000 A 
ATOM      4  C4  BNZ d   1       2.602  -0.226   0.167  0.00  0.00     0.000 A 
ATOM      5  C5  BNZ d   1       1.462  -0.519  -0.554  0.00  0.00     0.000 A 
ATOM      6  C6  BNZ d   1       0.427   0.386  -0.602  0.00  0.00     0.000 A 
ENDROOT
TORSDOF 0
ENDMDL
