MODEL 1
REMARK minimizedAffinity -0.205867261
REMARK minimizedRMSD -1
REMARK  0 active torsions:
REMARK  status: ('A' for Active; 'I' for Inactive)
ROOT
ATOM      1  C1  BNZ d   1       1.086  -0.115   0.123  0.00  0.00     0.000 A 
ATOM      2  C2  BNZ d   1       0.375   0.989   0.508  0.00  0.00     0.000 A 
ATOM      3  C3  BNZ d   1       0.377   2.124  -0.255  0.00  0.00     0.000 A 
ATOM      4  C4  BNZ d   1       1.121   2.166  -1.379  0.00  0.00     0.000 A 
ATOM      5  C5  BNZ d   1       1.851   1.064  -1.775  0.00  0.00     0.000 A 
ATOM      6  C6  BNZ d   1       1.816  -0.090  -1.026  0.00  0.00     0.000 A 
ENDROOT
TORSDOF 0
ENDMDL
