MODEL 1
REMARK minimizedAffinity 0.623920739
REMARK minimizedRMSD -1
REMARK  0 active torsions:
REMARK  status: ('A' for Active; 'I' for Inactive)
ROOT
ATOM      1  C1  BNZ d   1       0.927   1.050   0.812  0.00  0.00     0.000 A 
ATOM      2  C2  BNZ d   1       0.752   2.337   0.377  0.00  0.00     0.000 A 
ATOM      3  C3  BNZ d   1       0.956   2.667  -0.933  0.00  0.00     0.000 A 
ATOM      4  C4  BNZ d   1       1.374   1.719  -1.798  0.00  0.00     0.000 A 
ATOM      5  C5  BNZ d   1       1.564   0.420  -1.373  0.00  0.00     0.000 A 
ATOM      6  C6  BNZ d   1       1.320   0.083  -0.061  0.00  0.00     0.000 A 
ENDROOT
TORSDOF 0
ENDMDL
