MODEL 1
REMARK minimizedAffinity -0.90534234
REMARK minimizedRMSD -1
REMARK  0 active torsions:
REMARK  status: ('A' for Active; 'I' for Inactive)
ROOT
ATOM      1  C1  BNZ d   1       0.660  -0.005  -1.100  0.00  0.00     0.000 A 
ATOM      2  C2  BNZ d   1       1.171  -0.205   0.155  0.00  0.00     0.000 A 
ATOM      3  C3  BNZ d   1       1.482   0.854   0.960  0.00  0.00     0.000 A 
ATOM      4  C4  BNZ d   1       1.321   2.110   0.497  0.00  0.00     0.000 A 
ATOM      5  C5  BNZ d   1       0.815   2.328  -0.770  0.00  0.00     0.000 A 
ATOM      6  C6  BNZ d   1       0.466   1.259  -1.563  0.00  0.00     0.000 A 
ENDROOT
TORSDOF 0
ENDMDL
