MODEL 1
REMARK minimizedAffinity -4.15060568
REMARK minimizedRMSD -1
REMARK  0 active torsions:
REMARK  status: ('A' for Active; 'I' for Inactive)
ROOT
ATOM      1  C1  BNZ d   1       0.739   1.513   0.827  0.00  0.00     0.000 A 
ATOM      2  C2  BNZ d   1       0.879   0.401   0.040  0.00  0.00     0.000 A 
ATOM      3  C3  BNZ d   1       1.150   0.518  -1.295  0.00  0.00     0.000 A 
ATOM      4  C4  BNZ d   1       1.241   1.745  -1.848  0.00  0.00     0.000 A 
ATOM      5  C5  BNZ d   1       1.093   2.875  -1.070  0.00  0.00     0.000 A 
ATOM      6  C6  BNZ d   1       0.859   2.754   0.281  0.00  0.00     0.000 A 
ENDROOT
TORSDOF 0
ENDMDL
