MODEL 1
REMARK minimizedAffinity -2.23867273
REMARK minimizedRMSD -1
REMARK  0 active torsions:
REMARK  status: ('A' for Active; 'I' for Inactive)
ROOT
ATOM      1  C1  BNZ d   1      -3.711   0.904   2.792  0.00  0.00     0.000 A 
ATOM      2  C2  BNZ d   1      -3.410   0.286   3.976  0.00  0.00     0.000 A 
ATOM      3  C3  BNZ d   1      -2.493   0.826   4.834  0.00  0.00     0.000 A 
ATOM      4  C4  BNZ d   1      -1.850   1.960   4.490  0.00  0.00     0.000 A 
ATOM      5  C5  BNZ d   1      -2.136   2.590   3.295  0.00  0.00     0.000 A 
ATOM      6  C6  BNZ d   1      -3.087   2.065   2.452  0.00  0.00     0.000 A 
ENDROOT
TORSDOF 0
ENDMDL
