MODEL 1
REMARK minimizedAffinity -5.06097698
REMARK minimizedRMSD -1
REMARK  0 active torsions:
REMARK  status: ('A' for Active; 'I' for Inactive)
ROOT
ATOM      1  C1  BNZ d   1       1.513   2.215  -1.522  0.00  0.00     0.000 A 
ATOM      2  C2  BNZ d   1       1.603   0.882  -1.223  0.00  0.00     0.000 A 
ATOM      3  C3  BNZ d   1       1.130   0.397  -0.035  0.00  0.00     0.000 A 
ATOM      4  C4  BNZ d   1       0.604   1.251   0.867  0.00  0.00     0.000 A 
ATOM      5  C5  BNZ d   1       0.514   2.599   0.583  0.00  0.00     0.000 A 
ATOM      6  C6  BNZ d   1       0.956   3.078  -0.629  0.00  0.00     0.000 A 
ENDROOT
TORSDOF 0
ENDMDL
