MODEL 1
REMARK minimizedAffinity -2.07825851
REMARK minimizedRMSD -1
REMARK  0 active torsions:
REMARK  status: ('A' for Active; 'I' for Inactive)
ROOT
ATOM      1  C1  BNZ d   1       0.722   0.329   0.378  0.00  0.00     0.000 A 
ATOM      2  C2  BNZ d   1       0.360   1.647   0.295  0.00  0.00     0.000 A 
ATOM      3  C3  BNZ d   1       0.601   2.369  -0.840  0.00  0.00     0.000 A 
ATOM      4  C4  BNZ d   1       1.238   1.785  -1.875  0.00  0.00     0.000 A 
ATOM      5  C5  BNZ d   1       1.618   0.460  -1.803  0.00  0.00     0.000 A 
ATOM      6  C6  BNZ d   1       1.339  -0.275  -0.674  0.00  0.00     0.000 A 
ENDROOT
TORSDOF 0
ENDMDL
