MODEL 1
REMARK minimizedAffinity -0.184057251
REMARK minimizedRMSD -1
REMARK  0 active torsions:
REMARK  status: ('A' for Active; 'I' for Inactive)
ROOT
ATOM      1  C1  BNZ d   1       1.446  -0.279  -0.792  0.00  0.00     0.000 A 
ATOM      2  C2  BNZ d   1       1.202   0.003  -2.110  0.00  0.00     0.000 A 
ATOM      3  C3  BNZ d   1       0.844   1.263  -2.501  0.00  0.00     0.000 A 
ATOM      4  C4  BNZ d   1       0.691   2.228  -1.571  0.00  0.00     0.000 A 
ATOM      5  C5  BNZ d   1       0.924   1.957  -0.238  0.00  0.00     0.000 A 
ATOM      6  C6  BNZ d   1       1.323   0.697   0.148  0.00  0.00     0.000 A 
ENDROOT
TORSDOF 0
ENDMDL
