MODEL 1
REMARK minimizedAffinity -0.658664405
REMARK minimizedRMSD -1
REMARK  2 active torsions:
REMARK  status: ('A' for Active; 'I' for Inactive)
REMARK    1  A    between atoms: C2'_3  and  C1'_4 
REMARK    2  A    between atoms: C1'_4  and  C1_5 
ROOT
ATOM      1  C1  I4B d   1       0.020   0.629   0.732  0.00  0.00    -0.075 A 
ATOM      2  C2  I4B d   1      -0.049  -0.731   0.558  0.00  0.00     0.003 A 
ATOM      3  C3  I4B d   1       1.126  -1.478   0.306  0.00  0.00     0.002 A 
ATOM      4  C4  I4B d   1       2.335  -0.824   0.187  0.00  0.00    -0.004 A 
ATOM      5  C5  I4B d   1       2.408   0.551   0.387  0.00  0.00     0.002 A 
ATOM      6  C6  I4B d   1       1.245   1.281   0.673  0.00  0.00     0.003 A 
ENDROOT
BRANCH   1   7
ATOM      7  C1' I4B d   1      -1.245   1.392   0.964  0.00  0.00     0.060 C 
BRANCH   7   8
ATOM      8  C2' I4B d   1      -0.872   2.791   1.412  0.00  0.00    -0.013 C 
ATOM      9  C4' I4B d   1      -1.039   3.784   0.292  0.00  0.00     0.013 C 
ATOM     10  C3' I4B d   1      -1.734   3.147   2.585  0.00  0.00     0.013 C 
ENDBRANCH   7   8
ENDBRANCH   1   7
TORSDOF 2
ENDMDL
