MODEL 1
REMARK minimizedAffinity 1.61448956
REMARK minimizedRMSD -1
REMARK  2 active torsions:
REMARK  status: ('A' for Active; 'I' for Inactive)
REMARK    1  A    between atoms: C2'_3  and  C1'_4 
REMARK    2  A    between atoms: C1'_4  and  C1_5 
ROOT
ATOM      1  C1  I4B d   1       1.203   1.518   0.972  0.00  0.00    -0.075 A 
ATOM      2  C2  I4B d   1       0.406   2.608   1.219  0.00  0.00     0.003 A 
ATOM      3  C3  I4B d   1      -1.001   2.501   1.111  0.00  0.00     0.002 A 
ATOM      4  C4  I4B d   1      -1.563   1.307   0.708  0.00  0.00    -0.004 A 
ATOM      5  C5  I4B d   1      -0.756   0.196   0.481  0.00  0.00     0.002 A 
ATOM      6  C6  I4B d   1       0.636   0.299   0.626  0.00  0.00     0.003 A 
ENDROOT
BRANCH   1   7
ATOM      7  C1' I4B d   1       2.688   1.675   1.063  0.00  0.00     0.060 C 
BRANCH   7   8
ATOM      8  C2' I4B d   1       2.990   2.589   2.233  0.00  0.00    -0.013 C 
ATOM      9  C4' I4B d   1       4.465   2.617   2.536  0.00  0.00     0.013 C 
ATOM     10  C3' I4B d   1       2.480   3.958   1.895  0.00  0.00     0.013 C 
ENDBRANCH   7   8
ENDBRANCH   1   7
TORSDOF 2
ENDMDL
