MODEL 1
REMARK minimizedAffinity 6.83047247
REMARK minimizedRMSD -1
REMARK  2 active torsions:
REMARK  status: ('A' for Active; 'I' for Inactive)
REMARK    1  A    between atoms: C2'_3  and  C1'_4 
REMARK    2  A    between atoms: C1'_4  and  C1_5 
ROOT
ATOM      1  C1  I4B d   1       0.220   0.984   0.301  0.00  0.00    -0.075 A 
ATOM      2  C2  I4B d   1      -0.044   2.329   0.381  0.00  0.00     0.003 A 
ATOM      3  C3  I4B d   1      -1.343   2.782   0.716  0.00  0.00     0.002 A 
ATOM      4  C4  I4B d   1      -2.354   1.863   0.910  0.00  0.00    -0.004 A 
ATOM      5  C5  I4B d   1      -2.079   0.500   0.851  0.00  0.00     0.002 A 
ATOM      6  C6  I4B d   1      -0.782   0.057   0.557  0.00  0.00     0.003 A 
ENDROOT
BRANCH   1   7
ATOM      7  C1' I4B d   1       1.595   0.542  -0.086  0.00  0.00     0.060 C 
BRANCH   7   8
ATOM      8  C2' I4B d   1       1.568   0.163  -1.553  0.00  0.00    -0.013 C 
ATOM      9  C4' I4B d   1       1.517   1.386  -2.431  0.00  0.00     0.013 C 
ATOM     10  C3' I4B d   1       2.787  -0.660  -1.842  0.00  0.00     0.013 C 
ENDBRANCH   7   8
ENDBRANCH   1   7
TORSDOF 2
ENDMDL
