MODEL 1
REMARK minimizedAffinity 2.39986444
REMARK minimizedRMSD -1
REMARK  2 active torsions:
REMARK  status: ('A' for Active; 'I' for Inactive)
REMARK    1  A    between atoms: C2'_3  and  C1'_4 
REMARK    2  A    between atoms: C1'_4  and  C1_5 
ROOT
ATOM      1  C1  I4B d   1       0.732   1.656   1.103  0.00  0.00    -0.075 A 
ATOM      2  C2  I4B d   1       0.327   0.398   0.733  0.00  0.00     0.003 A 
ATOM      3  C3  I4B d   1      -1.051   0.106   0.590  0.00  0.00     0.002 A 
ATOM      4  C4  I4B d   1      -1.986   1.081   0.872  0.00  0.00    -0.004 A 
ATOM      5  C5  I4B d   1      -1.573   2.363   1.225  0.00  0.00     0.002 A 
ATOM      6  C6  I4B d   1      -0.205   2.656   1.329  0.00  0.00     0.003 A 
ENDROOT
BRANCH   1   7
ATOM      7  C1' I4B d   1       2.194   1.921   1.278  0.00  0.00     0.060 C 
BRANCH   7   8
ATOM      8  C2' I4B d   1       2.350   3.000   2.330  0.00  0.00    -0.013 C 
ATOM      9  C4' I4B d   1       3.556   2.746   3.196  0.00  0.00     0.013 C 
ATOM     10  C3' I4B d   1       2.457   4.320   1.626  0.00  0.00     0.013 C 
ENDBRANCH   7   8
ENDBRANCH   1   7
TORSDOF 2
ENDMDL
