MODEL 1
REMARK minimizedAffinity 3.40966749
REMARK minimizedRMSD -1
REMARK  2 active torsions:
REMARK  status: ('A' for Active; 'I' for Inactive)
REMARK    1  A    between atoms: C2'_3  and  C1'_4 
REMARK    2  A    between atoms: C1'_4  and  C1_5 
ROOT
ATOM      1  C1  I4B d   1       0.078   0.164   0.865  0.00  0.00    -0.075 A 
ATOM      2  C2  I4B d   1      -0.021   1.532   0.809  0.00  0.00     0.003 A 
ATOM      3  C3  I4B d   1      -1.272   2.164   1.013  0.00  0.00     0.002 A 
ATOM      4  C4  I4B d   1      -2.398   1.394   1.219  0.00  0.00    -0.004 A 
ATOM      5  C5  I4B d   1      -2.291   0.008   1.297  0.00  0.00     0.002 A 
ATOM      6  C6  I4B d   1      -1.043  -0.611   1.132  0.00  0.00     0.003 A 
ENDROOT
BRANCH   1   7
ATOM      7  C1' I4B d   1       1.408  -0.473   0.612  0.00  0.00     0.060 C 
BRANCH   7   8
ATOM      8  C2' I4B d   1       2.299   0.556  -0.054  0.00  0.00    -0.013 C 
ATOM      9  C4' I4B d   1       3.156   1.271   0.957  0.00  0.00     0.013 C 
ATOM     10  C3' I4B d   1       3.141  -0.151  -1.074  0.00  0.00     0.013 C 
ENDBRANCH   7   8
ENDBRANCH   1   7
TORSDOF 2
ENDMDL
