MODEL 1
REMARK minimizedAffinity 3.31118011
REMARK minimizedRMSD -1
REMARK  2 active torsions:
REMARK  status: ('A' for Active; 'I' for Inactive)
REMARK    1  A    between atoms: C2'_3  and  C1'_4 
REMARK    2  A    between atoms: C1'_4  and  C1_5 
ROOT
ATOM      1  C1  I4B d   1      -0.653   1.691   0.758  0.00  0.00    -0.075 A 
ATOM      2  C2  I4B d   1       0.272   0.695   0.567  0.00  0.00     0.003 A 
ATOM      3  C3  I4B d   1      -0.129  -0.663   0.579  0.00  0.00     0.002 A 
ATOM      4  C4  I4B d   1      -1.448  -0.979   0.833  0.00  0.00    -0.004 A 
ATOM      5  C5  I4B d   1      -2.389   0.032   1.003  0.00  0.00     0.002 A 
ATOM      6  C6  I4B d   1      -1.992   1.376   0.953  0.00  0.00     0.003 A 
ENDROOT
BRANCH   1   7
ATOM      7  C1' I4B d   1      -0.190   3.113   0.773  0.00  0.00     0.060 C 
BRANCH   7   8
ATOM      8  C2' I4B d   1       0.470   3.375   2.111  0.00  0.00    -0.013 C 
ATOM      9  C4' I4B d   1      -0.424   2.960   3.250  0.00  0.00     0.013 C 
ATOM     10  C3' I4B d   1       1.769   2.627   2.142  0.00  0.00     0.013 C 
ENDBRANCH   7   8
ENDBRANCH   1   7
TORSDOF 2
ENDMDL
