MODEL 1
REMARK minimizedAffinity 1.27094877
REMARK minimizedRMSD -1
REMARK  2 active torsions:
REMARK  status: ('A' for Active; 'I' for Inactive)
REMARK    1  A    between atoms: C2'_3  and  C1'_4 
REMARK    2  A    between atoms: C1'_4  and  C1_5 
ROOT
ATOM      1  C1  I4B d   1       0.216   0.234   0.914  0.00  0.00    -0.075 A 
ATOM      2  C2  I4B d   1       0.361   1.599   0.934  0.00  0.00     0.003 A 
ATOM      3  C3  I4B d   1      -0.771   2.434   1.101  0.00  0.00     0.002 A 
ATOM      4  C4  I4B d   1      -2.026   1.867   1.193  0.00  0.00    -0.004 A 
ATOM      5  C5  I4B d   1      -2.168   0.483   1.196  0.00  0.00     0.002 A 
ATOM      6  C6  I4B d   1      -1.040  -0.340   1.068  0.00  0.00     0.003 A 
ENDROOT
BRANCH   1   7
ATOM      7  C1' I4B d   1       1.428  -0.616   0.703  0.00  0.00     0.060 C 
BRANCH   7   8
ATOM      8  C2' I4B d   1       2.489   0.239   0.043  0.00  0.00    -0.013 C 
ATOM      9  C4' I4B d   1       3.419   0.840   1.064  0.00  0.00     0.013 C 
ATOM     10  C3' I4B d   1       3.238  -0.622  -0.931  0.00  0.00     0.013 C 
ENDBRANCH   7   8
ENDBRANCH   1   7
TORSDOF 2
ENDMDL
