MODEL 1
REMARK minimizedAffinity 3.13234663
REMARK minimizedRMSD -1
REMARK  2 active torsions:
REMARK  status: ('A' for Active; 'I' for Inactive)
REMARK    1  A    between atoms: C2'_3  and  C1'_4 
REMARK    2  A    between atoms: C1'_4  and  C1_5 
ROOT
ATOM      1  C1  I4B d   1       0.085   2.782   1.950  0.00  0.00    -0.075 A 
ATOM      2  C2  I4B d   1      -0.857   2.820   2.948  0.00  0.00     0.003 A 
ATOM      3  C3  I4B d   1      -0.456   2.819   4.306  0.00  0.00     0.002 A 
ATOM      4  C4  I4B d   1       0.884   2.729   4.620  0.00  0.00    -0.004 A 
ATOM      5  C5  I4B d   1       1.839   2.713   3.607  0.00  0.00     0.002 A 
ATOM      6  C6  I4B d   1       1.438   2.752   2.263  0.00  0.00     0.003 A 
ENDROOT
BRANCH   1   7
ATOM      7  C1' I4B d   1      -0.374   2.751   0.527  0.00  0.00     0.060 C 
BRANCH   7   8
ATOM      8  C2' I4B d   1      -0.216   1.333   0.016  0.00  0.00    -0.013 C 
ATOM      9  C4' I4B d   1       1.136   0.773   0.371  0.00  0.00     0.013 C 
ATOM     10  C3' I4B d   1      -1.318   0.504   0.606  0.00  0.00     0.013 C 
ENDBRANCH   7   8
ENDBRANCH   1   7
TORSDOF 2
ENDMDL
