MODEL 1
REMARK minimizedAffinity 5.35613632
REMARK minimizedRMSD -1
REMARK  2 active torsions:
REMARK  status: ('A' for Active; 'I' for Inactive)
REMARK    1  A    between atoms: C2'_3  and  C1'_4 
REMARK    2  A    between atoms: C1'_4  and  C1_5 
ROOT
ATOM      1  C1  I4B d   1      -0.892  -1.971  -1.028  0.00  0.00    -0.075 A 
ATOM      2  C2  I4B d   1       0.413  -1.644  -1.301  0.00  0.00     0.003 A 
ATOM      3  C3  I4B d   1       1.082  -0.671  -0.521  0.00  0.00     0.002 A 
ATOM      4  C4  I4B d   1       0.398  -0.017   0.484  0.00  0.00    -0.004 A 
ATOM      5  C5  I4B d   1      -0.918  -0.366   0.774  0.00  0.00     0.002 A 
ATOM      6  C6  I4B d   1      -1.563  -1.358   0.021  0.00  0.00     0.003 A 
ENDROOT
BRANCH   1   7
ATOM      7  C1' I4B d   1      -1.578  -2.980  -1.893  0.00  0.00     0.060 C 
BRANCH   7   8
ATOM      8  C2' I4B d   1      -1.477  -4.328  -1.209  0.00  0.00    -0.013 C 
ATOM      9  C4' I4B d   1      -2.830  -4.977  -1.079  0.00  0.00     0.013 C 
ATOM     10  C3' I4B d   1      -0.540  -5.184  -2.008  0.00  0.00     0.013 C 
ENDBRANCH   7   8
ENDBRANCH   1   7
TORSDOF 2
ENDMDL
