MODEL 1
REMARK minimizedAffinity 11.6447945
REMARK minimizedRMSD -1
REMARK  2 active torsions:
REMARK  status: ('A' for Active; 'I' for Inactive)
REMARK    1  A    between atoms: C2'_3  and  C1'_4 
REMARK    2  A    between atoms: C1'_4  and  C1_5 
ROOT
ATOM      1  C1  I4B d   1      -0.647   0.763   0.751  0.00  0.00    -0.075 A 
ATOM      2  C2  I4B d   1      -0.621   2.130   0.876  0.00  0.00     0.003 A 
ATOM      3  C3  I4B d   1      -1.829   2.855   1.019  0.00  0.00     0.002 A 
ATOM      4  C4  I4B d   1      -3.034   2.183   0.980  0.00  0.00    -0.004 A 
ATOM      5  C5  I4B d   1      -3.057   0.795   0.876  0.00  0.00     0.002 A 
ATOM      6  C6  I4B d   1      -1.855   0.079   0.774  0.00  0.00     0.003 A 
ENDROOT
BRANCH   1   7
ATOM      7  C1' I4B d   1       0.646   0.032   0.570  0.00  0.00     0.060 C 
BRANCH   7   8
ATOM      8  C2' I4B d   1       1.678   1.024   0.074  0.00  0.00    -0.013 C 
ATOM      9  C4' I4B d   1       2.810   1.170   1.056  0.00  0.00     0.013 C 
ATOM     10  C3' I4B d   1       2.175   0.548  -1.259  0.00  0.00     0.013 C 
ENDBRANCH   7   8
ENDBRANCH   1   7
TORSDOF 2
ENDMDL
