MODEL 1
REMARK minimizedAffinity 15.7163115
REMARK minimizedRMSD -1
REMARK  2 active torsions:
REMARK  status: ('A' for Active; 'I' for Inactive)
REMARK    1  A    between atoms: C2'_3  and  C1'_4 
REMARK    2  A    between atoms: C1'_4  and  C1_5 
ROOT
ATOM      1  C1  I4B d   1       2.179  -0.138  -1.262  0.00  0.00    -0.075 A 
ATOM      2  C2  I4B d   1       1.449   0.385  -2.300  0.00  0.00     0.003 A 
ATOM      3  C3  I4B d   1       1.965   0.358  -3.618  0.00  0.00     0.002 A 
ATOM      4  C4  I4B d   1       3.227  -0.153  -3.844  0.00  0.00    -0.004 A 
ATOM      5  C5  I4B d   1       3.955  -0.704  -2.794  0.00  0.00     0.002 A 
ATOM      6  C6  I4B d   1       3.423  -0.708  -1.496  0.00  0.00     0.003 A 
ENDROOT
BRANCH   1   7
ATOM      7  C1' I4B d   1       1.618  -0.063   0.123  0.00  0.00     0.060 C 
BRANCH   7   8
ATOM      8  C2' I4B d   1       1.412   1.399   0.464  0.00  0.00    -0.013 C 
ATOM      9  C4' I4B d   1       0.171   1.595   1.295  0.00  0.00     0.013 C 
ATOM     10  C3' I4B d   1       2.632   1.881   1.191  0.00  0.00     0.013 C 
ENDBRANCH   7   8
ENDBRANCH   1   7
TORSDOF 2
ENDMDL
