MODEL 1
REMARK minimizedAffinity -3.06971836
REMARK minimizedRMSD -1
REMARK  0 active torsions:
REMARK  status: ('A' for Active; 'I' for Inactive)
ROOT
ATOM      1  C   UNL d   1      -1.287   0.354   0.126  0.00  0.00     0.172 C 
ATOM      2  N   UNL d   1       0.000  -0.102  -0.343  0.00  0.00    -0.070 N 
ATOM      3  C1  UNL d   1       0.938   0.670  -0.976  0.00  0.00    -0.004 A 
ATOM      4  C2  UNL d   1       2.023  -0.131  -1.260  0.00  0.00    -0.047 A 
ATOM      5  C3  UNL d   1       1.726  -1.430  -0.781  0.00  0.00    -0.047 A 
ATOM      6  C4  UNL d   1       0.468  -1.383  -0.218  0.00  0.00    -0.004 A 
ENDROOT
TORSDOF 0
ENDMDL
