MODEL 1
REMARK minimizedAffinity -1.5822978
REMARK minimizedRMSD -1
REMARK  0 active torsions:
REMARK  status: ('A' for Active; 'I' for Inactive)
ROOT
ATOM      1  C   UNL d   1      -0.606  -1.999  -0.653  0.00  0.00     0.172 C 
ATOM      2  N   UNL d   1       0.618  -1.236  -0.581  0.00  0.00    -0.070 N 
ATOM      3  C1  UNL d   1       0.847  -0.171   0.249  0.00  0.00    -0.004 A 
ATOM      4  C2  UNL d   1       2.129   0.278   0.015  0.00  0.00    -0.047 A 
ATOM      5  C3  UNL d   1       2.689  -0.544  -0.991  0.00  0.00    -0.047 A 
ATOM      6  C4  UNL d   1       1.732  -1.473  -1.342  0.00  0.00    -0.004 A 
ENDROOT
TORSDOF 0
ENDMDL
