MODEL 1
REMARK minimizedAffinity -2.20961261
REMARK minimizedRMSD -1
REMARK  0 active torsions:
REMARK  status: ('A' for Active; 'I' for Inactive)
ROOT
ATOM      1  C   UNL d   1       0.079  -1.603   0.043  0.00  0.00     0.172 C 
ATOM      2  N   UNL d   1       1.186  -1.027  -0.684  0.00  0.00    -0.070 N 
ATOM      3  C1  UNL d   1       1.490   0.307  -0.750  0.00  0.00    -0.004 A 
ATOM      4  C2  UNL d   1       2.613   0.445  -1.538  0.00  0.00    -0.047 A 
ATOM      5  C3  UNL d   1       2.995  -0.851  -1.961  0.00  0.00    -0.047 A 
ATOM      6  C4  UNL d   1       2.095  -1.743  -1.418  0.00  0.00    -0.004 A 
ENDROOT
TORSDOF 0
ENDMDL
