MODEL 1
REMARK minimizedAffinity -3.60598731
REMARK minimizedRMSD -1
REMARK  0 active torsions:
REMARK  status: ('A' for Active; 'I' for Inactive)
ROOT
ATOM      1  C   UNL d   1      -0.849   0.462   0.184  0.00  0.00     0.172 C 
ATOM      2  N   UNL d   1       0.402  -0.041  -0.332  0.00  0.00    -0.070 N 
ATOM      3  C1  UNL d   1       0.753  -1.361  -0.429  0.00  0.00    -0.004 A 
ATOM      4  C2  UNL d   1       2.019  -1.423  -0.971  0.00  0.00    -0.047 A 
ATOM      5  C3  UNL d   1       2.444  -0.094  -1.207  0.00  0.00    -0.047 A 
ATOM      6  C4  UNL d   1       1.424   0.741  -0.803  0.00  0.00    -0.004 A 
ENDROOT
TORSDOF 0
ENDMDL
