MODEL 1
REMARK minimizedAffinity -3.30422831
REMARK minimizedRMSD -1
REMARK  0 active torsions:
REMARK  status: ('A' for Active; 'I' for Inactive)
ROOT
ATOM      1  C   UNL d   1      -0.297   0.861  -0.341  0.00  0.00     0.172 C 
ATOM      2  N   UNL d   1       0.986   0.242  -0.580  0.00  0.00    -0.070 N 
ATOM      3  C1  UNL d   1       2.194   0.885  -0.586  0.00  0.00    -0.004 A 
ATOM      4  C2  UNL d   1       3.170  -0.051  -0.850  0.00  0.00    -0.047 A 
ATOM      5  C3  UNL d   1       2.525  -1.301  -1.010  0.00  0.00    -0.047 A 
ATOM      6  C4  UNL d   1       1.174  -1.091  -0.837  0.00  0.00    -0.004 A 
ENDROOT
TORSDOF 0
ENDMDL
