MODEL 1
REMARK minimizedAffinity -3.62575006
REMARK minimizedRMSD -1
REMARK  0 active torsions:
REMARK  status: ('A' for Active; 'I' for Inactive)
ROOT
ATOM      1  C   UNL d   1       2.850  -0.359  -0.954  0.00  0.00     0.172 C 
ATOM      2  N   UNL d   1       1.459   0.022  -0.893  0.00  0.00    -0.070 N 
ATOM      3  C1  UNL d   1       0.441  -0.749  -0.397  0.00  0.00    -0.004 A 
ATOM      4  C2  UNL d   1      -0.729  -0.030  -0.516  0.00  0.00    -0.047 A 
ATOM      5  C3  UNL d   1      -0.404   1.215  -1.105  0.00  0.00    -0.047 A 
ATOM      6  C4  UNL d   1       0.957   1.220  -1.328  0.00  0.00    -0.004 A 
ENDROOT
TORSDOF 0
ENDMDL
