MODEL 1
REMARK minimizedAffinity -2.92174673
REMARK minimizedRMSD -1
REMARK  0 active torsions:
REMARK  status: ('A' for Active; 'I' for Inactive)
ROOT
ATOM      1  C   UNL d   1       0.921   1.604  -1.907  0.00  0.00     0.172 C 
ATOM      2  N   UNL d   1       0.459   0.485  -1.119  0.00  0.00    -0.070 N 
ATOM      3  C1  UNL d   1       1.175  -0.650  -0.847  0.00  0.00    -0.004 A 
ATOM      4  C2  UNL d   1       0.387  -1.470  -0.069  0.00  0.00    -0.047 A 
ATOM      5  C3  UNL d   1      -0.846  -0.805   0.133  0.00  0.00    -0.047 A 
ATOM      6  C4  UNL d   1      -0.774   0.403  -0.528  0.00  0.00    -0.004 A 
ENDROOT
TORSDOF 0
ENDMDL
