MODEL 1
REMARK minimizedAffinity -2.23926497
REMARK minimizedRMSD -1
REMARK  0 active torsions:
REMARK  status: ('A' for Active; 'I' for Inactive)
ROOT
ATOM      1  C   UNL d   1      -1.667   0.143   0.556  0.00  0.00     0.172 C 
ATOM      2  N   UNL d   1      -1.713   0.426   1.972  0.00  0.00    -0.070 N 
ATOM      3  C1  UNL d   1      -0.700   0.199   2.864  0.00  0.00    -0.004 A 
ATOM      4  C2  UNL d   1      -1.136   0.602   4.108  0.00  0.00    -0.047 A 
ATOM      5  C3  UNL d   1      -2.457   1.086   3.958  0.00  0.00    -0.047 A 
ATOM      6  C4  UNL d   1      -2.790   0.965   2.625  0.00  0.00    -0.004 A 
ENDROOT
TORSDOF 0
ENDMDL
