MODEL 1
REMARK minimizedAffinity -2.56152201
REMARK minimizedRMSD -1
REMARK  0 active torsions:
REMARK  status: ('A' for Active; 'I' for Inactive)
ROOT
ATOM      1  C   UNL d   1      -0.907   0.316   0.662  0.00  0.00     0.172 C 
ATOM      2  N   UNL d   1       0.148  -0.283  -0.121  0.00  0.00    -0.070 N 
ATOM      3  C1  UNL d   1       0.665   0.223  -1.284  0.00  0.00    -0.004 A 
ATOM      4  C2  UNL d   1       1.649  -0.639  -1.718  0.00  0.00    -0.047 A 
ATOM      5  C3  UNL d   1       1.726  -1.700  -0.785  0.00  0.00    -0.047 A 
ATOM      6  C4  UNL d   1       0.786  -1.454   0.194  0.00  0.00    -0.004 A 
ENDROOT
TORSDOF 0
ENDMDL
