MODEL 1
REMARK minimizedAffinity -2.55361295
REMARK minimizedRMSD -1
REMARK  0 active torsions:
REMARK  status: ('A' for Active; 'I' for Inactive)
ROOT
ATOM      1  C   UNL d   1      -0.198   1.484  -1.540  0.00  0.00     0.172 C 
ATOM      2  N   UNL d   1       0.313   0.250  -0.992  0.00  0.00    -0.070 N 
ATOM      3  C1  UNL d   1       1.234  -0.568  -1.590  0.00  0.00    -0.004 A 
ATOM      4  C2  UNL d   1       1.456  -1.638  -0.751  0.00  0.00    -0.047 A 
ATOM      5  C3  UNL d   1       0.639  -1.458   0.391  0.00  0.00    -0.047 A 
ATOM      6  C4  UNL d   1      -0.058  -0.281   0.215  0.00  0.00    -0.004 A 
ENDROOT
TORSDOF 0
ENDMDL
