MODEL 1
REMARK minimizedAffinity -3.38582993
REMARK minimizedRMSD -1
REMARK  0 active torsions:
REMARK  status: ('A' for Active; 'I' for Inactive)
ROOT
ATOM      1  C   UNL d   1      -0.780  -1.223  -0.269  0.00  0.00     0.172 C 
ATOM      2  N   UNL d   1       0.595  -0.869  -0.530  0.00  0.00    -0.070 N 
ATOM      3  C1  UNL d   1       1.228   0.259  -0.081  0.00  0.00    -0.004 A 
ATOM      4  C2  UNL d   1       2.526   0.227  -0.543  0.00  0.00    -0.047 A 
ATOM      5  C3  UNL d   1       2.678  -0.961  -1.297  0.00  0.00    -0.047 A 
ATOM      6  C4  UNL d   1       1.468  -1.621  -1.272  0.00  0.00    -0.004 A 
ENDROOT
TORSDOF 0
ENDMDL
