MODEL 1
REMARK minimizedAffinity -3.46487284
REMARK minimizedRMSD -1
REMARK  0 active torsions:
REMARK  status: ('A' for Active; 'I' for Inactive)
ROOT
ATOM      1  C   UNL d   1       1.667   1.952  -2.925  0.00  0.00     0.172 C 
ATOM      2  N   UNL d   1       1.745   0.787  -2.075  0.00  0.00    -0.070 N 
ATOM      3  C1  UNL d   1       0.777   0.369  -1.202  0.00  0.00    -0.004 A 
ATOM      4  C2  UNL d   1       1.232  -0.776  -0.584  0.00  0.00    -0.047 A 
ATOM      5  C3  UNL d   1       2.518  -1.054  -1.102  0.00  0.00    -0.047 A 
ATOM      6  C4  UNL d   1       2.812  -0.071  -2.024  0.00  0.00    -0.004 A 
ENDROOT
TORSDOF 0
ENDMDL
