MODEL 1
REMARK minimizedAffinity -3.30307341
REMARK minimizedRMSD -1
REMARK  0 active torsions:
REMARK  status: ('A' for Active; 'I' for Inactive)
ROOT
ATOM      1  C   UNL d   1      -0.563  -1.239   0.144  0.00  0.00     0.172 C 
ATOM      2  N   UNL d   1       0.585  -0.699  -0.545  0.00  0.00    -0.070 N 
ATOM      3  C1  UNL d   1       0.756   0.611  -0.905  0.00  0.00    -0.004 A 
ATOM      4  C2  UNL d   1       1.975   0.719  -1.539  0.00  0.00    -0.047 A 
ATOM      5  C3  UNL d   1       2.556  -0.571  -1.561  0.00  0.00    -0.047 A 
ATOM      6  C4  UNL d   1       1.674  -1.430  -0.939  0.00  0.00    -0.004 A 
ENDROOT
TORSDOF 0
ENDMDL
