MODEL 1
REMARK minimizedAffinity -3.76050162
REMARK minimizedRMSD -1
REMARK  0 active torsions:
REMARK  status: ('A' for Active; 'I' for Inactive)
ROOT
ATOM      1  C   UNL d   1      -0.349  -1.686  -0.176  0.00  0.00     0.172 C 
ATOM      2  N   UNL d   1       0.632  -0.653  -0.409  0.00  0.00    -0.070 N 
ATOM      3  C1  UNL d   1       1.958  -0.858  -0.685  0.00  0.00    -0.004 A 
ATOM      4  C2  UNL d   1       2.552   0.375  -0.842  0.00  0.00    -0.047 A 
ATOM      5  C3  UNL d   1       1.550   1.356  -0.653  0.00  0.00    -0.047 A 
ATOM      6  C4  UNL d   1       0.371   0.692  -0.386  0.00  0.00    -0.004 A 
ENDROOT
TORSDOF 0
ENDMDL
