MODEL 1
REMARK minimizedAffinity -4.03727198
REMARK minimizedRMSD -1
REMARK  0 active torsions:
REMARK  status: ('A' for Active; 'I' for Inactive)
ROOT
ATOM      1  C   UNL d   1      -0.706   0.025   0.388  0.00  0.00     0.172 C 
ATOM      2  N   UNL d   1       0.479  -0.402  -0.319  0.00  0.00    -0.070 N 
ATOM      3  C1  UNL d   1       1.524   0.404  -0.685  0.00  0.00    -0.004 A 
ATOM      4  C2  UNL d   1       2.452  -0.379  -1.336  0.00  0.00    -0.047 A 
ATOM      5  C3  UNL d   1       1.948  -1.701  -1.363  0.00  0.00    -0.047 A 
ATOM      6  C4  UNL d   1       0.725  -1.686  -0.726  0.00  0.00    -0.004 A 
ENDROOT
TORSDOF 0
ENDMDL
