MODEL 1
REMARK minimizedAffinity -2.77511907
REMARK minimizedRMSD -1
REMARK  0 active torsions:
REMARK  status: ('A' for Active; 'I' for Inactive)
ROOT
ATOM      1  C   UNL d   1       5.812   1.853   4.828  0.00  0.00     0.172 C 
ATOM      2  N   UNL d   1       5.575   0.429   4.857  0.00  0.00    -0.070 N 
ATOM      3  C1  UNL d   1       5.302  -0.357   3.769  0.00  0.00    -0.004 A 
ATOM      4  C2  UNL d   1       5.142  -1.652   4.213  0.00  0.00    -0.047 A 
ATOM      5  C3  UNL d   1       5.323  -1.644   5.617  0.00  0.00    -0.047 A 
ATOM      6  C4  UNL d   1       5.591  -0.343   5.988  0.00  0.00    -0.004 A 
ENDROOT
TORSDOF 0
ENDMDL
