MODEL 1
REMARK minimizedAffinity 4.15893126
REMARK minimizedRMSD -1
REMARK  0 active torsions:
REMARK  status: ('A' for Active; 'I' for Inactive)
ROOT
ATOM      1  C   UNL d   1      -3.870  -0.691   0.259  0.00  0.00     0.078 C 
ATOM      2  C1  UNL d   1      -2.995   0.257   1.023  0.00  0.00    -0.077 A 
ATOM      3  C2  UNL d   1      -1.639  -0.023   1.233  0.00  0.00    -0.001 A 
ATOM      4  C3  UNL d   1      -0.839   0.864   1.955  0.00  0.00     0.003 A 
ATOM      5  C4  UNL d   1      -1.385   2.036   2.473  0.00  0.00    -0.005 A 
ATOM      6  C5  UNL d   1      -2.733   2.323   2.271  0.00  0.00     0.003 A 
ATOM      7  C6  UNL d   1      -3.536   1.437   1.550  0.00  0.00    -0.001 A 
ENDROOT
TORSDOF 0
ENDMDL
