MODEL 1
REMARK minimizedAffinity 10.4922571
REMARK minimizedRMSD -1
REMARK  0 active torsions:
REMARK  status: ('A' for Active; 'I' for Inactive)
ROOT
ATOM      1  C   UNL d   1      -0.263  -1.954   4.119  0.00  0.00     0.078 C 
ATOM      2  C1  UNL d   1      -0.669  -1.169   2.907  0.00  0.00    -0.077 A 
ATOM      3  C2  UNL d   1      -0.580   0.228   2.889  0.00  0.00    -0.001 A 
ATOM      4  C3  UNL d   1      -0.971   0.946   1.758  0.00  0.00     0.003 A 
ATOM      5  C4  UNL d   1      -1.454   0.275   0.636  0.00  0.00    -0.005 A 
ATOM      6  C5  UNL d   1      -1.548  -1.115   0.646  0.00  0.00     0.003 A 
ATOM      7  C6  UNL d   1      -1.158  -1.835   1.776  0.00  0.00    -0.001 A 
ENDROOT
TORSDOF 0
ENDMDL
