MODEL 1
REMARK minimizedAffinity 2.36225247
REMARK minimizedRMSD -1
REMARK  0 active torsions:
REMARK  status: ('A' for Active; 'I' for Inactive)
ROOT
ATOM      1  C   UNL d   1      -1.755   0.168  -5.984  0.00  0.00     0.078 C 
ATOM      2  C1  UNL d   1      -2.450  -1.161  -5.973  0.00  0.00    -0.077 A 
ATOM      3  C2  UNL d   1      -1.721  -2.356  -6.000  0.00  0.00    -0.001 A 
ATOM      4  C3  UNL d   1      -2.381  -3.586  -5.999  0.00  0.00     0.003 A 
ATOM      5  C4  UNL d   1      -3.773  -3.632  -5.973  0.00  0.00    -0.005 A 
ATOM      6  C5  UNL d   1      -4.507  -2.448  -5.949  0.00  0.00     0.003 A 
ATOM      7  C6  UNL d   1      -3.849  -1.218  -5.949  0.00  0.00    -0.001 A 
ENDROOT
TORSDOF 0
ENDMDL
