MODEL 1
REMARK minimizedAffinity -0.682516992
REMARK minimizedRMSD -1
REMARK  0 active torsions:
REMARK  status: ('A' for Active; 'I' for Inactive)
ROOT
ATOM      1  C   UNL d   1       1.521  -5.467   1.923  0.00  0.00     0.078 C 
ATOM      2  C1  UNL d   1       2.951  -5.437   2.374  0.00  0.00    -0.077 A 
ATOM      3  C2  UNL d   1       3.947  -4.864   1.574  0.00  0.00    -0.001 A 
ATOM      4  C3  UNL d   1       5.276  -4.852   2.001  0.00  0.00     0.003 A 
ATOM      5  C4  UNL d   1       5.621  -5.413   3.229  0.00  0.00    -0.005 A 
ATOM      6  C5  UNL d   1       4.637  -5.987   4.031  0.00  0.00     0.003 A 
ATOM      7  C6  UNL d   1       3.307  -6.000   3.605  0.00  0.00    -0.001 A 
ENDROOT
TORSDOF 0
ENDMDL
