MODEL 1
REMARK minimizedAffinity 2.47811413
REMARK minimizedRMSD -1
REMARK  0 active torsions:
REMARK  status: ('A' for Active; 'I' for Inactive)
ROOT
ATOM      1  C   UNL d   1      -1.297  -2.376  -5.990  0.00  0.00     0.078 C 
ATOM      2  C1  UNL d   1      -2.788  -2.532  -6.000  0.00  0.00    -0.077 A 
ATOM      3  C2  UNL d   1      -3.630  -1.414  -5.998  0.00  0.00    -0.001 A 
ATOM      4  C3  UNL d   1      -5.017  -1.574  -5.997  0.00  0.00     0.003 A 
ATOM      5  C4  UNL d   1      -5.574  -2.851  -5.998  0.00  0.00    -0.005 A 
ATOM      6  C5  UNL d   1      -4.744  -3.970  -5.997  0.00  0.00     0.003 A 
ATOM      7  C6  UNL d   1      -3.357  -3.812  -5.998  0.00  0.00    -0.001 A 
ENDROOT
TORSDOF 0
ENDMDL
