MODEL 1
REMARK minimizedAffinity -1.45961797
REMARK minimizedRMSD -1
REMARK  0 active torsions:
REMARK  status: ('A' for Active; 'I' for Inactive)
ROOT
ATOM      1  C   UNL d   1      -4.872  -2.991  -5.989  0.00  0.00     0.078 C 
ATOM      2  C1  UNL d   1      -3.477  -2.442  -5.998  0.00  0.00    -0.077 A 
ATOM      3  C2  UNL d   1      -2.366  -3.295  -5.999  0.00  0.00    -0.001 A 
ATOM      4  C3  UNL d   1      -1.073  -2.769  -5.999  0.00  0.00     0.003 A 
ATOM      5  C4  UNL d   1      -0.878  -1.390  -5.995  0.00  0.00    -0.005 A 
ATOM      6  C5  UNL d   1      -1.977  -0.533  -5.992  0.00  0.00     0.003 A 
ATOM      7  C6  UNL d   1      -3.271  -1.056  -5.993  0.00  0.00    -0.001 A 
ENDROOT
TORSDOF 0
ENDMDL
