MODEL 1
REMARK minimizedAffinity 6.92110348
REMARK minimizedRMSD -1
REMARK  0 active torsions:
REMARK  status: ('A' for Active; 'I' for Inactive)
ROOT
ATOM      1  C   UNL d   1      -3.756  -1.038   6.000  0.00  0.00     0.078 C 
ATOM      2  C1  UNL d   1      -3.822  -0.242   4.731  0.00  0.00    -0.077 A 
ATOM      3  C2  UNL d   1      -4.878   0.646   4.490  0.00  0.00    -0.001 A 
ATOM      4  C3  UNL d   1      -4.932   1.373   3.300  0.00  0.00     0.003 A 
ATOM      5  C4  UNL d   1      -3.934   1.219   2.340  0.00  0.00    -0.005 A 
ATOM      6  C5  UNL d   1      -2.881   0.336   2.569  0.00  0.00     0.003 A 
ATOM      7  C6  UNL d   1      -2.825  -0.392   3.759  0.00  0.00    -0.001 A 
ENDROOT
TORSDOF 0
ENDMDL
