MODEL 1
REMARK minimizedAffinity 5.33128595
REMARK minimizedRMSD -1
REMARK  0 active torsions:
REMARK  status: ('A' for Active; 'I' for Inactive)
ROOT
ATOM      1  C   UNL d   1      -4.362  -3.052  -5.999  0.00  0.00     0.078 C 
ATOM      2  C1  UNL d   1      -3.147  -2.173  -5.986  0.00  0.00    -0.077 A 
ATOM      3  C2  UNL d   1      -3.266  -0.778  -5.975  0.00  0.00    -0.001 A 
ATOM      4  C3  UNL d   1      -2.126   0.028  -5.973  0.00  0.00     0.003 A 
ATOM      5  C4  UNL d   1      -0.859  -0.552  -5.984  0.00  0.00    -0.005 A 
ATOM      6  C5  UNL d   1      -0.731  -1.940  -5.997  0.00  0.00     0.003 A 
ATOM      7  C6  UNL d   1      -1.869  -2.747  -5.999  0.00  0.00    -0.001 A 
ENDROOT
TORSDOF 0
ENDMDL
