MODEL 1
REMARK minimizedAffinity 9.86836243
REMARK minimizedRMSD -1
REMARK  0 active torsions:
REMARK  status: ('A' for Active; 'I' for Inactive)
ROOT
ATOM      1  C   UNL d   1      -0.857   0.362   1.314  0.00  0.00     0.078 C 
ATOM      2  C1  UNL d   1      -2.351   0.315   1.187  0.00  0.00    -0.077 A 
ATOM      3  C2  UNL d   1      -3.136   1.434   1.490  0.00  0.00    -0.001 A 
ATOM      4  C3  UNL d   1      -4.526   1.372   1.376  0.00  0.00     0.003 A 
ATOM      5  C4  UNL d   1      -5.142   0.194   0.960  0.00  0.00    -0.005 A 
ATOM      6  C5  UNL d   1      -4.369  -0.925   0.659  0.00  0.00     0.003 A 
ATOM      7  C6  UNL d   1      -2.980  -0.866   0.772  0.00  0.00    -0.001 A 
ENDROOT
TORSDOF 0
ENDMDL
