MODEL 1
REMARK minimizedAffinity 2.39312911
REMARK minimizedRMSD -1
REMARK  0 active torsions:
REMARK  status: ('A' for Active; 'I' for Inactive)
ROOT
ATOM      1  C   UNL d   1      -2.423  -4.245  -5.992  0.00  0.00     0.078 C 
ATOM      2  C1  UNL d   1      -3.101  -2.907  -5.988  0.00  0.00    -0.077 A 
ATOM      3  C2  UNL d   1      -4.498  -2.807  -5.990  0.00  0.00    -0.001 A 
ATOM      4  C3  UNL d   1      -5.115  -1.556  -5.996  0.00  0.00     0.003 A 
ATOM      5  C4  UNL d   1      -4.345  -0.395  -6.000  0.00  0.00    -0.005 A 
ATOM      6  C5  UNL d   1      -2.954  -0.485  -6.000  0.00  0.00     0.003 A 
ATOM      7  C6  UNL d   1      -2.334  -1.735  -5.994  0.00  0.00    -0.001 A 
ENDROOT
TORSDOF 0
ENDMDL
