MODEL 1
REMARK minimizedAffinity 4.30964184
REMARK minimizedRMSD -1
REMARK  0 active torsions:
REMARK  status: ('A' for Active; 'I' for Inactive)
ROOT
ATOM      1  C   UNL d   1      -3.354   0.764   1.916  0.00  0.00     0.078 C 
ATOM      2  C1  UNL d   1      -3.751   0.518   3.341  0.00  0.00    -0.077 A 
ATOM      3  C2  UNL d   1      -3.382  -0.661   4.000  0.00  0.00    -0.001 A 
ATOM      4  C3  UNL d   1      -3.767  -0.881   5.323  0.00  0.00     0.003 A 
ATOM      5  C4  UNL d   1      -4.524   0.074   5.999  0.00  0.00    -0.005 A 
ATOM      6  C5  UNL d   1      -4.898   1.249   5.352  0.00  0.00     0.003 A 
ATOM      7  C6  UNL d   1      -4.514   1.471   4.028  0.00  0.00    -0.001 A 
ENDROOT
TORSDOF 0
ENDMDL
