MODEL 1
REMARK minimizedAffinity 5.2794075
REMARK minimizedRMSD -1
REMARK  0 active torsions:
REMARK  status: ('A' for Active; 'I' for Inactive)
ROOT
ATOM      1  C   UNL d   1       4.247   3.105  -5.140  0.00  0.00     0.078 C 
ATOM      2  C1  UNL d   1       3.566   2.128  -4.228  0.00  0.00    -0.077 A 
ATOM      3  C2  UNL d   1       3.303   2.451  -2.892  0.00  0.00    -0.001 A 
ATOM      4  C3  UNL d   1       2.678   1.529  -2.052  0.00  0.00     0.003 A 
ATOM      5  C4  UNL d   1       2.311   0.276  -2.539  0.00  0.00    -0.005 A 
ATOM      6  C5  UNL d   1       2.570  -0.056  -3.867  0.00  0.00     0.003 A 
ATOM      7  C6  UNL d   1       3.196   0.865  -4.708  0.00  0.00    -0.001 A 
ENDROOT
TORSDOF 0
ENDMDL
