MODEL 1
REMARK minimizedAffinity 5.30259895
REMARK minimizedRMSD -1
REMARK  0 active torsions:
REMARK  status: ('A' for Active; 'I' for Inactive)
ROOT
ATOM      1  C   UNL d   1       4.546  -5.999   3.011  0.00  0.00     0.078 C 
ATOM      2  C1  UNL d   1       3.130  -5.653   2.659  0.00  0.00    -0.077 A 
ATOM      3  C2  UNL d   1       2.070  -5.999   3.507  0.00  0.00    -0.001 A 
ATOM      4  C3  UNL d   1       0.756  -5.679   3.162  0.00  0.00     0.003 A 
ATOM      5  C4  UNL d   1       0.489  -5.012   1.968  0.00  0.00    -0.005 A 
ATOM      6  C5  UNL d   1       1.536  -4.666   1.117  0.00  0.00     0.003 A 
ATOM      7  C6  UNL d   1       2.851  -4.985   1.460  0.00  0.00    -0.001 A 
ENDROOT
TORSDOF 0
ENDMDL
