MODEL 1
REMARK minimizedAffinity -0.781830311
REMARK minimizedRMSD -1
REMARK  0 active torsions:
REMARK  status: ('A' for Active; 'I' for Inactive)
ROOT
ATOM      1  C   UNL d   1      -5.886  -3.203  -5.987  0.00  0.00     0.078 C 
ATOM      2  C1  UNL d   1      -4.421  -2.882  -5.998  0.00  0.00    -0.077 A 
ATOM      3  C2  UNL d   1      -3.460  -3.901  -5.999  0.00  0.00    -0.001 A 
ATOM      4  C3  UNL d   1      -2.100  -3.588  -6.000  0.00  0.00     0.003 A 
ATOM      5  C4  UNL d   1      -1.688  -2.257  -5.998  0.00  0.00    -0.005 A 
ATOM      6  C5  UNL d   1      -2.637  -1.236  -5.995  0.00  0.00     0.003 A 
ATOM      7  C6  UNL d   1      -3.998  -1.547  -5.994  0.00  0.00    -0.001 A 
ENDROOT
TORSDOF 0
ENDMDL
