MODEL 1
REMARK minimizedAffinity 8.15197754
REMARK minimizedRMSD -1
REMARK  0 active torsions:
REMARK  status: ('A' for Active; 'I' for Inactive)
ROOT
ATOM      1  C4' PXY d   1      -1.878  -3.846  -5.668  0.00  0.00     0.077 C 
ATOM      2  C1' PXY d   1       0.414   1.100  -3.745  0.00  0.00     0.077 C 
ATOM      3  C1  PXY d   1      -0.183  -0.203  -4.238  0.00  0.00    -0.082 A 
ATOM      4  C2  PXY d   1      -0.333  -0.403  -5.537  0.00  0.00     0.003 A 
ATOM      5  C3  PXY d   1      -0.902  -1.563  -5.999  0.00  0.00     0.003 A 
ATOM      6  C4  PXY d   1      -1.271  -2.549  -5.125  0.00  0.00    -0.082 A 
ATOM      7  C5  PXY d   1      -1.111  -2.357  -3.798  0.00  0.00     0.003 A 
ATOM      8  C6  PXY d   1      -0.570  -1.156  -3.348  0.00  0.00     0.003 A 
ENDROOT
TORSDOF 0
ENDMDL
