MODEL 1
REMARK minimizedAffinity 13.0205564
REMARK minimizedRMSD -1
REMARK  0 active torsions:
REMARK  status: ('A' for Active; 'I' for Inactive)
ROOT
ATOM      1  C4' PXY d   1      -2.681   1.248   1.624  0.00  0.00     0.077 C 
ATOM      2  C1' PXY d   1       2.157  -1.435   3.303  0.00  0.00     0.077 C 
ATOM      3  C1  PXY d   1       0.887  -0.740   2.853  0.00  0.00    -0.082 A 
ATOM      4  C2  PXY d   1       0.691   0.531   3.165  0.00  0.00     0.003 A 
ATOM      5  C3  PXY d   1      -0.466   1.166   2.793  0.00  0.00     0.003 A 
ATOM      6  C4  PXY d   1      -1.409   0.508   2.049  0.00  0.00    -0.082 A 
ATOM      7  C5  PXY d   1      -1.212  -0.785   1.718  0.00  0.00     0.003 A 
ATOM      8  C6  PXY d   1      -0.049  -1.424   2.140  0.00  0.00     0.003 A 
ENDROOT
TORSDOF 0
ENDMDL
