MODEL 1
REMARK minimizedAffinity 4.34645319
REMARK minimizedRMSD -1
REMARK  0 active torsions:
REMARK  status: ('A' for Active; 'I' for Inactive)
ROOT
ATOM      1  C4' PXY d   1      -0.812   1.574   2.183  0.00  0.00     0.077 C 
ATOM      2  C1' PXY d   1       2.188  -2.930   4.215  0.00  0.00     0.077 C 
ATOM      3  C1  PXY d   1       1.399  -1.755   3.671  0.00  0.00    -0.082 A 
ATOM      4  C2  PXY d   1       1.605  -0.545   4.164  0.00  0.00     0.003 A 
ATOM      5  C3  PXY d   1       0.878   0.523   3.706  0.00  0.00     0.003 A 
ATOM      6  C4  PXY d   1      -0.032   0.360   2.696  0.00  0.00    -0.082 A 
ATOM      7  C5  PXY d   1      -0.240  -0.870   2.180  0.00  0.00     0.003 A 
ATOM      8  C6  PXY d   1       0.479  -1.948   2.688  0.00  0.00     0.003 A 
ENDROOT
TORSDOF 0
ENDMDL
