MODEL 1
REMARK minimizedAffinity 11.2437887
REMARK minimizedRMSD -1
REMARK  0 active torsions:
REMARK  status: ('A' for Active; 'I' for Inactive)
ROOT
ATOM      1  C4' PXY d   1       5.782   0.908   3.307  0.00  0.00     0.077 C 
ATOM      2  C1' PXY d   1       3.698   6.000   1.534  0.00  0.00     0.077 C 
ATOM      3  C1  PXY d   1       4.252   4.670   2.008  0.00  0.00    -0.082 A 
ATOM      4  C2  PXY d   1       4.279   3.640   1.179  0.00  0.00     0.003 A 
ATOM      5  C3  PXY d   1       4.746   2.422   1.601  0.00  0.00     0.003 A 
ATOM      6  C4  PXY d   1       5.240   2.271   2.869  0.00  0.00    -0.082 A 
ATOM      7  C5  PXY d   1       5.226   3.321   3.718  0.00  0.00     0.003 A 
ATOM      8  C6  PXY d   1       4.709   4.538   3.283  0.00  0.00     0.003 A 
ENDROOT
TORSDOF 0
ENDMDL
