MODEL 1
REMARK minimizedAffinity 15.2049456
REMARK minimizedRMSD -1
REMARK  0 active torsions:
REMARK  status: ('A' for Active; 'I' for Inactive)
ROOT
ATOM      1  C4' PXY d   1       1.543  -2.701   3.797  0.00  0.00     0.077 C 
ATOM      2  C1' PXY d   1       5.974  -5.998   5.502  0.00  0.00     0.077 C 
ATOM      3  C1  PXY d   1       4.807  -5.136   5.067  0.00  0.00    -0.082 A 
ATOM      4  C2  PXY d   1       4.542  -4.995   3.778  0.00  0.00     0.003 A 
ATOM      5  C3  PXY d   1       3.510  -4.192   3.365  0.00  0.00     0.003 A 
ATOM      6  C4  PXY d   1       2.706  -3.570   4.283  0.00  0.00    -0.082 A 
ATOM      7  C5  PXY d   1       2.963  -3.718   5.600  0.00  0.00     0.003 A 
ATOM      8  C6  PXY d   1       4.041  -4.503   5.997  0.00  0.00     0.003 A 
ENDROOT
TORSDOF 0
ENDMDL
