MODEL 1
REMARK minimizedAffinity 10.3834906
REMARK minimizedRMSD -1
REMARK  0 active torsions:
REMARK  status: ('A' for Active; 'I' for Inactive)
ROOT
ATOM      1  C4' PXY d   1       4.848  -3.809   5.734  0.00  0.00     0.077 C 
ATOM      2  C1' PXY d   1       1.481   0.322   3.494  0.00  0.00     0.077 C 
ATOM      3  C1  PXY d   1       2.354  -0.769   4.082  0.00  0.00    -0.082 A 
ATOM      4  C2  PXY d   1       3.429  -0.442   4.780  0.00  0.00     0.003 A 
ATOM      5  C3  PXY d   1       4.248  -1.417   5.291  0.00  0.00     0.003 A 
ATOM      6  C4  PXY d   1       3.933  -2.740   5.130  0.00  0.00    -0.082 A 
ATOM      7  C5  PXY d   1       2.832  -3.081   4.428  0.00  0.00     0.003 A 
ATOM      8  C6  PXY d   1       2.037  -2.078   3.883  0.00  0.00     0.003 A 
ENDROOT
TORSDOF 0
ENDMDL
