MODEL 1
REMARK minimizedAffinity 10.5781479
REMARK minimizedRMSD -1
REMARK  0 active torsions:
REMARK  status: ('A' for Active; 'I' for Inactive)
ROOT
ATOM      1  C4' PXY d   1       4.246  -2.567   5.835  0.00  0.00     0.077 C 
ATOM      2  C1' PXY d   1       0.077  -0.489   2.413  0.00  0.00     0.077 C 
ATOM      3  C1  PXY d   1       1.178  -1.025   3.305  0.00  0.00    -0.082 A 
ATOM      4  C2  PXY d   1       1.116  -2.272   3.744  0.00  0.00     0.003 A 
ATOM      5  C3  PXY d   1       2.088  -2.763   4.578  0.00  0.00     0.003 A 
ATOM      6  C4  PXY d   1       3.161  -1.986   4.924  0.00  0.00    -0.082 A 
ATOM      7  C5  PXY d   1       3.237  -0.717   4.472  0.00  0.00     0.003 A 
ATOM      8  C6  PXY d   1       2.220  -0.224   3.660  0.00  0.00     0.003 A 
ENDROOT
TORSDOF 0
ENDMDL
