MODEL 1
REMARK minimizedAffinity 3.54578733
REMARK minimizedRMSD -1
REMARK  0 active torsions:
REMARK  status: ('A' for Active; 'I' for Inactive)
ROOT
ATOM      1  C4' PXY d   1      -0.263  -4.871   5.298  0.00  0.00     0.077 C 
ATOM      2  C1' PXY d   1       5.514  -4.687   5.230  0.00  0.00     0.077 C 
ATOM      3  C1  PXY d   1       3.998  -4.723   5.244  0.00  0.00    -0.082 A 
ATOM      4  C2  PXY d   1       3.372  -5.610   6.000  0.00  0.00     0.003 A 
ATOM      5  C3  PXY d   1       2.002  -5.678   6.000  0.00  0.00     0.003 A 
ATOM      6  C4  PXY d   1       1.265  -4.792   5.260  0.00  0.00    -0.082 A 
ATOM      7  C5  PXY d   1       1.897  -3.877   4.495  0.00  0.00     0.003 A 
ATOM      8  C6  PXY d   1       3.288  -3.852   4.477  0.00  0.00     0.003 A 
ENDROOT
TORSDOF 0
ENDMDL
