MODEL 1
REMARK minimizedAffinity 18.5586872
REMARK minimizedRMSD -1
REMARK  0 active torsions:
REMARK  status: ('A' for Active; 'I' for Inactive)
ROOT
ATOM      1  C4' PXY d   1       3.148  -0.064  -4.170  0.00  0.00     0.077 C 
ATOM      2  C1' PXY d   1      -2.387  -1.568  -3.445  0.00  0.00     0.077 C 
ATOM      3  C1  PXY d   1      -0.935  -1.181  -3.645  0.00  0.00    -0.082 A 
ATOM      4  C2  PXY d   1      -0.223  -0.753  -2.615  0.00  0.00     0.003 A 
ATOM      5  C3  PXY d   1       1.082  -0.369  -2.785  0.00  0.00     0.003 A 
ATOM      6  C4  PXY d   1       1.681  -0.474  -4.012  0.00  0.00    -0.082 A 
ATOM      7  C5  PXY d   1       0.965  -0.921  -5.066  0.00  0.00     0.003 A 
ATOM      8  C6  PXY d   1      -0.370  -1.267  -4.881  0.00  0.00     0.003 A 
ENDROOT
TORSDOF 0
ENDMDL
