MODEL 1
REMARK minimizedAffinity 6.86401653
REMARK minimizedRMSD -1
REMARK  0 active torsions:
REMARK  status: ('A' for Active; 'I' for Inactive)
ROOT
ATOM      1  C4' PXY d   1       4.110  -4.311   5.098  0.00  0.00     0.077 C 
ATOM      2  C1' PXY d   1       0.263  -0.505   3.066  0.00  0.00     0.077 C 
ATOM      3  C1  PXY d   1       1.263  -1.509   3.606  0.00  0.00    -0.082 A 
ATOM      4  C2  PXY d   1       2.550  -1.204   3.626  0.00  0.00     0.003 A 
ATOM      5  C3  PXY d   1       3.471  -2.112   4.081  0.00  0.00     0.003 A 
ATOM      6  C4  PXY d   1       3.065  -3.325   4.571  0.00  0.00    -0.082 A 
ATOM      7  C5  PXY d   1       1.752  -3.639   4.564  0.00  0.00     0.003 A 
ATOM      8  C6  PXY d   1       0.837  -2.719   4.059  0.00  0.00     0.003 A 
ENDROOT
TORSDOF 0
ENDMDL
