MODEL 1
REMARK minimizedAffinity 5.62325382
REMARK minimizedRMSD -1
REMARK  0 active torsions:
REMARK  status: ('A' for Active; 'I' for Inactive)
ROOT
ATOM      1  C4' PXY d   1       5.774  -2.152   5.792  0.00  0.00     0.077 C 
ATOM      2  C1' PXY d   1       0.578  -3.290   3.530  0.00  0.00     0.077 C 
ATOM      3  C1  PXY d   1       1.938  -2.999   4.133  0.00  0.00    -0.082 A 
ATOM      4  C2  PXY d   1       2.587  -1.900   3.784  0.00  0.00     0.003 A 
ATOM      5  C3  PXY d   1       3.831  -1.637   4.296  0.00  0.00     0.003 A 
ATOM      6  C4  PXY d   1       4.394  -2.481   5.215  0.00  0.00    -0.082 A 
ATOM      7  C5  PXY d   1       3.734  -3.599   5.585  0.00  0.00     0.003 A 
ATOM      8  C6  PXY d   1       2.489  -3.869   5.022  0.00  0.00     0.003 A 
ENDROOT
TORSDOF 0
ENDMDL
