MODEL 1
REMARK minimizedAffinity 7.54609919
REMARK minimizedRMSD -1
REMARK  0 active torsions:
REMARK  status: ('A' for Active; 'I' for Inactive)
ROOT
ATOM      1  O1  BZF d   1      -4.814  -2.618  -5.932  0.00  0.00    -0.204 OA
ATOM      2  C2  BZF d   1      -4.469  -3.956  -5.927  0.00  0.00     0.174 A 
ATOM      3  C3  BZF d   1      -3.131  -4.106  -5.995  0.00  0.00    -0.012 A 
ATOM      4  C3A BZF d   1      -2.601  -2.777  -5.953  0.00  0.00    -0.107 A 
ATOM      5  C4  BZF d   1      -1.333  -2.271  -5.971  0.00  0.00     0.055 A 
ATOM      6  C5  BZF d   1      -1.160  -0.923  -5.991  0.00  0.00    -0.016 A 
ATOM      7  C6  BZF d   1      -2.231  -0.054  -6.000  0.00  0.00     0.022 A 
ATOM      8  C7  BZF d   1      -3.507  -0.509  -5.978  0.00  0.00     0.029 A 
ATOM      9  C7A BZF d   1      -3.685  -1.870  -5.924  0.00  0.00     0.058 A 
ENDROOT
TORSDOF 0
ENDMDL
