MODEL 1
REMARK minimizedAffinity 7.6748848
REMARK minimizedRMSD -1
REMARK  0 active torsions:
REMARK  status: ('A' for Active; 'I' for Inactive)
ROOT
ATOM      1  O1  BZF d   1      -2.262   2.741   2.475  0.00  0.00    -0.204 OA
ATOM      2  C2  BZF d   1      -0.949   2.437   2.779  0.00  0.00     0.174 A 
ATOM      3  C3  BZF d   1      -0.628   1.204   2.337  0.00  0.00    -0.012 A 
ATOM      4  C3A BZF d   1      -1.787   0.741   1.638  0.00  0.00    -0.107 A 
ATOM      5  C4  BZF d   1      -2.079  -0.409   0.962  0.00  0.00     0.055 A 
ATOM      6  C5  BZF d   1      -3.328  -0.578   0.456  0.00  0.00    -0.016 A 
ATOM      7  C6  BZF d   1      -4.310   0.378   0.610  0.00  0.00     0.022 A 
ATOM      8  C7  BZF d   1      -4.067   1.538   1.268  0.00  0.00     0.029 A 
ATOM      9  C7A BZF d   1      -2.795   1.726   1.753  0.00  0.00     0.058 A 
ENDROOT
TORSDOF 0
ENDMDL
