MODEL 1
REMARK minimizedAffinity 15.6414804
REMARK minimizedRMSD -1
REMARK  0 active torsions:
REMARK  status: ('A' for Active; 'I' for Inactive)
ROOT
ATOM      1  O1  BZF d   1      -1.973   0.487   0.260  0.00  0.00    -0.204 OA
ATOM      2  C2  BZF d   1      -2.496  -0.676  -0.271  0.00  0.00     0.174 A 
ATOM      3  C3  BZF d   1      -2.122  -1.746   0.460  0.00  0.00    -0.012 A 
ATOM      4  C3A BZF d   1      -1.391  -1.208   1.567  0.00  0.00    -0.107 A 
ATOM      5  C4  BZF d   1      -0.778  -1.771   2.649  0.00  0.00     0.055 A 
ATOM      6  C5  BZF d   1      -0.089  -0.974   3.507  0.00  0.00    -0.016 A 
ATOM      7  C6  BZF d   1       0.011   0.388   3.310  0.00  0.00     0.022 A 
ATOM      8  C7  BZF d   1      -0.585   0.993   2.254  0.00  0.00     0.029 A 
ATOM      9  C7A BZF d   1      -1.309   0.194   1.404  0.00  0.00     0.058 A 
ENDROOT
TORSDOF 0
ENDMDL
