MODEL 1
REMARK minimizedAffinity 0.800837159
REMARK minimizedRMSD -1
REMARK  0 active torsions:
REMARK  status: ('A' for Active; 'I' for Inactive)
ROOT
ATOM      1  O1  BZF d   1       5.387  -5.400   1.871  0.00  0.00    -0.204 OA
ATOM      2  C2  BZF d   1       5.996  -5.759   3.058  0.00  0.00     0.174 A 
ATOM      3  C3  BZF d   1       5.075  -5.998   4.014  0.00  0.00    -0.012 A 
ATOM      4  C3A BZF d   1       3.810  -5.865   3.360  0.00  0.00    -0.107 A 
ATOM      5  C4  BZF d   1       2.517  -6.000   3.780  0.00  0.00     0.055 A 
ATOM      6  C5  BZF d   1       1.509  -5.730   2.910  0.00  0.00    -0.016 A 
ATOM      7  C6  BZF d   1       1.756  -5.320   1.617  0.00  0.00     0.022 A 
ATOM      8  C7  BZF d   1       3.021  -5.176   1.153  0.00  0.00     0.029 A 
ATOM      9  C7A BZF d   1       4.043  -5.480   2.020  0.00  0.00     0.058 A 
ENDROOT
TORSDOF 0
ENDMDL
