MODEL 1
REMARK minimizedAffinity 7.76107454
REMARK minimizedRMSD -1
REMARK  0 active torsions:
REMARK  status: ('A' for Active; 'I' for Inactive)
ROOT
ATOM      1  O1  BZF d   1       4.153   3.510  -3.959  0.00  0.00    -0.204 OA
ATOM      2  C2  BZF d   1       4.470   3.415  -5.300  0.00  0.00     0.174 A 
ATOM      3  C3  BZF d   1       4.124   2.207  -5.789  0.00  0.00    -0.012 A 
ATOM      4  C3A BZF d   1       3.471   1.536  -4.708  0.00  0.00    -0.107 A 
ATOM      5  C4  BZF d   1       2.890   0.307  -4.580  0.00  0.00     0.055 A 
ATOM      6  C5  BZF d   1       2.407  -0.072  -3.367  0.00  0.00    -0.016 A 
ATOM      7  C6  BZF d   1       2.493   0.749  -2.262  0.00  0.00     0.022 A 
ATOM      8  C7  BZF d   1       3.057   1.979  -2.341  0.00  0.00     0.029 A 
ATOM      9  C7A BZF d   1       3.516   2.378  -3.573  0.00  0.00     0.058 A 
ENDROOT
TORSDOF 0
ENDMDL
