MODEL 1
REMARK minimizedAffinity 6.20067215
REMARK minimizedRMSD -1
REMARK  0 active torsions:
REMARK  status: ('A' for Active; 'I' for Inactive)
ROOT
ATOM      1  O1  BZF d   1      -3.777  -3.855  -5.974  0.00  0.00    -0.204 OA
ATOM      2  C2  BZF d   1      -5.089  -3.423  -5.997  0.00  0.00     0.174 A 
ATOM      3  C3  BZF d   1      -5.151  -2.077  -5.956  0.00  0.00    -0.012 A 
ATOM      4  C3A BZF d   1      -3.790  -1.636  -5.997  0.00  0.00    -0.107 A 
ATOM      5  C4  BZF d   1      -3.202  -0.404  -6.000  0.00  0.00     0.055 A 
ATOM      6  C5  BZF d   1      -1.846  -0.319  -5.971  0.00  0.00    -0.016 A 
ATOM      7  C6  BZF d   1      -1.049  -1.444  -5.934  0.00  0.00     0.022 A 
ATOM      8  C7  BZF d   1      -1.587  -2.689  -5.935  0.00  0.00     0.029 A 
ATOM      9  C7A BZF d   1      -2.956  -2.778  -5.997  0.00  0.00     0.058 A 
ENDROOT
TORSDOF 0
ENDMDL
