MODEL 1
REMARK minimizedAffinity 2.17634392
REMARK minimizedRMSD -1
REMARK  0 active torsions:
REMARK  status: ('A' for Active; 'I' for Inactive)
ROOT
ATOM      1  O1  BZF d   1      -1.955  -1.967  -6.000  0.00  0.00    -0.204 OA
ATOM      2  C2  BZF d   1      -2.191  -0.606  -5.981  0.00  0.00     0.174 A 
ATOM      3  C3  BZF d   1      -3.514  -0.349  -6.000  0.00  0.00    -0.012 A 
ATOM      4  C3A BZF d   1      -4.147  -1.631  -5.940  0.00  0.00    -0.107 A 
ATOM      5  C4  BZF d   1      -5.452  -2.033  -5.911  0.00  0.00     0.055 A 
ATOM      6  C5  BZF d   1      -5.734  -3.362  -5.927  0.00  0.00    -0.016 A 
ATOM      7  C6  BZF d   1      -4.737  -4.315  -5.976  0.00  0.00     0.022 A 
ATOM      8  C7  BZF d   1      -3.428  -3.964  -6.000  0.00  0.00     0.029 A 
ATOM      9  C7A BZF d   1      -3.140  -2.622  -5.951  0.00  0.00     0.058 A 
ENDROOT
TORSDOF 0
ENDMDL
