MODEL 1
REMARK minimizedAffinity 8.84382057
REMARK minimizedRMSD -1
REMARK  0 active torsions:
REMARK  status: ('A' for Active; 'I' for Inactive)
ROOT
ATOM      1  O1  BZF d   1      -4.870   0.439   4.411  0.00  0.00    -0.204 OA
ATOM      2  C2  BZF d   1      -5.820   1.438   4.504  0.00  0.00     0.174 A 
ATOM      3  C3  BZF d   1      -5.752   2.263   3.440  0.00  0.00    -0.012 A 
ATOM      4  C3A BZF d   1      -4.754   1.695   2.586  0.00  0.00    -0.107 A 
ATOM      5  C4  BZF d   1      -4.246   2.051   1.369  0.00  0.00     0.055 A 
ATOM      6  C5  BZF d   1      -3.227   1.323   0.840  0.00  0.00    -0.016 A 
ATOM      7  C6  BZF d   1      -2.690   0.239   1.502  0.00  0.00     0.022 A 
ATOM      8  C7  BZF d   1      -3.164  -0.155   2.709  0.00  0.00     0.029 A 
ATOM      9  C7A BZF d   1      -4.215   0.558   3.231  0.00  0.00     0.058 A 
ENDROOT
TORSDOF 0
ENDMDL
