MODEL 1
REMARK minimizedAffinity -0.582892418
REMARK minimizedRMSD -1
REMARK  0 active torsions:
REMARK  status: ('A' for Active; 'I' for Inactive)
ROOT
ATOM      1  O1  BZF d   1      -3.232  -4.054  -5.954  0.00  0.00    -0.204 OA
ATOM      2  C2  BZF d   1      -4.577  -3.736  -5.948  0.00  0.00     0.174 A 
ATOM      3  C3  BZF d   1      -4.752  -2.399  -5.906  0.00  0.00    -0.012 A 
ATOM      4  C3A BZF d   1      -3.435  -1.845  -5.979  0.00  0.00    -0.107 A 
ATOM      5  C4  BZF d   1      -2.954  -0.567  -5.997  0.00  0.00     0.055 A 
ATOM      6  C5  BZF d   1      -1.609  -0.367  -5.999  0.00  0.00    -0.016 A 
ATOM      7  C6  BZF d   1      -0.719  -1.420  -5.980  0.00  0.00     0.022 A 
ATOM      8  C7  BZF d   1      -1.148  -2.706  -5.967  0.00  0.00     0.029 A 
ATOM      9  C7A BZF d   1      -2.506  -2.911  -5.998  0.00  0.00     0.058 A 
ENDROOT
TORSDOF 0
ENDMDL
