MODEL 1
REMARK minimizedAffinity 9.81744099
REMARK minimizedRMSD -1
REMARK  0 active torsions:
REMARK  status: ('A' for Active; 'I' for Inactive)
ROOT
ATOM      1  O1  BZF d   1      -3.050  -3.810  -5.999  0.00  0.00    -0.204 OA
ATOM      2  C2  BZF d   1      -4.412  -3.574  -5.998  0.00  0.00     0.174 A 
ATOM      3  C3  BZF d   1      -4.670  -2.268  -5.783  0.00  0.00    -0.012 A 
ATOM      4  C3A BZF d   1      -3.389  -1.633  -5.733  0.00  0.00    -0.107 A 
ATOM      5  C4  BZF d   1      -2.988  -0.339  -5.560  0.00  0.00     0.055 A 
ATOM      6  C5  BZF d   1      -1.659  -0.064  -5.488  0.00  0.00    -0.016 A 
ATOM      7  C6  BZF d   1      -0.706  -1.057  -5.578  0.00  0.00     0.022 A 
ATOM      8  C7  BZF d   1      -1.055  -2.354  -5.755  0.00  0.00     0.029 A 
ATOM      9  C7A BZF d   1      -2.396  -2.632  -5.862  0.00  0.00     0.058 A 
ENDROOT
TORSDOF 0
ENDMDL
