MODEL 1
REMARK minimizedAffinity 8.0141983
REMARK minimizedRMSD -1
REMARK  0 active torsions:
REMARK  status: ('A' for Active; 'I' for Inactive)
ROOT
ATOM      1  O1  BZF d   1      -3.864   1.768   2.325  0.00  0.00    -0.204 OA
ATOM      2  C2  BZF d   1      -2.929   1.043   1.612  0.00  0.00     0.174 A 
ATOM      3  C3  BZF d   1      -2.474   0.002   2.338  0.00  0.00    -0.012 A 
ATOM      4  C3A BZF d   1      -3.236   0.027   3.549  0.00  0.00    -0.107 A 
ATOM      5  C4  BZF d   1      -3.256  -0.764   4.662  0.00  0.00     0.055 A 
ATOM      6  C5  BZF d   1      -4.067  -0.425   5.699  0.00  0.00    -0.016 A 
ATOM      7  C6  BZF d   1      -4.867   0.699   5.658  0.00  0.00     0.022 A 
ATOM      8  C7  BZF d   1      -4.885   1.511   4.573  0.00  0.00     0.029 A 
ATOM      9  C7A BZF d   1      -4.091   1.153   3.511  0.00  0.00     0.058 A 
ENDROOT
TORSDOF 0
ENDMDL
