MODEL 1
REMARK minimizedAffinity 9.4031992
REMARK minimizedRMSD -1
REMARK  0 active torsions:
REMARK  status: ('A' for Active; 'I' for Inactive)
ROOT
ATOM      1  O1  BZF d   1      -1.495  -4.396  -5.970  0.00  0.00    -0.204 OA
ATOM      2  C2  BZF d   1      -2.535  -5.305  -5.997  0.00  0.00     0.174 A 
ATOM      3  C3  BZF d   1      -3.725  -4.672  -5.958  0.00  0.00    -0.012 A 
ATOM      4  C3A BZF d   1      -3.411  -3.277  -5.996  0.00  0.00    -0.107 A 
ATOM      5  C4  BZF d   1      -4.172  -2.143  -5.999  0.00  0.00     0.055 A 
ATOM      6  C5  BZF d   1      -3.555  -0.933  -5.967  0.00  0.00    -0.016 A 
ATOM      7  C6  BZF d   1      -2.180  -0.820  -5.927  0.00  0.00     0.022 A 
ATOM      8  C7  BZF d   1      -1.383  -1.916  -5.928  0.00  0.00     0.029 A 
ATOM      9  C7A BZF d   1      -2.004  -3.140  -5.993  0.00  0.00     0.058 A 
ENDROOT
TORSDOF 0
ENDMDL
