MODEL 1
REMARK minimizedAffinity -1.11328554
REMARK minimizedRMSD -1
REMARK  0 active torsions:
REMARK  status: ('A' for Active; 'I' for Inactive)
ROOT
ATOM      1  O1  BZF d   1      -4.709  -0.186   3.140  0.00  0.00    -0.204 OA
ATOM      2  C2  BZF d   1      -5.424  -0.320   4.315  0.00  0.00     0.174 A 
ATOM      3  C3  BZF d   1      -5.997   0.851   4.663  0.00  0.00    -0.012 A 
ATOM      4  C3A BZF d   1      -5.693   1.751   3.593  0.00  0.00    -0.107 A 
ATOM      5  C4  BZF d   1      -5.999   3.059   3.351  0.00  0.00     0.055 A 
ATOM      6  C5  BZF d   1      -5.487   3.665   2.248  0.00  0.00    -0.016 A 
ATOM      7  C6  BZF d   1      -4.660   2.995   1.370  0.00  0.00     0.022 A 
ATOM      8  C7  BZF d   1      -4.332   1.695   1.565  0.00  0.00     0.029 A 
ATOM      9  C7A BZF d   1      -4.875   1.070   2.661  0.00  0.00     0.058 A 
ENDROOT
TORSDOF 0
ENDMDL
