MODEL 1
REMARK minimizedAffinity 10.9993505
REMARK minimizedRMSD -1
REMARK  0 active torsions:
REMARK  status: ('A' for Active; 'I' for Inactive)
ROOT
ATOM      1  O1  BZF d   1       4.365  -4.972   1.893  0.00  0.00    -0.204 OA
ATOM      2  C2  BZF d   1       4.975  -5.555   2.988  0.00  0.00     0.174 A 
ATOM      3  C3  BZF d   1       4.054  -6.000   3.867  0.00  0.00    -0.012 A 
ATOM      4  C3A BZF d   1       2.790  -5.758   3.244  0.00  0.00    -0.107 A 
ATOM      5  C4  BZF d   1       1.498  -5.998   3.616  0.00  0.00     0.055 A 
ATOM      6  C5  BZF d   1       0.489  -5.574   2.811  0.00  0.00    -0.016 A 
ATOM      7  C6  BZF d   1       0.734  -4.904   1.630  0.00  0.00     0.022 A 
ATOM      8  C7  BZF d   1       1.999  -4.648   1.216  0.00  0.00     0.029 A 
ATOM      9  C7A BZF d   1       3.022  -5.104   2.012  0.00  0.00     0.058 A 
ENDROOT
TORSDOF 0
ENDMDL
