MODEL 1
REMARK minimizedAffinity 0.465651929
REMARK minimizedRMSD -1
REMARK  0 active torsions:
REMARK  status: ('A' for Active; 'I' for Inactive)
ROOT
ATOM      1  O1  BZF d   1      -4.271  -4.332  -5.969  0.00  0.00    -0.204 OA
ATOM      2  C2  BZF d   1      -5.498  -3.697  -5.991  0.00  0.00     0.174 A 
ATOM      3  C3  BZF d   1      -5.345  -2.358  -5.948  0.00  0.00    -0.012 A 
ATOM      4  C3A BZF d   1      -3.931  -2.139  -5.989  0.00  0.00    -0.107 A 
ATOM      5  C4  BZF d   1      -3.155  -1.016  -5.991  0.00  0.00     0.055 A 
ATOM      6  C5  BZF d   1      -1.803  -1.148  -5.963  0.00  0.00    -0.016 A 
ATOM      7  C6  BZF d   1      -1.194  -2.386  -5.928  0.00  0.00     0.022 A 
ATOM      8  C7  BZF d   1      -1.923  -3.528  -5.931  0.00  0.00     0.029 A 
ATOM      9  C7A BZF d   1      -3.289  -3.399  -5.992  0.00  0.00     0.058 A 
ENDROOT
TORSDOF 0
ENDMDL
