MODEL 1
REMARK minimizedAffinity 3.95797467
REMARK minimizedRMSD -1
REMARK  0 active torsions:
REMARK  status: ('A' for Active; 'I' for Inactive)
ROOT
ATOM      1  C   UNL d   1      -0.912  -3.544  -3.228  0.00  0.00     0.124 A 
ATOM      2  C1  UNL d   1      -0.873  -2.311  -3.865  0.00  0.00     0.062 A 
ATOM      3  C2  UNL d   1      -0.151  -1.258  -3.310  0.00  0.00     0.162 A 
ATOM      4  C3  UNL d   1       0.539  -1.434  -2.111  0.00  0.00    -0.034 A 
ATOM      5  C4  UNL d   1       0.495  -2.676  -1.475  0.00  0.00     0.162 A 
ATOM      6  C5  UNL d   1      -0.228  -3.725  -2.034  0.00  0.00     0.062 A 
ATOM      7  F   UNL d   1      -0.265  -4.915  -1.418  0.00  0.00    -0.097 F 
ATOM      8  F1  UNL d   1       1.147  -2.879  -0.321  0.00  0.00    -0.096 F 
ATOM      9  I   UNL d   1       1.619   0.138  -1.277  0.00  0.00    -0.060 I 
ATOM     10  F2  UNL d   1      -0.132  -0.078  -3.947  0.00  0.00    -0.096 F 
ATOM     11  F3  UNL d   1      -1.534  -2.133  -5.019  0.00  0.00    -0.097 F 
ATOM     12  F4  UNL d   1      -1.608  -4.554  -3.764  0.00  0.00    -0.092 F 
ENDROOT
TORSDOF 0
ENDMDL
