MODEL 1
REMARK minimizedAffinity 20.1341953
REMARK minimizedRMSD -1
REMARK  0 active torsions:
REMARK  status: ('A' for Active; 'I' for Inactive)
ROOT
ATOM      1  C   UNL d   1      -3.790   4.535  -4.459  0.00  0.00     0.124 A 
ATOM      2  C1  UNL d   1      -2.663   4.104  -3.772  0.00  0.00     0.062 A 
ATOM      3  C2  UNL d   1      -2.654   2.856  -3.156  0.00  0.00     0.162 A 
ATOM      4  C3  UNL d   1      -3.775   2.029  -3.224  0.00  0.00    -0.034 A 
ATOM      5  C4  UNL d   1      -4.905   2.470  -3.916  0.00  0.00     0.162 A 
ATOM      6  C5  UNL d   1      -4.909   3.718  -4.530  0.00  0.00     0.062 A 
ATOM      7  F   UNL d   1      -5.999   4.132  -5.193  0.00  0.00    -0.097 F 
ATOM      8  F1  UNL d   1      -5.999   1.700  -4.002  0.00  0.00    -0.096 F 
ATOM      9  I   UNL d   1      -3.764   0.162  -2.305  0.00  0.00    -0.060 I 
ATOM     10  F2  UNL d   1      -1.551   2.466  -2.499  0.00  0.00    -0.096 F 
ATOM     11  F3  UNL d   1      -1.581   4.893  -3.701  0.00  0.00    -0.097 F 
ATOM     12  F4  UNL d   1      -3.797   5.737  -5.050  0.00  0.00    -0.092 F 
ENDROOT
TORSDOF 0
ENDMDL
