MODEL 1
REMARK minimizedAffinity 8.76364326
REMARK minimizedRMSD -1
REMARK  0 active torsions:
REMARK  status: ('A' for Active; 'I' for Inactive)
ROOT
ATOM      1  C   UNL d   1      -0.589   2.301  -1.866  0.00  0.00     0.124 A 
ATOM      2  C1  UNL d   1       0.021   2.565  -0.647  0.00  0.00     0.062 A 
ATOM      3  C2  UNL d   1       0.945   1.668  -0.118  0.00  0.00     0.162 A 
ATOM      4  C3  UNL d   1       1.265   0.499  -0.808  0.00  0.00    -0.034 A 
ATOM      5  C4  UNL d   1       0.647   0.240  -2.033  0.00  0.00     0.162 A 
ATOM      6  C5  UNL d   1      -0.275   1.139  -2.558  0.00  0.00     0.062 A 
ATOM      7  F   UNL d   1      -0.864   0.883  -3.735  0.00  0.00    -0.097 F 
ATOM      8  F1  UNL d   1       0.932  -0.874  -2.723  0.00  0.00    -0.096 F 
ATOM      9  I   UNL d   1       2.646  -0.844  -0.021  0.00  0.00    -0.060 I 
ATOM     10  F2  UNL d   1       1.519   1.948   1.061  0.00  0.00    -0.096 F 
ATOM     11  F3  UNL d   1      -0.281   3.686   0.023  0.00  0.00    -0.097 F 
ATOM     12  F4  UNL d   1      -1.478   3.165  -2.372  0.00  0.00    -0.092 F 
ENDROOT
TORSDOF 0
ENDMDL
