MODEL 1
REMARK minimizedAffinity 17.1254292
REMARK minimizedRMSD -1
REMARK  0 active torsions:
REMARK  status: ('A' for Active; 'I' for Inactive)
ROOT
ATOM      1  C   UNL d   1       1.724  -1.218   0.509  0.00  0.00     0.124 A 
ATOM      2  C1  UNL d   1       1.673  -0.239  -0.474  0.00  0.00     0.062 A 
ATOM      3  C2  UNL d   1       0.640   0.693  -0.480  0.00  0.00     0.162 A 
ATOM      4  C3  UNL d   1      -0.352   0.651   0.500  0.00  0.00    -0.034 A 
ATOM      5  C4  UNL d   1      -0.294  -0.337   1.484  0.00  0.00     0.162 A 
ATOM      6  C5  UNL d   1       0.741  -1.266   1.487  0.00  0.00     0.062 A 
ATOM      7  F   UNL d   1       0.788  -2.211   2.437  0.00  0.00    -0.097 F 
ATOM      8  F1  UNL d   1      -1.231  -0.406   2.442  0.00  0.00    -0.096 F 
ATOM      9  I   UNL d   1      -1.899   2.043   0.493  0.00  0.00    -0.060 I 
ATOM     10  F2  UNL d   1       0.615   1.628  -1.442  0.00  0.00    -0.096 F 
ATOM     11  F3  UNL d   1       2.622  -0.191  -1.420  0.00  0.00    -0.097 F 
ATOM     12  F4  UNL d   1       2.720  -2.114   0.512  0.00  0.00    -0.092 F 
ENDROOT
TORSDOF 0
ENDMDL
