MODEL 1
REMARK minimizedAffinity -1.74819803
REMARK minimizedRMSD -1
REMARK  0 active torsions:
REMARK  status: ('A' for Active; 'I' for Inactive)
ROOT
ATOM      1  C   UNL d   1       2.454   1.813  -0.094  0.00  0.00     0.020 A 
ATOM      2  C1  UNL d   1       1.328   2.511  -0.530  0.00  0.00     0.020 A 
ATOM      3  C2  UNL d   1       0.051   2.054  -0.196  0.00  0.00     0.034 A 
ATOM      4  C3  UNL d   1      -0.102   0.897   0.577  0.00  0.00     0.017 A 
ATOM      5  C4  UNL d   1       1.029   0.197   1.013  0.00  0.00     0.017 A 
ATOM      6  C5  UNL d   1       2.304   0.659   0.676  0.00  0.00     0.034 A 
ATOM      7 Cl   UNL d   1       0.919  -1.238   1.969  0.00  0.00    -0.070 Cl
ATOM      8 Cl1  UNL d   1      -1.711   0.390   0.953  0.00  0.00    -0.070 Cl
ENDROOT
TORSDOF 0
ENDMDL
