MODEL 1
REMARK minimizedAffinity 2.10172939
REMARK minimizedRMSD -1
REMARK  0 active torsions:
REMARK  status: ('A' for Active; 'I' for Inactive)
ROOT
ATOM      1  C   UNL d   1       1.309   0.250   1.030  0.00  0.00     0.020 A 
ATOM      2  C1  UNL d   1       1.004  -1.084   0.764  0.00  0.00     0.020 A 
ATOM      3  C2  UNL d   1       0.839  -1.986   1.818  0.00  0.00     0.034 A 
ATOM      4  C3  UNL d   1       0.979  -1.555   3.142  0.00  0.00     0.017 A 
ATOM      5  C4  UNL d   1       1.286  -0.215   3.407  0.00  0.00     0.017 A 
ATOM      6  C5  UNL d   1       1.449   0.684   2.349  0.00  0.00     0.034 A 
ATOM      7 Cl   UNL d   1       1.474   0.391   5.015  0.00  0.00    -0.070 Cl
ATOM      8 Cl1  UNL d   1       0.762  -2.724   4.395  0.00  0.00    -0.070 Cl
ENDROOT
TORSDOF 0
ENDMDL
