MODEL 1
REMARK minimizedAffinity 2.53566074
REMARK minimizedRMSD -1
REMARK  0 active torsions:
REMARK  status: ('A' for Active; 'I' for Inactive)
ROOT
ATOM      1  C   UNL d   1       2.343  -0.579   2.294  0.00  0.00     0.020 A 
ATOM      2  C1  UNL d   1       1.219  -1.261   2.760  0.00  0.00     0.020 A 
ATOM      3  C2  UNL d   1       1.371  -2.463   3.455  0.00  0.00     0.034 A 
ATOM      4  C3  UNL d   1       2.648  -2.987   3.686  0.00  0.00     0.017 A 
ATOM      5  C4  UNL d   1       3.775  -2.301   3.219  0.00  0.00     0.017 A 
ATOM      6  C5  UNL d   1       3.618  -1.098   2.523  0.00  0.00     0.034 A 
ATOM      7 Cl   UNL d   1       5.383  -2.884   3.465  0.00  0.00    -0.070 Cl
ATOM      8 Cl1  UNL d   1       2.761  -4.477   4.553  0.00  0.00    -0.070 Cl
ENDROOT
TORSDOF 0
ENDMDL
