MODEL 1
REMARK minimizedAffinity 7.40494251
REMARK minimizedRMSD -1
REMARK  0 active torsions:
REMARK  status: ('A' for Active; 'I' for Inactive)
ROOT
ATOM      1  C   UNL d   1       0.387  -3.280  -1.608  0.00  0.00     0.020 A 
ATOM      2  C1  UNL d   1      -0.069  -2.692  -0.429  0.00  0.00     0.020 A 
ATOM      3  C2  UNL d   1       0.703  -1.719   0.210  0.00  0.00     0.034 A 
ATOM      4  C3  UNL d   1       1.935  -1.332  -0.330  0.00  0.00     0.017 A 
ATOM      5  C4  UNL d   1       2.392  -1.923  -1.513  0.00  0.00     0.017 A 
ATOM      6  C5  UNL d   1       1.615  -2.896  -2.149  0.00  0.00     0.034 A 
ATOM      7 Cl   UNL d   1       3.901  -1.496  -2.239  0.00  0.00    -0.070 Cl
ATOM      8 Cl1  UNL d   1       2.836  -0.122   0.513  0.00  0.00    -0.070 Cl
ENDROOT
TORSDOF 0
ENDMDL
