MODEL 1
REMARK minimizedAffinity 2.25990129
REMARK minimizedRMSD -1
REMARK  0 active torsions:
REMARK  status: ('A' for Active; 'I' for Inactive)
ROOT
ATOM      1  C   UNL d   1      -6.000   1.389  -0.747  0.00  0.00     0.020 A 
ATOM      2  C1  UNL d   1      -5.211   0.680   0.159  0.00  0.00     0.020 A 
ATOM      3  C2  UNL d   1      -4.423   1.367   1.084  0.00  0.00     0.034 A 
ATOM      4  C3  UNL d   1      -4.420   2.767   1.106  0.00  0.00     0.017 A 
ATOM      5  C4  UNL d   1      -5.212   3.477   0.196  0.00  0.00     0.017 A 
ATOM      6  C5  UNL d   1      -6.000   2.784  -0.729  0.00  0.00     0.034 A 
ATOM      7 Cl   UNL d   1      -5.261   5.204   0.162  0.00  0.00    -0.070 Cl
ATOM      8 Cl1  UNL d   1      -3.421   3.551   2.277  0.00  0.00    -0.070 Cl
ENDROOT
TORSDOF 0
ENDMDL
