MODEL 1
REMARK minimizedAffinity 6.02614784
REMARK minimizedRMSD -1
REMARK  0 active torsions:
REMARK  status: ('A' for Active; 'I' for Inactive)
ROOT
ATOM      1  C   UNL d   1      -5.387  -5.818  -5.518  0.00  0.00     0.020 A 
ATOM      2  C1  UNL d   1      -5.817  -5.999  -4.204  0.00  0.00     0.020 A 
ATOM      3  C2  UNL d   1      -5.999  -4.893  -3.371  0.00  0.00     0.034 A 
ATOM      4  C3  UNL d   1      -5.752  -3.602  -3.851  0.00  0.00     0.017 A 
ATOM      5  C4  UNL d   1      -5.321  -3.422  -5.170  0.00  0.00     0.017 A 
ATOM      6  C5  UNL d   1      -5.139  -4.532  -6.000  0.00  0.00     0.034 A 
ATOM      7 Cl   UNL d   1      -4.995  -1.859  -5.834  0.00  0.00    -0.070 Cl
ATOM      8 Cl1  UNL d   1      -5.999  -2.280  -2.766  0.00  0.00    -0.070 Cl
ENDROOT
TORSDOF 0
ENDMDL
