MODEL 1
REMARK minimizedAffinity 2.6020391
REMARK minimizedRMSD -1
REMARK  0 active torsions:
REMARK  status: ('A' for Active; 'I' for Inactive)
ROOT
ATOM      1  C   UNL d   1       2.038   5.885  -3.250  0.00  0.00     0.020 A 
ATOM      2  C1  UNL d   1       1.993   5.885  -1.857  0.00  0.00     0.020 A 
ATOM      3  C2  UNL d   1       3.179   5.920  -1.120  0.00  0.00     0.034 A 
ATOM      4  C3  UNL d   1       4.415   5.956  -1.776  0.00  0.00     0.017 A 
ATOM      5  C4  UNL d   1       4.459   5.956  -3.175  0.00  0.00     0.017 A 
ATOM      6  C5  UNL d   1       3.268   5.921  -3.908  0.00  0.00     0.034 A 
ATOM      7 Cl   UNL d   1       5.945   5.998  -4.056  0.00  0.00    -0.070 Cl
ATOM      8 Cl1  UNL d   1       5.841   5.998  -0.802  0.00  0.00    -0.070 Cl
ENDROOT
TORSDOF 0
ENDMDL
