MODEL 1
REMARK minimizedAffinity -0.63247329
REMARK minimizedRMSD -1
REMARK  2 active torsions:
REMARK  status: ('A' for Active; 'I' for Inactive)
REMARK    1  A    between atoms: C2'_3  and  C1'_4 
REMARK    2  A    between atoms: C1'_4  and  C1_5 
ROOT
ATOM      1  C1  I4B d   1       0.239   2.859   1.959  0.00  0.00    -0.075 A 
ATOM      2  C2  I4B d   1      -0.453   2.887   3.144  0.00  0.00     0.003 A 
ATOM      3  C3  I4B d   1       0.239   3.037   4.370  0.00  0.00     0.002 A 
ATOM      4  C4  I4B d   1       1.618   3.105   4.368  0.00  0.00    -0.004 A 
ATOM      5  C5  I4B d   1       2.316   3.100   3.164  0.00  0.00     0.002 A 
ATOM      6  C6  I4B d   1       1.622   2.989   1.951  0.00  0.00     0.003 A 
ENDROOT
BRANCH   1   7
ATOM      7  C1' I4B d   1      -0.521   2.666   0.685  0.00  0.00     0.060 C 
BRANCH   7   8
ATOM      8  C2' I4B d   1      -0.368   1.219   0.265  0.00  0.00    -0.013 C 
ATOM      9  C4' I4B d   1       1.000   0.693   0.611  0.00  0.00     0.013 C 
ATOM     10  C3' I4B d   1      -1.442   0.423   0.944  0.00  0.00     0.013 C 
ENDBRANCH   7   8
ENDBRANCH   1   7
TORSDOF 2
ENDMDL
