MODEL 1
REMARK minimizedAffinity 1.05083191
REMARK minimizedRMSD -1
REMARK  2 active torsions:
REMARK  status: ('A' for Active; 'I' for Inactive)
REMARK    1  A    between atoms: C2'_3  and  C1'_4 
REMARK    2  A    between atoms: C1'_4  and  C1_5 
ROOT
ATOM      1  C1  I4B d   1       1.013   2.014   1.252  0.00  0.00    -0.075 A 
ATOM      2  C2  I4B d   1       0.887   0.775   0.675  0.00  0.00     0.003 A 
ATOM      3  C3  I4B d   1      -0.371   0.336   0.197  0.00  0.00     0.002 A 
ATOM      4  C4  I4B d   1      -1.480   1.141   0.362  0.00  0.00    -0.004 A 
ATOM      5  C5  I4B d   1      -1.346   2.406   0.927  0.00  0.00     0.002 A 
ATOM      6  C6  I4B d   1      -0.090   2.851   1.364  0.00  0.00     0.003 A 
ENDROOT
BRANCH   1   7
ATOM      7  C1' I4B d   1       2.350   2.433   1.776  0.00  0.00     0.060 C 
BRANCH   7   8
ATOM      8  C2' I4B d   1       2.134   3.573   2.750  0.00  0.00    -0.013 C 
ATOM      9  C4' I4B d   1       2.790   3.289   4.076  0.00  0.00     0.013 C 
ATOM     10  C3' I4B d   1       2.684   4.823   2.131  0.00  0.00     0.013 C 
ENDBRANCH   7   8
ENDBRANCH   1   7
TORSDOF 2
ENDMDL
