MODEL 1
REMARK minimizedAffinity 5.77699041
REMARK minimizedRMSD -1
REMARK  2 active torsions:
REMARK  status: ('A' for Active; 'I' for Inactive)
REMARK    1  A    between atoms: C2'_3  and  C1'_4 
REMARK    2  A    between atoms: C1'_4  and  C1_5 
ROOT
ATOM      1  C1  I4B d   1       0.353   0.792   0.376  0.00  0.00    -0.075 A 
ATOM      2  C2  I4B d   1      -0.150   2.038   0.656  0.00  0.00     0.003 A 
ATOM      3  C3  I4B d   1      -1.501   2.188   1.055  0.00  0.00     0.002 A 
ATOM      4  C4  I4B d   1      -2.319   1.079   1.113  0.00  0.00    -0.004 A 
ATOM      5  C5  I4B d   1      -1.801  -0.186   0.851  0.00  0.00     0.002 A 
ATOM      6  C6  I4B d   1      -0.453  -0.333   0.492  0.00  0.00     0.003 A 
ENDROOT
BRANCH   1   7
ATOM      7  C1' I4B d   1       1.774   0.674  -0.075  0.00  0.00     0.060 C 
BRANCH   7   8
ATOM      8  C2' I4B d   1       1.769   0.277  -1.537  0.00  0.00    -0.013 C 
ATOM      9  C4' I4B d   1       2.119   1.445  -2.421  0.00  0.00     0.013 C 
ATOM     10  C3' I4B d   1       2.744  -0.848  -1.715  0.00  0.00     0.013 C 
ENDBRANCH   7   8
ENDBRANCH   1   7
TORSDOF 2
ENDMDL
