MODEL 1
REMARK minimizedAffinity 5.22944212
REMARK minimizedRMSD -1
REMARK  2 active torsions:
REMARK  status: ('A' for Active; 'I' for Inactive)
REMARK    1  A    between atoms: C2'_3  and  C1'_4 
REMARK    2  A    between atoms: C1'_4  and  C1_5 
ROOT
ATOM      1  C1  I4B d   1      -1.937  -2.610  -0.958  0.00  0.00    -0.075 A 
ATOM      2  C2  I4B d   1      -3.242  -2.970  -0.730  0.00  0.00     0.003 A 
ATOM      3  C3  I4B d   1      -3.586  -4.333  -0.557  0.00  0.00     0.002 A 
ATOM      4  C4  I4B d   1      -2.608  -5.300  -0.669  0.00  0.00    -0.004 A 
ATOM      5  C5  I4B d   1      -1.282  -4.932  -0.878  0.00  0.00     0.002 A 
ATOM      6  C6  I4B d   1      -0.942  -3.577  -1.011  0.00  0.00     0.003 A 
ENDROOT
BRANCH   1   7
ATOM      7  C1' I4B d   1      -1.615  -1.165  -1.169  0.00  0.00     0.060 C 
BRANCH   7   8
ATOM      8  C2' I4B d   1      -1.110  -0.603   0.144  0.00  0.00    -0.013 C 
ATOM      9  C4' I4B d   1       0.166   0.173  -0.050  0.00  0.00     0.013 C 
ATOM     10  C3' I4B d   1      -2.188   0.264   0.722  0.00  0.00     0.013 C 
ENDBRANCH   7   8
ENDBRANCH   1   7
TORSDOF 2
ENDMDL
