MODEL 1
REMARK minimizedAffinity 8.05727386
REMARK minimizedRMSD -1
REMARK  2 active torsions:
REMARK  status: ('A' for Active; 'I' for Inactive)
REMARK    1  A    between atoms: C2'_3  and  C1'_4 
REMARK    2  A    between atoms: C1'_4  and  C1_5 
ROOT
ATOM      1  C1  I4B d   1      -0.709   2.749   0.812  0.00  0.00    -0.075 A 
ATOM      2  C2  I4B d   1      -1.724   2.829   1.732  0.00  0.00     0.003 A 
ATOM      3  C3  I4B d   1      -1.481   3.375   3.016  0.00  0.00     0.002 A 
ATOM      4  C4  I4B d   1      -0.205   3.779   3.352  0.00  0.00    -0.004 A 
ATOM      5  C5  I4B d   1       0.817   3.719   2.410  0.00  0.00     0.002 A 
ATOM      6  C6  I4B d   1       0.562   3.212   1.127  0.00  0.00     0.003 A 
ENDROOT
BRANCH   1   7
ATOM      7  C1' I4B d   1      -0.993   2.137  -0.523  0.00  0.00     0.060 C 
BRANCH   7   8
ATOM      8  C2' I4B d   1      -1.879   0.928  -0.303  0.00  0.00    -0.013 C 
ATOM      9  C4' I4B d   1      -2.943   0.831  -1.365  0.00  0.00     0.013 C 
ATOM     10  C3' I4B d   1      -1.005  -0.291  -0.300  0.00  0.00     0.013 C 
ENDBRANCH   7   8
ENDBRANCH   1   7
TORSDOF 2
ENDMDL
