MODEL 1
REMARK minimizedAffinity 1.78830063
REMARK minimizedRMSD -1
REMARK  2 active torsions:
REMARK  status: ('A' for Active; 'I' for Inactive)
REMARK    1  A    between atoms: C2'_3  and  C1'_4 
REMARK    2  A    between atoms: C1'_4  and  C1_5 
ROOT
ATOM      1  C1  I4B d   1      -2.939  -0.166   1.336  0.00  0.00    -0.075 A 
ATOM      2  C2  I4B d   1      -3.391   0.936   0.654  0.00  0.00     0.003 A 
ATOM      3  C3  I4B d   1      -2.472   1.880   0.135  0.00  0.00     0.002 A 
ATOM      4  C4  I4B d   1      -1.122   1.710   0.363  0.00  0.00    -0.004 A 
ATOM      5  C5  I4B d   1      -0.664   0.580   1.035  0.00  0.00     0.002 A 
ATOM      6  C6  I4B d   1      -1.577  -0.370   1.514  0.00  0.00     0.003 A 
ENDROOT
BRANCH   1   7
ATOM      7  C1' I4B d   1      -3.939  -1.125   1.900  0.00  0.00     0.060 C 
BRANCH   7   8
ATOM      8  C2' I4B d   1      -4.908  -0.338   2.759  0.00  0.00    -0.013 C 
ATOM      9  C4' I4B d   1      -6.000   0.278   1.925  0.00  0.00     0.013 C 
ATOM     10  C3' I4B d   1      -5.474  -1.269   3.789  0.00  0.00     0.013 C 
ENDBRANCH   7   8
ENDBRANCH   1   7
TORSDOF 2
ENDMDL
