MODEL 1
REMARK minimizedAffinity -5.44053698
REMARK minimizedRMSD -1
REMARK  1 active torsions:
REMARK  status: ('A' for Active; 'I' for Inactive)
REMARK    1  A    between atoms: C3_4  and  O_7 
ROOT
ATOM      1  C   UNL d   1       0.310   0.147  -0.027  0.00  0.00    -0.033 A 
ATOM      2  C1  UNL d   1      -1.068   0.094   0.190  0.00  0.00     0.039 A 
ATOM      3  C2  UNL d   1      -1.679  -1.119   0.513  0.00  0.00    -0.080 A 
ATOM      4  C3  UNL d   1      -0.902  -2.269   0.616  0.00  0.00     0.150 A 
ATOM      5  C4  UNL d   1       0.472  -2.223   0.404  0.00  0.00    -0.007 A 
ATOM      6  C5  UNL d   1       1.080  -1.011   0.081  0.00  0.00     0.039 A 
ENDROOT
BRANCH   4   7
ATOM      7  O   UNL d   1      -1.454  -3.477   0.924  0.00  0.00    -0.526 OA
ATOM      8  H5  UNL d   1      -2.415  -3.362   1.014  0.00  0.00     0.418 HD
ENDBRANCH   4   7
TORSDOF 1
ENDMDL
