MODEL 1
REMARK minimizedAffinity -3.07481813
REMARK minimizedRMSD -1
REMARK  1 active torsions:
REMARK  status: ('A' for Active; 'I' for Inactive)
REMARK    1  A    between atoms: C3_4  and  O_7 
ROOT
ATOM      1  C   UNL d   1      -5.172  -3.569  -5.022  0.00  0.00    -0.033 A 
ATOM      2  C1  UNL d   1      -4.503  -4.308  -6.000  0.00  0.00     0.039 A 
ATOM      3  C2  UNL d   1      -3.262  -4.881  -5.717  0.00  0.00    -0.080 A 
ATOM      4  C3  UNL d   1      -2.702  -4.711  -4.454  0.00  0.00     0.150 A 
ATOM      5  C4  UNL d   1      -3.365  -3.980  -3.473  0.00  0.00    -0.007 A 
ATOM      6  C5  UNL d   1      -4.603  -3.407  -3.758  0.00  0.00     0.039 A 
ENDROOT
BRANCH   4   7
ATOM      7  O   UNL d   1      -1.491  -5.248  -4.133  0.00  0.00    -0.526 OA
ATOM      8  H5  UNL d   1      -1.138  -5.701  -4.917  0.00  0.00     0.418 HD
ENDBRANCH   4   7
TORSDOF 1
ENDMDL
