MODEL 1
REMARK minimizedAffinity -3.85835886
REMARK minimizedRMSD -1
REMARK  1 active torsions:
REMARK  status: ('A' for Active; 'I' for Inactive)
REMARK    1  A    between atoms: C3_4  and  O_7 
ROOT
ATOM      1  C   UNL d   1      -5.518  -3.808  -4.423  0.00  0.00    -0.033 A 
ATOM      2  C1  UNL d   1      -4.878  -2.632  -4.818  0.00  0.00     0.039 A 
ATOM      3  C2  UNL d   1      -3.589  -2.682  -5.352  0.00  0.00    -0.080 A 
ATOM      4  C3  UNL d   1      -2.952  -3.913  -5.486  0.00  0.00     0.150 A 
ATOM      5  C4  UNL d   1      -3.586  -5.089  -5.099  0.00  0.00    -0.007 A 
ATOM      6  C5  UNL d   1      -4.873  -5.037  -4.565  0.00  0.00     0.039 A 
ENDROOT
BRANCH   4   7
ATOM      7  O   UNL d   1      -1.693  -4.011  -5.998  0.00  0.00    -0.526 OA
ATOM      8  H5  UNL d   1      -1.370  -3.116  -6.195  0.00  0.00     0.418 HD
ENDBRANCH   4   7
TORSDOF 1
ENDMDL
