MODEL 1
REMARK minimizedAffinity -3.28632641
REMARK minimizedRMSD -1
REMARK  1 active torsions:
REMARK  status: ('A' for Active; 'I' for Inactive)
REMARK    1  A    between atoms: C3_4  and  O_7 
ROOT
ATOM      1  C   UNL d   1      -2.464  -4.888  -5.998  0.00  0.00    -0.033 A 
ATOM      2  C1  UNL d   1      -2.905  -6.000  -5.278  0.00  0.00     0.039 A 
ATOM      3  C2  UNL d   1      -4.054  -5.912  -4.490  0.00  0.00    -0.080 A 
ATOM      4  C3  UNL d   1      -4.753  -4.709  -4.431  0.00  0.00     0.150 A 
ATOM      5  C4  UNL d   1      -4.321  -3.598  -5.150  0.00  0.00    -0.007 A 
ATOM      6  C5  UNL d   1      -3.173  -3.688  -5.935  0.00  0.00     0.039 A 
ENDROOT
BRANCH   4   7
ATOM      7  O   UNL d   1      -5.877  -4.573  -3.672  0.00  0.00    -0.526 OA
ATOM      8  H5  UNL d   1      -6.039  -5.412  -3.210  0.00  0.00     0.418 HD
ENDBRANCH   4   7
TORSDOF 1
ENDMDL
