MODEL 1
REMARK minimizedAffinity -3.58919287
REMARK minimizedRMSD -1
REMARK  1 active torsions:
REMARK  status: ('A' for Active; 'I' for Inactive)
REMARK    1  A    between atoms: C3_4  and  O_7 
ROOT
ATOM      1  C   UNL d   1      -5.928  -3.757  -3.788  0.00  0.00    -0.033 A 
ATOM      2  C1  UNL d   1      -5.999  -3.758  -5.182  0.00  0.00     0.039 A 
ATOM      3  C2  UNL d   1      -4.828  -3.761  -5.943  0.00  0.00    -0.080 A 
ATOM      4  C3  UNL d   1      -3.594  -3.765  -5.298  0.00  0.00     0.150 A 
ATOM      5  C4  UNL d   1      -3.516  -3.768  -3.909  0.00  0.00    -0.007 A 
ATOM      6  C5  UNL d   1      -4.686  -3.763  -3.151  0.00  0.00     0.039 A 
ENDROOT
BRANCH   4   7
ATOM      7  O   UNL d   1      -2.424  -3.763  -5.998  0.00  0.00    -0.526 OA
ATOM      8  H5  UNL d   1      -2.633  -3.732  -6.946  0.00  0.00     0.418 HD
ENDBRANCH   4   7
TORSDOF 1
ENDMDL
