MODEL 1
REMARK minimizedAffinity -3.90591073
REMARK minimizedRMSD -1
REMARK  1 active torsions:
REMARK  status: ('A' for Active; 'I' for Inactive)
REMARK    1  A    between atoms: C3_4  and  O_7 
ROOT
ATOM      1  C   UNL d   1      -4.806  -3.493  -4.485  0.00  0.00    -0.033 A 
ATOM      2  C1  UNL d   1      -3.781  -2.988  -5.288  0.00  0.00     0.039 A 
ATOM      3  C2  UNL d   1      -2.735  -3.819  -5.693  0.00  0.00    -0.080 A 
ATOM      4  C3  UNL d   1      -2.726  -5.152  -5.290  0.00  0.00     0.150 A 
ATOM      5  C4  UNL d   1      -3.745  -5.662  -4.493  0.00  0.00    -0.007 A 
ATOM      6  C5  UNL d   1      -4.789  -4.830  -4.089  0.00  0.00     0.039 A 
ENDROOT
BRANCH   4   7
ATOM      7  O   UNL d   1      -1.724  -6.000  -5.656  0.00  0.00    -0.526 OA
ATOM      8  H5  UNL d   1      -1.075  -5.502  -6.181  0.00  0.00     0.418 HD
ENDBRANCH   4   7
TORSDOF 1
ENDMDL
