MODEL 1
REMARK minimizedAffinity -3.58251071
REMARK minimizedRMSD -1
REMARK  1 active torsions:
REMARK  status: ('A' for Active; 'I' for Inactive)
REMARK    1  A    between atoms: C3_4  and  O_7 
ROOT
ATOM      1  C   UNL d   1      -5.193  -2.262  -5.638  0.00  0.00    -0.033 A 
ATOM      2  C1  UNL d   1      -4.005  -2.905  -5.991  0.00  0.00     0.039 A 
ATOM      3  C2  UNL d   1      -3.596  -4.047  -5.300  0.00  0.00    -0.080 A 
ATOM      4  C3  UNL d   1      -4.383  -4.537  -4.261  0.00  0.00     0.150 A 
ATOM      5  C4  UNL d   1      -5.570  -3.903  -3.907  0.00  0.00    -0.007 A 
ATOM      6  C5  UNL d   1      -5.977  -2.762  -4.597  0.00  0.00     0.039 A 
ENDROOT
BRANCH   4   7
ATOM      7  O   UNL d   1      -4.023  -5.646  -3.555  0.00  0.00    -0.526 OA
ATOM      8  H5  UNL d   1      -3.167  -5.960  -3.892  0.00  0.00     0.418 HD
ENDBRANCH   4   7
TORSDOF 1
ENDMDL
