MODEL 1
REMARK minimizedAffinity -2.8317368
REMARK minimizedRMSD -1
REMARK  1 active torsions:
REMARK  status: ('A' for Active; 'I' for Inactive)
REMARK    1  A    between atoms: C3_4  and  O_7 
ROOT
ATOM      1  C   UNL d   1      -1.880  -5.246  -5.835  0.00  0.00    -0.033 A 
ATOM      2  C1  UNL d   1      -1.884  -4.127  -5.001  0.00  0.00     0.039 A 
ATOM      3  C2  UNL d   1      -3.052  -3.756  -4.332  0.00  0.00    -0.080 A 
ATOM      4  C3  UNL d   1      -4.208  -4.513  -4.505  0.00  0.00     0.150 A 
ATOM      5  C4  UNL d   1      -4.210  -5.631  -5.331  0.00  0.00    -0.007 A 
ATOM      6  C5  UNL d   1      -3.043  -5.999  -5.999  0.00  0.00     0.039 A 
ENDROOT
BRANCH   4   7
ATOM      7  O   UNL d   1      -5.373  -4.187  -3.876  0.00  0.00    -0.526 OA
ATOM      8  H5  UNL d   1      -5.229  -3.376  -3.362  0.00  0.00     0.418 HD
ENDBRANCH   4   7
TORSDOF 1
ENDMDL
