MODEL 1
REMARK minimizedAffinity -3.34560156
REMARK minimizedRMSD -1
REMARK  1 active torsions:
REMARK  status: ('A' for Active; 'I' for Inactive)
REMARK    1  A    between atoms: C3_4  and  O_7 
ROOT
ATOM      1  C   UNL d   1      -5.023  -2.616  -4.913  0.00  0.00    -0.033 A 
ATOM      2  C1  UNL d   1      -3.980  -2.626  -5.842  0.00  0.00     0.039 A 
ATOM      3  C2  UNL d   1      -3.175  -3.758  -5.978  0.00  0.00    -0.080 A 
ATOM      4  C3  UNL d   1      -3.424  -4.873  -5.182  0.00  0.00     0.150 A 
ATOM      5  C4  UNL d   1      -4.463  -4.872  -4.258  0.00  0.00    -0.007 A 
ATOM      6  C5  UNL d   1      -5.265  -3.739  -4.123  0.00  0.00     0.039 A 
ENDROOT
BRANCH   4   7
ATOM      7  O   UNL d   1      -2.662  -6.000  -5.276  0.00  0.00    -0.526 OA
ATOM      8  H5  UNL d   1      -1.964  -5.846  -5.935  0.00  0.00     0.418 HD
ENDBRANCH   4   7
TORSDOF 1
ENDMDL
