MODEL 1
REMARK minimizedAffinity -3.71409822
REMARK minimizedRMSD -1
REMARK  1 active torsions:
REMARK  status: ('A' for Active; 'I' for Inactive)
REMARK    1  A    between atoms: C3_4  and  O_7 
ROOT
ATOM      1  C   UNL d   1      -5.111  -3.664  -4.546  0.00  0.00    -0.033 A 
ATOM      2  C1  UNL d   1      -4.207  -2.870  -5.255  0.00  0.00     0.039 A 
ATOM      3  C2  UNL d   1      -2.934  -3.357  -5.555  0.00  0.00    -0.080 A 
ATOM      4  C3  UNL d   1      -2.577  -4.638  -5.142  0.00  0.00     0.150 A 
ATOM      5  C4  UNL d   1      -3.474  -5.436  -4.438  0.00  0.00    -0.007 A 
ATOM      6  C5  UNL d   1      -4.745  -4.947  -4.139  0.00  0.00     0.039 A 
ENDROOT
BRANCH   4   7
ATOM      7  O   UNL d   1      -1.344  -5.155  -5.407  0.00  0.00    -0.526 OA
ATOM      8  H5  UNL d   1      -0.822  -4.482  -5.873  0.00  0.00     0.418 HD
ENDBRANCH   4   7
TORSDOF 1
ENDMDL
