MODEL 1
REMARK minimizedAffinity -3.44662428
REMARK minimizedRMSD -1
REMARK  1 active torsions:
REMARK  status: ('A' for Active; 'I' for Inactive)
REMARK    1  A    between atoms: C3_4  and  O_7 
ROOT
ATOM      1  C   UNL d   1      -5.023  -4.590  -4.596  0.00  0.00    -0.033 A 
ATOM      2  C1  UNL d   1      -4.286  -4.063  -5.659  0.00  0.00     0.039 A 
ATOM      3  C2  UNL d   1      -2.981  -4.501  -5.891  0.00  0.00    -0.080 A 
ATOM      4  C3  UNL d   1      -2.426  -5.467  -5.056  0.00  0.00     0.150 A 
ATOM      5  C4  UNL d   1      -3.155  -6.000  -3.999  0.00  0.00    -0.007 A 
ATOM      6  C5  UNL d   1      -4.458  -5.560  -3.767  0.00  0.00     0.039 A 
ENDROOT
BRANCH   4   7
ATOM      7  O   UNL d   1      -1.154  -5.923  -5.241  0.00  0.00    -0.526 OA
ATOM      8  H5  UNL d   1      -0.762  -5.445  -5.991  0.00  0.00     0.418 HD
ENDBRANCH   4   7
TORSDOF 1
ENDMDL
