MODEL 1
REMARK minimizedAffinity 0.277519196
REMARK minimizedRMSD -1
REMARK  1 active torsions:
REMARK  status: ('A' for Active; 'I' for Inactive)
REMARK    1  A    between atoms: C3_4  and  O_7 
ROOT
ATOM      1  C   UNL d   1       0.980  -1.447   0.407  0.00  0.00    -0.033 A 
ATOM      2  C1  UNL d   1      -0.016  -0.471   0.325  0.00  0.00     0.039 A 
ATOM      3  C2  UNL d   1      -0.980  -0.369   1.330  0.00  0.00    -0.080 A 
ATOM      4  C3  UNL d   1      -0.937  -1.247   2.410  0.00  0.00     0.150 A 
ATOM      5  C4  UNL d   1       0.055  -2.218   2.500  0.00  0.00    -0.007 A 
ATOM      6  C5  UNL d   1       1.016  -2.320   1.495  0.00  0.00     0.039 A 
ENDROOT
BRANCH   4   7
ATOM      7  O   UNL d   1      -1.858  -1.188   3.413  0.00  0.00    -0.526 OA
ATOM      8  H5  UNL d   1      -2.498  -0.488   3.202  0.00  0.00     0.418 HD
ENDBRANCH   4   7
TORSDOF 1
ENDMDL
