MODEL 1
REMARK minimizedAffinity -2.60901332
REMARK minimizedRMSD -1
REMARK  1 active torsions:
REMARK  status: ('A' for Active; 'I' for Inactive)
REMARK    1  A    between atoms: C3_4  and  O_7 
ROOT
ATOM      1  C   UNL d   1      -6.000  -3.653  -4.556  0.00  0.00    -0.033 A 
ATOM      2  C1  UNL d   1      -4.841  -3.467  -3.800  0.00  0.00     0.039 A 
ATOM      3  C2  UNL d   1      -3.667  -4.141  -4.142  0.00  0.00    -0.080 A 
ATOM      4  C3  UNL d   1      -3.665  -4.996  -5.240  0.00  0.00     0.150 A 
ATOM      5  C4  UNL d   1      -4.815  -5.183  -6.000  0.00  0.00    -0.007 A 
ATOM      6  C5  UNL d   1      -5.987  -4.510  -5.656  0.00  0.00     0.039 A 
ENDROOT
BRANCH   4   7
ATOM      7  O   UNL d   1      -2.545  -5.679  -5.610  0.00  0.00    -0.526 OA
ATOM      8  H5  UNL d   1      -1.836  -5.474  -4.977  0.00  0.00     0.418 HD
ENDBRANCH   4   7
TORSDOF 1
ENDMDL
