MODEL 1
REMARK minimizedAffinity -3.24421096
REMARK minimizedRMSD -1
REMARK  1 active torsions:
REMARK  status: ('A' for Active; 'I' for Inactive)
REMARK    1  A    between atoms: C3_4  and  O_7 
ROOT
ATOM      1  C   UNL d   1      -5.595  -4.525  -5.700  0.00  0.00    -0.033 A 
ATOM      2  C1  UNL d   1      -5.025  -5.784  -5.903  0.00  0.00     0.039 A 
ATOM      3  C2  UNL d   1      -3.638  -5.917  -5.999  0.00  0.00    -0.080 A 
ATOM      4  C3  UNL d   1      -2.834  -4.786  -5.889  0.00  0.00     0.150 A 
ATOM      5  C4  UNL d   1      -3.395  -3.530  -5.683  0.00  0.00    -0.007 A 
ATOM      6  C5  UNL d   1      -4.779  -3.399  -5.588  0.00  0.00     0.039 A 
ENDROOT
BRANCH   4   7
ATOM      7  O   UNL d   1      -1.476  -4.866  -5.981  0.00  0.00    -0.526 OA
ATOM      8  H5  UNL d   1      -1.233  -5.791  -6.153  0.00  0.00     0.418 HD
ENDBRANCH   4   7
TORSDOF 1
ENDMDL
