MODEL 1
REMARK minimizedAffinity -4.18286848
REMARK minimizedRMSD -1
REMARK  1 active torsions:
REMARK  status: ('A' for Active; 'I' for Inactive)
REMARK    1  A    between atoms: C3_4  and  O_7 
ROOT
ATOM      1  C   UNL d   1      -5.989  -3.566  -4.124  0.00  0.00    -0.033 A 
ATOM      2  C1  UNL d   1      -5.656  -4.863  -4.520  0.00  0.00     0.039 A 
ATOM      3  C2  UNL d   1      -4.351  -5.159  -4.918  0.00  0.00    -0.080 A 
ATOM      4  C3  UNL d   1      -3.390  -4.151  -4.915  0.00  0.00     0.150 A 
ATOM      5  C4  UNL d   1      -3.715  -2.858  -4.519  0.00  0.00    -0.007 A 
ATOM      6  C5  UNL d   1      -5.019  -2.564  -4.122  0.00  0.00     0.039 A 
ENDROOT
BRANCH   4   7
ATOM      7  O   UNL d   1      -2.105  -4.391  -5.300  0.00  0.00    -0.526 OA
ATOM      8  H5  UNL d   1      -2.034  -5.321  -5.575  0.00  0.00     0.418 HD
ENDBRANCH   4   7
TORSDOF 1
ENDMDL
