MODEL 1
REMARK minimizedAffinity -3.81893015
REMARK minimizedRMSD -1
REMARK  1 active torsions:
REMARK  status: ('A' for Active; 'I' for Inactive)
REMARK    1  A    between atoms: C3_4  and  O_7 
ROOT
ATOM      1  C   UNL d   1      -3.820  -3.125  -4.234  0.00  0.00    -0.033 A 
ATOM      2  C1  UNL d   1      -3.368  -4.119  -3.365  0.00  0.00     0.039 A 
ATOM      3  C2  UNL d   1      -2.458  -5.079  -3.813  0.00  0.00    -0.080 A 
ATOM      4  C3  UNL d   1      -2.009  -5.032  -5.130  0.00  0.00     0.150 A 
ATOM      5  C4  UNL d   1      -2.453  -4.042  -6.000  0.00  0.00    -0.007 A 
ATOM      6  C5  UNL d   1      -3.362  -3.085  -5.551  0.00  0.00     0.039 A 
ENDROOT
BRANCH   4   7
ATOM      7  O   UNL d   1      -1.125  -5.950  -5.614  0.00  0.00    -0.526 OA
ATOM      8  H5  UNL d   1      -0.929  -6.590  -4.910  0.00  0.00     0.418 HD
ENDBRANCH   4   7
TORSDOF 1
ENDMDL
