MODEL 1
REMARK minimizedAffinity -3.99184752
REMARK minimizedRMSD -1
REMARK  1 active torsions:
REMARK  status: ('A' for Active; 'I' for Inactive)
REMARK    1  A    between atoms: C3_4  and  O_7 
ROOT
ATOM      1  C   UNL d   1      -4.152  -4.425  -3.973  0.00  0.00    -0.033 A 
ATOM      2  C1  UNL d   1      -3.267  -5.164  -3.186  0.00  0.00     0.039 A 
ATOM      3  C2  UNL d   1      -2.108  -5.700  -3.751  0.00  0.00    -0.080 A 
ATOM      4  C3  UNL d   1      -1.846  -5.489  -5.102  0.00  0.00     0.150 A 
ATOM      5  C4  UNL d   1      -2.721  -4.750  -5.891  0.00  0.00    -0.007 A 
ATOM      6  C5  UNL d   1      -3.879  -4.216  -5.325  0.00  0.00     0.039 A 
ENDROOT
BRANCH   4   7
ATOM      7  O   UNL d   1      -0.730  -5.996  -5.699  0.00  0.00    -0.526 OA
ATOM      8  H5  UNL d   1      -0.234  -6.508  -5.039  0.00  0.00     0.418 HD
ENDBRANCH   4   7
TORSDOF 1
ENDMDL
