MODEL 1
REMARK minimizedAffinity -2.95114017
REMARK minimizedRMSD -1
REMARK  1 active torsions:
REMARK  status: ('A' for Active; 'I' for Inactive)
REMARK    1  A    between atoms: C3_4  and  O_7 
ROOT
ATOM      1  C   UNL d   1      -5.148  -4.954  -4.758  0.00  0.00    -0.033 A 
ATOM      2  C1  UNL d   1      -4.243  -4.588  -3.760  0.00  0.00     0.039 A 
ATOM      3  C2  UNL d   1      -2.894  -4.929  -3.880  0.00  0.00    -0.080 A 
ATOM      4  C3  UNL d   1      -2.465  -5.635  -5.000  0.00  0.00     0.150 A 
ATOM      5  C4  UNL d   1      -3.360  -6.000  -6.000  0.00  0.00    -0.007 A 
ATOM      6  C5  UNL d   1      -4.707  -5.659  -5.878  0.00  0.00     0.039 A 
ENDROOT
BRANCH   4   7
ATOM      7  O   UNL d   1      -1.159  -5.995  -5.158  0.00  0.00    -0.526 OA
ATOM      8  H5  UNL d   1      -0.662  -5.701  -4.377  0.00  0.00     0.418 HD
ENDBRANCH   4   7
TORSDOF 1
ENDMDL
