MODEL 1
REMARK minimizedAffinity 5.17987204
REMARK minimizedRMSD -1
REMARK  1 active torsions:
REMARK  status: ('A' for Active; 'I' for Inactive)
REMARK    1  A    between atoms: C1_2  and  C2_3 
ROOT
ATOM      1  C2  UNL d   1       3.990  -2.868  -5.153  0.00  0.00    -0.073 A 
ATOM      2  C3  UNL d   1       4.847  -2.233  -4.247  0.00  0.00    -0.002 A 
ATOM      3  C4  UNL d   1       4.385  -1.177  -3.460  0.00  0.00     0.004 A 
ATOM      4  C5  UNL d   1       3.061  -0.751  -3.565  0.00  0.00    -0.004 A 
ATOM      5  C6  UNL d   1       2.186  -1.381  -4.456  0.00  0.00    -0.075 A 
ATOM      6  C7  UNL d   1       0.759  -0.932  -4.583  0.00  0.00     0.076 C 
ATOM      7  C8  UNL d   1       2.658  -2.438  -5.245  0.00  0.00     0.001 A 
ENDROOT
BRANCH   1   8
ATOM      8  C1  UNL d   1       4.483  -4.013  -6.000  0.00  0.00     0.053 C 
ATOM      9  C   UNL d   1       6.000  -4.118  -5.988  0.00  0.00     0.018 C 
ENDBRANCH   1   8
TORSDOF 1
ENDMDL
