MODEL 1
REMARK minimizedAffinity 1.96645677
REMARK minimizedRMSD -1
REMARK  1 active torsions:
REMARK  status: ('A' for Active; 'I' for Inactive)
REMARK    1  A    between atoms: C1_2  and  C2_3 
ROOT
ATOM      1  C2  UNL d   1      -3.854  -5.932   1.559  0.00  0.00    -0.073 A 
ATOM      2  C3  UNL d   1      -3.282  -5.957   0.283  0.00  0.00    -0.002 A 
ATOM      3  C4  UNL d   1      -1.895  -5.988   0.132  0.00  0.00     0.004 A 
ATOM      4  C5  UNL d   1      -1.067  -6.000   1.255  0.00  0.00    -0.004 A 
ATOM      5  C6  UNL d   1      -1.620  -5.987   2.539  0.00  0.00    -0.075 A 
ATOM      6  C7  UNL d   1      -0.744  -5.997   3.757  0.00  0.00     0.076 C 
ATOM      7  C8  UNL d   1      -3.014  -5.953   2.682  0.00  0.00     0.001 A 
ENDROOT
BRANCH   1   8
ATOM      8  C1  UNL d   1      -5.351  -5.905   1.727  0.00  0.00     0.053 C 
ATOM      9  C   UNL d   1      -5.769  -5.202   3.008  0.00  0.00     0.018 C 
ENDBRANCH   1   8
TORSDOF 1
ENDMDL
