MODEL 1
REMARK minimizedAffinity 5.51185179
REMARK minimizedRMSD -1
REMARK  1 active torsions:
REMARK  status: ('A' for Active; 'I' for Inactive)
REMARK    1  A    between atoms: C1_2  and  C2_3 
ROOT
ATOM      1  C2  UNL d   1      -0.381  -4.553   2.320  0.00  0.00    -0.073 A 
ATOM      2  C3  UNL d   1       0.368  -3.536   2.923  0.00  0.00    -0.002 A 
ATOM      3  C4  UNL d   1      -0.130  -2.234   2.982  0.00  0.00     0.004 A 
ATOM      4  C5  UNL d   1      -1.382  -1.936   2.444  0.00  0.00    -0.004 A 
ATOM      5  C6  UNL d   1      -2.151  -2.941   1.848  0.00  0.00    -0.075 A 
ATOM      6  C7  UNL d   1      -3.499  -2.636   1.263  0.00  0.00     0.076 C 
ATOM      7  C8  UNL d   1      -1.643  -4.246   1.791  0.00  0.00     0.001 A 
ENDROOT
BRANCH   1   8
ATOM      8  C1  UNL d   1       0.149  -5.962   2.260  0.00  0.00     0.053 C 
ATOM      9  C   UNL d   1       1.669  -6.000   2.276  0.00  0.00     0.018 C 
ENDBRANCH   1   8
TORSDOF 1
ENDMDL
