MODEL 1
REMARK minimizedAffinity 6.85484743
REMARK minimizedRMSD -1
REMARK  1 active torsions:
REMARK  status: ('A' for Active; 'I' for Inactive)
REMARK    1  A    between atoms: C1_2  and  C2_3 
ROOT
ATOM      1  C2  UNL d   1      -5.058  -1.490   3.513  0.00  0.00    -0.073 A 
ATOM      2  C3  UNL d   1      -5.110  -2.252   4.686  0.00  0.00    -0.002 A 
ATOM      3  C4  UNL d   1      -5.288  -1.630   5.923  0.00  0.00     0.004 A 
ATOM      4  C5  UNL d   1      -5.423  -0.244   5.999  0.00  0.00    -0.004 A 
ATOM      5  C6  UNL d   1      -5.385   0.533   4.837  0.00  0.00    -0.075 A 
ATOM      6  C7  UNL d   1      -5.526   2.026   4.902  0.00  0.00     0.076 C 
ATOM      7  C8  UNL d   1      -5.204  -0.098   3.599  0.00  0.00     0.001 A 
ENDROOT
BRANCH   1   8
ATOM      8  C1  UNL d   1      -4.873  -2.157   2.175  0.00  0.00     0.053 C 
ATOM      9  C   UNL d   1      -3.406  -2.265   1.791  0.00  0.00     0.018 C 
ENDBRANCH   1   8
TORSDOF 1
ENDMDL
