MODEL 1
REMARK minimizedAffinity 19.3042297
REMARK minimizedRMSD -1
REMARK  1 active torsions:
REMARK  status: ('A' for Active; 'I' for Inactive)
REMARK    1  A    between atoms: C1_2  and  C2_3 
ROOT
ATOM      1  C2  UNL d   1       4.882  -3.035   2.635  0.00  0.00    -0.073 A 
ATOM      2  C3  UNL d   1       5.116  -1.792   3.233  0.00  0.00    -0.002 A 
ATOM      3  C4  UNL d   1       4.756  -0.614   2.577  0.00  0.00     0.004 A 
ATOM      4  C5  UNL d   1       4.152  -0.667   1.321  0.00  0.00    -0.004 A 
ATOM      5  C6  UNL d   1       3.899  -1.901   0.712  0.00  0.00    -0.075 A 
ATOM      6  C7  UNL d   1       3.252  -1.975  -0.640  0.00  0.00     0.076 C 
ATOM      7  C8  UNL d   1       4.266  -3.079   1.376  0.00  0.00     0.001 A 
ENDROOT
BRANCH   1   8
ATOM      8  C1  UNL d   1       5.263  -4.309   3.343  0.00  0.00     0.053 C 
ATOM      9  C   UNL d   1       4.171  -5.363   3.247  0.00  0.00     0.018 C 
ENDBRANCH   1   8
TORSDOF 1
ENDMDL
