MODEL 1
REMARK minimizedAffinity 14.8056173
REMARK minimizedRMSD -1
REMARK  1 active torsions:
REMARK  status: ('A' for Active; 'I' for Inactive)
REMARK    1  A    between atoms: C1_2  and  C2_3 
ROOT
ATOM      1  C2  UNL d   1       2.250   2.104  -3.926  0.00  0.00    -0.073 A 
ATOM      2  C3  UNL d   1       2.133   2.623  -2.632  0.00  0.00    -0.002 A 
ATOM      3  C4  UNL d   1       1.614   3.902  -2.430  0.00  0.00     0.004 A 
ATOM      4  C5  UNL d   1       1.201   4.672  -3.518  0.00  0.00    -0.004 A 
ATOM      5  C6  UNL d   1       1.299   4.166  -4.818  0.00  0.00    -0.075 A 
ATOM      6  C7  UNL d   1       0.862   4.982  -5.998  0.00  0.00     0.076 C 
ATOM      7  C8  UNL d   1       1.824   2.881  -5.013  0.00  0.00     0.001 A 
ENDROOT
BRANCH   1   8
ATOM      8  C1  UNL d   1       2.804   0.720  -4.149  0.00  0.00     0.053 C 
ATOM      9  C   UNL d   1       3.718   0.660  -5.363  0.00  0.00     0.018 C 
ENDBRANCH   1   8
TORSDOF 1
ENDMDL
