MODEL 1
REMARK minimizedAffinity 1.62081397
REMARK minimizedRMSD -1
REMARK  1 active torsions:
REMARK  status: ('A' for Active; 'I' for Inactive)
REMARK    1  A    between atoms: C1_2  and  C2_3 
ROOT
ATOM      1  C2  UNL d   1      -2.215  -2.238  -1.136  0.00  0.00    -0.073 A 
ATOM      2  C3  UNL d   1      -2.715  -1.702  -2.329  0.00  0.00    -0.002 A 
ATOM      3  C4  UNL d   1      -2.317  -0.434  -2.753  0.00  0.00     0.004 A 
ATOM      4  C5  UNL d   1      -1.412   0.308  -1.995  0.00  0.00    -0.004 A 
ATOM      5  C6  UNL d   1      -0.892  -0.214  -0.806  0.00  0.00    -0.075 A 
ATOM      6  C7  UNL d   1       0.080   0.572   0.022  0.00  0.00     0.076 C 
ATOM      7  C8  UNL d   1      -1.299  -1.488  -0.385  0.00  0.00     0.001 A 
ENDROOT
BRANCH   1   8
ATOM      8  C1  UNL d   1      -2.637  -3.610  -0.677  0.00  0.00     0.053 C 
ATOM      9  C   UNL d   1      -2.285  -4.684  -1.694  0.00  0.00     0.018 C 
ENDBRANCH   1   8
TORSDOF 1
ENDMDL
