MODEL 1
REMARK minimizedAffinity 8.9505434
REMARK minimizedRMSD -1
REMARK  1 active torsions:
REMARK  status: ('A' for Active; 'I' for Inactive)
REMARK    1  A    between atoms: C1_2  and  C2_3 
ROOT
ATOM      1  C2  UNL d   1       3.330   1.114  -2.214  0.00  0.00    -0.073 A 
ATOM      2  C3  UNL d   1       4.149   0.018  -1.921  0.00  0.00    -0.002 A 
ATOM      3  C4  UNL d   1       4.811  -0.661  -2.944  0.00  0.00     0.004 A 
ATOM      4  C5  UNL d   1       4.667  -0.248  -4.269  0.00  0.00    -0.004 A 
ATOM      5  C6  UNL d   1       3.862   0.853  -4.580  0.00  0.00    -0.075 A 
ATOM      6  C7  UNL d   1       3.695   1.310  -6.000  0.00  0.00     0.076 C 
ATOM      7  C8  UNL d   1       3.199   1.528  -3.547  0.00  0.00     0.001 A 
ENDROOT
BRANCH   1   8
ATOM      8  C1  UNL d   1       2.618   1.854  -1.111  0.00  0.00     0.053 C 
ATOM      9  C   UNL d   1       3.017   1.347   0.266  0.00  0.00     0.018 C 
ENDBRANCH   1   8
TORSDOF 1
ENDMDL
