MODEL 1
REMARK minimizedAffinity 3.45093632
REMARK minimizedRMSD -1
REMARK  1 active torsions:
REMARK  status: ('A' for Active; 'I' for Inactive)
REMARK    1  A    between atoms: C1_2  and  C2_3 
ROOT
ATOM      1  C2  UNL d   1       5.670  -2.935   4.854  0.00  0.00    -0.073 A 
ATOM      2  C3  UNL d   1       6.000  -1.576   4.918  0.00  0.00    -0.002 A 
ATOM      3  C4  UNL d   1       5.688  -0.724   3.858  0.00  0.00     0.004 A 
ATOM      4  C5  UNL d   1       5.038  -1.219   2.727  0.00  0.00    -0.004 A 
ATOM      5  C6  UNL d   1       4.690  -2.571   2.649  0.00  0.00    -0.075 A 
ATOM      6  C7  UNL d   1       3.993  -3.119   1.439  0.00  0.00     0.076 C 
ATOM      7  C8  UNL d   1       5.009  -3.421   3.717  0.00  0.00     0.001 A 
ENDROOT
BRANCH   1   8
ATOM      8  C1  UNL d   1       5.999  -3.857   5.999  0.00  0.00     0.053 C 
ATOM      9  C   UNL d   1       5.982  -5.318   5.576  0.00  0.00     0.018 C 
ENDBRANCH   1   8
TORSDOF 1
ENDMDL
