MODEL 1
REMARK minimizedAffinity 12.3363571
REMARK minimizedRMSD -1
REMARK  1 active torsions:
REMARK  status: ('A' for Active; 'I' for Inactive)
REMARK    1  A    between atoms: C1_2  and  C2_3 
ROOT
ATOM      1  C2  UNL d   1      -5.171  -1.157   3.121  0.00  0.00    -0.073 A 
ATOM      2  C3  UNL d   1      -5.999  -1.616   2.090  0.00  0.00    -0.002 A 
ATOM      3  C4  UNL d   1      -5.471  -2.381   1.050  0.00  0.00     0.004 A 
ATOM      4  C5  UNL d   1      -4.113  -2.701   1.032  0.00  0.00    -0.004 A 
ATOM      5  C6  UNL d   1      -3.272  -2.262   2.060  0.00  0.00    -0.075 A 
ATOM      6  C7  UNL d   1      -1.809  -2.596   2.055  0.00  0.00     0.076 C 
ATOM      7  C8  UNL d   1      -3.809  -1.492   3.100  0.00  0.00     0.001 A 
ENDROOT
BRANCH   1   8
ATOM      8  C1  UNL d   1      -5.737  -0.337   4.251  0.00  0.00     0.053 C 
ATOM      9  C   UNL d   1      -5.838  -1.135   5.541  0.00  0.00     0.018 C 
ENDBRANCH   1   8
TORSDOF 1
ENDMDL
