MODEL 1
REMARK minimizedAffinity -6.11285639
REMARK minimizedRMSD -1
REMARK  2 active torsions:
REMARK  status: ('A' for Active; 'I' for Inactive)
REMARK    1  A    between atoms: C1_2  and  C2_3 
REMARK    2  A    between atoms: C2_3  and  C3_4 
ROOT
ATOM      1  C3  UNL d   1      -0.740  -0.530   1.060  0.00  0.00    -0.075 A 
ATOM      2  C4  UNL d   1      -0.156  -1.324   2.057  0.00  0.00     0.002 A 
ATOM      3  C5  UNL d   1       1.135  -1.053   2.513  0.00  0.00     0.002 A 
ATOM      4  C6  UNL d   1       1.859   0.007   1.973  0.00  0.00    -0.004 A 
ATOM      5  C7  UNL d   1       1.294   0.793   0.970  0.00  0.00     0.002 A 
ATOM      6  C8  UNL d   1       0.002   0.526   0.515  0.00  0.00     0.002 A 
ENDROOT
BRANCH   1   7
ATOM      7  C2  UNL d   1      -2.147  -0.801   0.583  0.00  0.00     0.056 C 
BRANCH   7   8
ATOM      8  C1  UNL d   1      -2.293  -0.835  -0.941  0.00  0.00     0.007 C 
ATOM      9  C   UNL d   1      -3.686  -1.244  -1.402  0.00  0.00     0.009 C 
ENDBRANCH   7   8
ENDBRANCH   1   7
TORSDOF 2
ENDMDL
