MODEL 1
REMARK minimizedAffinity -5.27535057
REMARK minimizedRMSD -1
REMARK  2 active torsions:
REMARK  status: ('A' for Active; 'I' for Inactive)
REMARK    1  A    between atoms: C1_2  and  C2_3 
REMARK    2  A    between atoms: C2_3  and  C3_4 
ROOT
ATOM      1  C3  UNL d   1      -1.095  -0.896   0.254  0.00  0.00    -0.075 A 
ATOM      2  C4  UNL d   1       0.157  -0.449  -0.193  0.00  0.00     0.002 A 
ATOM      3  C5  UNL d   1       1.164  -0.135   0.720  0.00  0.00     0.002 A 
ATOM      4  C6  UNL d   1       0.930  -0.254   2.088  0.00  0.00    -0.004 A 
ATOM      5  C7  UNL d   1      -0.316  -0.681   2.544  0.00  0.00     0.002 A 
ATOM      6  C8  UNL d   1      -1.324  -1.000   1.632  0.00  0.00     0.002 A 
ENDROOT
BRANCH   1   7
ATOM      7  C2  UNL d   1      -2.179  -1.265  -0.730  0.00  0.00     0.056 C 
BRANCH   7   8
ATOM      8  C1  UNL d   1      -3.172  -2.306  -0.203  0.00  0.00     0.007 C 
ATOM      9  C   UNL d   1      -4.581  -1.757  -0.027  0.00  0.00     0.009 C 
ENDBRANCH   7   8
ENDBRANCH   1   7
TORSDOF 2
ENDMDL
