MODEL 1
REMARK minimizedAffinity -2.56532097
REMARK minimizedRMSD -1
REMARK  2 active torsions:
REMARK  status: ('A' for Active; 'I' for Inactive)
REMARK    1  A    between atoms: C1_2  and  C2_3 
REMARK    2  A    between atoms: C2_3  and  C3_4 
ROOT
ATOM      1  C3  UNL d   1      -1.634  -0.422  -0.319  0.00  0.00    -0.075 A 
ATOM      2  C4  UNL d   1      -0.551   0.037  -1.083  0.00  0.00     0.002 A 
ATOM      3  C5  UNL d   1       0.662   0.357  -0.473  0.00  0.00     0.002 A 
ATOM      4  C6  UNL d   1       0.805   0.233   0.907  0.00  0.00    -0.004 A 
ATOM      5  C7  UNL d   1      -0.269  -0.206   1.679  0.00  0.00     0.002 A 
ATOM      6  C8  UNL d   1      -1.483  -0.531   1.070  0.00  0.00     0.002 A 
ENDROOT
BRANCH   1   7
ATOM      7  C2  UNL d   1      -2.940  -0.799  -0.977  0.00  0.00     0.056 C 
BRANCH   7   8
ATOM      8  C1  UNL d   1      -3.562  -2.090  -0.434  0.00  0.00     0.007 C 
ATOM      9  C   UNL d   1      -4.895  -1.866   0.267  0.00  0.00     0.009 C 
ENDBRANCH   7   8
ENDBRANCH   1   7
TORSDOF 2
ENDMDL
