MODEL 1
REMARK minimizedAffinity -3.28052735
REMARK minimizedRMSD -1
REMARK  2 active torsions:
REMARK  status: ('A' for Active; 'I' for Inactive)
REMARK    1  A    between atoms: C1_2  and  C2_3 
REMARK    2  A    between atoms: C2_3  and  C3_4 
ROOT
ATOM      1  C3  UNL d   1       0.712  -0.382   0.128  0.00  0.00    -0.075 A 
ATOM      2  C4  UNL d   1       2.050  -0.243   0.522  0.00  0.00     0.002 A 
ATOM      3  C5  UNL d   1       2.399  -0.285   1.872  0.00  0.00     0.002 A 
ATOM      4  C6  UNL d   1       1.416  -0.456   2.844  0.00  0.00    -0.004 A 
ATOM      5  C7  UNL d   1       0.081  -0.579   2.465  0.00  0.00     0.002 A 
ATOM      6  C8  UNL d   1      -0.271  -0.542   1.115  0.00  0.00     0.002 A 
ENDROOT
BRANCH   1   7
ATOM      7  C2  UNL d   1       0.331  -0.368  -1.333  0.00  0.00     0.056 C 
BRANCH   7   8
ATOM      8  C1  UNL d   1      -0.861   0.539  -1.658  0.00  0.00     0.007 C 
ATOM      9  C   UNL d   1      -0.450   1.941  -2.087  0.00  0.00     0.009 C 
ENDBRANCH   7   8
ENDBRANCH   1   7
TORSDOF 2
ENDMDL
