MODEL 1
REMARK minimizedAffinity -3.65802479
REMARK minimizedRMSD -1
REMARK  2 active torsions:
REMARK  status: ('A' for Active; 'I' for Inactive)
REMARK    1  A    between atoms: C1_2  and  C2_3 
REMARK    2  A    between atoms: C2_3  and  C3_4 
ROOT
ATOM      1  C3  UNL d   1      -0.152   1.418  -2.228  0.00  0.00    -0.075 A 
ATOM      2  C4  UNL d   1      -0.391   2.663  -1.628  0.00  0.00     0.002 A 
ATOM      3  C5  UNL d   1      -0.313   3.837  -2.378  0.00  0.00     0.002 A 
ATOM      4  C6  UNL d   1       0.014   3.782  -3.731  0.00  0.00    -0.004 A 
ATOM      5  C7  UNL d   1       0.270   2.552  -4.333  0.00  0.00     0.002 A 
ATOM      6  C8  UNL d   1       0.188   1.376  -3.587  0.00  0.00     0.002 A 
ENDROOT
BRANCH   1   7
ATOM      7  C2  UNL d   1      -0.264   0.141  -1.429  0.00  0.00     0.056 C 
BRANCH   7   8
ATOM      8  C1  UNL d   1       0.090   0.300   0.053  0.00  0.00     0.007 C 
ATOM      9  C   UNL d   1       1.378  -0.412   0.443  0.00  0.00     0.009 C 
ENDBRANCH   7   8
ENDBRANCH   1   7
TORSDOF 2
ENDMDL
