MODEL 1
REMARK minimizedAffinity -3.79924464
REMARK minimizedRMSD -1
REMARK  0 active torsions:
REMARK  status: ('A' for Active; 'I' for Inactive)
ROOT
ATOM      1  O1  BZF d   1       0.808   0.400  -5.509  0.00  0.00    -0.204 OA
ATOM      2  C2  BZF d   1      -0.350  -0.269  -5.854  0.00  0.00     0.174 A 
ATOM      3  C3  BZF d   1      -0.880  -0.893  -4.783  0.00  0.00    -0.012 A 
ATOM      4  C3A BZF d   1      -0.048  -0.520  -3.680  0.00  0.00    -0.107 A 
ATOM      5  C4  BZF d   1      -0.072  -0.810  -2.346  0.00  0.00     0.055 A 
ATOM      6  C5  BZF d   1       0.928  -0.346  -1.552  0.00  0.00    -0.016 A 
ATOM      7  C6  BZF d   1       1.969   0.405  -2.058  0.00  0.00     0.022 A 
ATOM      8  C7  BZF d   1       2.033   0.723  -3.374  0.00  0.00     0.029 A 
ATOM      9  C7A BZF d   1       1.006   0.283  -4.174  0.00  0.00     0.058 A 
ENDROOT
TORSDOF 0
ENDMDL
