MODEL 1
REMARK minimizedAffinity -4.02668095
REMARK minimizedRMSD -1
REMARK  0 active torsions:
REMARK  status: ('A' for Active; 'I' for Inactive)
ROOT
ATOM      1  O1  BZF d   1      -1.356  -0.728  -0.122  0.00  0.00    -0.204 OA
ATOM      2  C2  BZF d   1      -0.311  -1.163  -0.915  0.00  0.00     0.174 A 
ATOM      3  C3  BZF d   1       0.845  -0.576  -0.545  0.00  0.00    -0.012 A 
ATOM      4  C3A BZF d   1       0.519   0.208   0.606  0.00  0.00    -0.107 A 
ATOM      5  C4  BZF d   1       1.251   1.010   1.434  0.00  0.00     0.055 A 
ATOM      6  C5  BZF d   1       0.616   1.693   2.423  0.00  0.00    -0.016 A 
ATOM      7  C6  BZF d   1      -0.748   1.601   2.609  0.00  0.00     0.022 A 
ATOM      8  C7  BZF d   1      -1.515   0.814   1.816  0.00  0.00     0.029 A 
ATOM      9  C7A BZF d   1      -0.872   0.097   0.837  0.00  0.00     0.058 A 
ENDROOT
TORSDOF 0
ENDMDL
