MODEL 1
REMARK minimizedAffinity 4.41453075
REMARK minimizedRMSD -1
REMARK  0 active torsions:
REMARK  status: ('A' for Active; 'I' for Inactive)
ROOT
ATOM      1  O1  BZF d   1      -0.599   2.039  -0.552  0.00  0.00    -0.204 OA
ATOM      2  C2  BZF d   1      -0.554   1.319  -1.730  0.00  0.00     0.174 A 
ATOM      3  C3  BZF d   1       0.264   0.254  -1.610  0.00  0.00    -0.012 A 
ATOM      4  C3A BZF d   1       0.690   0.259  -0.244  0.00  0.00    -0.107 A 
ATOM      5  C4  BZF d   1       1.501  -0.559   0.490  0.00  0.00     0.055 A 
ATOM      6  C5  BZF d   1       1.772  -0.235   1.781  0.00  0.00    -0.016 A 
ATOM      7  C6  BZF d   1       1.253   0.900   2.369  0.00  0.00     0.022 A 
ATOM      8  C7  BZF d   1       0.440   1.740   1.683  0.00  0.00     0.029 A 
ATOM      9  C7A BZF d   1       0.138   1.397   0.387  0.00  0.00     0.058 A 
ENDROOT
TORSDOF 0
ENDMDL
