MODEL 1
REMARK minimizedAffinity -2.1115911
REMARK minimizedRMSD -1
REMARK  0 active torsions:
REMARK  status: ('A' for Active; 'I' for Inactive)
ROOT
ATOM      1  O1  BZF d   1      -0.544  -1.307  -0.400  0.00  0.00    -0.204 OA
ATOM      2  C2  BZF d   1      -1.923  -1.267  -0.463  0.00  0.00     0.174 A 
ATOM      3  C3  BZF d   1      -2.418  -0.386   0.430  0.00  0.00    -0.012 A 
ATOM      4  C3A BZF d   1      -1.272   0.227   1.029  0.00  0.00    -0.107 A 
ATOM      5  C4  BZF d   1      -1.113   1.195   1.979  0.00  0.00     0.055 A 
ATOM      6  C5  BZF d   1       0.141   1.514   2.394  0.00  0.00    -0.016 A 
ATOM      7  C6  BZF d   1       1.257   0.882   1.886  0.00  0.00     0.022 A 
ATOM      8  C7  BZF d   1       1.150  -0.081   0.938  0.00  0.00     0.029 A 
ATOM      9  C7A BZF d   1      -0.114  -0.382   0.492  0.00  0.00     0.058 A 
ENDROOT
TORSDOF 0
ENDMDL
