MODEL 1
REMARK minimizedAffinity 3.24977231
REMARK minimizedRMSD -1
REMARK  0 active torsions:
REMARK  status: ('A' for Active; 'I' for Inactive)
ROOT
ATOM      1  O1  BZF d   1      -1.865   0.127   0.706  0.00  0.00    -0.204 OA
ATOM      2  C2  BZF d   1      -2.334   0.424   1.971  0.00  0.00     0.174 A 
ATOM      3  C3  BZF d   1      -1.330   0.404   2.871  0.00  0.00    -0.012 A 
ATOM      4  C3A BZF d   1      -0.144   0.165   2.106  0.00  0.00    -0.107 A 
ATOM      5  C4  BZF d   1       1.177   0.053   2.433  0.00  0.00     0.055 A 
ATOM      6  C5  BZF d   1       2.074  -0.255   1.460  0.00  0.00    -0.016 A 
ATOM      7  C6  BZF d   1       1.685  -0.462   0.153  0.00  0.00     0.022 A 
ATOM      8  C7  BZF d   1       0.386  -0.357  -0.220  0.00  0.00     0.029 A 
ATOM      9  C7A BZF d   1      -0.518  -0.014   0.755  0.00  0.00     0.058 A 
ENDROOT
TORSDOF 0
ENDMDL
