MODEL 1
REMARK minimizedAffinity 0.809660554
REMARK minimizedRMSD -1
REMARK  0 active torsions:
REMARK  status: ('A' for Active; 'I' for Inactive)
ROOT
ATOM      1  O1  BZF d   1       0.272  -1.547  -0.715  0.00  0.00    -0.204 OA
ATOM      2  C2  BZF d   1      -0.818  -0.867  -1.221  0.00  0.00     0.174 A 
ATOM      3  C3  BZF d   1      -1.024   0.280  -0.543  0.00  0.00    -0.012 A 
ATOM      4  C3A BZF d   1       0.057   0.365   0.390  0.00  0.00    -0.107 A 
ATOM      5  C4  BZF d   1       0.414   1.286   1.332  0.00  0.00     0.055 A 
ATOM      6  C5  BZF d   1       1.486   1.036   2.129  0.00  0.00    -0.016 A 
ATOM      7  C6  BZF d   1       2.220  -0.127   2.014  0.00  0.00     0.022 A 
ATOM      8  C7  BZF d   1       1.908  -1.068   1.090  0.00  0.00     0.029 A 
ATOM      9  C7A BZF d   1       0.845  -0.802   0.261  0.00  0.00     0.058 A 
ENDROOT
TORSDOF 0
ENDMDL
