MODEL 1
REMARK minimizedAffinity 0.546996534
REMARK minimizedRMSD -1
REMARK  0 active torsions:
REMARK  status: ('A' for Active; 'I' for Inactive)
ROOT
ATOM      1  O1  BZF d   1       0.180  -1.638  -0.456  0.00  0.00    -0.204 OA
ATOM      2  C2  BZF d   1      -1.168  -1.416  -0.658  0.00  0.00     0.174 A 
ATOM      3  C3  BZF d   1      -1.593  -0.359   0.063  0.00  0.00    -0.012 A 
ATOM      4  C3A BZF d   1      -0.418   0.166   0.689  0.00  0.00    -0.107 A 
ATOM      5  C4  BZF d   1      -0.190   1.226   1.519  0.00  0.00     0.055 A 
ATOM      6  C5  BZF d   1       1.061   1.423   2.011  0.00  0.00    -0.016 A 
ATOM      7  C6  BZF d   1       2.105   0.577   1.698  0.00  0.00     0.022 A 
ATOM      8  C7  BZF d   1       1.930  -0.484   0.875  0.00  0.00     0.029 A 
ATOM      9  C7A BZF d   1       0.673  -0.667   0.349  0.00  0.00     0.058 A 
ENDROOT
TORSDOF 0
ENDMDL
