MODEL 1
REMARK minimizedAffinity 10.8912926
REMARK minimizedRMSD -1
REMARK  1 active torsions:
REMARK  status: ('A' for Active; 'I' for Inactive)
REMARK    1  A    between atoms: C1_2  and  C2_3 
ROOT
ATOM      1  C2  UNL d   1       0.402   0.757   4.636  0.00  0.00    -0.077 A 
ATOM      2  C3  UNL d   1       1.151  -0.402   4.388  0.00  0.00     0.002 A 
ATOM      3  C4  UNL d   1       1.054  -1.057   3.159  0.00  0.00     0.002 A 
ATOM      4  C5  UNL d   1       0.213  -0.557   2.167  0.00  0.00    -0.004 A 
ATOM      5  C6  UNL d   1      -0.537   0.594   2.404  0.00  0.00     0.002 A 
ATOM      6  C7  UNL d   1      -0.442   1.249   3.633  0.00  0.00     0.002 A 
ENDROOT
BRANCH   1   7
ATOM      7  C1  UNL d   1       0.543   1.492   5.944  0.00  0.00     0.055 C 
ATOM      8  C   UNL d   1      -0.337   2.732   5.979  0.00  0.00     0.019 C 
ENDBRANCH   1   7
TORSDOF 1
ENDMDL
