MODEL 1
REMARK minimizedAffinity 12.406394
REMARK minimizedRMSD -1
REMARK  1 active torsions:
REMARK  status: ('A' for Active; 'I' for Inactive)
REMARK    1  A    between atoms: C1_2  and  C2_3 
ROOT
ATOM      1  C2  UNL d   1      -1.083  -0.920   2.671  0.00  0.00    -0.077 A 
ATOM      2  C3  UNL d   1      -0.048  -0.123   2.162  0.00  0.00     0.002 A 
ATOM      3  C4  UNL d   1       1.271  -0.337   2.566  0.00  0.00     0.002 A 
ATOM      4  C5  UNL d   1       1.568  -1.349   3.475  0.00  0.00    -0.004 A 
ATOM      5  C6  UNL d   1       0.546  -2.146   3.989  0.00  0.00     0.002 A 
ATOM      6  C7  UNL d   1      -0.774  -1.933   3.588  0.00  0.00     0.002 A 
ENDROOT
BRANCH   1   7
ATOM      7  C1  UNL d   1      -2.500  -0.723   2.200  0.00  0.00     0.055 C 
ATOM      8  C   UNL d   1      -3.401  -1.859   2.664  0.00  0.00     0.019 C 
ENDBRANCH   1   7
TORSDOF 1
ENDMDL
