MODEL 1
REMARK minimizedAffinity 7.68447495
REMARK minimizedRMSD -1
REMARK  1 active torsions:
REMARK  status: ('A' for Active; 'I' for Inactive)
REMARK    1  A    between atoms: C1_2  and  C2_3 
ROOT
ATOM      1  C2  UNL d   1       5.248   3.673   2.788  0.00  0.00    -0.077 A 
ATOM      2  C3  UNL d   1       4.207   3.684   1.850  0.00  0.00     0.002 A 
ATOM      3  C4  UNL d   1       3.918   4.844   1.129  0.00  0.00     0.002 A 
ATOM      4  C5  UNL d   1       4.668   6.000   1.335  0.00  0.00    -0.004 A 
ATOM      5  C6  UNL d   1       5.705   6.000   2.267  0.00  0.00     0.002 A 
ATOM      6  C7  UNL d   1       5.994   4.842   2.990  0.00  0.00     0.002 A 
ENDROOT
BRANCH   1   7
ATOM      7  C1  UNL d   1       5.593   2.409   3.531  0.00  0.00     0.055 C 
ATOM      8  C   UNL d   1       4.389   1.485   3.641  0.00  0.00     0.019 C 
ENDBRANCH   1   7
TORSDOF 1
ENDMDL
