MODEL 1
REMARK minimizedAffinity 13.3423843
REMARK minimizedRMSD -1
REMARK  1 active torsions:
REMARK  status: ('A' for Active; 'I' for Inactive)
REMARK    1  A    between atoms: C1_2  and  C2_3 
ROOT
ATOM      1  C2  UNL d   1      -0.743  -0.233   2.512  0.00  0.00    -0.077 A 
ATOM      2  C3  UNL d   1      -0.454  -0.877   3.723  0.00  0.00     0.002 A 
ATOM      3  C4  UNL d   1       0.870  -1.116   4.097  0.00  0.00     0.002 A 
ATOM      4  C5  UNL d   1       1.914  -0.711   3.268  0.00  0.00    -0.004 A 
ATOM      5  C6  UNL d   1       1.636  -0.071   2.060  0.00  0.00     0.002 A 
ATOM      6  C7  UNL d   1       0.313   0.168   1.685  0.00  0.00     0.002 A 
ENDROOT
BRANCH   1   7
ATOM      7  C1  UNL d   1      -2.169   0.070   2.131  0.00  0.00     0.055 C 
ATOM      8  C   UNL d   1      -3.100  -1.070   2.520  0.00  0.00     0.019 C 
ENDBRANCH   1   7
TORSDOF 1
ENDMDL
