MODEL 1
REMARK minimizedAffinity 14.5156546
REMARK minimizedRMSD -1
REMARK  1 active torsions:
REMARK  status: ('A' for Active; 'I' for Inactive)
REMARK    1  A    between atoms: C1_2  and  C2_3 
ROOT
ATOM      1  C2  UNL d   1       0.904  -1.722  -4.871  0.00  0.00    -0.077 A 
ATOM      2  C3  UNL d   1       0.106  -2.595  -5.623  0.00  0.00     0.002 A 
ATOM      3  C4  UNL d   1       0.593  -3.849  -6.000  0.00  0.00     0.002 A 
ATOM      4  C5  UNL d   1       1.876  -4.241  -5.626  0.00  0.00    -0.004 A 
ATOM      5  C6  UNL d   1       2.678  -3.378  -4.879  0.00  0.00     0.002 A 
ATOM      6  C7  UNL d   1       2.194  -2.125  -4.503  0.00  0.00     0.002 A 
ENDROOT
BRANCH   1   7
ATOM      7  C1  UNL d   1       0.363  -0.389  -4.422  0.00  0.00     0.055 C 
ATOM      8  C   UNL d   1      -0.007  -0.411  -2.946  0.00  0.00     0.019 C 
ENDBRANCH   1   7
TORSDOF 1
ENDMDL
