MODEL 1
REMARK minimizedAffinity 5.31883001
REMARK minimizedRMSD -1
REMARK  1 active torsions:
REMARK  status: ('A' for Active; 'I' for Inactive)
REMARK    1  A    between atoms: C1_2  and  C2_3 
ROOT
ATOM      1  C2  UNL d   1       0.238   0.729   3.891  0.00  0.00    -0.077 A 
ATOM      2  C3  UNL d   1      -0.404   0.134   2.796  0.00  0.00     0.002 A 
ATOM      3  C4  UNL d   1      -0.067  -1.161   2.397  0.00  0.00     0.002 A 
ATOM      4  C5  UNL d   1       0.909  -1.873   3.090  0.00  0.00    -0.004 A 
ATOM      5  C6  UNL d   1       1.555  -1.290   4.179  0.00  0.00     0.002 A 
ATOM      6  C7  UNL d   1       1.220   0.005   4.578  0.00  0.00     0.002 A 
ENDROOT
BRANCH   1   7
ATOM      7  C1  UNL d   1      -0.159   2.107   4.353  0.00  0.00     0.055 C 
ATOM      8  C   UNL d   1      -0.102   2.220   5.869  0.00  0.00     0.019 C 
ENDBRANCH   1   7
TORSDOF 1
ENDMDL
