MODEL 1
REMARK minimizedAffinity 16.7908077
REMARK minimizedRMSD -1
REMARK  1 active torsions:
REMARK  status: ('A' for Active; 'I' for Inactive)
REMARK    1  A    between atoms: C1_2  and  C2_3 
ROOT
ATOM      1  C2  UNL d   1      -0.464  -3.364  -5.526  0.00  0.00    -0.077 A 
ATOM      2  C3  UNL d   1      -1.814  -3.630  -5.794  0.00  0.00     0.002 A 
ATOM      3  C4  UNL d   1      -2.252  -4.943  -5.979  0.00  0.00     0.002 A 
ATOM      4  C5  UNL d   1      -1.348  -6.000  -5.894  0.00  0.00    -0.004 A 
ATOM      5  C6  UNL d   1      -0.003  -5.745  -5.629  0.00  0.00     0.002 A 
ATOM      6  C7  UNL d   1       0.437  -4.434  -5.445  0.00  0.00     0.002 A 
ENDROOT
BRANCH   1   7
ATOM      7  C1  UNL d   1       0.001  -1.953  -5.277  0.00  0.00     0.055 C 
ATOM      8  C   UNL d   1      -0.051  -1.606  -3.797  0.00  0.00     0.019 C 
ENDBRANCH   1   7
TORSDOF 1
ENDMDL
