MODEL 1
REMARK minimizedAffinity 2.20260215
REMARK minimizedRMSD -1
REMARK  1 active torsions:
REMARK  status: ('A' for Active; 'I' for Inactive)
REMARK    1  A    between atoms: C1_2  and  C2_3 
ROOT
ATOM      1  C2  UNL d   1       0.619  -1.952   3.612  0.00  0.00    -0.077 A 
ATOM      2  C3  UNL d   1       1.292  -0.843   4.143  0.00  0.00     0.002 A 
ATOM      3  C4  UNL d   1       0.981   0.447   3.709  0.00  0.00     0.002 A 
ATOM      4  C5  UNL d   1      -0.007   0.641   2.746  0.00  0.00    -0.004 A 
ATOM      5  C6  UNL d   1      -0.680  -0.456   2.210  0.00  0.00     0.002 A 
ATOM      6  C7  UNL d   1      -0.370  -1.746   2.641  0.00  0.00     0.002 A 
ENDROOT
BRANCH   1   7
ATOM      7  C1  UNL d   1       0.919  -3.340   4.114  0.00  0.00     0.055 C 
ATOM      8  C   UNL d   1       1.605  -3.301   5.472  0.00  0.00     0.019 C 
ENDBRANCH   1   7
TORSDOF 1
ENDMDL
