MODEL 1
REMARK minimizedAffinity 6.98362064
REMARK minimizedRMSD -1
REMARK  1 active torsions:
REMARK  status: ('A' for Active; 'I' for Inactive)
REMARK    1  A    between atoms: C1_2  and  C2_3 
ROOT
ATOM      1  C2  UNL d   1       1.596  -0.447   0.613  0.00  0.00    -0.073 A 
ATOM      2  C3  UNL d   1       1.325  -1.561   1.417  0.00  0.00    -0.002 A 
ATOM      3  C4  UNL d   1       1.365  -1.453   2.807  0.00  0.00     0.004 A 
ATOM      4  C5  UNL d   1       1.668  -0.231   3.408  0.00  0.00    -0.004 A 
ATOM      5  C6  UNL d   1       1.930   0.896   2.622  0.00  0.00    -0.075 A 
ATOM      6  C7  UNL d   1       2.261   2.216   3.253  0.00  0.00     0.076 C 
ATOM      7  C8  UNL d   1       1.891   0.778   1.226  0.00  0.00     0.001 A 
ENDROOT
BRANCH   1   8
ATOM      8  C1  UNL d   1       1.548  -0.558  -0.889  0.00  0.00     0.053 C 
ATOM      9  C   UNL d   1       2.208  -1.833  -1.388  0.00  0.00     0.018 C 
ENDBRANCH   1   8
TORSDOF 1
ENDMDL
