MODEL 1
REMARK minimizedAffinity 8.63953972
REMARK minimizedRMSD -1
REMARK  1 active torsions:
REMARK  status: ('A' for Active; 'I' for Inactive)
REMARK    1  A    between atoms: C1_2  and  C2_3 
ROOT
ATOM      1  C2  UNL d   1       4.124  -0.390  -3.743  0.00  0.00    -0.073 A 
ATOM      2  C3  UNL d   1       4.252   0.248  -2.504  0.00  0.00    -0.002 A 
ATOM      3  C4  UNL d   1       3.762  -0.358  -1.346  0.00  0.00     0.004 A 
ATOM      4  C5  UNL d   1       3.147  -1.608  -1.414  0.00  0.00    -0.004 A 
ATOM      5  C6  UNL d   1       3.021  -2.266  -2.641  0.00  0.00    -0.075 A 
ATOM      6  C7  UNL d   1       2.361  -3.611  -2.731  0.00  0.00     0.076 C 
ATOM      7  C8  UNL d   1       3.513  -1.651  -3.800  0.00  0.00     0.001 A 
ENDROOT
BRANCH   1   8
ATOM      8  C1  UNL d   1       4.657   0.257  -4.995  0.00  0.00     0.053 C 
ATOM      9  C   UNL d   1       6.000  -0.325  -5.411  0.00  0.00     0.018 C 
ENDBRANCH   1   8
TORSDOF 1
ENDMDL
