MODEL 1
REMARK minimizedAffinity -2.81425476
REMARK minimizedRMSD -1
REMARK  1 active torsions:
REMARK  status: ('A' for Active; 'I' for Inactive)
REMARK    1  A    between atoms: C1_2  and  C2_3 
ROOT
ATOM      1  C2  UNL d   1      -4.954  -5.265  -3.716  0.00  0.00    -0.073 A 
ATOM      2  C3  UNL d   1      -4.653  -5.983  -2.553  0.00  0.00    -0.002 A 
ATOM      3  C4  UNL d   1      -4.323  -5.311  -1.375  0.00  0.00     0.004 A 
ATOM      4  C5  UNL d   1      -4.299  -3.917  -1.345  0.00  0.00    -0.004 A 
ATOM      5  C6  UNL d   1      -4.608  -3.182  -2.494  0.00  0.00    -0.075 A 
ATOM      6  C7  UNL d   1      -4.584  -1.681  -2.480  0.00  0.00     0.076 C 
ATOM      7  C8  UNL d   1      -4.935  -3.864  -3.674  0.00  0.00     0.001 A 
ENDROOT
BRANCH   1   8
ATOM      8  C1  UNL d   1      -5.316  -5.986  -4.988  0.00  0.00     0.053 C 
ATOM      9  C   UNL d   1      -5.981  -5.063  -5.997  0.00  0.00     0.018 C 
ENDBRANCH   1   8
TORSDOF 1
ENDMDL
