MODEL 1
REMARK minimizedAffinity -2.6092217
REMARK minimizedRMSD -1
REMARK  1 active torsions:
REMARK  status: ('A' for Active; 'I' for Inactive)
REMARK    1  A    between atoms: C1_2  and  C2_3 
ROOT
ATOM      1  C2  UNL d   1       1.464   0.598   1.602  0.00  0.00    -0.073 A 
ATOM      2  C3  UNL d   1       0.337   1.427   1.644  0.00  0.00    -0.002 A 
ATOM      3  C4  UNL d   1      -0.939   0.891   1.462  0.00  0.00     0.004 A 
ATOM      4  C5  UNL d   1      -1.102  -0.476   1.244  0.00  0.00    -0.004 A 
ATOM      5  C6  UNL d   1       0.011  -1.323   1.210  0.00  0.00    -0.075 A 
ATOM      6  C7  UNL d   1      -0.147  -2.796   0.974  0.00  0.00     0.076 C 
ATOM      7  C8  UNL d   1       1.289  -0.777   1.391  0.00  0.00     0.001 A 
ENDROOT
BRANCH   1   8
ATOM      8  C1  UNL d   1       2.843   1.171   1.804  0.00  0.00     0.053 C 
ATOM      9  C   UNL d   1       3.062   2.432   0.984  0.00  0.00     0.018 C 
ENDBRANCH   1   8
TORSDOF 1
ENDMDL
