MODEL 1
REMARK minimizedAffinity 6.42931938
REMARK minimizedRMSD -1
REMARK  1 active torsions:
REMARK  status: ('A' for Active; 'I' for Inactive)
REMARK    1  A    between atoms: C1_2  and  C2_3 
ROOT
ATOM      1  C2  UNL d   1       1.825  -1.519   0.434  0.00  0.00    -0.076 A 
ATOM      2  C3  UNL d   1       2.820  -2.294  -0.188  0.00  0.00     0.004 A 
ATOM      3  C4  UNL d   1       3.422  -3.358   0.480  0.00  0.00    -0.003 A 
ATOM      4  C5  UNL d   1       3.040  -3.666   1.781  0.00  0.00     0.000 A 
ATOM      5  C6  UNL d   1       2.043  -2.919   2.407  0.00  0.00     0.000 A 
ATOM      6  C7  UNL d   1       1.414  -1.853   1.742  0.00  0.00    -0.073 A 
ATOM      7  C8  UNL d   1       0.349  -1.077   2.468  0.00  0.00     0.078 C 
ENDROOT
BRANCH   1   8
ATOM      8  C1  UNL d   1       1.227  -0.359  -0.329  0.00  0.00     0.053 C 
ATOM      9  C   UNL d   1       2.218   0.279  -1.291  0.00  0.00     0.018 C 
ENDBRANCH   1   8
TORSDOF 1
ENDMDL
