MODEL 1
REMARK minimizedAffinity 14.68365
REMARK minimizedRMSD -1
REMARK  1 active torsions:
REMARK  status: ('A' for Active; 'I' for Inactive)
REMARK    1  A    between atoms: C1_2  and  C2_3 
ROOT
ATOM      1  C2  UNL d   1       1.918  -0.063   0.657  0.00  0.00    -0.076 A 
ATOM      2  C3  UNL d   1       1.293   0.841   1.533  0.00  0.00     0.004 A 
ATOM      3  C4  UNL d   1       0.641   0.394   2.681  0.00  0.00    -0.003 A 
ATOM      4  C5  UNL d   1       0.605  -0.965   2.972  0.00  0.00     0.000 A 
ATOM      5  C6  UNL d   1       1.234  -1.875   2.124  0.00  0.00     0.000 A 
ATOM      6  C7  UNL d   1       1.910  -1.439   0.971  0.00  0.00    -0.073 A 
ATOM      7  C8  UNL d   1       2.567  -2.465   0.088  0.00  0.00     0.078 C 
ENDROOT
BRANCH   1   8
ATOM      8  C1  UNL d   1       2.586   0.477  -0.587  0.00  0.00     0.053 C 
ATOM      9  C   UNL d   1       1.620   0.614  -1.754  0.00  0.00     0.018 C 
ENDBRANCH   1   8
TORSDOF 1
ENDMDL
