MODEL 1
REMARK minimizedAffinity 12.6409426
REMARK minimizedRMSD -1
REMARK  1 active torsions:
REMARK  status: ('A' for Active; 'I' for Inactive)
REMARK    1  A    between atoms: C1_2  and  C2_3 
ROOT
ATOM      1  C2  UNL d   1       2.940  -0.797  -0.653  0.00  0.00    -0.076 A 
ATOM      2  C3  UNL d   1       3.143  -2.187  -0.617  0.00  0.00     0.004 A 
ATOM      3  C4  UNL d   1       4.420  -2.723  -0.461  0.00  0.00    -0.003 A 
ATOM      4  C5  UNL d   1       5.516  -1.876  -0.337  0.00  0.00     0.000 A 
ATOM      5  C6  UNL d   1       5.332  -0.493  -0.352  0.00  0.00     0.000 A 
ATOM      6  C7  UNL d   1       4.048   0.062  -0.493  0.00  0.00    -0.073 A 
ATOM      7  C8  UNL d   1       3.908   1.560  -0.508  0.00  0.00     0.078 C 
ENDROOT
BRANCH   1   8
ATOM      8  C1  UNL d   1       1.535  -0.274  -0.852  0.00  0.00     0.053 C 
ATOM      9  C   UNL d   1       1.302   0.247  -2.261  0.00  0.00     0.018 C 
ENDBRANCH   1   8
TORSDOF 1
ENDMDL
