MODEL 1
REMARK minimizedAffinity 4.94039059
REMARK minimizedRMSD -1
REMARK  1 active torsions:
REMARK  status: ('A' for Active; 'I' for Inactive)
REMARK    1  A    between atoms: C1_2  and  C2_3 
ROOT
ATOM      1  C2  UNL d   1       3.495  -1.469  -0.537  0.00  0.00    -0.076 A 
ATOM      2  C3  UNL d   1       2.285  -0.844  -0.885  0.00  0.00     0.004 A 
ATOM      3  C4  UNL d   1       2.221   0.533  -1.091  0.00  0.00    -0.003 A 
ATOM      4  C5  UNL d   1       3.367   1.308  -0.952  0.00  0.00     0.000 A 
ATOM      5  C6  UNL d   1       4.580   0.703  -0.624  0.00  0.00     0.000 A 
ATOM      6  C7  UNL d   1       4.665  -0.686  -0.430  0.00  0.00    -0.073 A 
ATOM      7  C8  UNL d   1       5.997  -1.285  -0.072  0.00  0.00     0.078 C 
ENDROOT
BRANCH   1   8
ATOM      8  C1  UNL d   1       3.498  -2.962  -0.301  0.00  0.00     0.053 C 
ATOM      9  C   UNL d   1       2.723  -3.356   0.948  0.00  0.00     0.018 C 
ENDBRANCH   1   8
TORSDOF 1
ENDMDL
