MODEL 1
REMARK minimizedAffinity -0.296862692
REMARK minimizedRMSD -1
REMARK  1 active torsions:
REMARK  status: ('A' for Active; 'I' for Inactive)
REMARK    1  A    between atoms: C1_2  and  C2_3 
ROOT
ATOM      1  C2  UNL d   1       0.270  -1.658   1.866  0.00  0.00    -0.076 A 
ATOM      2  C3  UNL d   1      -0.373  -2.248   2.968  0.00  0.00     0.004 A 
ATOM      3  C4  UNL d   1      -0.101  -3.563   3.339  0.00  0.00    -0.003 A 
ATOM      4  C5  UNL d   1       0.820  -4.311   2.613  0.00  0.00     0.000 A 
ATOM      5  C6  UNL d   1       1.481  -3.737   1.528  0.00  0.00     0.000 A 
ATOM      6  C7  UNL d   1       1.230  -2.407   1.151  0.00  0.00    -0.073 A 
ATOM      7  C8  UNL d   1       1.966  -1.840  -0.032  0.00  0.00     0.078 C 
ENDROOT
BRANCH   1   8
ATOM      8  C1  UNL d   1      -0.086  -0.236   1.495  0.00  0.00     0.053 C 
ATOM      9  C   UNL d   1      -1.506  -0.110   0.967  0.00  0.00     0.018 C 
ENDBRANCH   1   8
TORSDOF 1
ENDMDL
