MODEL 1
REMARK minimizedAffinity -2.70093155
REMARK minimizedRMSD -1
REMARK  0 active torsions:
REMARK  status: ('A' for Active; 'I' for Inactive)
ROOT
ATOM      1  C   UNL d   1       0.467   3.772  -5.988  0.00  0.00    -0.002 A 
ATOM      2  C1  UNL d   1       0.508   5.159  -5.988  0.00  0.00     0.010 A 
ATOM      3  C2  UNL d   1      -0.673   5.904  -5.992  0.00  0.00     0.041 A 
ATOM      4  C3  UNL d   1      -1.907   5.225  -5.994  0.00  0.00    -0.075 A 
ATOM      5  S   UNL d   1      -3.481   5.929  -5.998  0.00  0.00     0.015 SA
ATOM      6  C4  UNL d   1      -4.244   4.405  -6.000  0.00  0.00     0.022 A 
ATOM      7  C5  UNL d   1      -3.336   3.373  -5.997  0.00  0.00     0.026 A 
ATOM      8  C6  UNL d   1      -1.974   3.828  -5.994  0.00  0.00    -0.082 A 
ATOM      9  C7  UNL d   1      -0.759   3.102  -5.991  0.00  0.00     0.045 A 
ENDROOT
TORSDOF 0
ENDMDL
