MODEL 1
REMARK minimizedAffinity 2.18138838
REMARK minimizedRMSD -1
REMARK  0 active torsions:
REMARK  status: ('A' for Active; 'I' for Inactive)
ROOT
ATOM      1  C   UNL d   1       1.235   2.589  -5.995  0.00  0.00    -0.002 A 
ATOM      2  C1  UNL d   1       1.566   3.937  -5.997  0.00  0.00     0.010 A 
ATOM      3  C2  UNL d   1       0.568   4.913  -6.000  0.00  0.00     0.041 A 
ATOM      4  C3  UNL d   1      -0.781   4.508  -5.998  0.00  0.00    -0.075 A 
ATOM      5  S   UNL d   1      -2.172   5.527  -6.000  0.00  0.00     0.015 SA
ATOM      6  C4  UNL d   1      -3.238   4.197  -5.997  0.00  0.00     0.022 A 
ATOM      7  C5  UNL d   1      -2.566   2.998  -5.995  0.00  0.00     0.026 A 
ATOM      8  C6  UNL d   1      -1.139   3.157  -5.995  0.00  0.00    -0.082 A 
ATOM      9  C7  UNL d   1      -0.104   2.192  -5.994  0.00  0.00     0.045 A 
ENDROOT
TORSDOF 0
ENDMDL
