MODEL 1
REMARK minimizedAffinity -3.07891774
REMARK minimizedRMSD -1
REMARK  0 active torsions:
REMARK  status: ('A' for Active; 'I' for Inactive)
ROOT
ATOM      1  C   UNL d   1      -3.000   5.486  -5.974  0.00  0.00    -0.002 A 
ATOM      2  C1  UNL d   1      -3.287   4.128  -5.962  0.00  0.00     0.010 A 
ATOM      3  C2  UNL d   1      -2.257   3.185  -5.963  0.00  0.00     0.041 A 
ATOM      4  C3  UNL d   1      -0.922   3.634  -5.973  0.00  0.00    -0.075 A 
ATOM      5  S   UNL d   1       0.501   2.661  -5.975  0.00  0.00     0.015 SA
ATOM      6  C4  UNL d   1       1.524   4.024  -5.991  0.00  0.00     0.022 A 
ATOM      7  C5  UNL d   1       0.813   5.201  -5.995  0.00  0.00     0.026 A 
ATOM      8  C6  UNL d   1      -0.608   4.996  -5.984  0.00  0.00    -0.082 A 
ATOM      9  C7  UNL d   1      -1.674   5.927  -5.985  0.00  0.00     0.045 A 
ENDROOT
TORSDOF 0
ENDMDL
