MODEL 1
REMARK minimizedAffinity 1.20546937
REMARK minimizedRMSD -1
REMARK  0 active torsions:
REMARK  status: ('A' for Active; 'I' for Inactive)
ROOT
ATOM      1  C   UNL d   1      -1.629   2.183  -5.998  0.00  0.00    -0.002 A 
ATOM      2  C1  UNL d   1      -2.280   3.408  -5.999  0.00  0.00     0.010 A 
ATOM      3  C2  UNL d   1      -1.551   4.599  -5.998  0.00  0.00     0.041 A 
ATOM      4  C3  UNL d   1      -0.143   4.537  -5.999  0.00  0.00    -0.075 A 
ATOM      5  S   UNL d   1       0.956   5.865  -5.999  0.00  0.00     0.015 SA
ATOM      6  C4  UNL d   1       2.315   4.837  -5.999  0.00  0.00     0.022 A 
ATOM      7  C5  UNL d   1       1.957   3.510  -5.999  0.00  0.00     0.026 A 
ATOM      8  C6  UNL d   1       0.535   3.315  -5.999  0.00  0.00    -0.082 A 
ATOM      9  C7  UNL d   1      -0.233   2.125  -5.998  0.00  0.00     0.045 A 
ENDROOT
TORSDOF 0
ENDMDL
