MODEL 1
REMARK minimizedAffinity 0.141977653
REMARK minimizedRMSD -1
REMARK  0 active torsions:
REMARK  status: ('A' for Active; 'I' for Inactive)
ROOT
ATOM      1  C   UNL d   1      -3.951   4.353  -5.997  0.00  0.00    -0.002 A 
ATOM      2  C1  UNL d   1      -3.528   3.031  -5.996  0.00  0.00     0.010 A 
ATOM      3  C2  UNL d   1      -2.167   2.721  -5.997  0.00  0.00     0.041 A 
ATOM      4  C3  UNL d   1      -1.228   3.772  -5.997  0.00  0.00    -0.075 A 
ATOM      5  S   UNL d   1       0.490   3.630  -5.997  0.00  0.00     0.015 SA
ATOM      6  C4  UNL d   1       0.703   5.321  -5.998  0.00  0.00     0.022 A 
ATOM      7  C5  UNL d   1      -0.496   5.993  -5.999  0.00  0.00     0.026 A 
ATOM      8  C6  UNL d   1      -1.630   5.111  -5.998  0.00  0.00    -0.082 A 
ATOM      9  C7  UNL d   1      -3.017   5.393  -5.998  0.00  0.00     0.045 A 
ENDROOT
TORSDOF 0
ENDMDL
