MODEL 1
REMARK minimizedAffinity 5.8555727
REMARK minimizedRMSD -1
REMARK  0 active torsions:
REMARK  status: ('A' for Active; 'I' for Inactive)
ROOT
ATOM      1  C   UNL d   1      -4.933  -4.677  -0.371  0.00  0.00    -0.002 A 
ATOM      2  C1  UNL d   1      -3.648  -4.846   0.124  0.00  0.00     0.010 A 
ATOM      3  C2  UNL d   1      -2.611  -5.254  -0.717  0.00  0.00     0.041 A 
ATOM      4  C3  UNL d   1      -2.890  -5.491  -2.078  0.00  0.00    -0.075 A 
ATOM      5  S   UNL d   1      -1.777  -5.997  -3.294  0.00  0.00     0.015 SA
ATOM      6  C4  UNL d   1      -2.982  -6.000  -4.499  0.00  0.00     0.022 A 
ATOM      7  C5  UNL d   1      -4.209  -5.627  -4.004  0.00  0.00     0.026 A 
ATOM      8  C6  UNL d   1      -4.176  -5.327  -2.600  0.00  0.00    -0.082 A 
ATOM      9  C7  UNL d   1      -5.206  -4.913  -1.721  0.00  0.00     0.045 A 
ENDROOT
TORSDOF 0
ENDMDL
