MODEL 1
REMARK minimizedAffinity 10.8925228
REMARK minimizedRMSD -1
REMARK  0 active torsions:
REMARK  status: ('A' for Active; 'I' for Inactive)
ROOT
ATOM      1  C   UNL d   1       0.716   1.121  -5.972  0.00  0.00    -0.002 A 
ATOM      2  C1  UNL d   1       1.903   1.841  -5.984  0.00  0.00     0.010 A 
ATOM      3  C2  UNL d   1       1.887   3.237  -5.993  0.00  0.00     0.041 A 
ATOM      4  C3  UNL d   1       0.646   3.904  -5.988  0.00  0.00    -0.075 A 
ATOM      5  S   UNL d   1       0.382   5.608  -5.997  0.00  0.00     0.015 SA
ATOM      6  C4  UNL d   1      -1.312   5.421  -5.984  0.00  0.00     0.022 A 
ATOM      7  C5  UNL d   1      -1.685   4.098  -5.974  0.00  0.00     0.026 A 
ATOM      8  C6  UNL d   1      -0.562   3.202  -5.976  0.00  0.00    -0.082 A 
ATOM      9  C7  UNL d   1      -0.513   1.787  -5.968  0.00  0.00     0.045 A 
ENDROOT
TORSDOF 0
ENDMDL
