MODEL 1
REMARK minimizedAffinity 15.5186462
REMARK minimizedRMSD -1
REMARK  0 active torsions:
REMARK  status: ('A' for Active; 'I' for Inactive)
ROOT
ATOM      1  C   UNL d   1      -5.473   1.496  -1.468  0.00  0.00    -0.002 A 
ATOM      2  C1  UNL d   1      -5.845   2.061  -2.680  0.00  0.00     0.010 A 
ATOM      3  C2  UNL d   1      -6.000   3.443  -2.802  0.00  0.00     0.041 A 
ATOM      4  C3  UNL d   1      -5.770   4.257  -1.675  0.00  0.00    -0.075 A 
ATOM      5  S   UNL d   1      -5.897   5.974  -1.589  0.00  0.00     0.015 SA
ATOM      6  C4  UNL d   1      -5.460   5.999   0.058  0.00  0.00     0.022 A 
ATOM      7  C5  UNL d   1      -5.219   4.737   0.547  0.00  0.00     0.026 A 
ATOM      8  C6  UNL d   1      -5.393   3.712  -0.444  0.00  0.00    -0.082 A 
ATOM      9  C7  UNL d   1      -5.246   2.307  -0.352  0.00  0.00     0.045 A 
ENDROOT
TORSDOF 0
ENDMDL
