MODEL 1
REMARK minimizedAffinity 6.21692896
REMARK minimizedRMSD -1
REMARK  0 active torsions:
REMARK  status: ('A' for Active; 'I' for Inactive)
ROOT
ATOM      1  C   UNL d   1       1.506   2.163  -2.179  0.00  0.00    -0.002 A 
ATOM      2  C1  UNL d   1       1.943   0.852  -2.060  0.00  0.00     0.010 A 
ATOM      3  C2  UNL d   1       1.432   0.020  -1.062  0.00  0.00     0.041 A 
ATOM      4  C3  UNL d   1       0.463   0.534  -0.177  0.00  0.00    -0.075 A 
ATOM      5  S   UNL d   1      -0.305  -0.301   1.121  0.00  0.00     0.015 SA
ATOM      6  C4  UNL d   1      -1.232   1.064   1.548  0.00  0.00     0.022 A 
ATOM      7  C5  UNL d   1      -0.975   2.139   0.731  0.00  0.00     0.026 A 
ATOM      8  C6  UNL d   1       0.006   1.851  -0.278  0.00  0.00    -0.082 A 
ATOM      9  C7  UNL d   1       0.545   2.669  -1.300  0.00  0.00     0.045 A 
ENDROOT
TORSDOF 0
ENDMDL
