MODEL 1
REMARK minimizedAffinity -4.37641048
REMARK minimizedRMSD -1
REMARK  0 active torsions:
REMARK  status: ('A' for Active; 'I' for Inactive)
ROOT
ATOM      1  C1  DEN d   1      -4.265   2.418   2.640  0.00  0.00     0.130 A 
ATOM      2  C2  DEN d   1      -4.202   1.603   3.850  0.00  0.00    -0.031 A 
ATOM      3  C3  DEN d   1      -4.660   2.432   4.983  0.00  0.00     0.027 A 
ATOM      4  C4  DEN d   1      -5.460   4.884   4.981  0.00  0.00     0.027 A 
ATOM      5  C5  DEN d   1      -5.677   5.993   4.194  0.00  0.00    -0.003 A 
ATOM      6  C6  DEN d   1      -5.409   5.999   2.851  0.00  0.00     0.001 A 
ATOM      7  C7  DEN d   1      -4.950   4.859   2.245  0.00  0.00     0.017 A 
ATOM      8  C8  DEN d   1      -4.722   3.739   3.034  0.00  0.00    -0.094 A 
ATOM      9  C9  DEN d   1      -5.011   3.749   4.387  0.00  0.00    -0.072 A 
ENDROOT
TORSDOF 0
ENDMDL
