MODEL 1
REMARK minimizedAffinity 3.93869424
REMARK minimizedRMSD -1
REMARK  0 active torsions:
REMARK  status: ('A' for Active; 'I' for Inactive)
ROOT
ATOM      1  C1  DEN d   1      -2.671  -0.001   1.624  0.00  0.00     0.130 A 
ATOM      2  C2  DEN d   1      -2.406   0.228   3.042  0.00  0.00    -0.031 A 
ATOM      3  C3  DEN d   1      -0.942   0.256   3.235  0.00  0.00     0.027 A 
ATOM      4  C4  DEN d   1       0.930  -0.025   1.483  0.00  0.00     0.027 A 
ATOM      5  C5  DEN d   1       1.197  -0.252   0.151  0.00  0.00    -0.003 A 
ATOM      6  C6  DEN d   1       0.201  -0.443  -0.770  0.00  0.00     0.001 A 
ATOM      7  C7  DEN d   1      -1.110  -0.366  -0.379  0.00  0.00     0.017 A 
ATOM      8  C8  DEN d   1      -1.386  -0.145   0.964  0.00  0.00    -0.094 A 
ATOM      9  C9  DEN d   1      -0.366   0.058   1.878  0.00  0.00    -0.072 A 
ENDROOT
TORSDOF 0
ENDMDL
