MODEL 1
REMARK minimizedAffinity -0.390711159
REMARK minimizedRMSD -1
REMARK  0 active torsions:
REMARK  status: ('A' for Active; 'I' for Inactive)
ROOT
ATOM      1  C1  DEN d   1      -0.809  -1.117  -0.612  0.00  0.00     0.130 A 
ATOM      2  C2  DEN d   1      -0.444   0.185  -1.163  0.00  0.00    -0.031 A 
ATOM      3  C3  DEN d   1      -1.007   0.277  -2.526  0.00  0.00     0.027 A 
ATOM      4  C4  DEN d   1      -2.403  -1.458  -3.826  0.00  0.00     0.027 A 
ATOM      5  C5  DEN d   1      -2.958  -2.718  -3.775  0.00  0.00    -0.003 A 
ATOM      6  C6  DEN d   1      -2.807  -3.539  -2.689  0.00  0.00     0.001 A 
ATOM      7  C7  DEN d   1      -2.123  -3.092  -1.590  0.00  0.00     0.017 A 
ATOM      8  C8  DEN d   1      -1.555  -1.826  -1.636  0.00  0.00    -0.094 A 
ATOM      9  C9  DEN d   1      -1.728  -1.006  -2.739  0.00  0.00    -0.072 A 
ENDROOT
TORSDOF 0
ENDMDL
