MODEL 1
REMARK minimizedAffinity 2.76416278
REMARK minimizedRMSD -1
REMARK  0 active torsions:
REMARK  status: ('A' for Active; 'I' for Inactive)
ROOT
ATOM      1  C1  DEN d   1       1.946  -0.084  -0.258  0.00  0.00     0.130 A 
ATOM      2  C2  DEN d   1       1.787  -0.527   1.124  0.00  0.00    -0.031 A 
ATOM      3  C3  DEN d   1       0.362  -0.853   1.338  0.00  0.00     0.027 A 
ATOM      4  C4  DEN d   1      -1.601  -0.720  -0.330  0.00  0.00     0.027 A 
ATOM      5  C5  DEN d   1      -1.959  -0.389  -1.618  0.00  0.00    -0.003 A 
ATOM      6  C6  DEN d   1      -1.054   0.095  -2.526  0.00  0.00     0.001 A 
ATOM      7  C7  DEN d   1       0.263   0.219  -2.171  0.00  0.00     0.017 A 
ATOM      8  C8  DEN d   1       0.630  -0.106  -0.872  0.00  0.00    -0.094 A 
ATOM      9  C9  DEN d   1      -0.296  -0.605   0.027  0.00  0.00    -0.072 A 
ENDROOT
TORSDOF 0
ENDMDL
