MODEL 1
REMARK minimizedAffinity 0.740047097
REMARK minimizedRMSD -1
REMARK  0 active torsions:
REMARK  status: ('A' for Active; 'I' for Inactive)
ROOT
ATOM      1  C1  DEN d   1      -0.887   0.640  -2.211  0.00  0.00     0.130 A 
ATOM      2  C2  DEN d   1      -0.784   0.619  -0.754  0.00  0.00    -0.031 A 
ATOM      3  C3  DEN d   1       0.588   0.204  -0.400  0.00  0.00     0.027 A 
ATOM      4  C4  DEN d   1       2.554  -0.400  -1.956  0.00  0.00     0.027 A 
ATOM      5  C5  DEN d   1       2.944  -0.539  -3.270  0.00  0.00    -0.003 A 
ATOM      6  C6  DEN d   1       2.082  -0.330  -4.314  0.00  0.00     0.001 A 
ATOM      7  C7  DEN d   1       0.797   0.075  -4.062  0.00  0.00     0.017 A 
ATOM      8  C8  DEN d   1       0.395   0.210  -2.740  0.00  0.00    -0.094 A 
ATOM      9  C9  DEN d   1       1.285   0.006  -1.699  0.00  0.00    -0.072 A 
ENDROOT
TORSDOF 0
ENDMDL
