MODEL 1
REMARK minimizedAffinity 6.12302399
REMARK minimizedRMSD -1
REMARK  0 active torsions:
REMARK  status: ('A' for Active; 'I' for Inactive)
ROOT
ATOM      1  C1  DEN d   1      -3.496   4.543   3.416  0.00  0.00     0.130 A 
ATOM      2  C2  DEN d   1      -4.228   5.294   4.431  0.00  0.00    -0.031 A 
ATOM      3  C3  DEN d   1      -5.341   6.000   3.764  0.00  0.00     0.027 A 
ATOM      4  C4  DEN d   1      -5.999   5.998   1.270  0.00  0.00     0.027 A 
ATOM      5  C5  DEN d   1      -5.669   5.518   0.022  0.00  0.00    -0.003 A 
ATOM      6  C6  DEN d   1      -4.581   4.713  -0.186  0.00  0.00     0.001 A 
ATOM      7  C7  DEN d   1      -3.809   4.327   0.878  0.00  0.00     0.017 A 
ATOM      8  C8  DEN d   1      -4.131   4.814   2.138  0.00  0.00    -0.094 A 
ATOM      9  C9  DEN d   1      -5.243   5.616   2.330  0.00  0.00    -0.072 A 
ENDROOT
TORSDOF 0
ENDMDL
