MODEL 1
REMARK minimizedAffinity 7.11028767
REMARK minimizedRMSD -1
REMARK  0 active torsions:
REMARK  status: ('A' for Active; 'I' for Inactive)
ROOT
ATOM      1  C1  DEN d   1      -0.369   0.253  -1.513  0.00  0.00     0.130 A 
ATOM      2  C2  DEN d   1       0.050  -0.132  -0.168  0.00  0.00    -0.031 A 
ATOM      3  C3  DEN d   1       1.436  -0.635  -0.247  0.00  0.00     0.027 A 
ATOM      4  C4  DEN d   1       2.969  -0.848  -2.311  0.00  0.00     0.027 A 
ATOM      5  C5  DEN d   1       3.051  -0.658  -3.672  0.00  0.00    -0.003 A 
ATOM      6  C6  DEN d   1       1.996  -0.187  -4.409  0.00  0.00     0.001 A 
ATOM      7  C7  DEN d   1       0.828   0.153  -3.780  0.00  0.00     0.017 A 
ATOM      8  C8  DEN d   1       0.735  -0.043  -2.409  0.00  0.00    -0.094 A 
ATOM      9  C9  DEN d   1       1.816  -0.509  -1.680  0.00  0.00    -0.072 A 
ENDROOT
TORSDOF 0
ENDMDL
