MODEL 1
REMARK minimizedAffinity -2.16535783
REMARK minimizedRMSD -1
REMARK  0 active torsions:
REMARK  status: ('A' for Active; 'I' for Inactive)
ROOT
ATOM      1  C1  DEN d   1      -3.644   5.701   2.006  0.00  0.00     0.130 A 
ATOM      2  C2  DEN d   1      -4.862   5.845   1.213  0.00  0.00    -0.031 A 
ATOM      3  C3  DEN d   1      -6.000   5.985   2.144  0.00  0.00     0.027 A 
ATOM      4  C4  DEN d   1      -5.993   5.995   4.723  0.00  0.00     0.027 A 
ATOM      5  C5  DEN d   1      -5.200   5.892   5.844  0.00  0.00    -0.003 A 
ATOM      6  C6  DEN d   1      -3.848   5.685   5.765  0.00  0.00     0.001 A 
ATOM      7  C7  DEN d   1      -3.242   5.620   4.539  0.00  0.00     0.017 A 
ATOM      8  C8  DEN d   1      -4.036   5.716   3.404  0.00  0.00    -0.094 A 
ATOM      9  C9  DEN d   1      -5.399   5.938   3.504  0.00  0.00    -0.072 A 
ENDROOT
TORSDOF 0
ENDMDL
