MODEL 1
REMARK minimizedAffinity -0.997719824
REMARK minimizedRMSD -1
REMARK  0 active torsions:
REMARK  status: ('A' for Active; 'I' for Inactive)
ROOT
ATOM      1  C1  DEN d   1       0.310  -0.818   0.082  0.00  0.00     0.130 A 
ATOM      2  C2  DEN d   1       0.574   0.359  -0.742  0.00  0.00    -0.031 A 
ATOM      3  C3  DEN d   1      -0.415   0.380  -1.838  0.00  0.00     0.027 A 
ATOM      4  C4  DEN d   1      -2.323  -1.283  -2.334  0.00  0.00     0.027 A 
ATOM      5  C5  DEN d   1      -2.935  -2.445  -1.920  0.00  0.00    -0.003 A 
ATOM      6  C6  DEN d   1      -2.491  -3.159  -0.839  0.00  0.00     0.001 A 
ATOM      7  C7  DEN d   1      -1.431  -2.693  -0.107  0.00  0.00     0.017 A 
ATOM      8  C8  DEN d   1      -0.804  -1.525  -0.522  0.00  0.00    -0.094 A 
ATOM      9  C9  DEN d   1      -1.276  -0.812  -1.611  0.00  0.00    -0.072 A 
ENDROOT
TORSDOF 0
ENDMDL
