MODEL 1
REMARK minimizedAffinity -6.75028372
REMARK minimizedRMSD -1
REMARK  0 active torsions:
REMARK  status: ('A' for Active; 'I' for Inactive)
ROOT
ATOM      1  C1  DEN d   1      -5.620  -3.273   1.544  0.00  0.00     0.130 A 
ATOM      2  C2  DEN d   1      -5.938  -4.596   1.015  0.00  0.00    -0.031 A 
ATOM      3  C3  DEN d   1      -4.936  -4.929  -0.017  0.00  0.00     0.027 A 
ATOM      4  C4  DEN d   1      -2.930  -3.533  -0.840  0.00  0.00     0.027 A 
ATOM      5  C5  DEN d   1      -2.259  -2.338  -0.697  0.00  0.00    -0.003 A 
ATOM      6  C6  DEN d   1      -2.678  -1.365   0.172  0.00  0.00     0.001 A 
ATOM      7  C7  DEN d   1      -3.773  -1.588   0.964  0.00  0.00     0.017 A 
ATOM      8  C8  DEN d   1      -4.458  -2.787   0.820  0.00  0.00    -0.094 A 
ATOM      9  C9  DEN d   1      -4.012  -3.763  -0.055  0.00  0.00    -0.072 A 
ENDROOT
TORSDOF 0
ENDMDL
