MODEL 1
REMARK minimizedAffinity 9.07697296
REMARK minimizedRMSD -1
REMARK  0 active torsions:
REMARK  status: ('A' for Active; 'I' for Inactive)
ROOT
ATOM      1  C1  DEN d   1      -2.241  -3.553  -2.024  0.00  0.00     0.130 A 
ATOM      2  C2  DEN d   1      -2.752  -3.572  -3.392  0.00  0.00    -0.031 A 
ATOM      3  C3  DEN d   1      -2.756  -2.184  -3.896  0.00  0.00     0.027 A 
ATOM      4  C4  DEN d   1      -2.021  -0.020  -2.700  0.00  0.00     0.027 A 
ATOM      5  C5  DEN d   1      -1.528   0.500  -1.524  0.00  0.00    -0.003 A 
ATOM      6  C6  DEN d   1      -1.272  -0.283  -0.430  0.00  0.00     0.001 A 
ATOM      7  C7  DEN d   1      -1.466  -1.637  -0.504  0.00  0.00     0.017 A 
ATOM      8  C8  DEN d   1      -1.970  -2.168  -1.684  0.00  0.00    -0.094 A 
ATOM      9  C9  DEN d   1      -2.211  -1.361  -2.783  0.00  0.00    -0.072 A 
ENDROOT
TORSDOF 0
ENDMDL
