MODEL 1
REMARK minimizedAffinity -5.88731194
REMARK minimizedRMSD -1
REMARK  0 active torsions:
REMARK  status: ('A' for Active; 'I' for Inactive)
ROOT
ATOM      1  C1  DEN d   1      -3.756  -2.098  -0.095  0.00  0.00     0.130 A 
ATOM      2  C2  DEN d   1      -2.483  -2.336  -0.770  0.00  0.00    -0.031 A 
ATOM      3  C3  DEN d   1      -2.281  -3.796  -0.864  0.00  0.00     0.027 A 
ATOM      4  C4  DEN d   1      -3.811  -5.701  -0.038  0.00  0.00     0.027 A 
ATOM      5  C5  DEN d   1      -4.993  -5.992   0.606  0.00  0.00    -0.003 A 
ATOM      6  C6  DEN d   1      -5.822  -5.014   1.088  0.00  0.00     0.001 A 
ATOM      7  C7  DEN d   1      -5.503  -3.696   0.893  0.00  0.00     0.017 A 
ATOM      8  C8  DEN d   1      -4.309  -3.395   0.251  0.00  0.00    -0.094 A 
ATOM      9  C9  DEN d   1      -3.490  -4.398  -0.240  0.00  0.00    -0.072 A 
ENDROOT
TORSDOF 0
ENDMDL
