MODEL 1
REMARK minimizedAffinity 1.39606118
REMARK minimizedRMSD -1
REMARK  0 active torsions:
REMARK  status: ('A' for Active; 'I' for Inactive)
ROOT
ATOM      1  C1  DEN d   1      -4.201   4.506   0.220  0.00  0.00     0.130 A 
ATOM      2  C2  DEN d   1      -5.302   5.262  -0.371  0.00  0.00    -0.031 A 
ATOM      3  C3  DEN d   1      -5.999   5.980   0.715  0.00  0.00     0.027 A 
ATOM      4  C4  DEN d   1      -5.480   5.997   3.242  0.00  0.00     0.027 A 
ATOM      5  C5  DEN d   1      -4.649   5.498   4.221  0.00  0.00    -0.003 A 
ATOM      6  C6  DEN d   1      -3.640   4.615   3.941  0.00  0.00     0.001 A 
ATOM      7  C7  DEN d   1      -3.407   4.238   2.645  0.00  0.00     0.017 A 
ATOM      8  C8  DEN d   1      -4.246   4.730   1.654  0.00  0.00    -0.094 A 
ATOM      9  C9  DEN d   1      -5.253   5.632   1.955  0.00  0.00    -0.072 A 
ENDROOT
TORSDOF 0
ENDMDL
