MODEL 1
REMARK minimizedAffinity 12.087986
REMARK minimizedRMSD -1
REMARK  0 active torsions:
REMARK  status: ('A' for Active; 'I' for Inactive)
ROOT
ATOM      1  C1  DEN d   1      -0.654  -0.312  -2.320  0.00  0.00     0.130 A 
ATOM      2  C2  DEN d   1      -0.694  -0.493  -0.871  0.00  0.00    -0.031 A 
ATOM      3  C3  DEN d   1      -1.466  -1.720  -0.586  0.00  0.00     0.027 A 
ATOM      4  C4  DEN d   1      -2.592  -3.350  -2.238  0.00  0.00     0.027 A 
ATOM      5  C5  DEN d   1      -2.839  -3.607  -3.568  0.00  0.00    -0.003 A 
ATOM      6  C6  DEN d   1      -2.409  -2.773  -4.566  0.00  0.00     0.001 A 
ATOM      7  C7  DEN d   1      -1.668  -1.664  -4.251  0.00  0.00     0.017 A 
ATOM      8  C8  DEN d   1      -1.421  -1.394  -2.911  0.00  0.00    -0.094 A 
ATOM      9  C9  DEN d   1      -1.854  -2.256  -1.918  0.00  0.00    -0.072 A 
ENDROOT
TORSDOF 0
ENDMDL
