MODEL 1
REMARK minimizedAffinity 5.96164703
REMARK minimizedRMSD -1
REMARK  0 active torsions:
REMARK  status: ('A' for Active; 'I' for Inactive)
ROOT
ATOM      1  C1  DEN d   1       2.867  -0.661   3.948  0.00  0.00     0.130 A 
ATOM      2  C2  DEN d   1       2.309  -1.135   5.212  0.00  0.00    -0.031 A 
ATOM      3  C3  DEN d   1       1.592  -0.011   5.845  0.00  0.00     0.027 A 
ATOM      4  C4  DEN d   1       1.288   2.405   4.993  0.00  0.00     0.027 A 
ATOM      5  C5  DEN d   1       1.590   3.283   3.976  0.00  0.00    -0.003 A 
ATOM      6  C6  DEN d   1       2.362   2.921   2.904  0.00  0.00     0.001 A 
ATOM      7  C7  DEN d   1       2.820   1.634   2.801  0.00  0.00     0.017 A 
ATOM      8  C8  DEN d   1       2.525   0.745   3.827  0.00  0.00    -0.094 A 
ATOM      9  C9  DEN d   1       1.734   1.127   4.896  0.00  0.00    -0.072 A 
ENDROOT
TORSDOF 0
ENDMDL
