MODEL 1
REMARK minimizedAffinity -0.254930675
REMARK minimizedRMSD -1
REMARK  0 active torsions:
REMARK  status: ('A' for Active; 'I' for Inactive)
ROOT
ATOM      1  C   UNL d   1       0.682   0.079  -1.741  0.00  0.00     0.124 A 
ATOM      2  C1  UNL d   1      -0.069   1.234  -1.571  0.00  0.00     0.062 A 
ATOM      3  C2  UNL d   1      -0.954   1.342  -0.502  0.00  0.00     0.162 A 
ATOM      4  C3  UNL d   1      -1.093   0.293   0.406  0.00  0.00    -0.034 A 
ATOM      5  C4  UNL d   1      -0.336  -0.866   0.228  0.00  0.00     0.162 A 
ATOM      6  C5  UNL d   1       0.548  -0.970  -0.842  0.00  0.00     0.062 A 
ATOM      7  F   UNL d   1       1.272  -2.087  -1.004  0.00  0.00    -0.097 F 
ATOM      8  F1  UNL d   1      -0.445  -1.894   1.082  0.00  0.00    -0.096 F 
ATOM      9  I   UNL d   1      -2.416   0.451   2.005  0.00  0.00    -0.060 I 
ATOM     10  F2  UNL d   1      -1.667   2.470  -0.363  0.00  0.00    -0.096 F 
ATOM     11  F3  UNL d   1       0.058   2.248  -2.439  0.00  0.00    -0.097 F 
ATOM     12  F4  UNL d   1       1.532  -0.023  -2.770  0.00  0.00    -0.092 F 
ENDROOT
TORSDOF 0
ENDMDL
