MODEL 1
REMARK minimizedAffinity 0.0752335489
REMARK minimizedRMSD -1
REMARK  0 active torsions:
REMARK  status: ('A' for Active; 'I' for Inactive)
ROOT
ATOM      1  C   UNL d   1       1.789  -0.300  -2.312  0.00  0.00     0.124 A 
ATOM      2  C1  UNL d   1       1.028   0.860  -2.266  0.00  0.00     0.062 A 
ATOM      3  C2  UNL d   1       0.172   1.093  -1.194  0.00  0.00     0.162 A 
ATOM      4  C3  UNL d   1       0.072   0.164  -0.158  0.00  0.00    -0.034 A 
ATOM      5  C4  UNL d   1       0.839  -1.001  -0.212  0.00  0.00     0.162 A 
ATOM      6  C5  UNL d   1       1.694  -1.229  -1.286  0.00  0.00     0.062 A 
ATOM      7  F   UNL d   1       2.427  -2.350  -1.329  0.00  0.00    -0.097 F 
ATOM      8  F1  UNL d   1       0.767  -1.915   0.767  0.00  0.00    -0.096 F 
ATOM      9  I   UNL d   1      -1.208   0.509   1.447  0.00  0.00    -0.060 I 
ATOM     10  F2  UNL d   1      -0.551   2.223  -1.175  0.00  0.00    -0.096 F 
ATOM     11  F3  UNL d   1       1.118   1.759  -3.257  0.00  0.00    -0.097 F 
ATOM     12  F4  UNL d   1       2.611  -0.522  -3.345  0.00  0.00    -0.092 F 
ENDROOT
TORSDOF 0
ENDMDL
