MODEL 1
REMARK minimizedAffinity 0.835034192
REMARK minimizedRMSD -1
REMARK  0 active torsions:
REMARK  status: ('A' for Active; 'I' for Inactive)
ROOT
ATOM      1  C   UNL d   1       1.381  -0.282  -1.336  0.00  0.00     0.124 A 
ATOM      2  C1  UNL d   1       1.376  -1.272  -0.363  0.00  0.00     0.062 A 
ATOM      3  C2  UNL d   1       0.408  -1.266   0.637  0.00  0.00     0.162 A 
ATOM      4  C3  UNL d   1      -0.564  -0.266   0.670  0.00  0.00    -0.034 A 
ATOM      5  C4  UNL d   1      -0.551   0.728  -0.311  0.00  0.00     0.162 A 
ATOM      6  C5  UNL d   1       0.418   0.717  -1.309  0.00  0.00     0.062 A 
ATOM      7  F   UNL d   1       0.422   1.675  -2.247  0.00  0.00    -0.097 F 
ATOM      8  F1  UNL d   1      -1.471   1.704  -0.309  0.00  0.00    -0.096 F 
ATOM      9  I   UNL d   1      -2.013  -0.253   2.163  0.00  0.00    -0.060 I 
ATOM     10  F2  UNL d   1       0.426  -2.236   1.563  0.00  0.00    -0.096 F 
ATOM     11  F3  UNL d   1       2.306  -2.238  -0.387  0.00  0.00    -0.097 F 
ATOM     12  F4  UNL d   1       2.314  -0.290  -2.296  0.00  0.00    -0.092 F 
ENDROOT
TORSDOF 0
ENDMDL
