MODEL 1
REMARK minimizedAffinity -1.78079307
REMARK minimizedRMSD -1
REMARK  0 active torsions:
REMARK  status: ('A' for Active; 'I' for Inactive)
ROOT
ATOM      1  C   UNL d   1       1.486  -2.027  -0.332  0.00  0.00     0.124 A 
ATOM      2  C1  UNL d   1       2.013  -0.793  -0.688  0.00  0.00     0.062 A 
ATOM      3  C2  UNL d   1       1.219   0.348  -0.637  0.00  0.00     0.162 A 
ATOM      4  C3  UNL d   1      -0.112   0.262  -0.227  0.00  0.00    -0.034 A 
ATOM      5  C4  UNL d   1      -0.635  -0.982   0.128  0.00  0.00     0.162 A 
ATOM      6  C5  UNL d   1       0.163  -2.120   0.075  0.00  0.00     0.062 A 
ATOM      7  F   UNL d   1      -0.348  -3.312   0.419  0.00  0.00    -0.097 F 
ATOM      8  F1  UNL d   1      -1.911  -1.101   0.526  0.00  0.00    -0.096 F 
ATOM      9  I   UNL d   1      -1.303   1.967  -0.149  0.00  0.00    -0.060 I 
ATOM     10  F2  UNL d   1       1.754   1.528  -0.986  0.00  0.00    -0.096 F 
ATOM     11  F3  UNL d   1       3.291  -0.700  -1.083  0.00  0.00    -0.097 F 
ATOM     12  F4  UNL d   1       2.252  -3.124  -0.384  0.00  0.00    -0.092 F 
ENDROOT
TORSDOF 0
ENDMDL
