MODEL 1
REMARK minimizedAffinity -3.42360568
REMARK minimizedRMSD -1
REMARK  0 active torsions:
REMARK  status: ('A' for Active; 'I' for Inactive)
ROOT
ATOM      1  C   UNL d   1       0.847   1.235  -0.909  0.00  0.00     0.124 A 
ATOM      2  C1  UNL d   1      -0.450   1.088  -0.437  0.00  0.00     0.062 A 
ATOM      3  C2  UNL d   1      -0.954  -0.179  -0.158  0.00  0.00     0.162 A 
ATOM      4  C3  UNL d   1      -0.160  -1.310  -0.349  0.00  0.00    -0.034 A 
ATOM      5  C4  UNL d   1       1.143  -1.154  -0.825  0.00  0.00     0.162 A 
ATOM      6  C5  UNL d   1       1.642   0.115  -1.102  0.00  0.00     0.062 A 
ATOM      7  F   UNL d   1       2.895   0.255  -1.558  0.00  0.00    -0.097 F 
ATOM      8  F1  UNL d   1       1.933  -2.220  -1.020  0.00  0.00    -0.096 F 
ATOM      9  I   UNL d   1      -0.910  -3.206   0.067  0.00  0.00    -0.060 I 
ATOM     10  F2  UNL d   1      -2.211  -0.291   0.296  0.00  0.00    -0.096 F 
ATOM     11  F3  UNL d   1      -1.221   2.170  -0.251  0.00  0.00    -0.097 F 
ATOM     12  F4  UNL d   1       1.329   2.456  -1.178  0.00  0.00    -0.092 F 
ENDROOT
TORSDOF 0
ENDMDL
