MODEL 1
REMARK minimizedAffinity -3.34310436
REMARK minimizedRMSD -1
REMARK  0 active torsions:
REMARK  status: ('A' for Active; 'I' for Inactive)
ROOT
ATOM      1  C   UNL d   1       1.494  -0.129  -1.216  0.00  0.00     0.124 A 
ATOM      2  C1  UNL d   1       0.972  -1.354  -0.825  0.00  0.00     0.062 A 
ATOM      3  C2  UNL d   1      -0.117  -1.407   0.040  0.00  0.00     0.162 A 
ATOM      4  C3  UNL d   1      -0.693  -0.231   0.519  0.00  0.00    -0.034 A 
ATOM      5  C4  UNL d   1      -0.162   0.998   0.123  0.00  0.00     0.162 A 
ATOM      6  C5  UNL d   1       0.927   1.045  -0.742  0.00  0.00     0.062 A 
ATOM      7  F   UNL d   1       1.430   2.230  -1.118  0.00  0.00    -0.097 F 
ATOM      8  F1  UNL d   1      -0.691   2.148   0.565  0.00  0.00    -0.096 F 
ATOM      9  I   UNL d   1      -2.322  -0.306   1.813  0.00  0.00    -0.060 I 
ATOM     10  F2  UNL d   1      -0.601  -2.605   0.400  0.00  0.00    -0.096 F 
ATOM     11  F3  UNL d   1       1.519  -2.490  -1.281  0.00  0.00    -0.097 F 
ATOM     12  F4  UNL d   1       2.543  -0.081  -2.047  0.00  0.00    -0.092 F 
ENDROOT
TORSDOF 0
ENDMDL
