MODEL 1
REMARK minimizedAffinity 0.191580608
REMARK minimizedRMSD -1
REMARK  0 active torsions:
REMARK  status: ('A' for Active; 'I' for Inactive)
ROOT
ATOM      1  C   UNL d   1      -1.999   1.811   1.698  0.00  0.00     0.124 A 
ATOM      2  C1  UNL d   1      -2.056   0.491   1.272  0.00  0.00     0.062 A 
ATOM      3  C2  UNL d   1      -2.678  -0.472   2.061  0.00  0.00     0.162 A 
ATOM      4  C3  UNL d   1      -3.249  -0.120   3.283  0.00  0.00    -0.034 A 
ATOM      5  C4  UNL d   1      -3.187   1.210   3.705  0.00  0.00     0.162 A 
ATOM      6  C5  UNL d   1      -2.564   2.169   2.914  0.00  0.00     0.062 A 
ATOM      7  F   UNL d   1      -2.509   3.443   3.327  0.00  0.00    -0.097 F 
ATOM      8  F1  UNL d   1      -3.725   1.583   4.876  0.00  0.00    -0.096 F 
ATOM      9  I   UNL d   1      -4.180  -1.557   4.465  0.00  0.00    -0.060 I 
ATOM     10  F2  UNL d   1      -2.719  -1.740   1.624  0.00  0.00    -0.096 F 
ATOM     11  F3  UNL d   1      -1.510   0.143   0.098  0.00  0.00    -0.097 F 
ATOM     12  F4  UNL d   1      -1.398   2.736   0.938  0.00  0.00    -0.092 F 
ENDROOT
TORSDOF 0
ENDMDL
