MODEL 1
REMARK minimizedAffinity -1.79692686
REMARK minimizedRMSD -1
REMARK  0 active torsions:
REMARK  status: ('A' for Active; 'I' for Inactive)
ROOT
ATOM      1  C   UNL d   1       1.903  -0.506  -1.176  0.00  0.00     0.124 A 
ATOM      2  C1  UNL d   1       1.617   0.739  -0.634  0.00  0.00     0.062 A 
ATOM      3  C2  UNL d   1       0.563   0.887   0.263  0.00  0.00     0.162 A 
ATOM      4  C3  UNL d   1      -0.213  -0.215   0.624  0.00  0.00    -0.034 A 
ATOM      5  C4  UNL d   1       0.080  -1.464   0.074  0.00  0.00     0.162 A 
ATOM      6  C5  UNL d   1       1.134  -1.606  -0.822  0.00  0.00     0.062 A 
ATOM      7  F   UNL d   1       1.409  -2.810  -1.345  0.00  0.00    -0.097 F 
ATOM      8  F1  UNL d   1      -0.646  -2.544   0.400  0.00  0.00    -0.096 F 
ATOM      9  I   UNL d   1      -1.790   0.002   1.965  0.00  0.00    -0.060 I 
ATOM     10  F2  UNL d   1       0.309   2.102   0.771  0.00  0.00    -0.096 F 
ATOM     11  F3  UNL d   1       2.357   1.804  -0.976  0.00  0.00    -0.097 F 
ATOM     12  F4  UNL d   1       2.917  -0.645  -2.040  0.00  0.00    -0.092 F 
ENDROOT
TORSDOF 0
ENDMDL
