MODEL 1
REMARK minimizedAffinity -0.913551211
REMARK minimizedRMSD -1
REMARK  0 active torsions:
REMARK  status: ('A' for Active; 'I' for Inactive)
ROOT
ATOM      1  C   UNL d   1      -2.626   1.229   3.047  0.00  0.00     0.124 A 
ATOM      2  C1  UNL d   1      -2.921  -0.080   2.690  0.00  0.00     0.062 A 
ATOM      3  C2  UNL d   1      -2.118  -0.753   1.773  0.00  0.00     0.162 A 
ATOM      4  C3  UNL d   1      -1.012  -0.118   1.207  0.00  0.00    -0.034 A 
ATOM      5  C4  UNL d   1      -0.723   1.198   1.570  0.00  0.00     0.162 A 
ATOM      6  C5  UNL d   1      -1.528   1.867   2.487  0.00  0.00     0.062 A 
ATOM      7  F   UNL d   1      -1.243   3.131   2.831  0.00  0.00    -0.097 F 
ATOM      8  F1  UNL d   1       0.332   1.838   1.046  0.00  0.00    -0.096 F 
ATOM      9  I   UNL d   1       0.191  -1.121  -0.164  0.00  0.00    -0.060 I 
ATOM     10  F2  UNL d   1      -2.426  -2.017   1.447  0.00  0.00    -0.096 F 
ATOM     11  F3  UNL d   1      -3.982  -0.698   3.229  0.00  0.00    -0.097 F 
ATOM     12  F4  UNL d   1      -3.401   1.874   3.928  0.00  0.00    -0.092 F 
ENDROOT
TORSDOF 0
ENDMDL
