MODEL 1
REMARK minimizedAffinity -4.34154606
REMARK minimizedRMSD -1
REMARK  0 active torsions:
REMARK  status: ('A' for Active; 'I' for Inactive)
ROOT
ATOM      1  C   UNL d   1       2.096  -0.084  -1.356  0.00  0.00     0.124 A 
ATOM      2  C1  UNL d   1       1.557  -1.084  -0.558  0.00  0.00     0.062 A 
ATOM      3  C2  UNL d   1       0.341  -0.884   0.090  0.00  0.00     0.162 A 
ATOM      4  C3  UNL d   1      -0.344   0.322  -0.058  0.00  0.00    -0.034 A 
ATOM      5  C4  UNL d   1       0.205   1.323  -0.861  0.00  0.00     0.162 A 
ATOM      6  C5  UNL d   1       1.420   1.118  -1.506  0.00  0.00     0.062 A 
ATOM      7  F   UNL d   1       1.939   2.085  -2.276  0.00  0.00    -0.097 F 
ATOM      8  F1  UNL d   1      -0.428   2.494  -1.025  0.00  0.00    -0.096 F 
ATOM      9  I   UNL d   1      -2.162   0.625   0.909  0.00  0.00    -0.060 I 
ATOM     10  F2  UNL d   1      -0.156  -1.867   0.854  0.00  0.00    -0.096 F 
ATOM     11  F3  UNL d   1       2.209  -2.246  -0.410  0.00  0.00    -0.097 F 
ATOM     12  F4  UNL d   1       3.266  -0.279  -1.977  0.00  0.00    -0.092 F 
ENDROOT
TORSDOF 0
ENDMDL
