MODEL 1
REMARK minimizedAffinity 17.9191322
REMARK minimizedRMSD -1
REMARK  0 active torsions:
REMARK  status: ('A' for Active; 'I' for Inactive)
ROOT
ATOM      1  C   UNL d   1       0.650   1.368  -0.116  0.00  0.00     0.124 A 
ATOM      2  C1  UNL d   1      -0.597   1.373   0.495  0.00  0.00     0.062 A 
ATOM      3  C2  UNL d   1      -1.457   0.290   0.340  0.00  0.00     0.162 A 
ATOM      4  C3  UNL d   1      -1.073  -0.809  -0.428  0.00  0.00    -0.034 A 
ATOM      5  C4  UNL d   1       0.181  -0.807  -1.040  0.00  0.00     0.162 A 
ATOM      6  C5  UNL d   1       1.037   0.278  -0.883  0.00  0.00     0.062 A 
ATOM      7  F   UNL d   1       2.241   0.271  -1.474  0.00  0.00    -0.097 F 
ATOM      8  F1  UNL d   1       0.582  -1.847  -1.786  0.00  0.00    -0.096 F 
ATOM      9  I   UNL d   1      -2.357  -2.431  -0.662  0.00  0.00    -0.060 I 
ATOM     10  F2  UNL d   1      -2.655   0.323   0.942  0.00  0.00    -0.096 F 
ATOM     11  F3  UNL d   1      -0.974   2.425   1.236  0.00  0.00    -0.097 F 
ATOM     12  F4  UNL d   1       1.475   2.412   0.034  0.00  0.00    -0.092 F 
ENDROOT
TORSDOF 0
ENDMDL
