MODEL 1
REMARK minimizedAffinity -2.1173408
REMARK minimizedRMSD -1
REMARK  0 active torsions:
REMARK  status: ('A' for Active; 'I' for Inactive)
ROOT
ATOM      1  C   UNL d   1      -1.529   1.256  -0.483  0.00  0.00     0.124 A 
ATOM      2  C1  UNL d   1      -1.250  -0.035  -0.056  0.00  0.00     0.062 A 
ATOM      3  C2  UNL d   1       0.017  -0.579  -0.252  0.00  0.00     0.162 A 
ATOM      4  C3  UNL d   1       1.014   0.169  -0.877  0.00  0.00    -0.034 A 
ATOM      5  C4  UNL d   1       0.726   1.466  -1.305  0.00  0.00     0.162 A 
ATOM      6  C5  UNL d   1      -0.542   2.005  -1.107  0.00  0.00     0.062 A 
ATOM      7  F   UNL d   1      -0.810   3.252  -1.521  0.00  0.00    -0.097 F 
ATOM      8  F1  UNL d   1       1.662   2.213  -1.910  0.00  0.00    -0.096 F 
ATOM      9  I   UNL d   1       2.909  -0.640  -1.171  0.00  0.00    -0.060 I 
ATOM     10  F2  UNL d   1       0.258  -1.828   0.172  0.00  0.00    -0.096 F 
ATOM     11  F3  UNL d   1      -2.202  -0.761   0.546  0.00  0.00    -0.097 F 
ATOM     12  F4  UNL d   1      -2.749   1.776  -0.295  0.00  0.00    -0.092 F 
ENDROOT
TORSDOF 0
ENDMDL
