MODEL 1
REMARK minimizedAffinity -0.581505001
REMARK minimizedRMSD -1
REMARK  0 active torsions:
REMARK  status: ('A' for Active; 'I' for Inactive)
ROOT
ATOM      1  C   UNL d   1      -0.577  -0.738   0.439  0.00  0.00     0.124 A 
ATOM      2  C1  UNL d   1       0.157  -1.873   0.123  0.00  0.00     0.062 A 
ATOM      3  C2  UNL d   1       1.329  -1.764  -0.621  0.00  0.00     0.162 A 
ATOM      4  C3  UNL d   1       1.775  -0.515  -1.053  0.00  0.00    -0.034 A 
ATOM      5  C4  UNL d   1       1.030   0.622  -0.732  0.00  0.00     0.162 A 
ATOM      6  C5  UNL d   1      -0.140   0.508   0.011  0.00  0.00     0.062 A 
ATOM      7  F   UNL d   1      -0.848   1.605   0.316  0.00  0.00    -0.097 F 
ATOM      8  F1  UNL d   1       1.430   1.838  -1.132  0.00  0.00    -0.096 F 
ATOM      9  I   UNL d   1       3.526  -0.348  -2.165  0.00  0.00    -0.060 I 
ATOM     10  F2  UNL d   1       2.018  -2.877  -0.911  0.00  0.00    -0.096 F 
ATOM     11  F3  UNL d   1      -0.263  -3.078   0.534  0.00  0.00    -0.097 F 
ATOM     12  F4  UNL d   1      -1.704  -0.846   1.154  0.00  0.00    -0.092 F 
ENDROOT
TORSDOF 0
ENDMDL
