MODEL 1
REMARK minimizedAffinity 0.235944837
REMARK minimizedRMSD -1
REMARK  0 active torsions:
REMARK  status: ('A' for Active; 'I' for Inactive)
ROOT
ATOM      1  C   UNL d   1       2.460   0.540  -1.949  0.00  0.00     0.124 A 
ATOM      2  C1  UNL d   1       2.282  -0.462  -1.005  0.00  0.00     0.062 A 
ATOM      3  C2  UNL d   1       1.149  -0.467  -0.196  0.00  0.00     0.162 A 
ATOM      4  C3  UNL d   1       0.186   0.533  -0.328  0.00  0.00    -0.034 A 
ATOM      5  C4  UNL d   1       0.373   1.537  -1.279  0.00  0.00     0.162 A 
ATOM      6  C5  UNL d   1       1.506   1.538  -2.085  0.00  0.00     0.062 A 
ATOM      7  F   UNL d   1       1.677   2.507  -2.997  0.00  0.00    -0.097 F 
ATOM      8  F1  UNL d   1      -0.534   2.514  -1.432  0.00  0.00    -0.096 F 
ATOM      9  I   UNL d   1      -1.509   0.529   0.880  0.00  0.00    -0.060 I 
ATOM     10  F2  UNL d   1       1.002  -1.447   0.708  0.00  0.00    -0.096 F 
ATOM     11  F3  UNL d   1       3.202  -1.427  -0.871  0.00  0.00    -0.097 F 
ATOM     12  F4  UNL d   1       3.551   0.543  -2.726  0.00  0.00    -0.092 F 
ENDROOT
TORSDOF 0
ENDMDL
