MODEL 1
REMARK minimizedAffinity -3.8685708
REMARK minimizedRMSD -1
REMARK  0 active torsions:
REMARK  status: ('A' for Active; 'I' for Inactive)
ROOT
ATOM      1  C   UNL d   1       2.339   0.208  -1.917  0.00  0.00     0.124 A 
ATOM      2  C1  UNL d   1       1.963  -0.800  -1.040  0.00  0.00     0.062 A 
ATOM      3  C2  UNL d   1       0.778  -0.694  -0.318  0.00  0.00     0.162 A 
ATOM      4  C3  UNL d   1      -0.041   0.424  -0.470  0.00  0.00    -0.034 A 
ATOM      5  C4  UNL d   1       0.344   1.435  -1.352  0.00  0.00     0.162 A 
ATOM      6  C5  UNL d   1       1.529   1.324  -2.072  0.00  0.00     0.062 A 
ATOM      7  F   UNL d   1       1.891   2.300  -2.919  0.00  0.00    -0.097 F 
ATOM      8  F1  UNL d   1      -0.420   2.524  -1.522  0.00  0.00    -0.096 F 
ATOM      9  I   UNL d   1      -1.813   0.587   0.609  0.00  0.00    -0.060 I 
ATOM     10  F2  UNL d   1       0.440  -1.684   0.522  0.00  0.00    -0.096 F 
ATOM     11  F3  UNL d   1       2.744  -1.880  -0.888  0.00  0.00    -0.097 F 
ATOM     12  F4  UNL d   1       3.480   0.104  -2.610  0.00  0.00    -0.092 F 
ENDROOT
TORSDOF 0
ENDMDL
