MODEL 1
REMARK minimizedAffinity -1.22494686
REMARK minimizedRMSD -1
REMARK  1 active torsions:
REMARK  status: ('A' for Active; 'I' for Inactive)
REMARK    1  A    between atoms: N_2  and  C1_3 
ROOT
ATOM      1  C1  UNL d   1       0.791  -0.546  -2.298  0.00  0.00     0.143 A 
ATOM      2  C2  UNL d   1      -0.110  -0.771  -3.345  0.00  0.00    -0.057 A 
ATOM      3  C3  UNL d   1       0.078  -0.186  -4.603  0.00  0.00     0.033 A 
ATOM      4  C4  UNL d   1       1.158   0.660  -4.829  0.00  0.00    -0.042 A 
ATOM      5  C5  UNL d   1       2.053   0.918  -3.796  0.00  0.00     0.033 A 
ATOM      6  C6  UNL d   1       1.864   0.326  -2.544  0.00  0.00    -0.057 A 
ENDROOT
BRANCH   1   7
ATOM      7  N   UNL d   1       0.606  -1.019  -0.997  0.00  0.00    -0.732 N 
ATOM      8  C   UNL d   1      -0.010  -0.184   0.010  0.00  0.00     0.284 C 
ATOM      9  H3  UNL d   1       0.300  -1.990  -0.977  0.00  0.00     0.395 HD
ENDBRANCH   1   7
TORSDOF 1
ENDMDL
