MODEL 1
REMARK minimizedAffinity -3.04767895
REMARK minimizedRMSD -1
REMARK  1 active torsions:
REMARK  status: ('A' for Active; 'I' for Inactive)
REMARK    1  A    between atoms: N_2  and  C1_3 
ROOT
ATOM      1  C1  UNL d   1      -0.966   0.356   0.460  0.00  0.00     0.143 A 
ATOM      2  C2  UNL d   1      -1.979  -0.155   1.279  0.00  0.00    -0.057 A 
ATOM      3  C3  UNL d   1      -2.084   0.221   2.623  0.00  0.00     0.033 A 
ATOM      4  C4  UNL d   1      -1.156   1.095   3.182  0.00  0.00    -0.042 A 
ATOM      5  C5  UNL d   1      -0.126   1.595   2.393  0.00  0.00     0.033 A 
ATOM      6  C6  UNL d   1      -0.031   1.221   1.049  0.00  0.00    -0.057 A 
ENDROOT
BRANCH   1   7
ATOM      7  N   UNL d   1      -0.750  -0.056  -0.858  0.00  0.00    -0.732 N 
ATOM      8  C   UNL d   1       0.587  -0.349  -1.329  0.00  0.00     0.284 C 
ATOM      9  H3  UNL d   1      -1.458  -0.711  -1.181  0.00  0.00     0.395 HD
ENDBRANCH   1   7
TORSDOF 1
ENDMDL
