MODEL 1
REMARK minimizedAffinity -2.58187032
REMARK minimizedRMSD -1
REMARK  1 active torsions:
REMARK  status: ('A' for Active; 'I' for Inactive)
REMARK    1  A    between atoms: N_2  and  C1_3 
ROOT
ATOM      1  C1  UNL d   1      -0.153   0.326   1.254  0.00  0.00     0.143 A 
ATOM      2  C2  UNL d   1      -1.097   0.638   2.239  0.00  0.00    -0.057 A 
ATOM      3  C3  UNL d   1      -0.825   0.431   3.597  0.00  0.00     0.033 A 
ATOM      4  C4  UNL d   1       0.389  -0.120   3.993  0.00  0.00    -0.042 A 
ATOM      5  C5  UNL d   1       1.332  -0.461   3.030  0.00  0.00     0.033 A 
ATOM      6  C6  UNL d   1       1.057  -0.246   1.676  0.00  0.00    -0.057 A 
ENDROOT
BRANCH   1   7
ATOM      7  N   UNL d   1      -0.401   0.417  -0.118  0.00  0.00    -0.732 N 
ATOM      8  C   UNL d   1       0.197  -0.526  -1.038  0.00  0.00     0.284 C 
ATOM      9  H3  UNL d   1      -1.373   0.639  -0.323  0.00  0.00     0.395 HD
ENDBRANCH   1   7
TORSDOF 1
ENDMDL
