MODEL 1
REMARK minimizedAffinity -3.07060838
REMARK minimizedRMSD -1
REMARK  1 active torsions:
REMARK  status: ('A' for Active; 'I' for Inactive)
REMARK    1  A    between atoms: N_2  and  C1_3 
ROOT
ATOM      1  C1  UNL d   1       0.310  -0.363  -0.313  0.00  0.00     0.143 A 
ATOM      2  C2  UNL d   1      -0.985   0.051   0.018  0.00  0.00    -0.057 A 
ATOM      3  C3  UNL d   1      -1.257   0.676   1.241  0.00  0.00     0.033 A 
ATOM      4  C4  UNL d   1      -0.241   0.874   2.169  0.00  0.00    -0.042 A 
ATOM      5  C5  UNL d   1       1.049   0.448   1.872  0.00  0.00     0.033 A 
ATOM      6  C6  UNL d   1       1.316  -0.170   0.647  0.00  0.00    -0.057 A 
ENDROOT
BRANCH   1   7
ATOM      7  N   UNL d   1       0.626  -1.079  -1.471  0.00  0.00    -0.732 N 
ATOM      8  C   UNL d   1       0.867  -0.390  -2.720  0.00  0.00     0.284 C 
ATOM      9  H3  UNL d   1       1.267  -1.847  -1.289  0.00  0.00     0.395 HD
ENDBRANCH   1   7
TORSDOF 1
ENDMDL
