MODEL 1
REMARK minimizedAffinity -4.2061367
REMARK minimizedRMSD -1
REMARK  1 active torsions:
REMARK  status: ('A' for Active; 'I' for Inactive)
REMARK    1  A    between atoms: N_2  and  C1_3 
ROOT
ATOM      1  C1  UNL d   1      -0.147  -0.227   0.295  0.00  0.00     0.143 A 
ATOM      2  C2  UNL d   1      -1.497  -0.258   0.661  0.00  0.00    -0.057 A 
ATOM      3  C3  UNL d   1      -1.942   0.346   1.843  0.00  0.00     0.033 A 
ATOM      4  C4  UNL d   1      -1.038   0.969   2.697  0.00  0.00    -0.042 A 
ATOM      5  C5  UNL d   1       0.312   0.990   2.365  0.00  0.00     0.033 A 
ATOM      6  C6  UNL d   1       0.750   0.391   1.180  0.00  0.00    -0.057 A 
ENDROOT
BRANCH   1   7
ATOM      7  N   UNL d   1       0.372  -0.894  -0.817  0.00  0.00    -0.732 N 
ATOM      8  C   UNL d   1       0.705  -0.167  -2.024  0.00  0.00     0.284 C 
ATOM      9  H3  UNL d   1       1.051  -1.607  -0.561  0.00  0.00     0.395 HD
ENDBRANCH   1   7
TORSDOF 1
ENDMDL
