MODEL 1
REMARK minimizedAffinity -5.13628197
REMARK minimizedRMSD -1
REMARK  1 active torsions:
REMARK  status: ('A' for Active; 'I' for Inactive)
REMARK    1  A    between atoms: N_2  and  C1_3 
ROOT
ATOM      1  C1  UNL d   1      -0.099   0.360   1.063  0.00  0.00     0.143 A 
ATOM      2  C2  UNL d   1      -0.746   1.140   2.027  0.00  0.00    -0.057 A 
ATOM      3  C3  UNL d   1      -0.245   1.247   3.330  0.00  0.00     0.033 A 
ATOM      4  C4  UNL d   1       0.900   0.550   3.701  0.00  0.00    -0.042 A 
ATOM      5  C5  UNL d   1       1.546  -0.251   2.766  0.00  0.00     0.033 A 
ATOM      6  C6  UNL d   1       1.045  -0.349   1.465  0.00  0.00    -0.057 A 
ENDROOT
BRANCH   1   7
ATOM      7  N   UNL d   1      -0.601   0.134  -0.221  0.00  0.00    -0.732 N 
ATOM      8  C   UNL d   1       0.153  -0.642  -1.182  0.00  0.00     0.284 C 
ATOM      9  H3  UNL d   1      -1.599  -0.064  -0.218  0.00  0.00     0.395 HD
ENDBRANCH   1   7
TORSDOF 1
ENDMDL
