MODEL 1
REMARK minimizedAffinity -3.82058501
REMARK minimizedRMSD -1
REMARK  1 active torsions:
REMARK  status: ('A' for Active; 'I' for Inactive)
REMARK    1  A    between atoms: N_2  and  C1_3 
ROOT
ATOM      1  C1  UNL d   1       0.773  -0.151   0.675  0.00  0.00     0.143 A 
ATOM      2  C2  UNL d   1      -0.130   0.825   1.111  0.00  0.00    -0.057 A 
ATOM      3  C3  UNL d   1       0.022   1.453   2.353  0.00  0.00     0.033 A 
ATOM      4  C4  UNL d   1       1.068   1.094   3.197  0.00  0.00    -0.042 A 
ATOM      5  C5  UNL d   1       1.964   0.109   2.795  0.00  0.00     0.033 A 
ATOM      6  C6  UNL d   1       1.810  -0.510   1.551  0.00  0.00    -0.057 A 
ENDROOT
BRANCH   1   7
ATOM      7  N   UNL d   1       0.619  -0.881  -0.505  0.00  0.00    -0.732 N 
ATOM      8  C   UNL d   1       0.333  -0.210  -1.755  0.00  0.00     0.284 C 
ATOM      9  H3  UNL d   1       1.295  -1.638  -0.585  0.00  0.00     0.395 HD
ENDBRANCH   1   7
TORSDOF 1
ENDMDL
