MODEL 1
REMARK minimizedAffinity -1.05794907
REMARK minimizedRMSD -1
REMARK  1 active torsions:
REMARK  status: ('A' for Active; 'I' for Inactive)
REMARK    1  A    between atoms: N_2  and  C1_3 
ROOT
ATOM      1  C1  UNL d   1       0.779  -0.062  -2.147  0.00  0.00     0.143 A 
ATOM      2  C2  UNL d   1      -0.185   0.022  -3.158  0.00  0.00    -0.057 A 
ATOM      3  C3  UNL d   1       0.148   0.466  -4.444  0.00  0.00     0.033 A 
ATOM      4  C4  UNL d   1       1.450   0.863  -4.733  0.00  0.00    -0.042 A 
ATOM      5  C5  UNL d   1       2.418   0.812  -3.737  0.00  0.00     0.033 A 
ATOM      6  C6  UNL d   1       2.081   0.361  -2.458  0.00  0.00    -0.057 A 
ENDROOT
BRANCH   1   7
ATOM      7  N   UNL d   1       0.490  -0.402  -0.823  0.00  0.00    -0.732 N 
ATOM      8  C   UNL d   1      -0.716   0.080  -0.185  0.00  0.00     0.284 C 
ATOM      9  H3  UNL d   1       0.711  -1.373  -0.614  0.00  0.00     0.395 HD
ENDBRANCH   1   7
TORSDOF 1
ENDMDL
