MODEL 1
REMARK minimizedAffinity -1.2432847
REMARK minimizedRMSD -1
REMARK  0 active torsions:
REMARK  status: ('A' for Active; 'I' for Inactive)
ROOT
ATOM      1  C   UNL d   1       2.380   2.612   1.115  0.00  0.00     0.124 A 
ATOM      2  C1  UNL d   1       2.750   1.289   0.915  0.00  0.00     0.062 A 
ATOM      3  C2  UNL d   1       1.838   0.380   0.385  0.00  0.00     0.162 A 
ATOM      4  C3  UNL d   1       0.548   0.791   0.051  0.00  0.00    -0.034 A 
ATOM      5  C4  UNL d   1       0.183   2.123   0.256  0.00  0.00     0.162 A 
ATOM      6  C5  UNL d   1       1.098   3.027   0.786  0.00  0.00     0.062 A 
ATOM      7  F   UNL d   1       0.739   4.305   0.978  0.00  0.00    -0.097 F 
ATOM      8  F1  UNL d   1      -1.049   2.552  -0.054  0.00  0.00    -0.096 F 
ATOM      9  I   UNL d   1      -0.818  -0.565  -0.741  0.00  0.00    -0.060 I 
ATOM     10  F2  UNL d   1       2.222  -0.892   0.202  0.00  0.00    -0.096 F 
ATOM     11  F3  UNL d   1       3.988   0.885   1.233  0.00  0.00    -0.097 F 
ATOM     12  F4  UNL d   1       3.259   3.484   1.625  0.00  0.00    -0.092 F 
ENDROOT
TORSDOF 0
ENDMDL
