MODEL 1
REMARK minimizedAffinity -5.74087238
REMARK minimizedRMSD -1
REMARK  0 active torsions:
REMARK  status: ('A' for Active; 'I' for Inactive)
ROOT
ATOM      1  C   UNL d   1      -2.607  -1.523   0.660  0.00  0.00     0.124 A 
ATOM      2  C1  UNL d   1      -2.427  -0.415  -0.156  0.00  0.00     0.062 A 
ATOM      3  C2  UNL d   1      -1.160   0.138  -0.316  0.00  0.00     0.162 A 
ATOM      4  C3  UNL d   1      -0.062  -0.418   0.340  0.00  0.00    -0.034 A 
ATOM      5  C4  UNL d   1      -0.251  -1.532   1.160  0.00  0.00     0.162 A 
ATOM      6  C5  UNL d   1      -1.519  -2.080   1.317  0.00  0.00     0.062 A 
ATOM      7  F   UNL d   1      -1.692  -3.151   2.105  0.00  0.00    -0.097 F 
ATOM      8  F1  UNL d   1       0.783  -2.091   1.805  0.00  0.00    -0.096 F 
ATOM      9  I   UNL d   1       1.835   0.405   0.103  0.00  0.00    -0.060 I 
ATOM     10  F2  UNL d   1      -1.015   1.209  -1.111  0.00  0.00    -0.096 F 
ATOM     11  F3  UNL d   1      -3.477   0.126  -0.791  0.00  0.00    -0.097 F 
ATOM     12  F4  UNL d   1      -3.828  -2.052   0.813  0.00  0.00    -0.092 F 
ENDROOT
TORSDOF 0
ENDMDL
