MODEL 1
REMARK minimizedAffinity -4.01320171
REMARK minimizedRMSD -1
REMARK  0 active torsions:
REMARK  status: ('A' for Active; 'I' for Inactive)
ROOT
ATOM      1  C   UNL d   1      -2.347  -1.884   0.190  0.00  0.00     0.124 A 
ATOM      2  C1  UNL d   1      -1.382  -2.141   1.154  0.00  0.00     0.062 A 
ATOM      3  C2  UNL d   1      -0.215  -1.384   1.196  0.00  0.00     0.162 A 
ATOM      4  C3  UNL d   1      -0.006  -0.360   0.271  0.00  0.00    -0.034 A 
ATOM      5  C4  UNL d   1      -0.981  -0.108  -0.696  0.00  0.00     0.162 A 
ATOM      6  C5  UNL d   1      -2.145  -0.868  -0.734  0.00  0.00     0.062 A 
ATOM      7  F   UNL d   1      -3.076  -0.618  -1.666  0.00  0.00    -0.097 F 
ATOM      8  F1  UNL d   1      -0.813   0.868  -1.600  0.00  0.00    -0.096 F 
ATOM      9  I   UNL d   1       1.737   0.775   0.331  0.00  0.00    -0.060 I 
ATOM     10  F2  UNL d   1       0.700  -1.654   2.139  0.00  0.00    -0.096 F 
ATOM     11  F3  UNL d   1      -1.573  -3.123   2.047  0.00  0.00    -0.097 F 
ATOM     12  F4  UNL d   1      -3.468  -2.615   0.151  0.00  0.00    -0.092 F 
ENDROOT
TORSDOF 0
ENDMDL
