MODEL 1
REMARK minimizedAffinity 0.0717344806
REMARK minimizedRMSD -1
REMARK  0 active torsions:
REMARK  status: ('A' for Active; 'I' for Inactive)
ROOT
ATOM      1  C   UNL d   1      -1.190  -0.349  -1.039  0.00  0.00     0.124 A 
ATOM      2  C1  UNL d   1      -1.356  -0.380   0.339  0.00  0.00     0.062 A 
ATOM      3  C2  UNL d   1      -0.418   0.223   1.171  0.00  0.00     0.162 A 
ATOM      4  C3  UNL d   1       0.696   0.864   0.627  0.00  0.00    -0.034 A 
ATOM      5  C4  UNL d   1       0.857   0.890  -0.759  0.00  0.00     0.162 A 
ATOM      6  C5  UNL d   1      -0.084   0.286  -1.587  0.00  0.00     0.062 A 
ATOM      7  F   UNL d   1       0.078   0.316  -2.917  0.00  0.00    -0.097 F 
ATOM      8  F1  UNL d   1       1.916   1.497  -1.315  0.00  0.00    -0.096 F 
ATOM      9  I   UNL d   1       2.102   1.767   1.868  0.00  0.00    -0.060 I 
ATOM     10  F2  UNL d   1      -0.604   0.178   2.498  0.00  0.00    -0.096 F 
ATOM     11  F3  UNL d   1      -2.423  -0.994   0.870  0.00  0.00    -0.097 F 
ATOM     12  F4  UNL d   1      -2.095  -0.931  -1.837  0.00  0.00    -0.092 F 
ENDROOT
TORSDOF 0
ENDMDL
