MODEL 1
REMARK minimizedAffinity 1.574265
REMARK minimizedRMSD -1
REMARK  0 active torsions:
REMARK  status: ('A' for Active; 'I' for Inactive)
ROOT
ATOM      1  C   UNL d   1      -1.931  -0.406  -1.543  0.00  0.00     0.124 A 
ATOM      2  C1  UNL d   1      -0.754   0.219  -1.931  0.00  0.00     0.062 A 
ATOM      3  C2  UNL d   1       0.267   0.422  -1.008  0.00  0.00     0.162 A 
ATOM      4  C3  UNL d   1       0.117  -0.000   0.313  0.00  0.00    -0.034 A 
ATOM      5  C4  UNL d   1      -1.070  -0.627   0.696  0.00  0.00     0.162 A 
ATOM      6  C5  UNL d   1      -2.088  -0.829  -0.230  0.00  0.00     0.062 A 
ATOM      7  F   UNL d   1      -3.225  -1.433   0.146  0.00  0.00    -0.097 F 
ATOM      8  F1  UNL d   1      -1.248  -1.046   1.958  0.00  0.00    -0.096 F 
ATOM      9  I   UNL d   1       1.642   0.302   1.697  0.00  0.00    -0.060 I 
ATOM     10  F2  UNL d   1       1.394   1.029  -1.410  0.00  0.00    -0.096 F 
ATOM     11  F3  UNL d   1      -0.601   0.628  -3.198  0.00  0.00    -0.097 F 
ATOM     12  F4  UNL d   1      -2.913  -0.600  -2.433  0.00  0.00    -0.092 F 
ENDROOT
TORSDOF 0
ENDMDL
