MODEL 1
REMARK minimizedAffinity 6.93737507
REMARK minimizedRMSD -1
REMARK  0 active torsions:
REMARK  status: ('A' for Active; 'I' for Inactive)
ROOT
ATOM      1  C   UNL d   1       0.183   0.018  -2.194  0.00  0.00     0.124 A 
ATOM      2  C1  UNL d   1       0.903  -0.587  -1.174  0.00  0.00     0.062 A 
ATOM      3  C2  UNL d   1       0.333  -0.749   0.086  0.00  0.00     0.162 A 
ATOM      4  C3  UNL d   1      -0.966  -0.306   0.332  0.00  0.00    -0.034 A 
ATOM      5  C4  UNL d   1      -1.685   0.303  -0.699  0.00  0.00     0.162 A 
ATOM      6  C5  UNL d   1      -1.110   0.463  -1.955  0.00  0.00     0.062 A 
ATOM      7  F   UNL d   1      -1.808   1.048  -2.940  0.00  0.00    -0.097 F 
ATOM      8  F1  UNL d   1      -2.936   0.742  -0.496  0.00  0.00    -0.096 F 
ATOM      9  I   UNL d   1      -1.823  -0.546   2.214  0.00  0.00    -0.060 I 
ATOM     10  F2  UNL d   1       1.052  -1.338   1.053  0.00  0.00    -0.096 F 
ATOM     11  F3  UNL d   1       2.153  -1.017  -1.401  0.00  0.00    -0.097 F 
ATOM     12  F4  UNL d   1       0.734   0.173  -3.404  0.00  0.00    -0.092 F 
ENDROOT
TORSDOF 0
ENDMDL
