MODEL 1
REMARK minimizedAffinity 12.9992151
REMARK minimizedRMSD -1
REMARK  0 active torsions:
REMARK  status: ('A' for Active; 'I' for Inactive)
ROOT
ATOM      1  C   UNL d   1      -3.350  -0.290   5.012  0.00  0.00     0.124 A 
ATOM      2  C1  UNL d   1      -2.488   0.701   4.565  0.00  0.00     0.062 A 
ATOM      3  C2  UNL d   1      -1.585   0.434   3.540  0.00  0.00     0.162 A 
ATOM      4  C3  UNL d   1      -1.540  -0.831   2.954  0.00  0.00    -0.034 A 
ATOM      5  C4  UNL d   1      -2.409  -1.823   3.410  0.00  0.00     0.162 A 
ATOM      6  C5  UNL d   1      -3.310  -1.551   4.434  0.00  0.00     0.062 A 
ATOM      7  F   UNL d   1      -4.142  -2.511   4.865  0.00  0.00    -0.097 F 
ATOM      8  F1  UNL d   1      -2.393  -3.050   2.868  0.00  0.00    -0.096 F 
ATOM      9  I   UNL d   1      -0.191  -1.234   1.421  0.00  0.00    -0.060 I 
ATOM     10  F2  UNL d   1      -0.764   1.412   3.128  0.00  0.00    -0.096 F 
ATOM     11  F3  UNL d   1      -2.524   1.920   5.122  0.00  0.00    -0.097 F 
ATOM     12  F4  UNL d   1      -4.217  -0.031   5.999  0.00  0.00    -0.092 F 
ENDROOT
TORSDOF 0
ENDMDL
