MODEL 1
REMARK minimizedAffinity -3.98807096
REMARK minimizedRMSD -1
REMARK  0 active torsions:
REMARK  status: ('A' for Active; 'I' for Inactive)
ROOT
ATOM      1  C   UNL d   1      -1.684  -1.953   0.159  0.00  0.00     0.124 A 
ATOM      2  C1  UNL d   1      -1.601  -0.835  -0.660  0.00  0.00     0.062 A 
ATOM      3  C2  UNL d   1      -0.434  -0.078  -0.694  0.00  0.00     0.162 A 
ATOM      4  C3  UNL d   1       0.661  -0.436   0.092  0.00  0.00    -0.034 A 
ATOM      5  C4  UNL d   1       0.569  -1.561   0.914  0.00  0.00     0.162 A 
ATOM      6  C5  UNL d   1      -0.599  -2.315   0.945  0.00  0.00     0.062 A 
ATOM      7  F   UNL d   1      -0.678  -3.395   1.736  0.00  0.00    -0.097 F 
ATOM      8  F1  UNL d   1       1.603  -1.934   1.683  0.00  0.00    -0.096 F 
ATOM      9  I   UNL d   1       2.408   0.693   0.044  0.00  0.00    -0.060 I 
ATOM     10  F2  UNL d   1      -0.381   0.997  -1.495  0.00  0.00    -0.096 F 
ATOM     11  F3  UNL d   1      -2.648  -0.483  -1.420  0.00  0.00    -0.097 F 
ATOM     12  F4  UNL d   1      -2.809  -2.679   0.190  0.00  0.00    -0.092 F 
ENDROOT
TORSDOF 0
ENDMDL
