MODEL 1
REMARK minimizedAffinity -1.53682852
REMARK minimizedRMSD -1
REMARK  0 active torsions:
REMARK  status: ('A' for Active; 'I' for Inactive)
ROOT
ATOM      1  C   UNL d   1      -1.923  -2.054   0.167  0.00  0.00     0.124 A 
ATOM      2  C1  UNL d   1      -1.968  -0.878  -0.569  0.00  0.00     0.062 A 
ATOM      3  C2  UNL d   1      -0.876  -0.014  -0.576  0.00  0.00     0.162 A 
ATOM      4  C3  UNL d   1       0.271  -0.324   0.155  0.00  0.00    -0.034 A 
ATOM      5  C4  UNL d   1       0.309  -1.508   0.893  0.00  0.00     0.162 A 
ATOM      6  C5  UNL d   1      -0.785  -2.368   0.897  0.00  0.00     0.062 A 
ATOM      7  F   UNL d   1      -0.739  -3.504   1.608  0.00  0.00    -0.097 F 
ATOM      8  F1  UNL d   1       1.396  -1.837   1.606  0.00  0.00    -0.096 F 
ATOM      9  I   UNL d   1       1.905   0.965   0.147  0.00  0.00    -0.060 I 
ATOM     10  F2  UNL d   1      -0.948   1.115  -1.296  0.00  0.00    -0.096 F 
ATOM     11  F3  UNL d   1      -3.066  -0.572  -1.274  0.00  0.00    -0.097 F 
ATOM     12  F4  UNL d   1      -2.975  -2.883   0.173  0.00  0.00    -0.092 F 
ENDROOT
TORSDOF 0
ENDMDL
