MODEL 1
REMARK minimizedAffinity -0.261756897
REMARK minimizedRMSD -1
REMARK  0 active torsions:
REMARK  status: ('A' for Active; 'I' for Inactive)
ROOT
ATOM      1  C   UNL d   1      -2.417  -1.208   0.169  0.00  0.00     0.124 A 
ATOM      2  C1  UNL d   1      -1.338  -1.719   0.878  0.00  0.00     0.062 A 
ATOM      3  C2  UNL d   1      -0.090  -1.109   0.788  0.00  0.00     0.162 A 
ATOM      4  C3  UNL d   1       0.086   0.019  -0.014  0.00  0.00    -0.034 A 
ATOM      5  C4  UNL d   1      -1.003   0.526  -0.725  0.00  0.00     0.162 A 
ATOM      6  C5  UNL d   1      -2.249  -0.087  -0.631  0.00  0.00     0.062 A 
ATOM      7  F   UNL d   1      -3.290   0.408  -1.317  0.00  0.00    -0.097 F 
ATOM      8  F1  UNL d   1      -0.869   1.608  -1.505  0.00  0.00    -0.096 F 
ATOM      9  I   UNL d   1       1.951   0.933  -0.152  0.00  0.00    -0.060 I 
ATOM     10  F2  UNL d   1       0.935  -1.624   1.483  0.00  0.00    -0.096 F 
ATOM     11  F3  UNL d   1      -1.498  -2.802   1.651  0.00  0.00    -0.097 F 
ATOM     12  F4  UNL d   1      -3.617  -1.797   0.257  0.00  0.00    -0.092 F 
ENDROOT
TORSDOF 0
ENDMDL
