MODEL 1
REMARK minimizedAffinity -6.44145584
REMARK minimizedRMSD -1
REMARK  0 active torsions:
REMARK  status: ('A' for Active; 'I' for Inactive)
ROOT
ATOM      1  C   UNL d   1      -2.347  -1.758   0.438  0.00  0.00     0.124 A 
ATOM      2  C1  UNL d   1      -1.336  -2.159   1.301  0.00  0.00     0.062 A 
ATOM      3  C2  UNL d   1      -0.077  -1.572   1.225  0.00  0.00     0.162 A 
ATOM      4  C3  UNL d   1       0.180  -0.576   0.283  0.00  0.00    -0.034 A 
ATOM      5  C4  UNL d   1      -0.841  -0.178  -0.582  0.00  0.00     0.162 A 
ATOM      6  C5  UNL d   1      -2.099  -0.768  -0.502  0.00  0.00     0.062 A 
ATOM      7  F   UNL d   1      -3.073  -0.379  -1.337  0.00  0.00    -0.097 F 
ATOM      8  F1  UNL d   1      -0.629   0.777  -1.500  0.00  0.00    -0.096 F 
ATOM      9  I   UNL d   1       2.062   0.305   0.166  0.00  0.00    -0.060 I 
ATOM     10  F2  UNL d   1       0.881  -1.979   2.072  0.00  0.00    -0.096 F 
ATOM     11  F3  UNL d   1      -1.574  -3.115   2.210  0.00  0.00    -0.097 F 
ATOM     12  F4  UNL d   1      -3.558  -2.325   0.513  0.00  0.00    -0.092 F 
ENDROOT
TORSDOF 0
ENDMDL
