MODEL 1
REMARK minimizedAffinity 6.59690952
REMARK minimizedRMSD -1
REMARK  0 active torsions:
REMARK  status: ('A' for Active; 'I' for Inactive)
ROOT
ATOM      1  C   UNL d   1      -1.865  -1.669  -0.374  0.00  0.00     0.124 A 
ATOM      2  C1  UNL d   1      -1.733  -0.532  -1.158  0.00  0.00     0.062 A 
ATOM      3  C2  UNL d   1      -0.644   0.316  -0.984  0.00  0.00     0.162 A 
ATOM      4  C3  UNL d   1       0.324   0.030  -0.021  0.00  0.00    -0.034 A 
ATOM      5  C4  UNL d   1       0.184  -1.115   0.765  0.00  0.00     0.162 A 
ATOM      6  C5  UNL d   1      -0.907  -1.960   0.587  0.00  0.00     0.062 A 
ATOM      7  F   UNL d   1      -1.033  -3.058   1.346  0.00  0.00    -0.097 F 
ATOM      8  F1  UNL d   1       1.096  -1.420   1.700  0.00  0.00    -0.096 F 
ATOM      9  I   UNL d   1       1.954   1.296   0.243  0.00  0.00    -0.060 I 
ATOM     10  F2  UNL d   1      -0.542   1.408  -1.756  0.00  0.00    -0.096 F 
ATOM     11  F3  UNL d   1      -2.659  -0.248  -2.087  0.00  0.00    -0.097 F 
ATOM     12  F4  UNL d   1      -2.915  -2.483  -0.543  0.00  0.00    -0.092 F 
ENDROOT
TORSDOF 0
ENDMDL
