MODEL 1
REMARK minimizedAffinity 1.10758317
REMARK minimizedRMSD -1
REMARK  0 active torsions:
REMARK  status: ('A' for Active; 'I' for Inactive)
ROOT
ATOM      1  C   UNL d   1       2.800   2.775   0.498  0.00  0.00     0.124 A 
ATOM      2  C1  UNL d   1       1.858   2.789   1.517  0.00  0.00     0.062 A 
ATOM      3  C2  UNL d   1       0.868   1.811   1.569  0.00  0.00     0.162 A 
ATOM      4  C3  UNL d   1       0.817   0.810   0.598  0.00  0.00    -0.034 A 
ATOM      5  C4  UNL d   1       1.768   0.804  -0.424  0.00  0.00     0.162 A 
ATOM      6  C5  UNL d   1       2.755   1.783  -0.471  0.00  0.00     0.062 A 
ATOM      7  F   UNL d   1       3.664   1.768  -1.456  0.00  0.00    -0.097 F 
ATOM      8  F1  UNL d   1       1.747  -0.144  -1.373  0.00  0.00    -0.096 F 
ATOM      9  I   UNL d   1      -0.661  -0.653   0.672  0.00  0.00    -0.060 I 
ATOM     10  F2  UNL d   1      -0.029   1.849   2.564  0.00  0.00    -0.096 F 
ATOM     11  F3  UNL d   1       1.900   3.747   2.454  0.00  0.00    -0.097 F 
ATOM     12  F4  UNL d   1       3.751   3.717   0.451  0.00  0.00    -0.092 F 
ENDROOT
TORSDOF 0
ENDMDL
