MODEL 1
REMARK minimizedAffinity -2.73786998
REMARK minimizedRMSD -1
REMARK  0 active torsions:
REMARK  status: ('A' for Active; 'I' for Inactive)
ROOT
ATOM      1  C   UNL d   1      -1.680  -2.117   1.417  0.00  0.00     0.124 A 
ATOM      2  C1  UNL d   1      -2.493  -1.588   0.424  0.00  0.00     0.062 A 
ATOM      3  C2  UNL d   1      -1.961  -0.723  -0.528  0.00  0.00     0.162 A 
ATOM      4  C3  UNL d   1      -0.609  -0.381  -0.491  0.00  0.00    -0.034 A 
ATOM      5  C4  UNL d   1       0.201  -0.916   0.511  0.00  0.00     0.162 A 
ATOM      6  C5  UNL d   1      -0.335  -1.781   1.460  0.00  0.00     0.062 A 
ATOM      7  F   UNL d   1       0.452  -2.291   2.419  0.00  0.00    -0.097 F 
ATOM      8  F1  UNL d   1       1.505  -0.609   0.576  0.00  0.00    -0.096 F 
ATOM      9  I   UNL d   1       0.189   0.913  -1.913  0.00  0.00    -0.060 I 
ATOM     10  F2  UNL d   1      -2.770  -0.227  -1.476  0.00  0.00    -0.096 F 
ATOM     11  F3  UNL d   1      -3.793  -1.911   0.381  0.00  0.00    -0.097 F 
ATOM     12  F4  UNL d   1      -2.194  -2.949   2.333  0.00  0.00    -0.092 F 
ENDROOT
TORSDOF 0
ENDMDL
