MODEL 1
REMARK minimizedAffinity -1.47947001
REMARK minimizedRMSD -1
REMARK  0 active torsions:
REMARK  status: ('A' for Active; 'I' for Inactive)
ROOT
ATOM      1  C   UNL d   1      -1.674  -0.155  -1.341  0.00  0.00     0.124 A 
ATOM      2  C1  UNL d   1      -0.492   0.460  -1.732  0.00  0.00     0.062 A 
ATOM      3  C2  UNL d   1       0.507   0.714  -0.797  0.00  0.00     0.162 A 
ATOM      4  C3  UNL d   1       0.330   0.353   0.539  0.00  0.00    -0.034 A 
ATOM      5  C4  UNL d   1      -0.861  -0.264   0.924  0.00  0.00     0.162 A 
ATOM      6  C5  UNL d   1      -1.857  -0.516  -0.014  0.00  0.00     0.062 A 
ATOM      7  F   UNL d   1      -2.998  -1.110   0.365  0.00  0.00    -0.097 F 
ATOM      8  F1  UNL d   1      -1.065  -0.625   2.200  0.00  0.00    -0.096 F 
ATOM      9  I   UNL d   1       1.822   0.731   1.940  0.00  0.00    -0.060 I 
ATOM     10  F2  UNL d   1       1.639   1.309  -1.203  0.00  0.00    -0.096 F 
ATOM     11  F3  UNL d   1      -0.312   0.811  -3.013  0.00  0.00    -0.097 F 
ATOM     12  F4  UNL d   1      -2.634  -0.397  -2.243  0.00  0.00    -0.092 F 
ENDROOT
TORSDOF 0
ENDMDL
