MODEL 1
REMARK minimizedAffinity 6.69189262
REMARK minimizedRMSD -1
REMARK  0 active torsions:
REMARK  status: ('A' for Active; 'I' for Inactive)
ROOT
ATOM      1  C   UNL d   1       3.142   0.094  -1.319  0.00  0.00     0.020 A 
ATOM      2  C1  UNL d   1       4.442   0.567  -1.149  0.00  0.00     0.020 A 
ATOM      3  C2  UNL d   1       4.824   1.137   0.068  0.00  0.00     0.034 A 
ATOM      4  C3  UNL d   1       3.904   1.236   1.118  0.00  0.00     0.017 A 
ATOM      5  C4  UNL d   1       2.599   0.761   0.946  0.00  0.00     0.017 A 
ATOM      6  C5  UNL d   1       2.222   0.191  -0.274  0.00  0.00     0.034 A 
ATOM      7 Cl   UNL d   1       1.409   0.848   2.196  0.00  0.00    -0.070 Cl
ATOM      8 Cl1  UNL d   1       4.445   1.952   2.595  0.00  0.00    -0.070 Cl
ENDROOT
TORSDOF 0
ENDMDL
