MODEL 1
REMARK minimizedAffinity 13.4400234
REMARK minimizedRMSD -1
REMARK  0 active torsions:
REMARK  status: ('A' for Active; 'I' for Inactive)
ROOT
ATOM      1  C   UNL d   1       5.988   2.009   1.077  0.00  0.00     0.020 A 
ATOM      2  C1  UNL d   1       5.976   1.682  -0.278  0.00  0.00     0.020 A 
ATOM      3  C2  UNL d   1       5.955   2.694  -1.240  0.00  0.00     0.034 A 
ATOM      4  C3  UNL d   1       5.947   4.037  -0.849  0.00  0.00     0.017 A 
ATOM      5  C4  UNL d   1       5.959   4.364   0.512  0.00  0.00     0.017 A 
ATOM      6  C5  UNL d   1       5.979   3.347   1.471  0.00  0.00     0.034 A 
ATOM      7 Cl   UNL d   1       5.949   5.999   1.073  0.00  0.00    -0.070 Cl
ATOM      8 Cl1  UNL d   1       5.922   5.237  -2.092  0.00  0.00    -0.070 Cl
ENDROOT
TORSDOF 0
ENDMDL
