MODEL 1
REMARK minimizedAffinity 14.0807648
REMARK minimizedRMSD -1
REMARK  0 active torsions:
REMARK  status: ('A' for Active; 'I' for Inactive)
ROOT
ATOM      1  C   UNL d   1       4.954   0.871  -2.286  0.00  0.00     0.020 A 
ATOM      2  C1  UNL d   1       5.998   1.585  -1.699  0.00  0.00     0.020 A 
ATOM      3  C2  UNL d   1       5.935   1.931  -0.348  0.00  0.00     0.034 A 
ATOM      4  C3  UNL d   1       4.825   1.563   0.421  0.00  0.00     0.017 A 
ATOM      5  C4  UNL d   1       3.777   0.846  -0.169  0.00  0.00     0.017 A 
ATOM      6  C5  UNL d   1       3.846   0.503  -1.523  0.00  0.00     0.034 A 
ATOM      7 Cl   UNL d   1       2.375   0.357   0.716  0.00  0.00    -0.070 Cl
ATOM      8 Cl1  UNL d   1       4.813   2.023   2.087  0.00  0.00    -0.070 Cl
ENDROOT
TORSDOF 0
ENDMDL
