MODEL 1
REMARK minimizedAffinity 8.75532055
REMARK minimizedRMSD -1
REMARK  0 active torsions:
REMARK  status: ('A' for Active; 'I' for Inactive)
ROOT
ATOM      1  C   UNL d   1       1.617   1.397   1.578  0.00  0.00     0.020 A 
ATOM      2  C1  UNL d   1       0.765   0.308   1.404  0.00  0.00     0.020 A 
ATOM      3  C2  UNL d   1       1.033  -0.637   0.411  0.00  0.00     0.034 A 
ATOM      4  C3  UNL d   1       2.156  -0.495  -0.411  0.00  0.00     0.017 A 
ATOM      5  C4  UNL d   1       3.012   0.599  -0.235  0.00  0.00     0.017 A 
ATOM      6  C5  UNL d   1       2.739   1.542   0.760  0.00  0.00     0.034 A 
ATOM      7 Cl   UNL d   1       4.418   0.842  -1.211  0.00  0.00    -0.070 Cl
ATOM      8 Cl1  UNL d   1       2.427  -1.701  -1.618  0.00  0.00    -0.070 Cl
ENDROOT
TORSDOF 0
ENDMDL
