MODEL 1
REMARK minimizedAffinity 9.33854008
REMARK minimizedRMSD -1
REMARK  0 active torsions:
REMARK  status: ('A' for Active; 'I' for Inactive)
ROOT
ATOM      1  C   UNL d   1      -4.091   0.801  -5.245  0.00  0.00     0.020 A 
ATOM      2  C1  UNL d   1      -2.835   1.386  -5.403  0.00  0.00     0.020 A 
ATOM      3  C2  UNL d   1      -1.852   1.203  -4.428  0.00  0.00     0.034 A 
ATOM      4  C3  UNL d   1      -2.122   0.432  -3.292  0.00  0.00     0.017 A 
ATOM      5  C4  UNL d   1      -3.383  -0.155  -3.134  0.00  0.00     0.017 A 
ATOM      6  C5  UNL d   1      -4.364   0.032  -4.113  0.00  0.00     0.034 A 
ATOM      7 Cl   UNL d   1      -3.790  -1.120  -1.759  0.00  0.00    -0.070 Cl
ATOM      8 Cl1  UNL d   1      -0.859   0.247  -2.127  0.00  0.00    -0.070 Cl
ENDROOT
TORSDOF 0
ENDMDL
