MODEL 1
REMARK minimizedAffinity 15.2728081
REMARK minimizedRMSD -1
REMARK  0 active torsions:
REMARK  status: ('A' for Active; 'I' for Inactive)
ROOT
ATOM      1  C   UNL d   1      -4.074   0.373  -4.832  0.00  0.00     0.020 A 
ATOM      2  C1  UNL d   1      -5.423   0.433  -4.484  0.00  0.00     0.020 A 
ATOM      3  C2  UNL d   1      -5.997   1.654  -4.124  0.00  0.00     0.034 A 
ATOM      4  C3  UNL d   1      -5.222   2.820  -4.109  0.00  0.00     0.017 A 
ATOM      5  C4  UNL d   1      -3.868   2.758  -4.459  0.00  0.00     0.017 A 
ATOM      6  C5  UNL d   1      -3.299   1.533  -4.819  0.00  0.00     0.034 A 
ATOM      7 Cl   UNL d   1      -2.849   4.154  -4.465  0.00  0.00    -0.070 Cl
ATOM      8 Cl1  UNL d   1      -5.998   4.295  -3.653  0.00  0.00    -0.070 Cl
ENDROOT
TORSDOF 0
ENDMDL
