MODEL 1
REMARK minimizedAffinity 9.570858
REMARK minimizedRMSD -1
REMARK  0 active torsions:
REMARK  status: ('A' for Active; 'I' for Inactive)
ROOT
ATOM      1  C   UNL d   1       6.000   0.088  -0.402  0.00  0.00     0.020 A 
ATOM      2  C1  UNL d   1       5.390   1.342  -0.384  0.00  0.00     0.020 A 
ATOM      3  C2  UNL d   1       3.997   1.441  -0.401  0.00  0.00     0.034 A 
ATOM      4  C3  UNL d   1       3.210   0.285  -0.436  0.00  0.00     0.017 A 
ATOM      5  C4  UNL d   1       3.823  -0.973  -0.454  0.00  0.00     0.017 A 
ATOM      6  C5  UNL d   1       5.218  -1.067  -0.436  0.00  0.00     0.034 A 
ATOM      7 Cl   UNL d   1       2.918  -2.445  -0.497  0.00  0.00    -0.070 Cl
ATOM      8 Cl1  UNL d   1       1.493   0.482  -0.456  0.00  0.00    -0.070 Cl
ENDROOT
TORSDOF 0
ENDMDL
