MODEL 1
REMARK minimizedAffinity 9.2507658
REMARK minimizedRMSD -1
REMARK  0 active torsions:
REMARK  status: ('A' for Active; 'I' for Inactive)
ROOT
ATOM      1  C   UNL d   1       6.000   0.411  -0.381  0.00  0.00     0.020 A 
ATOM      2  C1  UNL d   1       5.307   1.556  -0.774  0.00  0.00     0.020 A 
ATOM      3  C2  UNL d   1       3.912   1.547  -0.817  0.00  0.00     0.034 A 
ATOM      4  C3  UNL d   1       3.204   0.391  -0.468  0.00  0.00     0.017 A 
ATOM      5  C4  UNL d   1       3.900  -0.757  -0.074  0.00  0.00     0.017 A 
ATOM      6  C5  UNL d   1       5.297  -0.743  -0.032  0.00  0.00     0.034 A 
ATOM      7 Cl   UNL d   1       3.096  -2.221   0.372  0.00  0.00    -0.070 Cl
ATOM      8 Cl1  UNL d   1       1.479   0.452  -0.545  0.00  0.00    -0.070 Cl
ENDROOT
TORSDOF 0
ENDMDL
