MODEL 1
REMARK minimizedAffinity 3.61734748
REMARK minimizedRMSD -1
REMARK  0 active torsions:
REMARK  status: ('A' for Active; 'I' for Inactive)
ROOT
ATOM      1  C   UNL d   1       1.858  -5.623   6.000  0.00  0.00     0.020 A 
ATOM      2  C1  UNL d   1       0.516  -6.000   5.984  0.00  0.00     0.020 A 
ATOM      3  C2  UNL d   1      -0.414  -5.244   5.266  0.00  0.00     0.034 A 
ATOM      4  C3  UNL d   1      -0.002  -4.107   4.561  0.00  0.00     0.017 A 
ATOM      5  C4  UNL d   1       1.346  -3.729   4.577  0.00  0.00     0.017 A 
ATOM      6  C5  UNL d   1       2.272  -4.490   5.298  0.00  0.00     0.034 A 
ATOM      7 Cl   UNL d   1       1.929  -2.339   3.732  0.00  0.00    -0.070 Cl
ATOM      8 Cl1  UNL d   1      -1.205  -3.220   3.694  0.00  0.00    -0.070 Cl
ENDROOT
TORSDOF 0
ENDMDL
