MODEL 1
REMARK minimizedAffinity 14.9670906
REMARK minimizedRMSD -1
REMARK  0 active torsions:
REMARK  status: ('A' for Active; 'I' for Inactive)
ROOT
ATOM      1  C   UNL d   1       6.000   2.240   0.026  0.00  0.00     0.020 A 
ATOM      2  C1  UNL d   1       5.834   1.519  -1.156  0.00  0.00     0.020 A 
ATOM      3  C2  UNL d   1       4.748   0.653  -1.298  0.00  0.00     0.034 A 
ATOM      4  C3  UNL d   1       3.824   0.504  -0.257  0.00  0.00     0.017 A 
ATOM      5  C4  UNL d   1       3.992   1.228   0.929  0.00  0.00     0.017 A 
ATOM      6  C5  UNL d   1       5.081   2.094   1.067  0.00  0.00     0.034 A 
ATOM      7 Cl   UNL d   1       2.895   1.097   2.258  0.00  0.00    -0.070 Cl
ATOM      8 Cl1  UNL d   1       2.506  -0.585  -0.502  0.00  0.00    -0.070 Cl
ENDROOT
TORSDOF 0
ENDMDL
