MODEL 1
REMARK minimizedAffinity 7.86767244
REMARK minimizedRMSD -1
REMARK  0 active torsions:
REMARK  status: ('A' for Active; 'I' for Inactive)
ROOT
ATOM      1  C   UNL d   1      -2.267   0.104  -3.784  0.00  0.00     0.020 A 
ATOM      2  C1  UNL d   1      -2.648   0.912  -4.855  0.00  0.00     0.020 A 
ATOM      3  C2  UNL d   1      -3.804   1.691  -4.765  0.00  0.00     0.034 A 
ATOM      4  C3  UNL d   1      -4.583   1.663  -3.603  0.00  0.00     0.017 A 
ATOM      5  C4  UNL d   1      -4.200   0.851  -2.529  0.00  0.00     0.017 A 
ATOM      6  C5  UNL d   1      -3.042   0.074  -2.624  0.00  0.00     0.034 A 
ATOM      7 Cl   UNL d   1      -5.111   0.764  -1.062  0.00  0.00    -0.070 Cl
ATOM      8 Cl1  UNL d   1      -6.000   2.651  -3.562  0.00  0.00    -0.070 Cl
ENDROOT
TORSDOF 0
ENDMDL
