MODEL 1
REMARK minimizedAffinity -2.69421673
REMARK minimizedRMSD -1
REMARK  1 active torsions:
REMARK  status: ('A' for Active; 'I' for Inactive)
REMARK    1  A    between atoms: C3_4  and  O_7 
ROOT
ATOM      1  C   UNL d   1      -1.891  -5.848  -5.045  0.00  0.00    -0.033 A 
ATOM      2  C1  UNL d   1      -2.033  -6.000  -3.665  0.00  0.00     0.039 A 
ATOM      3  C2  UNL d   1      -0.912  -5.932  -2.834  0.00  0.00    -0.080 A 
ATOM      4  C3  UNL d   1       0.342  -5.712  -3.396  0.00  0.00     0.150 A 
ATOM      5  C4  UNL d   1       0.490  -5.557  -4.771  0.00  0.00    -0.007 A 
ATOM      6  C5  UNL d   1      -0.630  -5.626  -5.598  0.00  0.00     0.039 A 
ENDROOT
BRANCH   4   7
ATOM      7  O   UNL d   1       1.466  -5.643  -2.627  0.00  0.00    -0.526 OA
ATOM      8  H5  UNL d   1       1.214  -5.797  -1.701  0.00  0.00     0.418 HD
ENDBRANCH   4   7
TORSDOF 1
ENDMDL
