MODEL 1
REMARK minimizedAffinity 0.0480039418
REMARK minimizedRMSD -1
REMARK  1 active torsions:
REMARK  status: ('A' for Active; 'I' for Inactive)
REMARK    1  A    between atoms: C3_4  and  O_7 
ROOT
ATOM      1  C   UNL d   1       1.250  -5.835  -5.259  0.00  0.00    -0.033 A 
ATOM      2  C1  UNL d   1       1.200  -5.941  -3.868  0.00  0.00     0.039 A 
ATOM      3  C2  UNL d   1      -0.033  -6.000  -3.214  0.00  0.00    -0.080 A 
ATOM      4  C3  UNL d   1      -1.206  -5.951  -3.963  0.00  0.00     0.150 A 
ATOM      5  C4  UNL d   1      -1.163  -5.849  -5.349  0.00  0.00    -0.007 A 
ATOM      6  C5  UNL d   1       0.069  -5.790  -6.000  0.00  0.00     0.039 A 
ENDROOT
BRANCH   4   7
ATOM      7  O   UNL d   1      -2.432  -6.000  -3.369  0.00  0.00    -0.526 OA
ATOM      8  H5  UNL d   1      -2.307  -6.041  -2.406  0.00  0.00     0.418 HD
ENDBRANCH   4   7
TORSDOF 1
ENDMDL
