MODEL 1
REMARK minimizedAffinity -1.83770537
REMARK minimizedRMSD -1
REMARK  1 active torsions:
REMARK  status: ('A' for Active; 'I' for Inactive)
REMARK    1  A    between atoms: C3_4  and  O_7 
ROOT
ATOM      1  C   UNL d   1      -1.339  -5.973  -3.874  0.00  0.00    -0.033 A 
ATOM      2  C1  UNL d   1      -1.381  -5.879  -5.266  0.00  0.00     0.039 A 
ATOM      3  C2  UNL d   1      -0.194  -5.804  -5.998  0.00  0.00    -0.080 A 
ATOM      4  C3  UNL d   1       1.025  -5.826  -5.327  0.00  0.00     0.150 A 
ATOM      5  C4  UNL d   1       1.074  -5.924  -3.941  0.00  0.00    -0.007 A 
ATOM      6  C5  UNL d   1      -0.112  -5.998  -3.211  0.00  0.00     0.039 A 
ENDROOT
BRANCH   4   7
ATOM      7  O   UNL d   1       2.209  -5.751  -5.999  0.00  0.00    -0.526 OA
ATOM      8  H5  UNL d   1       2.020  -5.658  -6.947  0.00  0.00     0.418 HD
ENDBRANCH   4   7
TORSDOF 1
ENDMDL
