MODEL 1
REMARK minimizedAffinity -1.71544218
REMARK minimizedRMSD -1
REMARK  1 active torsions:
REMARK  status: ('A' for Active; 'I' for Inactive)
REMARK    1  A    between atoms: C3_4  and  O_7 
ROOT
ATOM      1  C   UNL d   1      -0.742  -5.967  -3.903  0.00  0.00    -0.033 A 
ATOM      2  C1  UNL d   1      -0.741  -5.975  -5.299  0.00  0.00     0.039 A 
ATOM      3  C2  UNL d   1       0.467  -5.987  -5.999  0.00  0.00    -0.080 A 
ATOM      4  C3  UNL d   1       1.666  -5.993  -5.292  0.00  0.00     0.150 A 
ATOM      5  C4  UNL d   1       1.673  -5.989  -3.901  0.00  0.00    -0.007 A 
ATOM      6  C5  UNL d   1       0.466  -5.976  -3.204  0.00  0.00     0.039 A 
ENDROOT
BRANCH   4   7
ATOM      7  O   UNL d   1       2.870  -6.000  -5.930  0.00  0.00    -0.526 OA
ATOM      8  H5  UNL d   1       2.711  -5.972  -6.889  0.00  0.00     0.418 HD
ENDBRANCH   4   7
TORSDOF 1
ENDMDL
