MODEL 1
REMARK minimizedAffinity 0.989853084
REMARK minimizedRMSD -1
REMARK  1 active torsions:
REMARK  status: ('A' for Active; 'I' for Inactive)
REMARK    1  A    between atoms: C3_4  and  O_7 
ROOT
ATOM      1  C   UNL d   1      -1.456  -5.994  -2.725  0.00  0.00    -0.033 A 
ATOM      2  C1  UNL d   1      -1.965  -5.999  -4.026  0.00  0.00     0.039 A 
ATOM      3  C2  UNL d   1      -1.094  -5.997  -5.118  0.00  0.00    -0.080 A 
ATOM      4  C3  UNL d   1       0.280  -5.991  -4.896  0.00  0.00     0.150 A 
ATOM      5  C4  UNL d   1       0.793  -5.991  -3.603  0.00  0.00    -0.007 A 
ATOM      6  C5  UNL d   1      -0.077  -5.992  -2.514  0.00  0.00     0.039 A 
ENDROOT
BRANCH   4   7
ATOM      7  O   UNL d   1       1.169  -5.984  -5.930  0.00  0.00    -0.526 OA
ATOM      8  H5  UNL d   1       0.670  -5.956  -6.763  0.00  0.00     0.418 HD
ENDBRANCH   4   7
TORSDOF 1
ENDMDL
