MODEL 1
REMARK minimizedAffinity -0.993811309
REMARK minimizedRMSD -1
REMARK  1 active torsions:
REMARK  status: ('A' for Active; 'I' for Inactive)
REMARK    1  A    between atoms: C3_4  and  O_7 
ROOT
ATOM      1  C   UNL d   1       0.707  -5.988  -4.380  0.00  0.00    -0.033 A 
ATOM      2  C1  UNL d   1      -0.059  -5.975  -5.547  0.00  0.00     0.039 A 
ATOM      3  C2  UNL d   1      -1.453  -5.977  -5.469  0.00  0.00    -0.080 A 
ATOM      4  C3  UNL d   1      -2.067  -5.991  -4.220  0.00  0.00     0.150 A 
ATOM      5  C4  UNL d   1      -1.310  -6.000  -3.053  0.00  0.00    -0.007 A 
ATOM      6  C5  UNL d   1       0.082  -5.999  -3.133  0.00  0.00     0.039 A 
ENDROOT
BRANCH   4   7
ATOM      7  O   UNL d   1      -3.425  -5.998  -4.093  0.00  0.00    -0.526 OA
ATOM      8  H5  UNL d   1      -3.817  -6.020  -4.982  0.00  0.00     0.418 HD
ENDBRANCH   4   7
TORSDOF 1
ENDMDL
