MODEL 1
REMARK minimizedAffinity 1.10726011
REMARK minimizedRMSD -1
REMARK  1 active torsions:
REMARK  status: ('A' for Active; 'I' for Inactive)
REMARK    1  A    between atoms: C3_4  and  O_7 
ROOT
ATOM      1  C   UNL d   1       1.384  -5.987  -4.959  0.00  0.00    -0.033 A 
ATOM      2  C1  UNL d   1       1.079  -5.996  -3.597  0.00  0.00     0.039 A 
ATOM      3  C2  UNL d   1      -0.253  -6.000  -3.177  0.00  0.00    -0.080 A 
ATOM      4  C3  UNL d   1      -1.269  -5.997  -4.129  0.00  0.00     0.150 A 
ATOM      5  C4  UNL d   1      -0.972  -5.992  -5.488  0.00  0.00    -0.007 A 
ATOM      6  C5  UNL d   1       0.358  -5.987  -5.905  0.00  0.00     0.039 A 
ENDROOT
BRANCH   4   7
ATOM      7  O   UNL d   1      -2.583  -5.996  -3.768  0.00  0.00    -0.526 OA
ATOM      8  H5  UNL d   1      -2.636  -5.970  -2.798  0.00  0.00     0.418 HD
ENDBRANCH   4   7
TORSDOF 1
ENDMDL
