MODEL 1
REMARK minimizedAffinity -3.10998654
REMARK minimizedRMSD -1
REMARK  1 active torsions:
REMARK  status: ('A' for Active; 'I' for Inactive)
REMARK    1  A    between atoms: C3_4  and  O_7 
ROOT
ATOM      1  C   UNL d   1      -2.496  -5.988  -3.780  0.00  0.00    -0.033 A 
ATOM      2  C1  UNL d   1      -1.509  -5.628  -2.860  0.00  0.00     0.039 A 
ATOM      3  C2  UNL d   1      -0.232  -5.279  -3.304  0.00  0.00    -0.080 A 
ATOM      4  C3  UNL d   1       0.045  -5.294  -4.668  0.00  0.00     0.150 A 
ATOM      5  C4  UNL d   1      -0.935  -5.648  -5.590  0.00  0.00    -0.007 A 
ATOM      6  C5  UNL d   1      -2.209  -5.997  -5.145  0.00  0.00     0.039 A 
ENDROOT
BRANCH   4   7
ATOM      7  O   UNL d   1       1.278  -4.966  -5.149  0.00  0.00    -0.526 OA
ATOM      8  H5  UNL d   1       1.860  -4.771  -4.395  0.00  0.00     0.418 HD
ENDBRANCH   4   7
TORSDOF 1
ENDMDL
