MODEL 1
REMARK minimizedAffinity -1.8603636
REMARK minimizedRMSD -1
REMARK  1 active torsions:
REMARK  status: ('A' for Active; 'I' for Inactive)
REMARK    1  A    between atoms: C3_4  and  O_7 
ROOT
ATOM      1  C   UNL d   1      -2.023  -6.000  -3.802  0.00  0.00    -0.033 A 
ATOM      2  C1  UNL d   1      -2.082  -5.991  -5.197  0.00  0.00     0.039 A 
ATOM      3  C2  UNL d   1      -0.905  -5.975  -5.948  0.00  0.00    -0.080 A 
ATOM      4  C3  UNL d   1       0.323  -5.969  -5.293  0.00  0.00     0.150 A 
ATOM      5  C4  UNL d   1       0.390  -5.982  -3.903  0.00  0.00    -0.007 A 
ATOM      6  C5  UNL d   1      -0.786  -5.997  -3.155  0.00  0.00     0.039 A 
ENDROOT
BRANCH   4   7
ATOM      7  O   UNL d   1       1.499  -5.948  -5.983  0.00  0.00    -0.526 OA
ATOM      8  H5  UNL d   1       1.297  -5.912  -6.933  0.00  0.00     0.418 HD
ENDBRANCH   4   7
TORSDOF 1
ENDMDL
