MODEL 1
REMARK minimizedAffinity 3.20403695
REMARK minimizedRMSD -1
REMARK  1 active torsions:
REMARK  status: ('A' for Active; 'I' for Inactive)
REMARK    1  A    between atoms: C3_4  and  O_7 
ROOT
ATOM      1  C   UNL d   1      -1.219  -5.981  -3.830  0.00  0.00    -0.033 A 
ATOM      2  C1  UNL d   1       0.002  -5.992  -3.151  0.00  0.00     0.039 A 
ATOM      3  C2  UNL d   1       1.200  -5.962  -3.867  0.00  0.00    -0.080 A 
ATOM      4  C3  UNL d   1       1.165  -5.919  -5.258  0.00  0.00     0.150 A 
ATOM      5  C4  UNL d   1      -0.048  -5.903  -5.940  0.00  0.00    -0.007 A 
ATOM      6  C5  UNL d   1      -1.244  -5.934  -5.224  0.00  0.00     0.039 A 
ENDROOT
BRANCH   4   7
ATOM      7  O   UNL d   1       2.308  -5.893  -6.000  0.00  0.00    -0.526 OA
ATOM      8  H5  UNL d   1       3.068  -5.937  -5.395  0.00  0.00     0.418 HD
ENDBRANCH   4   7
TORSDOF 1
ENDMDL
