MODEL 1
REMARK minimizedAffinity 6.99345541
REMARK minimizedRMSD -1
REMARK  1 active torsions:
REMARK  status: ('A' for Active; 'I' for Inactive)
REMARK    1  A    between atoms: C3_4  and  O_7 
ROOT
ATOM      1  C   UNL d   1       1.006   1.080  -0.389  0.00  0.00    -0.033 A 
ATOM      2  C1  UNL d   1       1.444   0.564   0.832  0.00  0.00     0.039 A 
ATOM      3  C2  UNL d   1       1.142  -0.754   1.182  0.00  0.00    -0.080 A 
ATOM      4  C3  UNL d   1       0.404  -1.543   0.305  0.00  0.00     0.150 A 
ATOM      5  C4  UNL d   1      -0.032  -1.036  -0.915  0.00  0.00    -0.007 A 
ATOM      6  C5  UNL d   1       0.270   0.280  -1.263  0.00  0.00     0.039 A 
ENDROOT
BRANCH   4   7
ATOM      7  O   UNL d   1       0.081  -2.833   0.605  0.00  0.00    -0.526 OA
ATOM      8  H5  UNL d   1       0.424  -3.037   1.491  0.00  0.00     0.418 HD
ENDBRANCH   4   7
TORSDOF 1
ENDMDL
