MODEL 1
REMARK minimizedAffinity -1.37538588
REMARK minimizedRMSD -1
REMARK  1 active torsions:
REMARK  status: ('A' for Active; 'I' for Inactive)
REMARK    1  A    between atoms: C3_4  and  O_7 
ROOT
ATOM      1  C   UNL d   1      -1.147  -5.966  -5.999  0.00  0.00    -0.033 A 
ATOM      2  C1  UNL d   1      -1.851  -5.989  -4.793  0.00  0.00     0.039 A 
ATOM      3  C2  UNL d   1      -1.161  -5.999  -3.580  0.00  0.00    -0.080 A 
ATOM      4  C3  UNL d   1       0.231  -5.985  -3.585  0.00  0.00     0.150 A 
ATOM      5  C4  UNL d   1       0.939  -5.959  -4.782  0.00  0.00    -0.007 A 
ATOM      6  C5  UNL d   1       0.248  -5.949  -5.993  0.00  0.00     0.039 A 
ENDROOT
BRANCH   4   7
ATOM      7  O   UNL d   1       0.948  -5.999  -2.425  0.00  0.00    -0.526 OA
ATOM      8  H5  UNL d   1       0.327  -6.047  -1.680  0.00  0.00     0.418 HD
ENDBRANCH   4   7
TORSDOF 1
ENDMDL
