MODEL 1
REMARK minimizedAffinity 3.63136578
REMARK minimizedRMSD -1
REMARK  1 active torsions:
REMARK  status: ('A' for Active; 'I' for Inactive)
REMARK    1  A    between atoms: C3_4  and  O_7 
ROOT
ATOM      1  C   UNL d   1      -4.442  -6.000  -2.714  0.00  0.00    -0.033 A 
ATOM      2  C1  UNL d   1      -5.663  -5.999  -2.038  0.00  0.00     0.039 A 
ATOM      3  C2  UNL d   1      -5.690  -5.998  -0.642  0.00  0.00    -0.080 A 
ATOM      4  C3  UNL d   1      -4.490  -5.996   0.065  0.00  0.00     0.150 A 
ATOM      5  C4  UNL d   1      -3.270  -5.993  -0.603  0.00  0.00    -0.007 A 
ATOM      6  C5  UNL d   1      -3.245  -5.995  -1.997  0.00  0.00     0.039 A 
ENDROOT
BRANCH   4   7
ATOM      7  O   UNL d   1      -4.466  -6.000   1.428  0.00  0.00    -0.526 OA
ATOM      8  H5  UNL d   1      -5.381  -6.031   1.752  0.00  0.00     0.418 HD
ENDBRANCH   4   7
TORSDOF 1
ENDMDL
