MODEL 1
REMARK minimizedAffinity -3.90861702
REMARK minimizedRMSD -1
REMARK  0 active torsions:
REMARK  status: ('A' for Active; 'I' for Inactive)
ROOT
ATOM      1  C   UNL d   1       0.032  -0.158  -0.257  0.00  0.00     0.172 C 
ATOM      2  N   UNL d   1      -0.238   1.228   0.047  0.00  0.00    -0.070 N 
ATOM      3  C1  UNL d   1       0.177   2.303  -0.693  0.00  0.00    -0.004 A 
ATOM      4  C2  UNL d   1      -0.282   3.444  -0.072  0.00  0.00    -0.047 A 
ATOM      5  C3  UNL d   1      -0.998   3.041   1.080  0.00  0.00    -0.047 A 
ATOM      6  C4  UNL d   1      -0.954   1.664   1.130  0.00  0.00    -0.004 A 
ENDROOT
TORSDOF 0
ENDMDL
