MODEL 1
REMARK minimizedAffinity -2.33172584
REMARK minimizedRMSD -1
REMARK  0 active torsions:
REMARK  status: ('A' for Active; 'I' for Inactive)
ROOT
ATOM      1  C   UNL d   1       1.291   0.141  -0.197  0.00  0.00     0.172 C 
ATOM      2  N   UNL d   1       0.292   1.150   0.066  0.00  0.00    -0.070 N 
ATOM      3  C1  UNL d   1      -0.839   0.977   0.817  0.00  0.00    -0.004 A 
ATOM      4  C2  UNL d   1      -1.527   2.171   0.827  0.00  0.00    -0.047 A 
ATOM      5  C3  UNL d   1      -0.784   3.094   0.053  0.00  0.00    -0.047 A 
ATOM      6  C4  UNL d   1       0.338   2.436  -0.406  0.00  0.00    -0.004 A 
ENDROOT
TORSDOF 0
ENDMDL
