MODEL 1
REMARK minimizedAffinity -2.90497446
REMARK minimizedRMSD -1
REMARK  0 active torsions:
REMARK  status: ('A' for Active; 'I' for Inactive)
ROOT
ATOM      1  C   UNL d   1      -0.476  -2.150   0.604  0.00  0.00     0.172 C 
ATOM      2  N   UNL d   1       0.314  -1.012   0.197  0.00  0.00    -0.070 N 
ATOM      3  C1  UNL d   1      -0.180   0.207  -0.187  0.00  0.00    -0.004 A 
ATOM      4  C2  UNL d   1       0.890   1.018  -0.496  0.00  0.00    -0.047 A 
ATOM      5  C3  UNL d   1       2.068   0.261  -0.292  0.00  0.00    -0.047 A 
ATOM      6  C4  UNL d   1       1.682  -0.992   0.136  0.00  0.00    -0.004 A 
ENDROOT
TORSDOF 0
ENDMDL
