MODEL 1
REMARK minimizedAffinity -3.67180085
REMARK minimizedRMSD -1
REMARK  0 active torsions:
REMARK  status: ('A' for Active; 'I' for Inactive)
ROOT
ATOM      1  C   UNL d   1       0.192  -1.405  -0.034  0.00  0.00     0.172 C 
ATOM      2  N   UNL d   1       0.194   0.039  -0.044  0.00  0.00    -0.070 N 
ATOM      3  C1  UNL d   1       1.259   0.834  -0.373  0.00  0.00    -0.004 A 
ATOM      4  C2  UNL d   1       0.857   2.148  -0.259  0.00  0.00    -0.047 A 
ATOM      5  C3  UNL d   1      -0.497   2.142   0.153  0.00  0.00    -0.047 A 
ATOM      6  C4  UNL d   1      -0.882   0.824   0.279  0.00  0.00    -0.004 A 
ENDROOT
TORSDOF 0
ENDMDL
