MODEL 1
REMARK minimizedAffinity -2.00276399
REMARK minimizedRMSD -1
REMARK  0 active torsions:
REMARK  status: ('A' for Active; 'I' for Inactive)
ROOT
ATOM      1  C   UNL d   1       0.353   3.452  -0.421  0.00  0.00     0.172 C 
ATOM      2  N   UNL d   1       0.534   2.031  -0.236  0.00  0.00    -0.070 N 
ATOM      3  C1  UNL d   1       1.727   1.363  -0.301  0.00  0.00    -0.004 A 
ATOM      4  C2  UNL d   1       1.477   0.028  -0.069  0.00  0.00    -0.047 A 
ATOM      5  C3  UNL d   1       0.085  -0.111   0.143  0.00  0.00    -0.047 A 
ATOM      6  C4  UNL d   1      -0.475   1.144   0.034  0.00  0.00    -0.004 A 
ENDROOT
TORSDOF 0
ENDMDL
