MODEL 1
REMARK minimizedAffinity 2.26484227
REMARK minimizedRMSD -1
REMARK  0 active torsions:
REMARK  status: ('A' for Active; 'I' for Inactive)
ROOT
ATOM      1  C   UNL d   1       5.999   3.753  -5.999  0.00  0.00     0.172 C 
ATOM      2  N   UNL d   1       4.891   3.180  -5.272  0.00  0.00    -0.070 N 
ATOM      3  C1  UNL d   1       4.533   3.490  -3.987  0.00  0.00    -0.004 A 
ATOM      4  C2  UNL d   1       3.429   2.732  -3.662  0.00  0.00    -0.047 A 
ATOM      5  C3  UNL d   1       3.112   1.939  -4.790  0.00  0.00    -0.047 A 
ATOM      6  C4  UNL d   1       4.033   2.236  -5.772  0.00  0.00    -0.004 A 
ENDROOT
TORSDOF 0
ENDMDL
