MODEL 1
REMARK minimizedAffinity -1.40545583
REMARK minimizedRMSD -1
REMARK  0 active torsions:
REMARK  status: ('A' for Active; 'I' for Inactive)
ROOT
ATOM      1  C   UNL d   1       3.306   4.264  -3.441  0.00  0.00     0.172 C 
ATOM      2  N   UNL d   1       4.182   3.603  -4.380  0.00  0.00    -0.070 N 
ATOM      3  C1  UNL d   1       5.528   3.822  -4.506  0.00  0.00    -0.004 A 
ATOM      4  C2  UNL d   1       5.997   3.000  -5.507  0.00  0.00    -0.047 A 
ATOM      5  C3  UNL d   1       4.895   2.261  -6.000  0.00  0.00    -0.047 A 
ATOM      6  C4  UNL d   1       3.784   2.654  -5.284  0.00  0.00    -0.004 A 
ENDROOT
TORSDOF 0
ENDMDL
