MODEL 1
REMARK minimizedAffinity -2.73878884
REMARK minimizedRMSD -1
REMARK  0 active torsions:
REMARK  status: ('A' for Active; 'I' for Inactive)
ROOT
ATOM      1  C   UNL d   1      -0.107   3.165  -0.105  0.00  0.00     0.172 C 
ATOM      2  N   UNL d   1      -0.013   1.724  -0.100  0.00  0.00    -0.070 N 
ATOM      3  C1  UNL d   1       1.104   0.996  -0.412  0.00  0.00    -0.004 A 
ATOM      4  C2  UNL d   1       0.785  -0.339  -0.287  0.00  0.00    -0.047 A 
ATOM      5  C3  UNL d   1      -0.570  -0.416   0.112  0.00  0.00    -0.047 A 
ATOM      6  C4  UNL d   1      -1.040   0.876   0.220  0.00  0.00    -0.004 A 
ENDROOT
TORSDOF 0
ENDMDL
