MODEL 1
REMARK minimizedAffinity -3.10707235
REMARK minimizedRMSD -1
REMARK  0 active torsions:
REMARK  status: ('A' for Active; 'I' for Inactive)
ROOT
ATOM      1  C   UNL d   1      -2.797  -4.188  -1.026  0.00  0.00     0.172 C 
ATOM      2  N   UNL d   1      -1.602  -3.405  -1.234  0.00  0.00    -0.070 N 
ATOM      3  C1  UNL d   1      -0.898  -2.749  -0.259  0.00  0.00    -0.004 A 
ATOM      4  C2  UNL d   1       0.172  -2.122  -0.861  0.00  0.00    -0.047 A 
ATOM      5  C3  UNL d   1       0.107  -2.410  -2.245  0.00  0.00    -0.047 A 
ATOM      6  C4  UNL d   1      -1.000  -3.205  -2.448  0.00  0.00    -0.004 A 
ENDROOT
TORSDOF 0
ENDMDL
