MODEL 1
REMARK minimizedAffinity -2.45592308
REMARK minimizedRMSD -1
REMARK  0 active torsions:
REMARK  status: ('A' for Active; 'I' for Inactive)
ROOT
ATOM      1  C   UNL d   1       0.385  -1.582   0.094  0.00  0.00     0.172 C 
ATOM      2  N   UNL d   1      -0.214  -2.511  -0.835  0.00  0.00    -0.070 N 
ATOM      3  C1  UNL d   1      -1.278  -3.331  -0.570  0.00  0.00    -0.004 A 
ATOM      4  C2  UNL d   1      -1.545  -4.058  -1.710  0.00  0.00    -0.047 A 
ATOM      5  C3  UNL d   1      -0.608  -3.662  -2.693  0.00  0.00    -0.047 A 
ATOM      6  C4  UNL d   1       0.204  -2.703  -2.125  0.00  0.00    -0.004 A 
ENDROOT
TORSDOF 0
ENDMDL
