MODEL 1
REMARK minimizedAffinity -2.60519147
REMARK minimizedRMSD -1
REMARK  0 active torsions:
REMARK  status: ('A' for Active; 'I' for Inactive)
ROOT
ATOM      1  C   UNL d   1       0.347  -1.856  -0.041  0.00  0.00     0.172 C 
ATOM      2  N   UNL d   1       0.260  -0.417  -0.123  0.00  0.00    -0.070 N 
ATOM      3  C1  UNL d   1      -0.839   0.336   0.193  0.00  0.00    -0.004 A 
ATOM      4  C2  UNL d   1      -0.519   1.660  -0.018  0.00  0.00    -0.047 A 
ATOM      5  C3  UNL d   1       0.819   1.704  -0.477  0.00  0.00    -0.047 A 
ATOM      6  C4  UNL d   1       1.277   0.404  -0.533  0.00  0.00    -0.004 A 
ENDROOT
TORSDOF 0
ENDMDL
