MODEL 1
REMARK minimizedAffinity -2.74489903
REMARK minimizedRMSD -1
REMARK  0 active torsions:
REMARK  status: ('A' for Active; 'I' for Inactive)
ROOT
ATOM      1  C   UNL d   1       0.788  -1.882   0.268  0.00  0.00     0.172 C 
ATOM      2  N   UNL d   1       0.005  -2.439  -0.811  0.00  0.00    -0.070 N 
ATOM      3  C1  UNL d   1      -0.939  -3.423  -0.686  0.00  0.00    -0.004 A 
ATOM      4  C2  UNL d   1      -1.457  -3.672  -1.939  0.00  0.00    -0.047 A 
ATOM      5  C3  UNL d   1      -0.801  -2.808  -2.848  0.00  0.00    -0.047 A 
ATOM      6  C4  UNL d   1       0.099  -2.056  -2.123  0.00  0.00    -0.004 A 
ENDROOT
TORSDOF 0
ENDMDL
