MODEL 1
REMARK minimizedAffinity -2.91519976
REMARK minimizedRMSD -1
REMARK  0 active torsions:
REMARK  status: ('A' for Active; 'I' for Inactive)
ROOT
ATOM      1  C   UNL d   1      -0.123  -1.043  -0.320  0.00  0.00     0.172 C 
ATOM      2  N   UNL d   1      -0.204   0.371  -0.035  0.00  0.00    -0.070 N 
ATOM      3  C1  UNL d   1      -1.359   1.085   0.140  0.00  0.00    -0.004 A 
ATOM      4  C2  UNL d   1      -1.011   2.395   0.393  0.00  0.00    -0.047 A 
ATOM      5  C3  UNL d   1       0.402   2.469   0.369  0.00  0.00    -0.047 A 
ATOM      6  C4  UNL d   1       0.876   1.202   0.102  0.00  0.00    -0.004 A 
ENDROOT
TORSDOF 0
ENDMDL
