MODEL 1
REMARK minimizedAffinity -2.05852842
REMARK minimizedRMSD -1
REMARK  0 active torsions:
REMARK  status: ('A' for Active; 'I' for Inactive)
ROOT
ATOM      1  C   UNL d   1      -0.494  -0.403   0.198  0.00  0.00     0.172 C 
ATOM      2  N   UNL d   1      -0.208  -1.588  -0.576  0.00  0.00    -0.070 N 
ATOM      3  C1  UNL d   1       0.732  -2.535  -0.267  0.00  0.00    -0.004 A 
ATOM      4  C2  UNL d   1       0.696  -3.502  -1.249  0.00  0.00    -0.047 A 
ATOM      5  C3  UNL d   1      -0.300  -3.122  -2.180  0.00  0.00    -0.047 A 
ATOM      6  C4  UNL d   1      -0.843  -1.934  -1.739  0.00  0.00    -0.004 A 
ENDROOT
TORSDOF 0
ENDMDL
