MODEL 1
REMARK minimizedAffinity -3.36507177
REMARK minimizedRMSD -1
REMARK  0 active torsions:
REMARK  status: ('A' for Active; 'I' for Inactive)
ROOT
ATOM      1  C   UNL d   1      -0.023  -0.890  -0.007  0.00  0.00     0.172 C 
ATOM      2  N   UNL d   1       0.024   0.553  -0.033  0.00  0.00    -0.070 N 
ATOM      3  C1  UNL d   1       0.780   1.312  -0.886  0.00  0.00    -0.004 A 
ATOM      4  C2  UNL d   1       0.546   2.638  -0.591  0.00  0.00    -0.047 A 
ATOM      5  C3  UNL d   1      -0.382   2.677   0.476  0.00  0.00    -0.047 A 
ATOM      6  C4  UNL d   1      -0.688   1.372   0.802  0.00  0.00    -0.004 A 
ENDROOT
TORSDOF 0
ENDMDL
