MODEL 1
REMARK minimizedAffinity 1.01575291
REMARK minimizedRMSD -1
REMARK  0 active torsions:
REMARK  status: ('A' for Active; 'I' for Inactive)
ROOT
ATOM      1  C   UNL d   1      -0.386  -0.529   1.862  0.00  0.00     0.124 A 
ATOM      2  C1  UNL d   1       0.396   0.294   2.661  0.00  0.00     0.062 A 
ATOM      3  C2  UNL d   1       1.023   1.410   2.115  0.00  0.00     0.162 A 
ATOM      4  C3  UNL d   1       0.869   1.711   0.761  0.00  0.00    -0.034 A 
ATOM      5  C4  UNL d   1       0.082   0.878  -0.036  0.00  0.00     0.162 A 
ATOM      6  C5  UNL d   1      -0.542  -0.236   0.515  0.00  0.00     0.062 A 
ATOM      7  F   UNL d   1      -1.297  -1.030  -0.258  0.00  0.00    -0.097 F 
ATOM      8  F1  UNL d   1      -0.086   1.138  -1.341  0.00  0.00    -0.096 F 
ATOM      9  I   UNL d   1       1.805   3.379  -0.060  0.00  0.00    -0.060 I 
ATOM     10  F2  UNL d   1       1.772   2.188   2.910  0.00  0.00    -0.096 F 
ATOM     11  F3  UNL d   1       0.549   0.013   3.963  0.00  0.00    -0.097 F 
ATOM     12  F4  UNL d   1      -0.987  -1.602   2.391  0.00  0.00    -0.092 F 
ENDROOT
TORSDOF 0
ENDMDL
