MODEL 1
REMARK minimizedAffinity 1.63884854
REMARK minimizedRMSD -1
REMARK  0 active torsions:
REMARK  status: ('A' for Active; 'I' for Inactive)
ROOT
ATOM      1  C   UNL d   1      -0.675  -2.033  -0.193  0.00  0.00     0.124 A 
ATOM      2  C1  UNL d   1      -0.287  -1.324  -1.321  0.00  0.00     0.062 A 
ATOM      3  C2  UNL d   1       0.078   0.015  -1.216  0.00  0.00     0.162 A 
ATOM      4  C3  UNL d   1       0.057   0.654   0.024  0.00  0.00    -0.034 A 
ATOM      5  C4  UNL d   1      -0.335  -0.065   1.154  0.00  0.00     0.162 A 
ATOM      6  C5  UNL d   1      -0.699  -1.403   1.043  0.00  0.00     0.062 A 
ATOM      7  F   UNL d   1      -1.074  -2.087   2.134  0.00  0.00    -0.097 F 
ATOM      8  F1  UNL d   1      -0.366   0.518   2.362  0.00  0.00    -0.096 F 
ATOM      9  I   UNL d   1       0.602   2.656   0.187  0.00  0.00    -0.060 I 
ATOM     10  F2  UNL d   1       0.449   0.675  -2.323  0.00  0.00    -0.096 F 
ATOM     11  F3  UNL d   1      -0.264  -1.930  -2.517  0.00  0.00    -0.097 F 
ATOM     12  F4  UNL d   1      -1.027  -3.321  -0.298  0.00  0.00    -0.092 F 
ENDROOT
TORSDOF 0
ENDMDL
