MODEL 1
REMARK minimizedAffinity 2.56989551
REMARK minimizedRMSD -1
REMARK  0 active torsions:
REMARK  status: ('A' for Active; 'I' for Inactive)
ROOT
ATOM      1  C   UNL d   1       1.174   2.588   0.212  0.00  0.00     0.124 A 
ATOM      2  C1  UNL d   1       1.212   2.094   1.509  0.00  0.00     0.062 A 
ATOM      3  C2  UNL d   1       0.689   0.836   1.794  0.00  0.00     0.162 A 
ATOM      4  C3  UNL d   1       0.123   0.062   0.780  0.00  0.00    -0.034 A 
ATOM      5  C4  UNL d   1       0.088   0.567  -0.521  0.00  0.00     0.162 A 
ATOM      6  C5  UNL d   1       0.612   1.824  -0.801  0.00  0.00     0.062 A 
ATOM      7  F   UNL d   1       0.574   2.300  -2.054  0.00  0.00    -0.097 F 
ATOM      8  F1  UNL d   1      -0.449  -0.151  -1.520  0.00  0.00    -0.096 F 
ATOM      9  I   UNL d   1      -0.660  -1.819   1.203  0.00  0.00    -0.060 I 
ATOM     10  F2  UNL d   1       0.739   0.383   3.056  0.00  0.00    -0.096 F 
ATOM     11  F3  UNL d   1       1.754   2.830   2.490  0.00  0.00    -0.097 F 
ATOM     12  F4  UNL d   1       1.678   3.799  -0.059  0.00  0.00    -0.092 F 
ENDROOT
TORSDOF 0
ENDMDL
