MODEL 1
REMARK minimizedAffinity -2.73265409
REMARK minimizedRMSD -1
REMARK  0 active torsions:
REMARK  status: ('A' for Active; 'I' for Inactive)
ROOT
ATOM      1  C   UNL d   1      -0.689  -2.179  -0.712  0.00  0.00     0.124 A 
ATOM      2  C1  UNL d   1      -0.992  -1.767   0.578  0.00  0.00     0.062 A 
ATOM      3  C2  UNL d   1      -0.757  -0.452   0.967  0.00  0.00     0.162 A 
ATOM      4  C3  UNL d   1      -0.217   0.463   0.063  0.00  0.00    -0.034 A 
ATOM      5  C4  UNL d   1       0.086   0.042  -1.233  0.00  0.00     0.162 A 
ATOM      6  C5  UNL d   1      -0.150  -1.275  -1.616  0.00  0.00     0.062 A 
ATOM      7  F   UNL d   1       0.143  -1.671  -2.863  0.00  0.00    -0.097 F 
ATOM      8  F1  UNL d   1       0.607   0.895  -2.127  0.00  0.00    -0.096 F 
ATOM      9  I   UNL d   1       0.136   2.432   0.640  0.00  0.00    -0.060 I 
ATOM     10  F2  UNL d   1      -1.060  -0.082   2.220  0.00  0.00    -0.096 F 
ATOM     11  F3  UNL d   1      -1.512  -2.640   1.454  0.00  0.00    -0.097 F 
ATOM     12  F4  UNL d   1      -0.915  -3.446  -1.083  0.00  0.00    -0.092 F 
ENDROOT
TORSDOF 0
ENDMDL
