MODEL 1
REMARK minimizedAffinity -3.12512541
REMARK minimizedRMSD -1
REMARK  0 active torsions:
REMARK  status: ('A' for Active; 'I' for Inactive)
ROOT
ATOM      1  C   UNL d   1       1.053   3.287   0.072  0.00  0.00     0.124 A 
ATOM      2  C1  UNL d   1      -0.282   3.000  -0.181  0.00  0.00     0.062 A 
ATOM      3  C2  UNL d   1      -0.741   1.688  -0.110  0.00  0.00     0.162 A 
ATOM      4  C3  UNL d   1       0.135   0.652   0.216  0.00  0.00    -0.034 A 
ATOM      5  C4  UNL d   1       1.476   0.949   0.468  0.00  0.00     0.162 A 
ATOM      6  C5  UNL d   1       1.930   2.261   0.396  0.00  0.00     0.062 A 
ATOM      7  F   UNL d   1       3.219   2.537   0.640  0.00  0.00    -0.097 F 
ATOM      8  F1  UNL d   1       2.345  -0.023   0.784  0.00  0.00    -0.096 F 
ATOM      9  I   UNL d   1      -0.548  -1.311   0.323  0.00  0.00    -0.060 I 
ATOM     10  F2  UNL d   1      -2.035   1.440  -0.359  0.00  0.00    -0.096 F 
ATOM     11  F3  UNL d   1      -1.131   3.989  -0.495  0.00  0.00    -0.097 F 
ATOM     12  F4  UNL d   1       1.492   4.550   0.002  0.00  0.00    -0.092 F 
ENDROOT
TORSDOF 0
ENDMDL
