MODEL 1
REMARK minimizedAffinity -1.82288742
REMARK minimizedRMSD -1
REMARK  0 active torsions:
REMARK  status: ('A' for Active; 'I' for Inactive)
ROOT
ATOM      1  C   UNL d   1       0.751   2.397   1.461  0.00  0.00     0.124 A 
ATOM      2  C1  UNL d   1       0.922   1.116   1.968  0.00  0.00     0.062 A 
ATOM      3  C2  UNL d   1       0.566   0.008   1.204  0.00  0.00     0.162 A 
ATOM      4  C3  UNL d   1       0.038   0.176  -0.076  0.00  0.00    -0.034 A 
ATOM      5  C4  UNL d   1      -0.132   1.468  -0.578  0.00  0.00     0.162 A 
ATOM      6  C5  UNL d   1       0.224   2.571   0.189  0.00  0.00     0.062 A 
ATOM      7  F   UNL d   1       0.059   3.808  -0.301  0.00  0.00    -0.097 F 
ATOM      8  F1  UNL d   1      -0.638   1.665  -1.805  0.00  0.00    -0.096 F 
ATOM      9  I   UNL d   1      -0.495  -1.478  -1.222  0.00  0.00    -0.060 I 
ATOM     10  F2  UNL d   1       0.742  -1.218   1.718  0.00  0.00    -0.096 F 
ATOM     11  F3  UNL d   1       1.429   0.944   3.197  0.00  0.00    -0.097 F 
ATOM     12  F4  UNL d   1       1.093   3.461   2.199  0.00  0.00    -0.092 F 
ENDROOT
TORSDOF 0
ENDMDL
