MODEL 1
REMARK minimizedAffinity -1.29751837
REMARK minimizedRMSD -1
REMARK  0 active torsions:
REMARK  status: ('A' for Active; 'I' for Inactive)
ROOT
ATOM      1  C   UNL d   1      -0.394  -1.693   0.169  0.00  0.00     0.124 A 
ATOM      2  C1  UNL d   1      -0.073  -1.296   1.460  0.00  0.00     0.062 A 
ATOM      3  C2  UNL d   1       0.383  -0.004   1.702  0.00  0.00     0.162 A 
ATOM      4  C3  UNL d   1       0.522   0.902   0.651  0.00  0.00    -0.034 A 
ATOM      5  C4  UNL d   1       0.198   0.496  -0.645  0.00  0.00     0.162 A 
ATOM      6  C5  UNL d   1      -0.258  -0.797  -0.882  0.00  0.00     0.062 A 
ATOM      7  F   UNL d   1      -0.567  -1.178  -2.130  0.00  0.00    -0.097 F 
ATOM      8  F1  UNL d   1       0.320   1.342  -1.679  0.00  0.00    -0.096 F 
ATOM      9  I   UNL d   1       1.205   2.835   1.009  0.00  0.00    -0.060 I 
ATOM     10  F2  UNL d   1       0.686   0.352   2.960  0.00  0.00    -0.096 F 
ATOM     11  F3  UNL d   1      -0.203  -2.160   2.477  0.00  0.00    -0.097 F 
ATOM     12  F4  UNL d   1      -0.832  -2.937  -0.061  0.00  0.00    -0.092 F 
ENDROOT
TORSDOF 0
ENDMDL
