MODEL 1
REMARK minimizedAffinity 0.452301413
REMARK minimizedRMSD -1
REMARK  0 active torsions:
REMARK  status: ('A' for Active; 'I' for Inactive)
ROOT
ATOM      1  C   UNL d   1      -0.383  -2.585  -1.045  0.00  0.00     0.124 A 
ATOM      2  C1  UNL d   1      -0.323  -2.181   0.282  0.00  0.00     0.062 A 
ATOM      3  C2  UNL d   1      -0.147  -0.836   0.596  0.00  0.00     0.162 A 
ATOM      4  C3  UNL d   1      -0.030   0.114  -0.418  0.00  0.00    -0.034 A 
ATOM      5  C4  UNL d   1      -0.090  -0.300  -1.749  0.00  0.00     0.162 A 
ATOM      6  C5  UNL d   1      -0.266  -1.645  -2.059  0.00  0.00     0.062 A 
ATOM      7  F   UNL d   1      -0.323  -2.034  -3.341  0.00  0.00    -0.097 F 
ATOM      8  F1  UNL d   1       0.019   0.587  -2.749  0.00  0.00    -0.096 F 
ATOM      9  I   UNL d   1       0.234   2.125   0.048  0.00  0.00    -0.060 I 
ATOM     10  F2  UNL d   1      -0.093  -0.474   1.887  0.00  0.00    -0.096 F 
ATOM     11  F3  UNL d   1      -0.434  -3.087   1.263  0.00  0.00    -0.097 F 
ATOM     12  F4  UNL d   1      -0.551  -3.880  -1.345  0.00  0.00    -0.092 F 
ENDROOT
TORSDOF 0
ENDMDL
