MODEL 1
REMARK minimizedAffinity 4.33919716
REMARK minimizedRMSD -1
REMARK  0 active torsions:
REMARK  status: ('A' for Active; 'I' for Inactive)
ROOT
ATOM      1  C   UNL d   1      -0.560  -0.763   1.155  0.00  0.00     0.124 A 
ATOM      2  C1  UNL d   1      -0.257   0.080   0.094  0.00  0.00     0.062 A 
ATOM      3  C2  UNL d   1      -0.195  -0.423  -1.203  0.00  0.00     0.162 A 
ATOM      4  C3  UNL d   1      -0.437  -1.775  -1.446  0.00  0.00    -0.034 A 
ATOM      5  C4  UNL d   1      -0.740  -2.616  -0.374  0.00  0.00     0.162 A 
ATOM      6  C5  UNL d   1      -0.802  -2.109   0.920  0.00  0.00     0.062 A 
ATOM      7  F   UNL d   1      -1.095  -2.924   1.944  0.00  0.00    -0.097 F 
ATOM      8  F1  UNL d   1      -0.979  -3.920  -0.573  0.00  0.00    -0.096 F 
ATOM      9  I   UNL d   1      -0.344  -2.529  -3.384  0.00  0.00    -0.060 I 
ATOM     10  F2  UNL d   1       0.101   0.414  -2.209  0.00  0.00    -0.096 F 
ATOM     11  F3  UNL d   1      -0.023   1.380   0.318  0.00  0.00    -0.097 F 
ATOM     12  F4  UNL d   1      -0.619  -0.277   2.401  0.00  0.00    -0.092 F 
ENDROOT
TORSDOF 0
ENDMDL
