MODEL 1
REMARK minimizedAffinity -2.44127369
REMARK minimizedRMSD -1
REMARK  0 active torsions:
REMARK  status: ('A' for Active; 'I' for Inactive)
ROOT
ATOM      1  C   UNL d   1      -0.703  -2.552  -0.554  0.00  0.00     0.124 A 
ATOM      2  C1  UNL d   1      -0.745  -2.037   0.734  0.00  0.00     0.062 A 
ATOM      3  C2  UNL d   1      -0.439  -0.698   0.962  0.00  0.00     0.162 A 
ATOM      4  C3  UNL d   1      -0.089   0.135  -0.100  0.00  0.00    -0.034 A 
ATOM      5  C4  UNL d   1      -0.048  -0.391  -1.393  0.00  0.00     0.162 A 
ATOM      6  C5  UNL d   1      -0.355  -1.729  -1.616  0.00  0.00     0.062 A 
ATOM      7  F   UNL d   1      -0.314  -2.225  -2.861  0.00  0.00    -0.097 F 
ATOM      8  F1  UNL d   1       0.284   0.383  -2.437  0.00  0.00    -0.096 F 
ATOM      9  I   UNL d   1       0.369   2.137   0.238  0.00  0.00    -0.060 I 
ATOM     10  F2  UNL d   1      -0.487  -0.227   2.217  0.00  0.00    -0.096 F 
ATOM     11  F3  UNL d   1      -1.080  -2.830   1.761  0.00  0.00    -0.097 F 
ATOM     12  F4  UNL d   1      -0.997  -3.840  -0.771  0.00  0.00    -0.092 F 
ENDROOT
TORSDOF 0
ENDMDL
