MODEL 1
REMARK minimizedAffinity 1.29475117
REMARK minimizedRMSD -1
REMARK  0 active torsions:
REMARK  status: ('A' for Active; 'I' for Inactive)
ROOT
ATOM      1  C   UNL d   1       5.216   5.152   2.882  0.00  0.00     0.077 C 
ATOM      2  C1  UNL d   1       4.773   4.177   1.832  0.00  0.00    -0.074 A 
ATOM      3  C2  UNL d   1       5.670   3.699   0.872  0.00  0.00    -0.005 A 
ATOM      4  C3  UNL d   1       5.246   2.785  -0.093  0.00  0.00     0.006 A 
ATOM      5  C4  UNL d   1       3.924   2.341  -0.107  0.00  0.00    -0.005 A 
ATOM      6  C5  UNL d   1       3.013   2.808   0.846  0.00  0.00    -0.074 A 
ATOM      7  C6  UNL d   1       1.590   2.333   0.851  0.00  0.00     0.077 C 
ATOM      8  C7  UNL d   1       3.448   3.721   1.816  0.00  0.00    -0.001 A 
ENDROOT
TORSDOF 0
ENDMDL
