MODEL 1
REMARK minimizedAffinity -0.607544303
REMARK minimizedRMSD -1
REMARK  0 active torsions:
REMARK  status: ('A' for Active; 'I' for Inactive)
ROOT
ATOM      1  C   UNL d   1       1.682  -5.988  -5.640  0.00  0.00     0.077 C 
ATOM      2  C1  UNL d   1       3.086  -5.883  -5.124  0.00  0.00    -0.074 A 
ATOM      3  C2  UNL d   1       4.158  -5.666  -5.996  0.00  0.00    -0.005 A 
ATOM      4  C3  UNL d   1       5.457  -5.560  -5.500  0.00  0.00     0.006 A 
ATOM      5  C4  UNL d   1       5.698  -5.671  -4.130  0.00  0.00    -0.005 A 
ATOM      6  C5  UNL d   1       4.639  -5.887  -3.243  0.00  0.00    -0.074 A 
ATOM      7  C6  UNL d   1       4.879  -5.999  -1.767  0.00  0.00     0.077 C 
ATOM      8  C7  UNL d   1       3.335  -5.985  -3.748  0.00  0.00    -0.001 A 
ENDROOT
TORSDOF 0
ENDMDL
