MODEL 1
REMARK minimizedAffinity -0.979930401
REMARK minimizedRMSD -1
REMARK  0 active torsions:
REMARK  status: ('A' for Active; 'I' for Inactive)
ROOT
ATOM      1  C   UNL d   1       5.766  -2.977  -3.459  0.00  0.00     0.077 C 
ATOM      2  C1  UNL d   1       5.179  -4.028  -4.353  0.00  0.00    -0.074 A 
ATOM      3  C2  UNL d   1       6.000  -4.845  -5.137  0.00  0.00    -0.005 A 
ATOM      4  C3  UNL d   1       5.440  -5.825  -5.956  0.00  0.00     0.006 A 
ATOM      5  C4  UNL d   1       4.056  -5.998  -6.000  0.00  0.00    -0.005 A 
ATOM      6  C5  UNL d   1       3.219  -5.191  -5.222  0.00  0.00    -0.074 A 
ATOM      7  C6  UNL d   1       1.731  -5.370  -5.249  0.00  0.00     0.077 C 
ATOM      8  C7  UNL d   1       3.790  -4.213  -4.396  0.00  0.00    -0.001 A 
ENDROOT
TORSDOF 0
ENDMDL
