MODEL 1
REMARK minimizedAffinity 16.3278408
REMARK minimizedRMSD -1
REMARK  0 active torsions:
REMARK  status: ('A' for Active; 'I' for Inactive)
ROOT
ATOM      1  C   UNL d   1      -1.877  -1.884   0.673  0.00  0.00     0.077 C 
ATOM      2  C1  UNL d   1      -1.529  -0.509   1.163  0.00  0.00    -0.074 A 
ATOM      3  C2  UNL d   1      -2.071  -0.012   2.353  0.00  0.00    -0.005 A 
ATOM      4  C3  UNL d   1      -1.731   1.264   2.801  0.00  0.00     0.006 A 
ATOM      5  C4  UNL d   1      -0.848   2.055   2.065  0.00  0.00    -0.005 A 
ATOM      6  C5  UNL d   1      -0.296   1.575   0.873  0.00  0.00    -0.074 A 
ATOM      7  C6  UNL d   1       0.662   2.408   0.075  0.00  0.00     0.077 C 
ATOM      8  C7  UNL d   1      -0.637   0.288   0.433  0.00  0.00    -0.001 A 
ENDROOT
TORSDOF 0
ENDMDL
