MODEL 1
REMARK minimizedAffinity 15.2763414
REMARK minimizedRMSD -1
REMARK  0 active torsions:
REMARK  status: ('A' for Active; 'I' for Inactive)
ROOT
ATOM      1  C   UNL d   1       3.203   0.632   0.750  0.00  0.00     0.077 C 
ATOM      2  C1  UNL d   1       1.887   1.341   0.873  0.00  0.00    -0.074 A 
ATOM      3  C2  UNL d   1       1.186   1.758  -0.263  0.00  0.00    -0.005 A 
ATOM      4  C3  UNL d   1      -0.041   2.408  -0.133  0.00  0.00     0.006 A 
ATOM      5  C4  UNL d   1      -0.578   2.648   1.132  0.00  0.00    -0.005 A 
ATOM      6  C5  UNL d   1       0.108   2.238   2.280  0.00  0.00    -0.074 A 
ATOM      7  C6  UNL d   1      -0.461   2.479   3.647  0.00  0.00     0.077 C 
ATOM      8  C7  UNL d   1       1.337   1.579   2.141  0.00  0.00    -0.001 A 
ENDROOT
TORSDOF 0
ENDMDL
