MODEL 1
REMARK minimizedAffinity 15.1387548
REMARK minimizedRMSD -1
REMARK  0 active torsions:
REMARK  status: ('A' for Active; 'I' for Inactive)
ROOT
ATOM      1  C   UNL d   1       2.739  -4.850  -1.733  0.00  0.00     0.077 C 
ATOM      2  C1  UNL d   1       2.889  -4.980  -3.220  0.00  0.00    -0.074 A 
ATOM      3  C2  UNL d   1       2.111  -5.888  -3.944  0.00  0.00    -0.005 A 
ATOM      4  C3  UNL d   1       2.255  -5.991  -5.328  0.00  0.00     0.006 A 
ATOM      5  C4  UNL d   1       3.177  -5.187  -6.000  0.00  0.00    -0.005 A 
ATOM      6  C5  UNL d   1       3.964  -4.273  -5.292  0.00  0.00    -0.074 A 
ATOM      7  C6  UNL d   1       4.952  -3.395  -6.000  0.00  0.00     0.077 C 
ATOM      8  C7  UNL d   1       3.808  -4.171  -3.903  0.00  0.00    -0.001 A 
ENDROOT
TORSDOF 0
ENDMDL
