MODEL 1
REMARK minimizedAffinity 9.70161533
REMARK minimizedRMSD -1
REMARK  0 active torsions:
REMARK  status: ('A' for Active; 'I' for Inactive)
ROOT
ATOM      1  C   UNL d   1       5.475   5.192   4.262  0.00  0.00     0.077 C 
ATOM      2  C1  UNL d   1       4.681   4.879   3.028  0.00  0.00    -0.074 A 
ATOM      3  C2  UNL d   1       4.450   5.857   2.055  0.00  0.00    -0.005 A 
ATOM      4  C3  UNL d   1       3.718   5.549   0.908  0.00  0.00     0.006 A 
ATOM      5  C4  UNL d   1       3.211   4.262   0.723  0.00  0.00    -0.005 A 
ATOM      6  C5  UNL d   1       3.433   3.271   1.684  0.00  0.00    -0.074 A 
ATOM      7  C6  UNL d   1       2.904   1.880   1.496  0.00  0.00     0.077 C 
ATOM      8  C7  UNL d   1       4.175   3.586   2.831  0.00  0.00    -0.001 A 
ENDROOT
TORSDOF 0
ENDMDL
