MODEL 1
REMARK minimizedAffinity 10.1672726
REMARK minimizedRMSD -1
REMARK  0 active torsions:
REMARK  status: ('A' for Active; 'I' for Inactive)
ROOT
ATOM      1  C   UNL d   1      -2.285  -5.086  -1.154  0.00  0.00     0.077 C 
ATOM      2  C1  UNL d   1      -1.957  -4.117  -0.057  0.00  0.00    -0.074 A 
ATOM      3  C2  UNL d   1      -1.819  -2.751  -0.321  0.00  0.00    -0.005 A 
ATOM      4  C3  UNL d   1      -1.522  -1.861   0.711  0.00  0.00     0.006 A 
ATOM      5  C4  UNL d   1      -1.362  -2.327   2.016  0.00  0.00    -0.005 A 
ATOM      6  C5  UNL d   1      -1.497  -3.690   2.300  0.00  0.00    -0.074 A 
ATOM      7  C6  UNL d   1      -1.337  -4.206   3.699  0.00  0.00     0.077 C 
ATOM      8  C7  UNL d   1      -1.802  -4.577   1.259  0.00  0.00    -0.001 A 
ENDROOT
TORSDOF 0
ENDMDL
