MODEL 1
REMARK minimizedAffinity 7.93725872
REMARK minimizedRMSD -1
REMARK  0 active torsions:
REMARK  status: ('A' for Active; 'I' for Inactive)
ROOT
ATOM      1  C   UNL d   1       2.744  -5.616  -1.706  0.00  0.00     0.077 C 
ATOM      2  C1  UNL d   1       2.699  -5.508  -3.201  0.00  0.00    -0.074 A 
ATOM      3  C2  UNL d   1       1.606  -5.995  -3.924  0.00  0.00    -0.005 A 
ATOM      4  C3  UNL d   1       1.574  -5.879  -5.314  0.00  0.00     0.006 A 
ATOM      5  C4  UNL d   1       2.634  -5.276  -5.993  0.00  0.00    -0.005 A 
ATOM      6  C5  UNL d   1       3.735  -4.782  -5.286  0.00  0.00    -0.074 A 
ATOM      7  C6  UNL d   1       4.878  -4.123  -6.000  0.00  0.00     0.077 C 
ATOM      8  C7  UNL d   1       3.756  -4.896  -3.890  0.00  0.00    -0.001 A 
ENDROOT
TORSDOF 0
ENDMDL
