MODEL 1
REMARK minimizedAffinity -0.445998073
REMARK minimizedRMSD -1
REMARK  0 active torsions:
REMARK  status: ('A' for Active; 'I' for Inactive)
ROOT
ATOM      1  C   UNL d   1       3.832   1.850  -1.088  0.00  0.00     0.077 C 
ATOM      2  C1  UNL d   1       2.932   2.182   0.065  0.00  0.00    -0.074 A 
ATOM      3  C2  UNL d   1       3.441   2.300   1.363  0.00  0.00    -0.005 A 
ATOM      4  C3  UNL d   1       2.593   2.619   2.424  0.00  0.00     0.006 A 
ATOM      5  C4  UNL d   1       1.231   2.822   2.199  0.00  0.00    -0.005 A 
ATOM      6  C5  UNL d   1       0.705   2.710   0.908  0.00  0.00    -0.074 A 
ATOM      7  C6  UNL d   1      -0.755   2.935   0.647  0.00  0.00     0.077 C 
ATOM      8  C7  UNL d   1       1.564   2.396  -0.154  0.00  0.00    -0.001 A 
ENDROOT
TORSDOF 0
ENDMDL
