MODEL 1
REMARK minimizedAffinity -1.92724395
REMARK minimizedRMSD -1
REMARK  0 active torsions:
REMARK  status: ('A' for Active; 'I' for Inactive)
ROOT
ATOM      1  C   UNL d   1       4.097  -6.000  -6.000  0.00  0.00     0.077 C 
ATOM      2  C1  UNL d   1       4.161  -5.492  -4.590  0.00  0.00    -0.074 A 
ATOM      3  C2  UNL d   1       5.278  -4.788  -4.129  0.00  0.00    -0.005 A 
ATOM      4  C3  UNL d   1       5.320  -4.314  -2.818  0.00  0.00     0.006 A 
ATOM      5  C4  UNL d   1       4.246  -4.538  -1.956  0.00  0.00    -0.005 A 
ATOM      6  C5  UNL d   1       3.120  -5.239  -2.399  0.00  0.00    -0.074 A 
ATOM      7  C6  UNL d   1       1.953  -5.480  -1.488  0.00  0.00     0.077 C 
ATOM      8  C7  UNL d   1       3.083  -5.706  -3.720  0.00  0.00    -0.001 A 
ENDROOT
TORSDOF 0
ENDMDL
