MODEL 1
REMARK minimizedAffinity 6.6990509
REMARK minimizedRMSD -1
REMARK  0 active torsions:
REMARK  status: ('A' for Active; 'I' for Inactive)
ROOT
ATOM      1  C   UNL d   1      -5.988   1.776  -2.401  0.00  0.00     0.077 C 
ATOM      2  C1  UNL d   1      -5.379   2.367  -3.637  0.00  0.00    -0.074 A 
ATOM      3  C2  UNL d   1      -4.279   1.764  -4.256  0.00  0.00    -0.005 A 
ATOM      4  C3  UNL d   1      -3.729   2.320  -5.411  0.00  0.00     0.006 A 
ATOM      5  C4  UNL d   1      -4.271   3.484  -5.957  0.00  0.00    -0.005 A 
ATOM      6  C5  UNL d   1      -5.371   4.101  -5.353  0.00  0.00    -0.074 A 
ATOM      7  C6  UNL d   1      -5.972   5.347  -5.932  0.00  0.00     0.077 C 
ATOM      8  C7  UNL d   1      -5.923   3.532  -4.197  0.00  0.00    -0.001 A 
ENDROOT
TORSDOF 0
ENDMDL
