MODEL 1
REMARK minimizedAffinity 5.74103928
REMARK minimizedRMSD -1
REMARK  0 active torsions:
REMARK  status: ('A' for Active; 'I' for Inactive)
ROOT
ATOM      1  C   UNL d   1       0.314  -5.996   5.085  0.00  0.00     0.077 C 
ATOM      2  C1  UNL d   1       0.153  -5.431   3.705  0.00  0.00    -0.074 A 
ATOM      3  C2  UNL d   1      -0.744  -6.000   2.795  0.00  0.00    -0.005 A 
ATOM      4  C3  UNL d   1      -0.889  -5.457   1.518  0.00  0.00     0.006 A 
ATOM      5  C4  UNL d   1      -0.140  -4.342   1.139  0.00  0.00    -0.005 A 
ATOM      6  C5  UNL d   1       0.761  -3.759   2.035  0.00  0.00    -0.074 A 
ATOM      7  C6  UNL d   1       1.566  -2.555   1.647  0.00  0.00     0.077 C 
ATOM      8  C7  UNL d   1       0.896  -4.306   3.319  0.00  0.00    -0.001 A 
ENDROOT
TORSDOF 0
ENDMDL
