MODEL 1
REMARK minimizedAffinity 11.4878407
REMARK minimizedRMSD -1
REMARK  0 active torsions:
REMARK  status: ('A' for Active; 'I' for Inactive)
ROOT
ATOM      1  C   UNL d   1       5.420   4.414  -6.000  0.00  0.00     0.077 C 
ATOM      2  C1  UNL d   1       4.523   3.393  -5.366  0.00  0.00    -0.074 A 
ATOM      3  C2  UNL d   1       3.216   3.199  -5.826  0.00  0.00    -0.005 A 
ATOM      4  C3  UNL d   1       2.397   2.239  -5.233  0.00  0.00     0.006 A 
ATOM      5  C4  UNL d   1       2.874   1.464  -4.175  0.00  0.00    -0.005 A 
ATOM      6  C5  UNL d   1       4.178   1.644  -3.702  0.00  0.00    -0.074 A 
ATOM      7  C6  UNL d   1       4.710   0.813  -2.572  0.00  0.00     0.077 C 
ATOM      8  C7  UNL d   1       4.998   2.605  -4.308  0.00  0.00    -0.001 A 
ENDROOT
TORSDOF 0
ENDMDL
