MODEL 1
REMARK minimizedAffinity 2.84276438
REMARK minimizedRMSD -1
REMARK  0 active torsions:
REMARK  status: ('A' for Active; 'I' for Inactive)
ROOT
ATOM      1  C   UNL d   1       2.594  -0.557   0.065  0.00  0.00     0.077 C 
ATOM      2  C1  UNL d   1       2.043   0.825   0.257  0.00  0.00    -0.074 A 
ATOM      3  C2  UNL d   1       2.857   1.951   0.102  0.00  0.00    -0.005 A 
ATOM      4  C3  UNL d   1       2.327   3.230   0.275  0.00  0.00     0.006 A 
ATOM      5  C4  UNL d   1       0.982   3.395   0.604  0.00  0.00    -0.005 A 
ATOM      6  C5  UNL d   1       0.152   2.280   0.763  0.00  0.00    -0.074 A 
ATOM      7  C6  UNL d   1      -1.299   2.440   1.108  0.00  0.00     0.077 C 
ATOM      8  C7  UNL d   1       0.690   0.999   0.581  0.00  0.00    -0.001 A 
ENDROOT
TORSDOF 0
ENDMDL
