MODEL 1
REMARK minimizedAffinity 3.96425867
REMARK minimizedRMSD -1
REMARK  0 active torsions:
REMARK  status: ('A' for Active; 'I' for Inactive)
ROOT
ATOM      1  C   UNL d   1       1.494   1.135  -3.765  0.00  0.00     0.077 C 
ATOM      2  C1  UNL d   1       1.873   0.608  -2.413  0.00  0.00    -0.074 A 
ATOM      3  C2  UNL d   1       2.057  -0.762  -2.201  0.00  0.00    -0.005 A 
ATOM      4  C3  UNL d   1       2.419  -1.236  -0.940  0.00  0.00     0.006 A 
ATOM      5  C4  UNL d   1       2.601  -0.347   0.120  0.00  0.00    -0.005 A 
ATOM      6  C5  UNL d   1       2.423   1.026  -0.073  0.00  0.00    -0.074 A 
ATOM      7  C6  UNL d   1       2.624   1.997   1.052  0.00  0.00     0.077 C 
ATOM      8  C7  UNL d   1       2.066   1.496  -1.345  0.00  0.00    -0.001 A 
ENDROOT
TORSDOF 0
ENDMDL
