MODEL 1
REMARK minimizedAffinity 11.1603909
REMARK minimizedRMSD -1
REMARK  0 active torsions:
REMARK  status: ('A' for Active; 'I' for Inactive)
ROOT
ATOM      1  C   UNL d   1      -1.143   1.451   2.026  0.00  0.00     0.077 C 
ATOM      2  C1  UNL d   1       0.049   2.051   1.342  0.00  0.00    -0.074 A 
ATOM      3  C2  UNL d   1      -0.108   2.995   0.322  0.00  0.00    -0.005 A 
ATOM      4  C3  UNL d   1       1.011   3.551  -0.299  0.00  0.00     0.006 A 
ATOM      5  C4  UNL d   1       2.294   3.169   0.093  0.00  0.00    -0.005 A 
ATOM      6  C5  UNL d   1       2.470   2.228   1.112  0.00  0.00    -0.074 A 
ATOM      7  C6  UNL d   1       3.843   1.814   1.552  0.00  0.00     0.077 C 
ATOM      8  C7  UNL d   1       1.342   1.679   1.735  0.00  0.00    -0.001 A 
ENDROOT
TORSDOF 0
ENDMDL
