MODEL 1
REMARK minimizedAffinity 1.09482527
REMARK minimizedRMSD -1
REMARK  0 active torsions:
REMARK  status: ('A' for Active; 'I' for Inactive)
ROOT
ATOM      1  C   UNL d   1      -5.967   1.768  -1.918  0.00  0.00     0.078 C 
ATOM      2  C1  UNL d   1      -5.495   1.899  -3.335  0.00  0.00    -0.077 A 
ATOM      3  C2  UNL d   1      -4.562   2.879  -3.697  0.00  0.00    -0.001 A 
ATOM      4  C3  UNL d   1      -4.140   2.997  -5.022  0.00  0.00     0.003 A 
ATOM      5  C4  UNL d   1      -4.645   2.138  -5.996  0.00  0.00    -0.005 A 
ATOM      6  C5  UNL d   1      -5.575   1.161  -5.646  0.00  0.00     0.003 A 
ATOM      7  C6  UNL d   1      -5.999   1.042  -4.322  0.00  0.00    -0.001 A 
ENDROOT
TORSDOF 0
ENDMDL
