MODEL 1
REMARK minimizedAffinity 1.41801083
REMARK minimizedRMSD -1
REMARK  0 active torsions:
REMARK  status: ('A' for Active; 'I' for Inactive)
ROOT
ATOM      1  C   UNL d   1      -0.001   2.646   0.157  0.00  0.00     0.078 C 
ATOM      2  C1  UNL d   1      -0.111   3.813  -0.778  0.00  0.00    -0.077 A 
ATOM      3  C2  UNL d   1      -1.051   3.819  -1.816  0.00  0.00    -0.001 A 
ATOM      4  C3  UNL d   1      -1.135   4.908  -2.685  0.00  0.00     0.003 A 
ATOM      5  C4  UNL d   1      -0.282   5.998  -2.526  0.00  0.00    -0.005 A 
ATOM      6  C5  UNL d   1       0.658   6.000  -1.497  0.00  0.00     0.003 A 
ATOM      7  C6  UNL d   1       0.744   4.912  -0.627  0.00  0.00    -0.001 A 
ENDROOT
TORSDOF 0
ENDMDL
