MODEL 1
REMARK minimizedAffinity 2.00270987
REMARK minimizedRMSD -1
REMARK  0 active torsions:
REMARK  status: ('A' for Active; 'I' for Inactive)
ROOT
ATOM      1  C   UNL d   1      -1.845   5.275  -2.216  0.00  0.00     0.078 C 
ATOM      2  C1  UNL d   1      -0.494   4.981  -1.636  0.00  0.00    -0.077 A 
ATOM      3  C2  UNL d   1       0.611   5.786  -1.938  0.00  0.00    -0.001 A 
ATOM      4  C3  UNL d   1       1.865   5.494  -1.398  0.00  0.00     0.003 A 
ATOM      5  C4  UNL d   1       2.025   4.397  -0.554  0.00  0.00    -0.005 A 
ATOM      6  C5  UNL d   1       0.932   3.589  -0.250  0.00  0.00     0.003 A 
ATOM      7  C6  UNL d   1      -0.323   3.879  -0.788  0.00  0.00    -0.001 A 
ENDROOT
TORSDOF 0
ENDMDL
