MODEL 1
REMARK minimizedAffinity 8.44373512
REMARK minimizedRMSD -1
REMARK  0 active torsions:
REMARK  status: ('A' for Active; 'I' for Inactive)
ROOT
ATOM      1  C   UNL d   1       1.113  -5.166  -0.761  0.00  0.00     0.078 C 
ATOM      2  C1  UNL d   1       2.591  -4.913  -0.731  0.00  0.00    -0.077 A 
ATOM      3  C2  UNL d   1       3.099  -3.609  -0.683  0.00  0.00    -0.001 A 
ATOM      4  C3  UNL d   1       4.477  -3.388  -0.665  0.00  0.00     0.003 A 
ATOM      5  C4  UNL d   1       5.359  -4.466  -0.697  0.00  0.00    -0.005 A 
ATOM      6  C5  UNL d   1       4.863  -5.768  -0.747  0.00  0.00     0.003 A 
ATOM      7  C6  UNL d   1       3.485  -5.991  -0.765  0.00  0.00    -0.001 A 
ENDROOT
TORSDOF 0
ENDMDL
