MODEL 1
REMARK minimizedAffinity 9.92344284
REMARK minimizedRMSD -1
REMARK  0 active torsions:
REMARK  status: ('A' for Active; 'I' for Inactive)
ROOT
ATOM      1  C   UNL d   1      -0.277   0.677  -0.115  0.00  0.00     0.078 C 
ATOM      2  C1  UNL d   1      -0.341   2.146  -0.407  0.00  0.00    -0.077 A 
ATOM      3  C2  UNL d   1      -0.740   3.060   0.577  0.00  0.00    -0.001 A 
ATOM      4  C3  UNL d   1      -0.805   4.424   0.289  0.00  0.00     0.003 A 
ATOM      5  C4  UNL d   1      -0.474   4.887  -0.984  0.00  0.00    -0.005 A 
ATOM      6  C5  UNL d   1      -0.079   3.985  -1.969  0.00  0.00     0.003 A 
ATOM      7  C6  UNL d   1      -0.013   2.620  -1.683  0.00  0.00    -0.001 A 
ENDROOT
TORSDOF 0
ENDMDL
