MODEL 1
REMARK minimizedAffinity 0.926164746
REMARK minimizedRMSD -1
REMARK  0 active torsions:
REMARK  status: ('A' for Active; 'I' for Inactive)
ROOT
ATOM      1  C   UNL d   1       1.821   3.378   0.997  0.00  0.00     0.078 C 
ATOM      2  C1  UNL d   1       0.730   3.807   0.062  0.00  0.00    -0.077 A 
ATOM      3  C2  UNL d   1       0.905   3.750  -1.326  0.00  0.00    -0.001 A 
ATOM      4  C3  UNL d   1      -0.116   4.162  -2.184  0.00  0.00     0.003 A 
ATOM      5  C4  UNL d   1      -1.319   4.634  -1.664  0.00  0.00    -0.005 A 
ATOM      6  C5  UNL d   1      -1.502   4.697  -0.284  0.00  0.00     0.003 A 
ATOM      7  C6  UNL d   1      -0.482   4.285   0.575  0.00  0.00    -0.001 A 
ENDROOT
TORSDOF 0
ENDMDL
