MODEL 1
REMARK minimizedAffinity 6.66774416
REMARK minimizedRMSD -1
REMARK  0 active torsions:
REMARK  status: ('A' for Active; 'I' for Inactive)
ROOT
ATOM      1  C   UNL d   1       0.796   2.844   0.382  0.00  0.00     0.078 C 
ATOM      2  C1  UNL d   1       0.006   3.854  -0.396  0.00  0.00    -0.077 A 
ATOM      3  C2  UNL d   1      -0.372   5.073   0.179  0.00  0.00    -0.001 A 
ATOM      4  C3  UNL d   1      -1.115   5.999  -0.553  0.00  0.00     0.003 A 
ATOM      5  C4  UNL d   1      -1.489   5.716  -1.866  0.00  0.00    -0.005 A 
ATOM      6  C5  UNL d   1      -1.119   4.504  -2.446  0.00  0.00     0.003 A 
ATOM      7  C6  UNL d   1      -0.375   3.577  -1.715  0.00  0.00    -0.001 A 
ENDROOT
TORSDOF 0
ENDMDL
