MODEL 1
REMARK minimizedAffinity 4.63724566
REMARK minimizedRMSD -1
REMARK  0 active torsions:
REMARK  status: ('A' for Active; 'I' for Inactive)
ROOT
ATOM      1  C   UNL d   1       5.983  -4.506  -0.761  0.00  0.00     0.078 C 
ATOM      2  C1  UNL d   1       5.248  -4.961  -1.986  0.00  0.00    -0.077 A 
ATOM      3  C2  UNL d   1       3.985  -5.558  -1.890  0.00  0.00    -0.001 A 
ATOM      4  C3  UNL d   1       3.317  -5.985  -3.038  0.00  0.00     0.003 A 
ATOM      5  C4  UNL d   1       3.904  -5.821  -4.291  0.00  0.00    -0.005 A 
ATOM      6  C5  UNL d   1       5.161  -5.230  -4.397  0.00  0.00     0.003 A 
ATOM      7  C6  UNL d   1       5.831  -4.802  -3.250  0.00  0.00    -0.001 A 
ENDROOT
TORSDOF 0
ENDMDL
