MODEL 1
REMARK minimizedAffinity 9.37788391
REMARK minimizedRMSD -1
REMARK  0 active torsions:
REMARK  status: ('A' for Active; 'I' for Inactive)
ROOT
ATOM      1  C   UNL d   1       5.954  -6.000   1.136  0.00  0.00     0.078 C 
ATOM      2  C1  UNL d   1       5.587  -5.282  -0.128  0.00  0.00    -0.077 A 
ATOM      3  C2  UNL d   1       6.000  -3.963  -0.353  0.00  0.00    -0.001 A 
ATOM      4  C3  UNL d   1       5.642  -3.303  -1.530  0.00  0.00     0.003 A 
ATOM      5  C4  UNL d   1       4.870  -3.953  -2.490  0.00  0.00    -0.005 A 
ATOM      6  C5  UNL d   1       4.453  -5.265  -2.274  0.00  0.00     0.003 A 
ATOM      7  C6  UNL d   1       4.809  -5.927  -1.097  0.00  0.00    -0.001 A 
ENDROOT
TORSDOF 0
ENDMDL
