MODEL 1
REMARK minimizedAffinity 4.97461653
REMARK minimizedRMSD -1
REMARK  0 active torsions:
REMARK  status: ('A' for Active; 'I' for Inactive)
ROOT
ATOM      1  C   UNL d   1      -1.222  -3.735  -2.349  0.00  0.00     0.078 C 
ATOM      2  C1  UNL d   1      -0.123  -3.317  -1.419  0.00  0.00    -0.077 A 
ATOM      3  C2  UNL d   1       0.035  -1.977  -1.044  0.00  0.00    -0.001 A 
ATOM      4  C3  UNL d   1       1.069  -1.601  -0.185  0.00  0.00     0.003 A 
ATOM      5  C4  UNL d   1       1.954  -2.559   0.306  0.00  0.00    -0.005 A 
ATOM      6  C5  UNL d   1       1.806  -3.894  -0.063  0.00  0.00     0.003 A 
ATOM      7  C6  UNL d   1       0.773  -4.272  -0.922  0.00  0.00    -0.001 A 
ENDROOT
TORSDOF 0
ENDMDL
