MODEL 1
REMARK minimizedAffinity -2.94319367
REMARK minimizedRMSD -1
REMARK  0 active torsions:
REMARK  status: ('A' for Active; 'I' for Inactive)
ROOT
ATOM      1  C   UNL d   1       5.154  -5.069  -2.909  0.00  0.00     0.078 C 
ATOM      2  C1  UNL d   1       4.125  -4.165  -2.299  0.00  0.00    -0.077 A 
ATOM      3  C2  UNL d   1       4.410  -2.818  -2.045  0.00  0.00    -0.001 A 
ATOM      4  C3  UNL d   1       3.446  -1.989  -1.467  0.00  0.00     0.003 A 
ATOM      5  C4  UNL d   1       2.191  -2.500  -1.138  0.00  0.00    -0.005 A 
ATOM      6  C5  UNL d   1       1.900  -3.840  -1.385  0.00  0.00     0.003 A 
ATOM      7  C6  UNL d   1       2.863  -4.669  -1.962  0.00  0.00    -0.001 A 
ENDROOT
TORSDOF 0
ENDMDL
