MODEL 1
REMARK minimizedAffinity -0.343795359
REMARK minimizedRMSD -1
REMARK  0 active torsions:
REMARK  status: ('A' for Active; 'I' for Inactive)
ROOT
ATOM      1  C   UNL d   1       0.714   3.352  -0.131  0.00  0.00     0.078 C 
ATOM      2  C1  UNL d   1       0.540   2.134   0.727  0.00  0.00    -0.077 A 
ATOM      3  C2  UNL d   1       0.478   2.238   2.122  0.00  0.00    -0.001 A 
ATOM      4  C3  UNL d   1       0.326   1.095   2.908  0.00  0.00     0.003 A 
ATOM      5  C4  UNL d   1       0.235  -0.160   2.309  0.00  0.00    -0.005 A 
ATOM      6  C5  UNL d   1       0.298  -0.273   0.922  0.00  0.00     0.003 A 
ATOM      7  C6  UNL d   1       0.450   0.869   0.134  0.00  0.00    -0.001 A 
ENDROOT
TORSDOF 0
ENDMDL
