MODEL 1
REMARK minimizedAffinity -0.434865862
REMARK minimizedRMSD -1
REMARK  0 active torsions:
REMARK  status: ('A' for Active; 'I' for Inactive)
ROOT
ATOM      1  C   UNL d   1      -3.204   6.000   1.494  0.00  0.00     0.078 C 
ATOM      2  C1  UNL d   1      -2.402   5.140   0.564  0.00  0.00    -0.077 A 
ATOM      3  C2  UNL d   1      -1.504   4.185   1.058  0.00  0.00    -0.001 A 
ATOM      4  C3  UNL d   1      -0.757   3.398   0.180  0.00  0.00     0.003 A 
ATOM      5  C4  UNL d   1      -0.898   3.558  -1.197  0.00  0.00    -0.005 A 
ATOM      6  C5  UNL d   1      -1.787   4.508  -1.698  0.00  0.00     0.003 A 
ATOM      7  C6  UNL d   1      -2.535   5.296  -0.822  0.00  0.00    -0.001 A 
ENDROOT
TORSDOF 0
ENDMDL
