MODEL 1
REMARK minimizedAffinity 12.0216722
REMARK minimizedRMSD -1
REMARK  0 active torsions:
REMARK  status: ('A' for Active; 'I' for Inactive)
ROOT
ATOM      1  C   UNL d   1       0.138   3.332  -1.024  0.00  0.00     0.078 C 
ATOM      2  C1  UNL d   1      -0.793   3.261   0.149  0.00  0.00    -0.077 A 
ATOM      3  C2  UNL d   1      -1.762   4.248   0.362  0.00  0.00    -0.001 A 
ATOM      4  C3  UNL d   1      -2.616   4.174   1.463  0.00  0.00     0.003 A 
ATOM      5  C4  UNL d   1      -2.508   3.115   2.362  0.00  0.00    -0.005 A 
ATOM      6  C5  UNL d   1      -1.545   2.128   2.160  0.00  0.00     0.003 A 
ATOM      7  C6  UNL d   1      -0.690   2.201   1.059  0.00  0.00    -0.001 A 
ENDROOT
TORSDOF 0
ENDMDL
