MODEL 1
REMARK minimizedAffinity 9.18054008
REMARK minimizedRMSD -1
REMARK  0 active torsions:
REMARK  status: ('A' for Active; 'I' for Inactive)
ROOT
ATOM      1  C   UNL d   1      -5.982  -5.845  -5.644  0.00  0.00     0.078 C 
ATOM      2  C1  UNL d   1      -4.595  -5.381  -5.313  0.00  0.00    -0.077 A 
ATOM      3  C2  UNL d   1      -4.382  -4.326  -4.417  0.00  0.00    -0.001 A 
ATOM      4  C3  UNL d   1      -3.085  -3.898  -4.126  0.00  0.00     0.003 A 
ATOM      5  C4  UNL d   1      -1.992  -4.519  -4.727  0.00  0.00    -0.005 A 
ATOM      6  C5  UNL d   1      -2.195  -5.568  -5.621  0.00  0.00     0.003 A 
ATOM      7  C6  UNL d   1      -3.490  -5.997  -5.914  0.00  0.00    -0.001 A 
ENDROOT
TORSDOF 0
ENDMDL
