MODEL 1
REMARK minimizedAffinity 12.8417473
REMARK minimizedRMSD -1
REMARK  0 active torsions:
REMARK  status: ('A' for Active; 'I' for Inactive)
ROOT
ATOM      1  C   UNL d   1       1.479   3.779  -0.452  0.00  0.00     0.078 C 
ATOM      2  C1  UNL d   1       0.615   3.331   0.689  0.00  0.00    -0.077 A 
ATOM      3  C2  UNL d   1       1.162   2.647   1.782  0.00  0.00    -0.001 A 
ATOM      4  C3  UNL d   1       0.345   2.227   2.833  0.00  0.00     0.003 A 
ATOM      5  C4  UNL d   1      -1.024   2.485   2.801  0.00  0.00    -0.005 A 
ATOM      6  C5  UNL d   1      -1.578   3.163   1.717  0.00  0.00     0.003 A 
ATOM      7  C6  UNL d   1      -0.762   3.584   0.665  0.00  0.00    -0.001 A 
ENDROOT
TORSDOF 0
ENDMDL
