MODEL 1
REMARK minimizedAffinity -4.43268394
REMARK minimizedRMSD -1
REMARK  0 active torsions:
REMARK  status: ('A' for Active; 'I' for Inactive)
ROOT
ATOM      1  C4' PXY d   1      -1.730   4.017   1.373  0.00  0.00     0.077 C 
ATOM      2  C1' PXY d   1       1.194  -0.917   0.655  0.00  0.00     0.077 C 
ATOM      3  C1  PXY d   1       0.430   0.377   0.856  0.00  0.00    -0.082 A 
ATOM      4  C2  PXY d   1      -0.488   0.738  -0.026  0.00  0.00     0.003 A 
ATOM      5  C3  PXY d   1      -1.166   1.921   0.123  0.00  0.00     0.003 A 
ATOM      6  C4  PXY d   1      -0.940   2.715   1.216  0.00  0.00    -0.082 A 
ATOM      7  C5  PXY d   1      -0.014   2.347   2.126  0.00  0.00     0.003 A 
ATOM      8  C6  PXY d   1       0.693   1.164   1.934  0.00  0.00     0.003 A 
ENDROOT
TORSDOF 0
ENDMDL
