MODEL 1
REMARK minimizedAffinity -4.8541398
REMARK minimizedRMSD -1
REMARK  0 active torsions:
REMARK  status: ('A' for Active; 'I' for Inactive)
ROOT
ATOM      1  C4' PXY d   1       0.952  -1.752  -0.629  0.00  0.00     0.077 C 
ATOM      2  C1' PXY d   1      -1.578   2.875   1.737  0.00  0.00     0.077 C 
ATOM      3  C1  PXY d   1      -0.905   1.662   1.126  0.00  0.00    -0.082 A 
ATOM      4  C2  PXY d   1      -1.098   1.382  -0.153  0.00  0.00     0.003 A 
ATOM      5  C3  PXY d   1      -0.523   0.271  -0.714  0.00  0.00     0.003 A 
ATOM      6  C4  PXY d   1       0.301  -0.532   0.028  0.00  0.00    -0.082 A 
ATOM      7  C5  PXY d   1       0.511  -0.247   1.330  0.00  0.00     0.003 A 
ATOM      8  C6  PXY d   1      -0.115   0.862   1.892  0.00  0.00     0.003 A 
ENDROOT
TORSDOF 0
ENDMDL
