MODEL 1
REMARK minimizedAffinity -5.52719021
REMARK minimizedRMSD -1
REMARK  0 active torsions:
REMARK  status: ('A' for Active; 'I' for Inactive)
ROOT
ATOM      1  C4' PXY d   1      -1.543   2.350   2.090  0.00  0.00     0.077 C 
ATOM      2  C1' PXY d   1       0.875  -1.691  -1.262  0.00  0.00     0.077 C 
ATOM      3  C1  PXY d   1       0.244  -0.638  -0.373  0.00  0.00    -0.082 A 
ATOM      4  C2  PXY d   1      -0.705   0.145  -0.858  0.00  0.00     0.003 A 
ATOM      5  C3  PXY d   1      -1.264   1.124  -0.077  0.00  0.00     0.003 A 
ATOM      6  C4  PXY d   1      -0.884   1.267   1.231  0.00  0.00    -0.082 A 
ATOM      7  C5  PXY d   1       0.076   0.465   1.736  0.00  0.00     0.003 A 
ATOM      8  C6  PXY d   1       0.660  -0.495   0.915  0.00  0.00     0.003 A 
ENDROOT
TORSDOF 0
ENDMDL
