MODEL 1
REMARK minimizedAffinity -3.3277843
REMARK minimizedRMSD -1
REMARK  0 active torsions:
REMARK  status: ('A' for Active; 'I' for Inactive)
ROOT
ATOM      1  C4' PXY d   1      -0.303   2.274   2.386  0.00  0.00     0.077 C 
ATOM      2  C1' PXY d   1       0.503  -2.201  -1.184  0.00  0.00     0.077 C 
ATOM      3  C1  PXY d   1       0.296  -1.034  -0.238  0.00  0.00    -0.082 A 
ATOM      4  C2  PXY d   1      -0.566  -0.081  -0.553  0.00  0.00     0.003 A 
ATOM      5  C3  PXY d   1      -0.742   0.997   0.276  0.00  0.00     0.003 A 
ATOM      6  C4  PXY d   1      -0.068   1.073   1.465  0.00  0.00    -0.082 A 
ATOM      7  C5  PXY d   1       0.805   0.099   1.799  0.00  0.00     0.003 A 
ATOM      8  C6  PXY d   1       1.000  -0.966   0.924  0.00  0.00     0.003 A 
ENDROOT
TORSDOF 0
ENDMDL
