MODEL 1
REMARK minimizedAffinity 6.61985588
REMARK minimizedRMSD -1
REMARK  1 active torsions:
REMARK  status: ('A' for Active; 'I' for Inactive)
REMARK    1  A    between atoms: C1_2  and  C2_3 
ROOT
ATOM      1  C2  UNL d   1      -5.616   2.015  -2.212  0.00  0.00    -0.073 A 
ATOM      2  C3  UNL d   1      -5.710   0.661  -1.869  0.00  0.00    -0.002 A 
ATOM      3  C4  UNL d   1      -5.905  -0.304  -2.857  0.00  0.00     0.004 A 
ATOM      4  C5  UNL d   1      -6.000   0.071  -4.197  0.00  0.00    -0.004 A 
ATOM      5  C6  UNL d   1      -5.896   1.418  -4.561  0.00  0.00    -0.075 A 
ATOM      6  C7  UNL d   1      -5.998   1.839  -5.998  0.00  0.00     0.076 C 
ATOM      7  C8  UNL d   1      -5.703   2.382  -3.563  0.00  0.00     0.001 A 
ENDROOT
BRANCH   1   8
ATOM      8  C1  UNL d   1      -5.399   3.061  -1.149  0.00  0.00     0.053 C 
ATOM      9  C   UNL d   1      -4.372   4.099  -1.572  0.00  0.00     0.018 C 
ENDBRANCH   1   8
TORSDOF 1
ENDMDL
