MODEL 1
REMARK minimizedAffinity 11.0796061
REMARK minimizedRMSD -1
REMARK  1 active torsions:
REMARK  status: ('A' for Active; 'I' for Inactive)
REMARK    1  A    between atoms: C1_2  and  C2_3 
ROOT
ATOM      1  C2  UNL d   1       0.231   4.263  -3.962  0.00  0.00    -0.073 A 
ATOM      2  C3  UNL d   1       1.559   4.670  -4.132  0.00  0.00    -0.002 A 
ATOM      3  C4  UNL d   1       2.582   4.061  -3.403  0.00  0.00     0.004 A 
ATOM      4  C5  UNL d   1       2.289   3.037  -2.503  0.00  0.00    -0.004 A 
ATOM      5  C6  UNL d   1       0.969   2.608  -2.328  0.00  0.00    -0.075 A 
ATOM      6  C7  UNL d   1       0.636   1.509  -1.362  0.00  0.00     0.076 C 
ATOM      7  C8  UNL d   1      -0.053   3.226  -3.062  0.00  0.00     0.001 A 
ENDROOT
BRANCH   1   8
ATOM      8  C1  UNL d   1      -0.876   4.913  -4.752  0.00  0.00     0.053 C 
ATOM      9  C   UNL d   1      -0.354   5.607  -6.000  0.00  0.00     0.018 C 
ENDBRANCH   1   8
TORSDOF 1
ENDMDL
