MODEL 1
REMARK minimizedAffinity 3.74209452
REMARK minimizedRMSD -1
REMARK  1 active torsions:
REMARK  status: ('A' for Active; 'I' for Inactive)
REMARK    1  A    between atoms: C1_2  and  C2_3 
ROOT
ATOM      1  C2  UNL d   1       0.253   3.552  -3.691  0.00  0.00    -0.073 A 
ATOM      2  C3  UNL d   1       1.505   4.173  -3.755  0.00  0.00    -0.002 A 
ATOM      3  C4  UNL d   1       1.691   5.305  -4.549  0.00  0.00     0.004 A 
ATOM      4  C5  UNL d   1       0.626   5.833  -5.279  0.00  0.00    -0.004 A 
ATOM      5  C6  UNL d   1      -0.636   5.234  -5.218  0.00  0.00    -0.075 A 
ATOM      6  C7  UNL d   1      -1.791   5.787  -6.000  0.00  0.00     0.076 C 
ATOM      7  C8  UNL d   1      -0.814   4.095  -4.421  0.00  0.00     0.001 A 
ENDROOT
BRANCH   1   8
ATOM      8  C1  UNL d   1       0.046   2.332  -2.830  0.00  0.00     0.053 C 
ATOM      9  C   UNL d   1       1.162   2.157  -1.813  0.00  0.00     0.018 C 
ENDBRANCH   1   8
TORSDOF 1
ENDMDL
