MODEL 1
REMARK minimizedAffinity 3.48815274
REMARK minimizedRMSD -1
REMARK  1 active torsions:
REMARK  status: ('A' for Active; 'I' for Inactive)
REMARK    1  A    between atoms: C1_2  and  C2_3 
ROOT
ATOM      1  C2  UNL d   1      -2.942  -0.885   2.788  0.00  0.00    -0.073 A 
ATOM      2  C3  UNL d   1      -2.835  -1.941   1.875  0.00  0.00    -0.002 A 
ATOM      3  C4  UNL d   1      -3.753  -2.065   0.831  0.00  0.00     0.004 A 
ATOM      4  C5  UNL d   1      -4.781  -1.134   0.685  0.00  0.00    -0.004 A 
ATOM      5  C6  UNL d   1      -4.898  -0.066   1.580  0.00  0.00    -0.075 A 
ATOM      6  C7  UNL d   1      -5.999   0.943   1.439  0.00  0.00     0.076 C 
ATOM      7  C8  UNL d   1      -3.974   0.051   2.627  0.00  0.00     0.001 A 
ENDROOT
BRANCH   1   8
ATOM      8  C1  UNL d   1      -1.950  -0.743   3.912  0.00  0.00     0.053 C 
ATOM      9  C   UNL d   1      -2.623  -0.362   5.222  0.00  0.00     0.018 C 
ENDBRANCH   1   8
TORSDOF 1
ENDMDL
