MODEL 1
REMARK minimizedAffinity 8.77328014
REMARK minimizedRMSD -1
REMARK  1 active torsions:
REMARK  status: ('A' for Active; 'I' for Inactive)
REMARK    1  A    between atoms: C1_2  and  C2_3 
ROOT
ATOM      1  C2  UNL d   1       1.320   3.684  -3.375  0.00  0.00    -0.073 A 
ATOM      2  C3  UNL d   1       2.432   4.123  -4.103  0.00  0.00    -0.002 A 
ATOM      3  C4  UNL d   1       2.261   4.795  -5.314  0.00  0.00     0.004 A 
ATOM      4  C5  UNL d   1       0.979   5.041  -5.806  0.00  0.00    -0.004 A 
ATOM      5  C6  UNL d   1      -0.145   4.620  -5.087  0.00  0.00    -0.075 A 
ATOM      6  C7  UNL d   1      -1.530   4.875  -5.603  0.00  0.00     0.076 C 
ATOM      7  C8  UNL d   1       0.035   3.944  -3.873  0.00  0.00     0.001 A 
ENDROOT
BRANCH   1   8
ATOM      8  C1  UNL d   1       1.500   2.964  -2.064  0.00  0.00     0.053 C 
ATOM      9  C   UNL d   1       1.875   1.504  -2.262  0.00  0.00     0.018 C 
ENDBRANCH   1   8
TORSDOF 1
ENDMDL
