MODEL 1
REMARK minimizedAffinity 5.91882706
REMARK minimizedRMSD -1
REMARK  1 active torsions:
REMARK  status: ('A' for Active; 'I' for Inactive)
REMARK    1  A    between atoms: C1_2  and  C2_3 
ROOT
ATOM      1  C2  UNL d   1      -3.802  -5.715  -4.690  0.00  0.00    -0.073 A 
ATOM      2  C3  UNL d   1      -3.131  -5.995  -5.886  0.00  0.00    -0.002 A 
ATOM      3  C4  UNL d   1      -1.750  -5.812  -5.978  0.00  0.00     0.004 A 
ATOM      4  C5  UNL d   1      -1.028  -5.354  -4.877  0.00  0.00    -0.004 A 
ATOM      5  C6  UNL d   1      -1.679  -5.079  -3.670  0.00  0.00    -0.075 A 
ATOM      6  C7  UNL d   1      -0.917  -4.583  -2.477  0.00  0.00     0.076 C 
ATOM      7  C8  UNL d   1      -3.066  -5.263  -3.586  0.00  0.00     0.001 A 
ENDROOT
BRANCH   1   8
ATOM      8  C1  UNL d   1      -5.292  -5.917  -4.584  0.00  0.00     0.053 C 
ATOM      9  C   UNL d   1      -5.993  -5.699  -5.915  0.00  0.00     0.018 C 
ENDBRANCH   1   8
TORSDOF 1
ENDMDL
