MODEL 1
REMARK minimizedAffinity 0.139660135
REMARK minimizedRMSD -1
REMARK  1 active torsions:
REMARK  status: ('A' for Active; 'I' for Inactive)
REMARK    1  A    between atoms: C1_2  and  C2_3 
ROOT
ATOM      1  C2  UNL d   1      -5.986   0.716  -3.227  0.00  0.00    -0.073 A 
ATOM      2  C3  UNL d   1      -5.984   1.354  -4.472  0.00  0.00    -0.002 A 
ATOM      3  C4  UNL d   1      -5.977   0.604  -5.649  0.00  0.00     0.004 A 
ATOM      4  C5  UNL d   1      -5.980  -0.790  -5.593  0.00  0.00    -0.004 A 
ATOM      5  C6  UNL d   1      -5.994  -1.446  -4.358  0.00  0.00    -0.075 A 
ATOM      6  C7  UNL d   1      -5.994  -2.945  -4.280  0.00  0.00     0.076 C 
ATOM      7  C8  UNL d   1      -5.997  -0.686  -3.180  0.00  0.00     0.001 A 
ENDROOT
BRANCH   1   8
ATOM      8  C1  UNL d   1      -5.999   1.522  -1.954  0.00  0.00     0.053 C 
ATOM      9  C   UNL d   1      -6.000   3.018  -2.226  0.00  0.00     0.018 C 
ENDBRANCH   1   8
TORSDOF 1
ENDMDL
