MODEL 1
REMARK minimizedAffinity 6.37220049
REMARK minimizedRMSD -1
REMARK  1 active torsions:
REMARK  status: ('A' for Active; 'I' for Inactive)
REMARK    1  A    between atoms: C1_2  and  C2_3 
ROOT
ATOM      1  C2  UNL d   1      -4.424  -4.569   2.058  0.00  0.00    -0.073 A 
ATOM      2  C3  UNL d   1      -4.917  -3.270   1.889  0.00  0.00    -0.002 A 
ATOM      3  C4  UNL d   1      -4.114  -2.281   1.318  0.00  0.00     0.004 A 
ATOM      4  C5  UNL d   1      -2.817  -2.582   0.905  0.00  0.00    -0.004 A 
ATOM      5  C6  UNL d   1      -2.311  -3.877   1.055  0.00  0.00    -0.075 A 
ATOM      6  C7  UNL d   1      -0.916  -4.216   0.617  0.00  0.00     0.076 C 
ATOM      7  C8  UNL d   1      -3.121  -4.864   1.631  0.00  0.00     0.001 A 
ENDROOT
BRANCH   1   8
ATOM      8  C1  UNL d   1      -5.289  -5.642   2.668  0.00  0.00     0.053 C 
ATOM      9  C   UNL d   1      -4.844  -6.000   4.077  0.00  0.00     0.018 C 
ENDBRANCH   1   8
TORSDOF 1
ENDMDL
