MODEL 1
REMARK minimizedAffinity 7.18866682
REMARK minimizedRMSD -1
REMARK  3 active torsions:
REMARK  status: ('A' for Active; 'I' for Inactive)
REMARK    1  A    between atoms: C3'_2  and  C2'_3 
REMARK    2  A    between atoms: C2'_3  and  C1'_4 
REMARK    3  A    between atoms: C1'_4  and  C1_5 
ROOT
ATOM      1  C1  N4B d   1       0.976   2.033   1.440  0.00  0.00    -0.075 A 
ATOM      2  C2  N4B d   1      -0.406   1.854   1.210  0.00  0.00     0.002 A 
ATOM      3  C3  N4B d   1      -0.959   0.600   1.294  0.00  0.00     0.002 A 
ATOM      4  C4  N4B d   1      -0.151  -0.488   1.585  0.00  0.00    -0.004 A 
ATOM      5  C5  N4B d   1       1.178  -0.304   1.830  0.00  0.00     0.002 A 
ATOM      6  C6  N4B d   1       1.747   0.951   1.754  0.00  0.00     0.002 A 
ENDROOT
BRANCH   1   7
ATOM      7  C1' N4B d   1       1.642   3.372   1.276  0.00  0.00     0.057 C 
BRANCH   7   8
ATOM      8  C2' N4B d   1       2.101   3.528  -0.171  0.00  0.00     0.009 C 
BRANCH   8   9
ATOM      9  C3' N4B d   1       1.435   4.711  -0.854  0.00  0.00     0.004 C 
ATOM     10  C4' N4B d   1       1.640   5.999  -0.115  0.00  0.00     0.003 C 
ENDBRANCH   8   9
ENDBRANCH   7   8
ENDBRANCH   1   7
TORSDOF 3
ENDMDL
