MODEL 1
REMARK minimizedAffinity 16.0820408
REMARK minimizedRMSD -1
REMARK  3 active torsions:
REMARK  status: ('A' for Active; 'I' for Inactive)
REMARK    1  A    between atoms: C3'_2  and  C2'_3 
REMARK    2  A    between atoms: C2'_3  and  C1'_4 
REMARK    3  A    between atoms: C1'_4  and  C1_5 
ROOT
ATOM      1  C1  N4B d   1       2.275  -1.931   3.496  0.00  0.00    -0.075 A 
ATOM      2  C2  N4B d   1       2.195  -0.650   4.084  0.00  0.00     0.002 A 
ATOM      3  C3  N4B d   1       2.132   0.468   3.288  0.00  0.00     0.002 A 
ATOM      4  C4  N4B d   1       2.168   0.331   1.909  0.00  0.00    -0.004 A 
ATOM      5  C5  N4B d   1       2.220  -0.912   1.348  0.00  0.00     0.002 A 
ATOM      6  C6  N4B d   1       2.279  -2.044   2.136  0.00  0.00     0.002 A 
ENDROOT
BRANCH   1   7
ATOM      7  C1' N4B d   1       2.432  -3.177   4.325  0.00  0.00     0.057 C 
BRANCH   7   8
ATOM      8  C2' N4B d   1       3.917  -3.494   4.476  0.00  0.00     0.009 C 
BRANCH   8   9
ATOM      9  C3' N4B d   1       4.456  -3.054   5.827  0.00  0.00     0.004 C 
ATOM     10  C4' N4B d   1       5.919  -3.340   5.988  0.00  0.00     0.003 C 
ENDBRANCH   8   9
ENDBRANCH   7   8
ENDBRANCH   1   7
TORSDOF 3
ENDMDL
