MODEL 1
REMARK minimizedAffinity 13.2952404
REMARK minimizedRMSD -1
REMARK  3 active torsions:
REMARK  status: ('A' for Active; 'I' for Inactive)
REMARK    1  A    between atoms: C3'_2  and  C2'_3 
REMARK    2  A    between atoms: C2'_3  and  C1'_4 
REMARK    3  A    between atoms: C1'_4  and  C1_5 
ROOT
ATOM      1  C1  N4B d   1       5.808  -3.615  -3.973  0.00  0.00    -0.075 A 
ATOM      2  C2  N4B d   1       5.462  -4.793  -3.276  0.00  0.00     0.002 A 
ATOM      3  C3  N4B d   1       5.311  -5.975  -3.959  0.00  0.00     0.002 A 
ATOM      4  C4  N4B d   1       5.481  -5.999  -5.335  0.00  0.00    -0.004 A 
ATOM      5  C5  N4B d   1       5.840  -4.861  -5.997  0.00  0.00     0.002 A 
ATOM      6  C6  N4B d   1       6.000  -3.667  -5.323  0.00  0.00     0.002 A 
ENDROOT
BRANCH   1   7
ATOM      7  C1' N4B d   1       5.901  -2.282  -3.282  0.00  0.00     0.057 C 
BRANCH   7   8
ATOM      8  C2' N4B d   1       4.592  -1.523  -3.479  0.00  0.00     0.009 C 
BRANCH   8   9
ATOM      9  C3' N4B d   1       3.760  -1.485  -2.209  0.00  0.00     0.004 C 
ATOM     10  C4' N4B d   1       2.598  -2.431  -2.247  0.00  0.00     0.003 C 
ENDBRANCH   8   9
ENDBRANCH   7   8
ENDBRANCH   1   7
TORSDOF 3
ENDMDL
