MODEL 1
REMARK minimizedAffinity 2.84436011
REMARK minimizedRMSD -1
REMARK  3 active torsions:
REMARK  status: ('A' for Active; 'I' for Inactive)
REMARK    1  A    between atoms: C3'_2  and  C2'_3 
REMARK    2  A    between atoms: C2'_3  and  C1'_4 
REMARK    3  A    between atoms: C1'_4  and  C1_5 
ROOT
ATOM      1  C1  N4B d   1       5.905  -3.575  -5.275  0.00  0.00    -0.075 A 
ATOM      2  C2  N4B d   1       6.000  -3.661  -3.869  0.00  0.00     0.002 A 
ATOM      3  C3  N4B d   1       5.828  -4.871  -3.242  0.00  0.00     0.002 A 
ATOM      4  C4  N4B d   1       5.543  -5.999  -3.995  0.00  0.00    -0.004 A 
ATOM      5  C5  N4B d   1       5.478  -5.913  -5.355  0.00  0.00     0.002 A 
ATOM      6  C6  N4B d   1       5.652  -4.704  -5.999  0.00  0.00     0.002 A 
ENDROOT
BRANCH   1   7
ATOM      7  C1' N4B d   1       6.000  -2.260  -5.999  0.00  0.00     0.057 C 
BRANCH   7   8
ATOM      8  C2' N4B d   1       5.824  -1.123  -4.997  0.00  0.00     0.009 C 
BRANCH   8   9
ATOM      9  C3' N4B d   1       5.983   0.240  -5.649  0.00  0.00     0.004 C 
ATOM     10  C4' N4B d   1       4.846   1.168  -5.339  0.00  0.00     0.003 C 
ENDBRANCH   8   9
ENDBRANCH   7   8
ENDBRANCH   1   7
TORSDOF 3
ENDMDL
