MODEL 1
REMARK minimizedAffinity 8.58448887
REMARK minimizedRMSD -1
REMARK  3 active torsions:
REMARK  status: ('A' for Active; 'I' for Inactive)
REMARK    1  A    between atoms: C3'_2  and  C2'_3 
REMARK    2  A    between atoms: C2'_3  and  C1'_4 
REMARK    3  A    between atoms: C1'_4  and  C1_5 
ROOT
ATOM      1  C1  N4B d   1       2.224  -2.665   3.771  0.00  0.00    -0.075 A 
ATOM      2  C2  N4B d   1       3.045  -2.628   2.622  0.00  0.00     0.002 A 
ATOM      3  C3  N4B d   1       3.077  -1.502   1.837  0.00  0.00     0.002 A 
ATOM      4  C4  N4B d   1       2.285  -0.412   2.168  0.00  0.00    -0.004 A 
ATOM      5  C5  N4B d   1       1.514  -0.446   3.292  0.00  0.00     0.002 A 
ATOM      6  C6  N4B d   1       1.475  -1.570   4.093  0.00  0.00     0.002 A 
ENDROOT
BRANCH   1   7
ATOM      7  C1' N4B d   1       2.090  -3.904   4.612  0.00  0.00     0.057 C 
BRANCH   7   8
ATOM      8  C2' N4B d   1       1.176  -3.609   5.798  0.00  0.00     0.009 C 
BRANCH   8   9
ATOM      9  C3' N4B d   1      -0.002  -4.565   5.858  0.00  0.00     0.004 C 
ATOM     10  C4' N4B d   1       0.419  -6.000   5.974  0.00  0.00     0.003 C 
ENDBRANCH   8   9
ENDBRANCH   7   8
ENDBRANCH   1   7
TORSDOF 3
ENDMDL
