MODEL 1
REMARK minimizedAffinity 0.313014239
REMARK minimizedRMSD -1
REMARK  3 active torsions:
REMARK  status: ('A' for Active; 'I' for Inactive)
REMARK    1  A    between atoms: C3'_2  and  C2'_3 
REMARK    2  A    between atoms: C2'_3  and  C1'_4 
REMARK    3  A    between atoms: C1'_4  and  C1_5 
ROOT
ATOM      1  C1  N4B d   1       2.021  -3.343   4.021  0.00  0.00    -0.075 A 
ATOM      2  C2  N4B d   1       3.314  -3.504   4.564  0.00  0.00     0.002 A 
ATOM      3  C3  N4B d   1       3.537  -4.444   5.540  0.00  0.00     0.002 A 
ATOM      4  C4  N4B d   1       2.482  -5.218   6.000  0.00  0.00    -0.004 A 
ATOM      5  C5  N4B d   1       1.241  -5.074   5.451  0.00  0.00     0.002 A 
ATOM      6  C6  N4B d   1       1.004  -4.136   4.467  0.00  0.00     0.002 A 
ENDROOT
BRANCH   1   7
ATOM      7  C1' N4B d   1       1.711  -2.269   3.013  0.00  0.00     0.057 C 
BRANCH   7   8
ATOM      8  C2' N4B d   1       2.664  -1.096   3.222  0.00  0.00     0.009 C 
BRANCH   8   9
ATOM      9  C3' N4B d   1       2.406   0.028   2.234  0.00  0.00     0.004 C 
ATOM     10  C4' N4B d   1       1.290  -0.281   1.281  0.00  0.00     0.003 C 
ENDBRANCH   8   9
ENDBRANCH   7   8
ENDBRANCH   1   7
TORSDOF 3
ENDMDL
