MODEL 1
REMARK minimizedAffinity 7.88437033
REMARK minimizedRMSD -1
REMARK  3 active torsions:
REMARK  status: ('A' for Active; 'I' for Inactive)
REMARK    1  A    between atoms: C3'_2  and  C2'_3 
REMARK    2  A    between atoms: C2'_3  and  C1'_4 
REMARK    3  A    between atoms: C1'_4  and  C1_5 
ROOT
ATOM      1  C1  N4B d   1       2.568   0.716   2.027  0.00  0.00    -0.075 A 
ATOM      2  C2  N4B d   1       2.348  -0.671   1.876  0.00  0.00     0.002 A 
ATOM      3  C3  N4B d   1       2.209  -1.468   2.985  0.00  0.00     0.002 A 
ATOM      4  C4  N4B d   1       2.305  -0.907   4.250  0.00  0.00    -0.004 A 
ATOM      5  C5  N4B d   1       2.493   0.437   4.387  0.00  0.00     0.002 A 
ATOM      6  C6  N4B d   1       2.630   1.251   3.281  0.00  0.00     0.002 A 
ENDROOT
BRANCH   1   7
ATOM      7  C1' N4B d   1       2.812   1.614   0.845  0.00  0.00     0.057 C 
BRANCH   7   8
ATOM      8  C2' N4B d   1       2.241   2.998   1.141  0.00  0.00     0.009 C 
BRANCH   8   9
ATOM      9  C3' N4B d   1       2.588   4.001   0.054  0.00  0.00     0.004 C 
ATOM     10  C4' N4B d   1       1.400   4.789  -0.409  0.00  0.00     0.003 C 
ENDBRANCH   8   9
ENDBRANCH   7   8
ENDBRANCH   1   7
TORSDOF 3
ENDMDL
