MODEL 1
REMARK minimizedAffinity -2.65648079
REMARK minimizedRMSD -1
REMARK  3 active torsions:
REMARK  status: ('A' for Active; 'I' for Inactive)
REMARK    1  A    between atoms: C3'_2  and  C2'_3 
REMARK    2  A    between atoms: C2'_3  and  C1'_4 
REMARK    3  A    between atoms: C1'_4  and  C1_5 
ROOT
ATOM      1  C1  N4B d   1       3.475  -5.906  -2.792  0.00  0.00    -0.075 A 
ATOM      2  C2  N4B d   1       2.094  -5.924  -3.088  0.00  0.00     0.002 A 
ATOM      3  C3  N4B d   1       1.672  -5.976  -4.393  0.00  0.00     0.002 A 
ATOM      4  C4  N4B d   1       2.608  -5.992  -5.417  0.00  0.00    -0.004 A 
ATOM      5  C5  N4B d   1       3.940  -6.000  -5.122  0.00  0.00     0.002 A 
ATOM      6  C6  N4B d   1       4.379  -5.952  -3.814  0.00  0.00     0.002 A 
ENDROOT
BRANCH   1   7
ATOM      7  C1' N4B d   1       3.985  -5.763  -1.384  0.00  0.00     0.057 C 
BRANCH   7   8
ATOM      8  C2' N4B d   1       2.813  -5.877  -0.414  0.00  0.00     0.009 C 
BRANCH   8   9
ATOM      9  C3' N4B d   1       3.272  -5.890   1.034  0.00  0.00     0.004 C 
ATOM     10  C4' N4B d   1       2.244  -5.337   1.975  0.00  0.00     0.003 C 
ENDBRANCH   8   9
ENDBRANCH   7   8
ENDBRANCH   1   7
TORSDOF 3
ENDMDL
