MODEL 1
REMARK minimizedAffinity 4.04631758
REMARK minimizedRMSD -1
REMARK  3 active torsions:
REMARK  status: ('A' for Active; 'I' for Inactive)
REMARK    1  A    between atoms: C3'_2  and  C2'_3 
REMARK    2  A    between atoms: C2'_3  and  C1'_4 
REMARK    3  A    between atoms: C1'_4  and  C1_5 
ROOT
ATOM      1  C1  N4B d   1       4.108  -5.889  -1.598  0.00  0.00    -0.075 A 
ATOM      2  C2  N4B d   1       5.262  -5.749  -2.401  0.00  0.00     0.002 A 
ATOM      3  C3  N4B d   1       5.149  -5.734  -3.769  0.00  0.00     0.002 A 
ATOM      4  C4  N4B d   1       3.900  -5.877  -4.356  0.00  0.00    -0.004 A 
ATOM      5  C5  N4B d   1       2.788  -5.987  -3.573  0.00  0.00     0.002 A 
ATOM      6  C6  N4B d   1       2.886  -5.999  -2.197  0.00  0.00     0.002 A 
ENDROOT
BRANCH   1   7
ATOM      7  C1' N4B d   1       4.191  -5.996  -0.100  0.00  0.00     0.057 C 
BRANCH   7   8
ATOM      8  C2' N4B d   1       2.781  -5.965   0.483  0.00  0.00     0.009 C 
BRANCH   8   9
ATOM      9  C3' N4B d   1       2.794  -5.999   2.001  0.00  0.00     0.004 C 
ATOM     10  C4' N4B d   1       2.382  -4.694   2.615  0.00  0.00     0.003 C 
ENDBRANCH   8   9
ENDBRANCH   7   8
ENDBRANCH   1   7
TORSDOF 3
ENDMDL
