MODEL 1
REMARK minimizedAffinity -0.581242263
REMARK minimizedRMSD -1
REMARK  3 active torsions:
REMARK  status: ('A' for Active; 'I' for Inactive)
REMARK    1  A    between atoms: C3'_2  and  C2'_3 
REMARK    2  A    between atoms: C2'_3  and  C1'_4 
REMARK    3  A    between atoms: C1'_4  and  C1_5 
ROOT
ATOM      1  C1  N4B d   1       2.054  -4.131   2.599  0.00  0.00    -0.075 A 
ATOM      2  C2  N4B d   1       1.350  -2.949   2.279  0.00  0.00     0.002 A 
ATOM      3  C3  N4B d   1       1.482  -1.835   3.072  0.00  0.00     0.002 A 
ATOM      4  C4  N4B d   1       2.294  -1.885   4.195  0.00  0.00    -0.004 A 
ATOM      5  C5  N4B d   1       2.991  -3.022   4.483  0.00  0.00     0.002 A 
ATOM      6  C6  N4B d   1       2.870  -4.148   3.693  0.00  0.00     0.002 A 
ENDROOT
BRANCH   1   7
ATOM      7  C1' N4B d   1       1.874  -5.400   1.812  0.00  0.00     0.057 C 
BRANCH   7   8
ATOM      8  C2' N4B d   1       3.188  -5.750   1.120  0.00  0.00     0.009 C 
BRANCH   8   9
ATOM      9  C3' N4B d   1       2.998  -5.998  -0.367  0.00  0.00     0.004 C 
ATOM     10  C4' N4B d   1       4.292  -6.000  -1.125  0.00  0.00     0.003 C 
ENDBRANCH   8   9
ENDBRANCH   7   8
ENDBRANCH   1   7
TORSDOF 3
ENDMDL
