MODEL 1
REMARK minimizedAffinity 2.61181283
REMARK minimizedRMSD -1
REMARK  3 active torsions:
REMARK  status: ('A' for Active; 'I' for Inactive)
REMARK    1  A    between atoms: C3'_2  and  C2'_3 
REMARK    2  A    between atoms: C2'_3  and  C1'_4 
REMARK    3  A    between atoms: C1'_4  and  C1_5 
ROOT
ATOM      1  C1  N4B d   1       3.332  -5.864   0.361  0.00  0.00    -0.075 A 
ATOM      2  C2  N4B d   1       2.941  -5.764  -0.992  0.00  0.00     0.002 A 
ATOM      3  C3  N4B d   1       3.890  -5.780  -1.984  0.00  0.00     0.002 A 
ATOM      4  C4  N4B d   1       5.232  -5.877  -1.648  0.00  0.00    -0.004 A 
ATOM      5  C5  N4B d   1       5.600  -5.999  -0.340  0.00  0.00     0.002 A 
ATOM      6  C6  N4B d   1       4.657  -5.988   0.667  0.00  0.00     0.002 A 
ENDROOT
BRANCH   1   7
ATOM      7  C1' N4B d   1       2.337  -5.764   1.485  0.00  0.00     0.057 C 
BRANCH   7   8
ATOM      8  C2' N4B d   1       2.682  -4.558   2.353  0.00  0.00     0.009 C 
BRANCH   8   9
ATOM      9  C3' N4B d   1       1.527  -3.575   2.446  0.00  0.00     0.004 C 
ATOM     10  C4' N4B d   1       1.982  -2.163   2.663  0.00  0.00     0.003 C 
ENDBRANCH   8   9
ENDBRANCH   7   8
ENDBRANCH   1   7
TORSDOF 3
ENDMDL
