MODEL 1
REMARK minimizedAffinity 4.66855669
REMARK minimizedRMSD -1
REMARK  3 active torsions:
REMARK  status: ('A' for Active; 'I' for Inactive)
REMARK    1  A    between atoms: C3'_2  and  C2'_3 
REMARK    2  A    between atoms: C2'_3  and  C1'_4 
REMARK    3  A    between atoms: C1'_4  and  C1_5 
ROOT
ATOM      1  C1  N4B d   1       3.417  -5.926  -3.515  0.00  0.00    -0.075 A 
ATOM      2  C2  N4B d   1       4.198  -5.883  -4.691  0.00  0.00     0.002 A 
ATOM      3  C3  N4B d   1       3.587  -5.896  -5.921  0.00  0.00     0.002 A 
ATOM      4  C4  N4B d   1       2.205  -5.971  -6.000  0.00  0.00    -0.004 A 
ATOM      5  C5  N4B d   1       1.457  -5.986  -4.859  0.00  0.00     0.002 A 
ATOM      6  C6  N4B d   1       2.057  -5.969  -3.616  0.00  0.00     0.002 A 
ENDROOT
BRANCH   1   7
ATOM      7  C1' N4B d   1       4.042  -6.000  -2.149  0.00  0.00     0.057 C 
BRANCH   7   8
ATOM      8  C2' N4B d   1       2.944  -5.944  -1.091  0.00  0.00     0.009 C 
BRANCH   8   9
ATOM      9  C3' N4B d   1       3.510  -5.967   0.318  0.00  0.00     0.004 C 
ATOM     10  C4' N4B d   1       2.444  -5.996   1.372  0.00  0.00     0.003 C 
ENDBRANCH   8   9
ENDBRANCH   7   8
ENDBRANCH   1   7
TORSDOF 3
ENDMDL
