MODEL 1
REMARK minimizedAffinity -3.57935214
REMARK minimizedRMSD -1
REMARK  2 active torsions:
REMARK  status: ('A' for Active; 'I' for Inactive)
REMARK    1  A    between atoms: C2'_3  and  C1'_4 
REMARK    2  A    between atoms: C1'_4  and  C1_5 
ROOT
ATOM      1  C1  I4B d   1       0.749   1.816  -0.723  0.00  0.00    -0.075 A 
ATOM      2  C2  I4B d   1       1.279   2.423  -1.834  0.00  0.00     0.003 A 
ATOM      3  C3  I4B d   1       1.731   3.763  -1.767  0.00  0.00     0.002 A 
ATOM      4  C4  I4B d   1       1.590   4.470  -0.590  0.00  0.00    -0.004 A 
ATOM      5  C5  I4B d   1       1.074   3.845   0.542  0.00  0.00     0.002 A 
ATOM      6  C6  I4B d   1       0.662   2.506   0.479  0.00  0.00     0.003 A 
ENDROOT
BRANCH   1   7
ATOM      7  C1' I4B d   1       0.251   0.410  -0.838  0.00  0.00     0.060 C 
BRANCH   7   8
ATOM      8  C2' I4B d   1       1.451  -0.514  -0.812  0.00  0.00    -0.013 C 
ATOM      9  C4' I4B d   1       2.278  -0.300   0.428  0.00  0.00     0.013 C 
ATOM     10  C3' I4B d   1       0.950  -1.926  -0.893  0.00  0.00     0.013 C 
ENDBRANCH   7   8
ENDBRANCH   1   7
TORSDOF 2
ENDMDL
