MODEL 1
REMARK minimizedAffinity 4.12190723
REMARK minimizedRMSD -1
REMARK  2 active torsions:
REMARK  status: ('A' for Active; 'I' for Inactive)
REMARK    1  A    between atoms: C2'_3  and  C1'_4 
REMARK    2  A    between atoms: C1'_4  and  C1_5 
ROOT
ATOM      1  C1  I4B d   1       1.358   2.419  -1.499  0.00  0.00    -0.075 A 
ATOM      2  C2  I4B d   1       2.251   1.670  -2.224  0.00  0.00     0.003 A 
ATOM      3  C3  I4B d   1       2.478   0.312  -1.893  0.00  0.00     0.002 A 
ATOM      4  C4  I4B d   1       1.831  -0.238  -0.805  0.00  0.00    -0.004 A 
ATOM      5  C5  I4B d   1       0.909   0.516  -0.086  0.00  0.00     0.002 A 
ATOM      6  C6  I4B d   1       0.661   1.849  -0.442  0.00  0.00     0.003 A 
ENDROOT
BRANCH   1   7
ATOM      7  C1' I4B d   1       1.168   3.859  -1.856  0.00  0.00     0.060 C 
BRANCH   7   8
ATOM      8  C2' I4B d   1       2.120   4.679  -1.010  0.00  0.00    -0.013 C 
ATOM      9  C4' I4B d   1       2.432   6.000  -1.664  0.00  0.00     0.013 C 
ATOM     10  C3' I4B d   1       1.490   4.877   0.336  0.00  0.00     0.013 C 
ENDBRANCH   7   8
ENDBRANCH   1   7
TORSDOF 2
ENDMDL
