MODEL 1
REMARK minimizedAffinity 2.17297482
REMARK minimizedRMSD -1
REMARK  2 active torsions:
REMARK  status: ('A' for Active; 'I' for Inactive)
REMARK    1  A    between atoms: C2'_3  and  C1'_4 
REMARK    2  A    between atoms: C1'_4  and  C1_5 
ROOT
ATOM      1  C1  I4B d   1       1.280   2.923  -1.244  0.00  0.00    -0.075 A 
ATOM      2  C2  I4B d   1       1.242   1.815  -2.052  0.00  0.00     0.003 A 
ATOM      3  C3  I4B d   1       1.093   0.525  -1.486  0.00  0.00     0.002 A 
ATOM      4  C4  I4B d   1       1.038   0.387  -0.114  0.00  0.00    -0.004 A 
ATOM      5  C5  I4B d   1       1.053   1.514   0.702  0.00  0.00     0.002 A 
ATOM      6  C6  I4B d   1       1.163   2.791   0.134  0.00  0.00     0.003 A 
ENDROOT
BRANCH   1   7
ATOM      7  C1' I4B d   1       1.471   4.267  -1.872  0.00  0.00     0.060 C 
BRANCH   7   8
ATOM      8  C2' I4B d   1       2.351   5.091  -0.955  0.00  0.00    -0.013 C 
ATOM      9  C4' I4B d   1       3.259   6.000  -1.741  0.00  0.00     0.013 C 
ATOM     10  C3' I4B d   1       1.460   5.876  -0.039  0.00  0.00     0.013 C 
ENDBRANCH   7   8
ENDBRANCH   1   7
TORSDOF 2
ENDMDL
