MODEL 1
REMARK minimizedAffinity -5.84969234
REMARK minimizedRMSD -1
REMARK  2 active torsions:
REMARK  status: ('A' for Active; 'I' for Inactive)
REMARK    1  A    between atoms: C2'_3  and  C1'_4 
REMARK    2  A    between atoms: C1'_4  and  C1_5 
ROOT
ATOM      1  C1  I4B d   1       1.732   2.346  -0.981  0.00  0.00    -0.075 A 
ATOM      2  C2  I4B d   1       1.020   1.614  -1.898  0.00  0.00     0.003 A 
ATOM      3  C3  I4B d   1       0.415   0.392  -1.519  0.00  0.00     0.002 A 
ATOM      4  C4  I4B d   1       0.588  -0.083  -0.235  0.00  0.00    -0.004 A 
ATOM      5  C5  I4B d   1       1.291   0.672   0.700  0.00  0.00     0.002 A 
ATOM      6  C6  I4B d   1       1.857   1.900   0.328  0.00  0.00     0.003 A 
ENDROOT
BRANCH   1   7
ATOM      7  C1' I4B d   1       2.387   3.616  -1.425  0.00  0.00     0.060 C 
BRANCH   7   8
ATOM      8  C2' I4B d   1       1.767   4.758  -0.644  0.00  0.00    -0.013 C 
ATOM      9  C4' I4B d   1       1.749   4.461   0.833  0.00  0.00     0.013 C 
ATOM     10  C3' I4B d   1       2.554   6.000  -0.937  0.00  0.00     0.013 C 
ENDBRANCH   7   8
ENDBRANCH   1   7
TORSDOF 2
ENDMDL
