MODEL 1
REMARK minimizedAffinity 3.83710408
REMARK minimizedRMSD -1
REMARK  2 active torsions:
REMARK  status: ('A' for Active; 'I' for Inactive)
REMARK    1  A    between atoms: C2'_3  and  C1'_4 
REMARK    2  A    between atoms: C1'_4  and  C1_5 
ROOT
ATOM      1  C1  I4B d   1       1.683   3.224  -0.771  0.00  0.00    -0.075 A 
ATOM      2  C2  I4B d   1       1.451   3.507   0.551  0.00  0.00     0.003 A 
ATOM      3  C3  I4B d   1       1.482   4.846   1.010  0.00  0.00     0.002 A 
ATOM      4  C4  I4B d   1       1.797   5.859   0.128  0.00  0.00    -0.004 A 
ATOM      5  C5  I4B d   1       2.009   5.573  -1.218  0.00  0.00     0.002 A 
ATOM      6  C6  I4B d   1       1.940   4.248  -1.673  0.00  0.00     0.003 A 
ENDROOT
BRANCH   1   7
ATOM      7  C1' I4B d   1       1.676   1.795  -1.215  0.00  0.00     0.060 C 
BRANCH   7   8
ATOM      8  C2' I4B d   1       0.329   1.511  -1.849  0.00  0.00    -0.013 C 
ATOM      9  C4' I4B d   1       0.063   2.440  -3.004  0.00  0.00     0.013 C 
ATOM     10  C3' I4B d   1       0.321   0.079  -2.294  0.00  0.00     0.013 C 
ENDBRANCH   7   8
ENDBRANCH   1   7
TORSDOF 2
ENDMDL
