MODEL 1
REMARK minimizedAffinity 0.907217801
REMARK minimizedRMSD -1
REMARK  2 active torsions:
REMARK  status: ('A' for Active; 'I' for Inactive)
REMARK    1  A    between atoms: C2'_3  and  C1'_4 
REMARK    2  A    between atoms: C1'_4  and  C1_5 
ROOT
ATOM      1  C1  I4B d   1       0.820   1.408   0.294  0.00  0.00    -0.075 A 
ATOM      2  C2  I4B d   1       1.008   2.678  -0.192  0.00  0.00     0.003 A 
ATOM      3  C3  I4B d   1       1.540   2.872  -1.490  0.00  0.00     0.002 A 
ATOM      4  C4  I4B d   1       1.916   1.778  -2.241  0.00  0.00    -0.004 A 
ATOM      5  C5  I4B d   1       1.704   0.491  -1.755  0.00  0.00     0.002 A 
ATOM      6  C6  I4B d   1       1.140   0.304  -0.485  0.00  0.00     0.003 A 
ENDROOT
BRANCH   1   7
ATOM      7  C1' I4B d   1       0.285   1.240   1.681  0.00  0.00     0.060 C 
BRANCH   7   8
ATOM      8  C2' I4B d   1       1.183   0.262   2.412  0.00  0.00    -0.013 C 
ATOM      9  C4' I4B d   1       2.617   0.721   2.395  0.00  0.00     0.013 C 
ATOM     10  C3' I4B d   1       0.674   0.126   3.816  0.00  0.00     0.013 C 
ENDBRANCH   7   8
ENDBRANCH   1   7
TORSDOF 2
ENDMDL
