MODEL 1
REMARK minimizedAffinity 0.173852742
REMARK minimizedRMSD -1
REMARK  2 active torsions:
REMARK  status: ('A' for Active; 'I' for Inactive)
REMARK    1  A    between atoms: C2'_3  and  C1'_4 
REMARK    2  A    between atoms: C1'_4  and  C1_5 
ROOT
ATOM      1  C1  I4B d   1       1.507   0.354  -0.470  0.00  0.00    -0.075 A 
ATOM      2  C2  I4B d   1       0.952   1.206   0.451  0.00  0.00     0.003 A 
ATOM      3  C3  I4B d   1       0.664   2.547   0.099  0.00  0.00     0.002 A 
ATOM      4  C4  I4B d   1       0.993   3.005  -1.161  0.00  0.00    -0.004 A 
ATOM      5  C5  I4B d   1       1.535   2.133  -2.101  0.00  0.00     0.002 A 
ATOM      6  C6  I4B d   1       1.782   0.796  -1.758  0.00  0.00     0.003 A 
ENDROOT
BRANCH   1   7
ATOM      7  C1' I4B d   1       1.828  -1.047  -0.054  0.00  0.00     0.060 C 
BRANCH   7   8
ATOM      8  C2' I4B d   1       3.335  -1.203  -0.066  0.00  0.00    -0.013 C 
ATOM      9  C4' I4B d   1       3.997  -0.183   0.822  0.00  0.00     0.013 C 
ATOM     10  C3' I4B d   1       3.659  -2.598   0.378  0.00  0.00     0.013 C 
ENDBRANCH   7   8
ENDBRANCH   1   7
TORSDOF 2
ENDMDL
