MODEL 1
REMARK minimizedAffinity 1.81044877
REMARK minimizedRMSD -1
REMARK  2 active torsions:
REMARK  status: ('A' for Active; 'I' for Inactive)
REMARK    1  A    between atoms: C2'_3  and  C1'_4 
REMARK    2  A    between atoms: C1'_4  and  C1_5 
ROOT
ATOM      1  C1  I4B d   1       1.128   2.947  -1.303  0.00  0.00    -0.075 A 
ATOM      2  C2  I4B d   1       1.200   2.646   0.035  0.00  0.00     0.003 A 
ATOM      3  C3  I4B d   1       1.187   1.297   0.463  0.00  0.00     0.002 A 
ATOM      4  C4  I4B d   1       1.050   0.289  -0.469  0.00  0.00    -0.004 A 
ATOM      5  C5  I4B d   1       1.001   0.595  -1.826  0.00  0.00     0.002 A 
ATOM      6  C6  I4B d   1       1.052   1.931  -2.247  0.00  0.00     0.003 A 
ENDROOT
BRANCH   1   7
ATOM      7  C1' I4B d   1       1.112   4.384  -1.718  0.00  0.00     0.060 C 
BRANCH   7   8
ATOM      8  C2' I4B d   1       2.100   5.133  -0.848  0.00  0.00    -0.013 C 
ATOM      9  C4' I4B d   1       3.013   5.996  -1.678  0.00  0.00     0.013 C 
ATOM     10  C3' I4B d   1       1.320   5.957   0.134  0.00  0.00     0.013 C 
ENDBRANCH   7   8
ENDBRANCH   1   7
TORSDOF 2
ENDMDL
