MODEL 1
REMARK minimizedAffinity -2.17155409
REMARK minimizedRMSD -1
REMARK  2 active torsions:
REMARK  status: ('A' for Active; 'I' for Inactive)
REMARK    1  A    between atoms: C2'_3  and  C1'_4 
REMARK    2  A    between atoms: C1'_4  and  C1_5 
ROOT
ATOM      1  C1  I4B d   1       1.293   0.240  -1.241  0.00  0.00    -0.075 A 
ATOM      2  C2  I4B d   1       1.425   1.310  -2.091  0.00  0.00     0.003 A 
ATOM      3  C3  I4B d   1       1.361   2.632  -1.588  0.00  0.00     0.002 A 
ATOM      4  C4  I4B d   1       1.115   2.838  -0.246  0.00  0.00    -0.004 A 
ATOM      5  C5  I4B d   1       1.004   1.752   0.618  0.00  0.00     0.002 A 
ATOM      6  C6  I4B d   1       1.106   0.445   0.120  0.00  0.00     0.003 A 
ENDROOT
BRANCH   1   7
ATOM      7  C1' I4B d   1       1.332  -1.142  -1.811  0.00  0.00     0.060 C 
BRANCH   7   8
ATOM      8  C2' I4B d   1       0.755  -2.089  -0.778  0.00  0.00    -0.013 C 
ATOM      9  C4' I4B d   1      -0.094  -3.151  -1.427  0.00  0.00     0.013 C 
ATOM     10  C3' I4B d   1       1.896  -2.697  -0.018  0.00  0.00     0.013 C 
ENDBRANCH   7   8
ENDBRANCH   1   7
TORSDOF 2
ENDMDL
