MODEL 1
REMARK minimizedAffinity -4.36769009
REMARK minimizedRMSD -1
REMARK  1 active torsions:
REMARK  status: ('A' for Active; 'I' for Inactive)
REMARK    1  A    between atoms: C1_2  and  C2_3 
ROOT
ATOM      1  C2  UNL d   1       0.709   1.738   0.329  0.00  0.00    -0.081 A 
ATOM      2  C3  UNL d   1      -0.307   1.385  -0.568  0.00  0.00     0.006 A 
ATOM      3  C4  UNL d   1      -0.834   0.092  -0.568  0.00  0.00     0.002 A 
ATOM      4  C5  UNL d   1      -0.360  -0.867   0.334  0.00  0.00    -0.080 A 
ATOM      5  C6  UNL d   1      -0.938  -2.251   0.365  0.00  0.00     0.076 C 
ATOM      6  C7  UNL d   1       0.666  -0.520   1.218  0.00  0.00     0.002 A 
ATOM      7  C8  UNL d   1       1.194   0.773   1.218  0.00  0.00     0.006 A 
ENDROOT
BRANCH   1   8
ATOM      8  C1  UNL d   1       1.234   3.151   0.375  0.00  0.00     0.054 C 
ATOM      9  C   UNL d   1       2.720   3.178   0.705  0.00  0.00     0.018 C 
ENDBRANCH   1   8
TORSDOF 1
ENDMDL
