MODEL 1
REMARK minimizedAffinity -2.21134138
REMARK minimizedRMSD -1
REMARK  1 active torsions:
REMARK  status: ('A' for Active; 'I' for Inactive)
REMARK    1  A    between atoms: C1_2  and  C2_3 
ROOT
ATOM      1  C2  UNL d   1       0.002   0.121   0.095  0.00  0.00    -0.081 A 
ATOM      2  C3  UNL d   1       0.856  -0.553  -0.786  0.00  0.00     0.006 A 
ATOM      3  C4  UNL d   1       0.907  -1.949  -0.794  0.00  0.00     0.002 A 
ATOM      4  C5  UNL d   1       0.099  -2.693   0.072  0.00  0.00    -0.080 A 
ATOM      5  C6  UNL d   1       0.121  -4.193   0.052  0.00  0.00     0.076 C 
ATOM      6  C7  UNL d   1      -0.743  -2.020   0.964  0.00  0.00     0.002 A 
ATOM      7  C8  UNL d   1      -0.793  -0.624   0.973  0.00  0.00     0.006 A 
ENDROOT
BRANCH   1   8
ATOM      8  C1  UNL d   1      -0.103   1.625   0.061  0.00  0.00     0.054 C 
ATOM      9  C   UNL d   1       1.269   2.277   0.166  0.00  0.00     0.018 C 
ENDBRANCH   1   8
TORSDOF 1
ENDMDL
