MODEL 1
REMARK minimizedAffinity -4.56786823
REMARK minimizedRMSD -1
REMARK  1 active torsions:
REMARK  status: ('A' for Active; 'I' for Inactive)
REMARK    1  A    between atoms: C1_2  and  C2_3 
ROOT
ATOM      1  C2  UNL d   1       0.380   0.755  -0.284  0.00  0.00    -0.081 A 
ATOM      2  C3  UNL d   1      -0.408   0.321   0.789  0.00  0.00     0.006 A 
ATOM      3  C4  UNL d   1      -0.635  -1.042   0.995  0.00  0.00     0.002 A 
ATOM      4  C5  UNL d   1      -0.072  -1.993   0.137  0.00  0.00    -0.080 A 
ATOM      5  C6  UNL d   1      -0.282  -3.460   0.365  0.00  0.00     0.076 C 
ATOM      6  C7  UNL d   1       0.701  -1.558  -0.945  0.00  0.00     0.002 A 
ATOM      7  C8  UNL d   1       0.928  -0.196  -1.152  0.00  0.00     0.006 A 
ENDROOT
BRANCH   1   8
ATOM      8  C1  UNL d   1       0.680   2.221  -0.470  0.00  0.00     0.054 C 
ATOM      9  C   UNL d   1       1.928   2.632   0.297  0.00  0.00     0.018 C 
ENDBRANCH   1   8
TORSDOF 1
ENDMDL
