MODEL 1
REMARK minimizedAffinity 0.383685052
REMARK minimizedRMSD -1
REMARK  1 active torsions:
REMARK  status: ('A' for Active; 'I' for Inactive)
REMARK    1  A    between atoms: C1_2  and  C2_3 
ROOT
ATOM      1  C2  UNL d   1       5.760  -3.162   0.434  0.00  0.00    -0.081 A 
ATOM      2  C3  UNL d   1       5.247  -1.896   0.125  0.00  0.00     0.006 A 
ATOM      3  C4  UNL d   1       4.969  -1.549  -1.199  0.00  0.00     0.002 A 
ATOM      4  C5  UNL d   1       5.192  -2.462  -2.234  0.00  0.00    -0.080 A 
ATOM      5  C6  UNL d   1       4.869  -2.112  -3.657  0.00  0.00     0.076 C 
ATOM      6  C7  UNL d   1       5.721  -3.721  -1.928  0.00  0.00     0.002 A 
ATOM      7  C8  UNL d   1       5.999  -4.069  -0.605  0.00  0.00     0.006 A 
ENDROOT
BRANCH   1   8
ATOM      8  C1  UNL d   1       6.000  -3.563   1.867  0.00  0.00     0.054 C 
ATOM      9  C   UNL d   1       4.875  -3.082   2.772  0.00  0.00     0.018 C 
ENDBRANCH   1   8
TORSDOF 1
ENDMDL
