MODEL 1
REMARK minimizedAffinity -2.11158395
REMARK minimizedRMSD -1
REMARK  1 active torsions:
REMARK  status: ('A' for Active; 'I' for Inactive)
REMARK    1  A    between atoms: C1_2  and  C2_3 
ROOT
ATOM      1  C2  UNL d   1       1.091   1.090  -0.197  0.00  0.00    -0.081 A 
ATOM      2  C3  UNL d   1       0.782   0.529   1.049  0.00  0.00     0.006 A 
ATOM      3  C4  UNL d   1       0.026  -0.643   1.130  0.00  0.00     0.002 A 
ATOM      4  C5  UNL d   1      -0.428  -1.277  -0.032  0.00  0.00    -0.080 A 
ATOM      5  C6  UNL d   1      -1.215  -2.551   0.040  0.00  0.00     0.076 C 
ATOM      6  C7  UNL d   1      -0.134  -0.707  -1.276  0.00  0.00     0.002 A 
ATOM      7  C8  UNL d   1       0.621   0.465  -1.357  0.00  0.00     0.006 A 
ENDROOT
BRANCH   1   8
ATOM      8  C1  UNL d   1       1.961   2.317  -0.290  0.00  0.00     0.054 C 
ATOM      9  C   UNL d   1       2.074   3.019   1.056  0.00  0.00     0.018 C 
ENDBRANCH   1   8
TORSDOF 1
ENDMDL
