MODEL 1
REMARK minimizedAffinity -3.74087644
REMARK minimizedRMSD -1
REMARK  1 active torsions:
REMARK  status: ('A' for Active; 'I' for Inactive)
REMARK    1  A    between atoms: C1_2  and  C2_3 
ROOT
ATOM      1  C2  UNL d   1      -0.052   1.095   0.079  0.00  0.00    -0.081 A 
ATOM      2  C3  UNL d   1      -0.609   0.397   1.158  0.00  0.00     0.006 A 
ATOM      3  C4  UNL d   1      -0.835  -0.979   1.070  0.00  0.00     0.002 A 
ATOM      4  C5  UNL d   1      -0.502  -1.681  -0.093  0.00  0.00    -0.080 A 
ATOM      5  C6  UNL d   1      -0.712  -3.162  -0.189  0.00  0.00     0.076 C 
ATOM      6  C7  UNL d   1       0.038  -0.981  -1.178  0.00  0.00     0.002 A 
ATOM      7  C8  UNL d   1       0.264   0.395  -1.091  0.00  0.00     0.006 A 
ENDROOT
BRANCH   1   8
ATOM      8  C1  UNL d   1       0.254   2.566   0.193  0.00  0.00     0.054 C 
ATOM      9  C   UNL d   1       1.557   2.804   0.943  0.00  0.00     0.018 C 
ENDBRANCH   1   8
TORSDOF 1
ENDMDL
