MODEL 1
REMARK minimizedAffinity -2.08360958
REMARK minimizedRMSD -1
REMARK  1 active torsions:
REMARK  status: ('A' for Active; 'I' for Inactive)
REMARK    1  A    between atoms: C1_2  and  C2_3 
ROOT
ATOM      1  C2  UNL d   1       1.107   1.678   0.702  0.00  0.00    -0.081 A 
ATOM      2  C3  UNL d   1       0.380   1.309   1.840  0.00  0.00     0.006 A 
ATOM      3  C4  UNL d   1      -0.346   0.116   1.861  0.00  0.00     0.002 A 
ATOM      4  C5  UNL d   1      -0.351  -0.732   0.748  0.00  0.00    -0.080 A 
ATOM      5  C6  UNL d   1      -1.102  -2.030   0.768  0.00  0.00     0.076 C 
ATOM      6  C7  UNL d   1       0.361  -0.355  -0.396  0.00  0.00     0.002 A 
ATOM      7  C8  UNL d   1       1.087   0.838  -0.417  0.00  0.00     0.006 A 
ENDROOT
BRANCH   1   8
ATOM      8  C1  UNL d   1       1.944   2.932   0.700  0.00  0.00     0.054 C 
ATOM      9  C   UNL d   1       1.155   4.124   1.221  0.00  0.00     0.018 C 
ENDBRANCH   1   8
TORSDOF 1
ENDMDL
