MODEL 1
REMARK minimizedAffinity -1.83760047
REMARK minimizedRMSD -1
REMARK  1 active torsions:
REMARK  status: ('A' for Active; 'I' for Inactive)
REMARK    1  A    between atoms: C1_2  and  C2_3 
ROOT
ATOM      1  C2  UNL d   1       0.030   1.377   0.201  0.00  0.00    -0.081 A 
ATOM      2  C3  UNL d   1      -0.676   0.919   1.320  0.00  0.00     0.006 A 
ATOM      3  C4  UNL d   1      -0.987  -0.436   1.454  0.00  0.00     0.002 A 
ATOM      4  C5  UNL d   1      -0.591  -1.356   0.477  0.00  0.00    -0.080 A 
ATOM      5  C6  UNL d   1      -0.892  -2.818   0.624  0.00  0.00     0.076 C 
ATOM      6  C7  UNL d   1       0.100  -0.895  -0.649  0.00  0.00     0.002 A 
ATOM      7  C8  UNL d   1       0.410   0.459  -0.784  0.00  0.00     0.006 A 
ENDROOT
BRANCH   1   8
ATOM      8  C1  UNL d   1       0.424   2.828   0.085  0.00  0.00     0.054 C 
ATOM      9  C   UNL d   1       1.838   3.060   0.599  0.00  0.00     0.018 C 
ENDBRANCH   1   8
TORSDOF 1
ENDMDL
