MODEL 1
REMARK minimizedAffinity -3.59332108
REMARK minimizedRMSD -1
REMARK  1 active torsions:
REMARK  status: ('A' for Active; 'I' for Inactive)
REMARK    1  A    between atoms: C1_2  and  C2_3 
ROOT
ATOM      1  C2  UNL d   1       0.940   1.298  -0.562  0.00  0.00    -0.081 A 
ATOM      2  C3  UNL d   1       0.766   0.734   0.708  0.00  0.00     0.006 A 
ATOM      3  C4  UNL d   1       0.193  -0.532   0.848  0.00  0.00     0.002 A 
ATOM      4  C5  UNL d   1      -0.208  -1.258  -0.278  0.00  0.00    -0.080 A 
ATOM      5  C6  UNL d   1      -0.797  -2.631  -0.143  0.00  0.00     0.076 C 
ATOM      6  C7  UNL d   1      -0.051  -0.688  -1.546  0.00  0.00     0.002 A 
ATOM      7  C8  UNL d   1       0.521   0.579  -1.687  0.00  0.00     0.006 A 
ENDROOT
BRANCH   1   8
ATOM      8  C1  UNL d   1       1.616   2.636  -0.721  0.00  0.00     0.054 C 
ATOM      9  C   UNL d   1       2.028   3.211   0.627  0.00  0.00     0.018 C 
ENDBRANCH   1   8
TORSDOF 1
ENDMDL
