MODEL 1
REMARK minimizedAffinity -3.46444893
REMARK minimizedRMSD -1
REMARK  1 active torsions:
REMARK  status: ('A' for Active; 'I' for Inactive)
REMARK    1  A    between atoms: C1_2  and  C2_3 
ROOT
ATOM      1  C2  UNL d   1       0.467  -1.430  -2.331  0.00  0.00    -0.081 A 
ATOM      2  C3  UNL d   1       0.618  -0.122  -1.853  0.00  0.00     0.006 A 
ATOM      3  C4  UNL d   1       0.158   0.225  -0.581  0.00  0.00     0.002 A 
ATOM      4  C5  UNL d   1      -0.454  -0.731   0.238  0.00  0.00    -0.080 A 
ATOM      5  C6  UNL d   1      -0.925  -0.380   1.617  0.00  0.00     0.076 C 
ATOM      6  C7  UNL d   1      -0.620  -2.033  -0.246  0.00  0.00     0.002 A 
ATOM      7  C8  UNL d   1      -0.161  -2.380  -1.519  0.00  0.00     0.006 A 
ENDROOT
BRANCH   1   8
ATOM      8  C1  UNL d   1       1.020  -1.822  -3.677  0.00  0.00     0.054 C 
ATOM      9  C   UNL d   1       2.192  -2.782  -3.535  0.00  0.00     0.018 C 
ENDBRANCH   1   8
TORSDOF 1
ENDMDL
