MODEL 1
REMARK minimizedAffinity -4.44326735
REMARK minimizedRMSD -1
REMARK  1 active torsions:
REMARK  status: ('A' for Active; 'I' for Inactive)
REMARK    1  A    between atoms: C1_2  and  C2_3 
ROOT
ATOM      1  C2  UNL d   1       0.114   0.051   0.064  0.00  0.00    -0.081 A 
ATOM      2  C3  UNL d   1       0.350  -0.340  -1.260  0.00  0.00     0.006 A 
ATOM      3  C4  UNL d   1       0.154  -1.667  -1.651  0.00  0.00     0.002 A 
ATOM      4  C5  UNL d   1      -0.288  -2.621  -0.729  0.00  0.00    -0.080 A 
ATOM      5  C6  UNL d   1      -0.531  -4.042  -1.143  0.00  0.00     0.076 C 
ATOM      6  C7  UNL d   1      -0.506  -2.234   0.598  0.00  0.00     0.002 A 
ATOM      7  C8  UNL d   1      -0.310  -0.908   0.990  0.00  0.00     0.006 A 
ENDROOT
BRANCH   1   8
ATOM      8  C1  UNL d   1       0.263   1.494   0.474  0.00  0.00     0.054 C 
ATOM      9  C   UNL d   1       1.725   1.863   0.682  0.00  0.00     0.018 C 
ENDBRANCH   1   8
TORSDOF 1
ENDMDL
