MODEL 1
REMARK minimizedAffinity 9.80092716
REMARK minimizedRMSD -1
REMARK  0 active torsions:
REMARK  status: ('A' for Active; 'I' for Inactive)
ROOT
ATOM      1  C1  DEN d   1      -4.045   2.501  -4.086  0.00  0.00     0.130 A 
ATOM      2  C2  DEN d   1      -5.054   3.403  -4.636  0.00  0.00    -0.031 A 
ATOM      3  C3  DEN d   1      -6.000   3.743  -3.555  0.00  0.00     0.027 A 
ATOM      4  C4  DEN d   1      -5.998   2.971  -1.094  0.00  0.00     0.027 A 
ATOM      5  C5  DEN d   1      -5.347   2.193  -0.162  0.00  0.00    -0.003 A 
ATOM      6  C6  DEN d   1      -4.245   1.443  -0.478  0.00  0.00     0.001 A 
ATOM      7  C7  DEN d   1      -3.734   1.490  -1.748  0.00  0.00     0.017 A 
ATOM      8  C8  DEN d   1      -4.389   2.266  -2.695  0.00  0.00    -0.094 A 
ATOM      9  C9  DEN d   1      -5.494   3.027  -2.353  0.00  0.00    -0.072 A 
ENDROOT
TORSDOF 0
ENDMDL
