MODEL 1
REMARK minimizedAffinity 2.36645699
REMARK minimizedRMSD -1
REMARK  0 active torsions:
REMARK  status: ('A' for Active; 'I' for Inactive)
ROOT
ATOM      1  C1  DEN d   1       2.494   3.719  -0.371  0.00  0.00     0.130 A 
ATOM      2  C2  DEN d   1       1.374   4.601  -0.690  0.00  0.00    -0.031 A 
ATOM      3  C3  DEN d   1       0.144   3.993  -0.146  0.00  0.00     0.027 A 
ATOM      4  C4  DEN d   1      -0.135   1.785   1.157  0.00  0.00     0.027 A 
ATOM      5  C5  DEN d   1       0.527   0.686   1.660  0.00  0.00    -0.003 A 
ATOM      6  C6  DEN d   1       1.875   0.507   1.493  0.00  0.00     0.001 A 
ATOM      7  C7  DEN d   1       2.612   1.463   0.845  0.00  0.00     0.017 A 
ATOM      8  C8  DEN d   1       1.950   2.569   0.329  0.00  0.00    -0.094 A 
ATOM      9  C9  DEN d   1       0.589   2.738   0.519  0.00  0.00    -0.072 A 
ENDROOT
TORSDOF 0
ENDMDL
