MODEL 1
REMARK minimizedAffinity 10.7059011
REMARK minimizedRMSD -1
REMARK  0 active torsions:
REMARK  status: ('A' for Active; 'I' for Inactive)
ROOT
ATOM      1  C1  DEN d   1      -2.624   1.933   0.024  0.00  0.00     0.130 A 
ATOM      2  C2  DEN d   1      -3.114   2.142   1.384  0.00  0.00    -0.031 A 
ATOM      3  C3  DEN d   1      -4.521   2.585   1.299  0.00  0.00     0.027 A 
ATOM      4  C4  DEN d   1      -5.980   2.960  -0.795  0.00  0.00     0.027 A 
ATOM      5  C5  DEN d   1      -5.998   2.923  -2.172  0.00  0.00    -0.003 A 
ATOM      6  C6  DEN d   1      -4.892   2.589  -2.908  0.00  0.00     0.001 A 
ATOM      7  C7  DEN d   1      -3.733   2.235  -2.270  0.00  0.00     0.017 A 
ATOM      8  C8  DEN d   1      -3.705   2.277  -0.882  0.00  0.00    -0.094 A 
ATOM      9  C9  DEN d   1      -4.837   2.605  -0.155  0.00  0.00    -0.072 A 
ENDROOT
TORSDOF 0
ENDMDL
