MODEL 1
REMARK minimizedAffinity 12.0695925
REMARK minimizedRMSD -1
REMARK  0 active torsions:
REMARK  status: ('A' for Active; 'I' for Inactive)
ROOT
ATOM      1  C1  DEN d   1       2.288   0.175   4.173  0.00  0.00     0.130 A 
ATOM      2  C2  DEN d   1       2.661  -1.234   4.250  0.00  0.00    -0.031 A 
ATOM      3  C3  DEN d   1       3.069  -1.674   2.901  0.00  0.00     0.027 A 
ATOM      4  C4  DEN d   1       3.162  -0.314   0.711  0.00  0.00     0.027 A 
ATOM      5  C5  DEN d   1       2.929   0.920   0.145  0.00  0.00    -0.003 A 
ATOM      6  C6  DEN d   1       2.438   1.974   0.869  0.00  0.00     0.001 A 
ATOM      7  C7  DEN d   1       2.206   1.827   2.211  0.00  0.00     0.017 A 
ATOM      8  C8  DEN d   1       2.431   0.583   2.787  0.00  0.00    -0.094 A 
ATOM      9  C9  DEN d   1       2.940  -0.466   2.041  0.00  0.00    -0.072 A 
ENDROOT
TORSDOF 0
ENDMDL
