MODEL 1
REMARK minimizedAffinity 8.26626396
REMARK minimizedRMSD -1
REMARK  0 active torsions:
REMARK  status: ('A' for Active; 'I' for Inactive)
ROOT
ATOM      1  C1  DEN d   1       0.753  -0.513   2.503  0.00  0.00     0.130 A 
ATOM      2  C2  DEN d   1       1.913  -1.396   2.581  0.00  0.00    -0.031 A 
ATOM      3  C3  DEN d   1       3.046  -0.722   1.916  0.00  0.00     0.027 A 
ATOM      4  C4  DEN d   1       3.117   1.594   0.783  0.00  0.00     0.027 A 
ATOM      5  C5  DEN d   1       2.375   2.707   0.456  0.00  0.00    -0.003 A 
ATOM      6  C6  DEN d   1       1.042   2.810   0.756  0.00  0.00     0.001 A 
ATOM      7  C7  DEN d   1       0.421   1.800   1.442  0.00  0.00     0.017 A 
ATOM      8  C8  DEN d   1       1.162   0.671   1.769  0.00  0.00    -0.094 A 
ATOM      9  C9  DEN d   1       2.511   0.592   1.468  0.00  0.00    -0.072 A 
ENDROOT
TORSDOF 0
ENDMDL
