MODEL 1
REMARK minimizedAffinity 4.90142155
REMARK minimizedRMSD -1
REMARK  0 active torsions:
REMARK  status: ('A' for Active; 'I' for Inactive)
ROOT
ATOM      1  C1  DEN d   1       0.986   2.081   1.044  0.00  0.00     0.130 A 
ATOM      2  C2  DEN d   1       2.099   2.894   1.527  0.00  0.00    -0.031 A 
ATOM      3  C3  DEN d   1       2.957   2.038   2.371  0.00  0.00     0.027 A 
ATOM      4  C4  DEN d   1       2.674  -0.455   2.968  0.00  0.00     0.027 A 
ATOM      5  C5  DEN d   1       1.876  -1.566   2.803  0.00  0.00    -0.003 A 
ATOM      6  C6  DEN d   1       0.717  -1.530   2.074  0.00  0.00     0.001 A 
ATOM      7  C7  DEN d   1       0.347  -0.371   1.445  0.00  0.00     0.017 A 
ATOM      8  C8  DEN d   1       1.142   0.755   1.613  0.00  0.00    -0.094 A 
ATOM      9  C9  DEN d   1       2.316   0.695   2.344  0.00  0.00    -0.072 A 
ENDROOT
TORSDOF 0
ENDMDL
