MODEL 1
REMARK minimizedAffinity 10.7641239
REMARK minimizedRMSD -1
REMARK  1 active torsions:
REMARK  status: ('A' for Active; 'I' for Inactive)
REMARK    1  A    between atoms: C1_2  and  C2_3 
ROOT
ATOM      1  C2  UNL d   1       4.557   3.081  -1.616  0.00  0.00    -0.073 A 
ATOM      2  C3  UNL d   1       5.498   4.106  -1.465  0.00  0.00    -0.002 A 
ATOM      3  C4  UNL d   1       5.993   4.427  -0.201  0.00  0.00     0.004 A 
ATOM      4  C5  UNL d   1       5.560   3.723   0.923  0.00  0.00    -0.004 A 
ATOM      5  C6  UNL d   1       4.630   2.687   0.790  0.00  0.00    -0.075 A 
ATOM      6  C7  UNL d   1       4.152   1.922   1.989  0.00  0.00     0.076 C 
ATOM      7  C8  UNL d   1       4.135   2.373  -0.482  0.00  0.00     0.001 A 
ENDROOT
BRANCH   1   8
ATOM      8  C1  UNL d   1       4.024   2.726  -2.981  0.00  0.00     0.053 C 
ATOM      9  C   UNL d   1       2.714   3.437  -3.283  0.00  0.00     0.018 C 
ENDBRANCH   1   8
TORSDOF 1
ENDMDL
