MODEL 1
REMARK minimizedAffinity 16.877861
REMARK minimizedRMSD -1
REMARK  1 active torsions:
REMARK  status: ('A' for Active; 'I' for Inactive)
REMARK    1  A    between atoms: C1_2  and  C2_3 
ROOT
ATOM      1  C2  UNL d   1      -3.626  -0.542   2.664  0.00  0.00    -0.073 A 
ATOM      2  C3  UNL d   1      -4.811  -1.254   2.876  0.00  0.00    -0.002 A 
ATOM      3  C4  UNL d   1      -5.503  -1.129   4.081  0.00  0.00     0.004 A 
ATOM      4  C5  UNL d   1      -5.022  -0.285   5.083  0.00  0.00    -0.004 A 
ATOM      5  C6  UNL d   1      -3.845   0.444   4.885  0.00  0.00    -0.075 A 
ATOM      6  C7  UNL d   1      -3.313   1.354   5.953  0.00  0.00     0.076 C 
ATOM      7  C8  UNL d   1      -3.154   0.311   3.673  0.00  0.00     0.001 A 
ENDROOT
BRANCH   1   8
ATOM      8  C1  UNL d   1      -2.878  -0.669   1.362  0.00  0.00     0.053 C 
ATOM      9  C   UNL d   1      -1.376  -0.776   1.575  0.00  0.00     0.018 C 
ENDBRANCH   1   8
TORSDOF 1
ENDMDL
