MODEL 1
REMARK minimizedAffinity 2.42107081
REMARK minimizedRMSD -1
REMARK  1 active torsions:
REMARK  status: ('A' for Active; 'I' for Inactive)
REMARK    1  A    between atoms: C1_2  and  C2_3 
ROOT
ATOM      1  C2  UNL d   1      -3.398  -0.680   2.704  0.00  0.00    -0.073 A 
ATOM      2  C3  UNL d   1      -4.750  -1.001   2.868  0.00  0.00    -0.002 A 
ATOM      3  C4  UNL d   1      -5.449  -0.555   3.991  0.00  0.00     0.004 A 
ATOM      4  C5  UNL d   1      -4.807   0.221   4.955  0.00  0.00    -0.004 A 
ATOM      5  C6  UNL d   1      -3.459   0.562   4.803  0.00  0.00    -0.075 A 
ATOM      6  C7  UNL d   1      -2.753   1.394   5.833  0.00  0.00     0.076 C 
ATOM      7  C8  UNL d   1      -2.763   0.108   3.675  0.00  0.00     0.001 A 
ENDROOT
BRANCH   1   8
ATOM      8  C1  UNL d   1      -2.640  -1.155   1.491  0.00  0.00     0.053 C 
ATOM      9  C   UNL d   1      -1.139  -0.979   1.652  0.00  0.00     0.018 C 
ENDBRANCH   1   8
TORSDOF 1
ENDMDL
