MODEL 1
REMARK minimizedAffinity 10.0373011
REMARK minimizedRMSD -1
REMARK  1 active torsions:
REMARK  status: ('A' for Active; 'I' for Inactive)
REMARK    1  A    between atoms: C1_2  and  C2_3 
ROOT
ATOM      1  C2  UNL d   1       3.765  -3.646  -0.404  0.00  0.00    -0.073 A 
ATOM      2  C3  UNL d   1       4.458  -2.653  -1.105  0.00  0.00    -0.002 A 
ATOM      3  C4  UNL d   1       4.383  -1.320  -0.698  0.00  0.00     0.004 A 
ATOM      4  C5  UNL d   1       3.622  -0.969   0.417  0.00  0.00    -0.004 A 
ATOM      5  C6  UNL d   1       2.931  -1.948   1.137  0.00  0.00    -0.075 A 
ATOM      6  C7  UNL d   1       2.106  -1.586   2.337  0.00  0.00     0.076 C 
ATOM      7  C8  UNL d   1       3.009  -3.284   0.720  0.00  0.00     0.001 A 
ENDROOT
BRANCH   1   8
ATOM      8  C1  UNL d   1       3.847  -5.087  -0.837  0.00  0.00     0.053 C 
ATOM      9  C   UNL d   1       4.278  -6.000   0.301  0.00  0.00     0.018 C 
ENDBRANCH   1   8
TORSDOF 1
ENDMDL
