MODEL 1
REMARK minimizedAffinity 8.65802956
REMARK minimizedRMSD -1
REMARK  1 active torsions:
REMARK  status: ('A' for Active; 'I' for Inactive)
REMARK    1  A    between atoms: C1_2  and  C2_3 
ROOT
ATOM      1  C2  UNL d   1      -3.615   2.164   5.034  0.00  0.00    -0.073 A 
ATOM      2  C3  UNL d   1      -4.825   1.465   5.108  0.00  0.00    -0.002 A 
ATOM      3  C4  UNL d   1      -6.000   2.125   5.470  0.00  0.00     0.004 A 
ATOM      4  C5  UNL d   1      -5.978   3.491   5.755  0.00  0.00    -0.004 A 
ATOM      5  C6  UNL d   1      -4.781   4.209   5.674  0.00  0.00    -0.075 A 
ATOM      6  C7  UNL d   1      -4.741   5.678   5.979  0.00  0.00     0.076 C 
ATOM      7  C8  UNL d   1      -3.605   3.538   5.313  0.00  0.00     0.001 A 
ENDROOT
BRANCH   1   8
ATOM      8  C1  UNL d   1      -2.345   1.456   4.637  0.00  0.00     0.053 C 
ATOM      9  C   UNL d   1      -2.554   0.537   3.444  0.00  0.00     0.018 C 
ENDBRANCH   1   8
TORSDOF 1
ENDMDL
