MODEL 1
REMARK minimizedAffinity 9.25130939
REMARK minimizedRMSD -1
REMARK  1 active torsions:
REMARK  status: ('A' for Active; 'I' for Inactive)
REMARK    1  A    between atoms: C1_2  and  C2_3 
ROOT
ATOM      1  C2  UNL d   1      -5.957  -0.797  -2.592  0.00  0.00    -0.073 A 
ATOM      2  C3  UNL d   1      -5.977   0.123  -3.647  0.00  0.00    -0.002 A 
ATOM      3  C4  UNL d   1      -5.993  -0.322  -4.970  0.00  0.00     0.004 A 
ATOM      4  C5  UNL d   1      -5.995  -1.689  -5.251  0.00  0.00    -0.004 A 
ATOM      5  C6  UNL d   1      -5.987  -2.623  -4.210  0.00  0.00    -0.075 A 
ATOM      6  C7  UNL d   1      -5.988  -4.096  -4.496  0.00  0.00     0.076 C 
ATOM      7  C8  UNL d   1      -5.969  -2.168  -2.885  0.00  0.00     0.001 A 
ENDROOT
BRANCH   1   8
ATOM      8  C1  UNL d   1      -5.947  -0.321  -1.163  0.00  0.00     0.053 C 
ATOM      9  C   UNL d   1      -5.960   1.196  -1.067  0.00  0.00     0.018 C 
ENDBRANCH   1   8
TORSDOF 1
ENDMDL
