MODEL 1
REMARK minimizedAffinity -0.0430238545
REMARK minimizedRMSD -1
REMARK  1 active torsions:
REMARK  status: ('A' for Active; 'I' for Inactive)
REMARK    1  A    between atoms: C1_2  and  C2_3 
ROOT
ATOM      1  C2  UNL d   1      -1.335  -4.391  -4.067  0.00  0.00    -0.073 A 
ATOM      2  C3  UNL d   1      -2.099  -5.050  -5.037  0.00  0.00    -0.002 A 
ATOM      3  C4  UNL d   1      -1.480  -5.848  -6.000  0.00  0.00     0.004 A 
ATOM      4  C5  UNL d   1      -0.093  -6.000  -6.000  0.00  0.00    -0.004 A 
ATOM      5  C6  UNL d   1       0.686  -5.359  -5.032  0.00  0.00    -0.075 A 
ATOM      6  C7  UNL d   1       2.179  -5.510  -5.019  0.00  0.00     0.076 C 
ATOM      7  C8  UNL d   1       0.057  -4.557  -4.069  0.00  0.00     0.001 A 
ENDROOT
BRANCH   1   8
ATOM      8  C1  UNL d   1      -2.000  -3.534  -3.021  0.00  0.00     0.053 C 
ATOM      9  C   UNL d   1      -1.480  -3.835  -1.624  0.00  0.00     0.018 C 
ENDBRANCH   1   8
TORSDOF 1
ENDMDL
