MODEL 1
REMARK minimizedAffinity 21.6288891
REMARK minimizedRMSD -1
REMARK  1 active torsions:
REMARK  status: ('A' for Active; 'I' for Inactive)
REMARK    1  A    between atoms: C1_2  and  C2_3 
ROOT
ATOM      1  C2  UNL d   1      -6.000  -0.335  -2.017  0.00  0.00    -0.073 A 
ATOM      2  C3  UNL d   1      -5.982   1.062  -1.921  0.00  0.00    -0.002 A 
ATOM      3  C4  UNL d   1      -5.977   1.682  -0.671  0.00  0.00     0.004 A 
ATOM      4  C5  UNL d   1      -5.982   0.915   0.494  0.00  0.00    -0.004 A 
ATOM      5  C6  UNL d   1      -5.987  -0.482   0.419  0.00  0.00    -0.075 A 
ATOM      6  C7  UNL d   1      -5.995  -1.321   1.662  0.00  0.00     0.076 C 
ATOM      7  C8  UNL d   1      -5.995  -1.098  -0.840  0.00  0.00     0.001 A 
ENDROOT
BRANCH   1   8
ATOM      8  C1  UNL d   1      -5.999  -1.009  -3.364  0.00  0.00     0.053 C 
ATOM      9  C   UNL d   1      -5.993  -2.525  -3.243  0.00  0.00     0.018 C 
ENDBRANCH   1   8
TORSDOF 1
ENDMDL
