MODEL 1
REMARK minimizedAffinity 22.3079395
REMARK minimizedRMSD -1
REMARK  1 active torsions:
REMARK  status: ('A' for Active; 'I' for Inactive)
REMARK    1  A    between atoms: C1_2  and  C2_3 
ROOT
ATOM      1  C2  UNL d   1       0.051  -1.417   2.145  0.00  0.00    -0.073 A 
ATOM      2  C3  UNL d   1      -0.863  -2.227   1.463  0.00  0.00    -0.002 A 
ATOM      3  C4  UNL d   1      -2.210  -1.869   1.395  0.00  0.00     0.004 A 
ATOM      4  C5  UNL d   1      -2.655  -0.695   2.002  0.00  0.00    -0.004 A 
ATOM      5  C6  UNL d   1      -1.755   0.135   2.678  0.00  0.00    -0.075 A 
ATOM      6  C7  UNL d   1      -2.219   1.400   3.338  0.00  0.00     0.076 C 
ATOM      7  C8  UNL d   1      -0.405  -0.233   2.744  0.00  0.00     0.001 A 
ENDROOT
BRANCH   1   8
ATOM      8  C1  UNL d   1       1.507  -1.796   2.216  0.00  0.00     0.053 C 
ATOM      9  C   UNL d   1       2.213  -1.134   3.389  0.00  0.00     0.018 C 
ENDBRANCH   1   8
TORSDOF 1
ENDMDL
