MODEL 1
REMARK minimizedAffinity 6.50711775
REMARK minimizedRMSD -1
REMARK  1 active torsions:
REMARK  status: ('A' for Active; 'I' for Inactive)
REMARK    1  A    between atoms: C1_2  and  C2_3 
ROOT
ATOM      1  C2  UNL d   1       3.352  -0.907  -0.209  0.00  0.00    -0.073 A 
ATOM      2  C3  UNL d   1       4.163  -1.688  -1.040  0.00  0.00    -0.002 A 
ATOM      3  C4  UNL d   1       4.129  -3.080  -0.952  0.00  0.00     0.004 A 
ATOM      4  C5  UNL d   1       3.279  -3.705  -0.040  0.00  0.00    -0.004 A 
ATOM      5  C6  UNL d   1       2.452  -2.942   0.790  0.00  0.00    -0.075 A 
ATOM      6  C7  UNL d   1       1.533  -3.599   1.779  0.00  0.00     0.076 C 
ATOM      7  C8  UNL d   1       2.494  -1.545   0.698  0.00  0.00     0.001 A 
ENDROOT
BRANCH   1   8
ATOM      8  C1  UNL d   1       3.380   0.597  -0.305  0.00  0.00     0.053 C 
ATOM      9  C   UNL d   1       2.264   1.133  -1.187  0.00  0.00     0.018 C 
ENDBRANCH   1   8
TORSDOF 1
ENDMDL
