MODEL 1
REMARK minimizedAffinity 14.1059837
REMARK minimizedRMSD -1
REMARK  1 active torsions:
REMARK  status: ('A' for Active; 'I' for Inactive)
REMARK    1  A    between atoms: C1_2  and  C2_3 
ROOT
ATOM      1  C2  UNL d   1      -4.922   0.157  -0.718  0.00  0.00    -0.073 A 
ATOM      2  C3  UNL d   1      -6.000   0.603   0.055  0.00  0.00    -0.002 A 
ATOM      3  C4  UNL d   1      -5.862   0.755   1.435  0.00  0.00     0.004 A 
ATOM      4  C5  UNL d   1      -4.645   0.471   2.055  0.00  0.00    -0.004 A 
ATOM      5  C6  UNL d   1      -3.553   0.036   1.298  0.00  0.00    -0.075 A 
ATOM      6  C7  UNL d   1      -2.238  -0.277   1.950  0.00  0.00     0.076 C 
ATOM      7  C8  UNL d   1      -3.700  -0.118  -0.087  0.00  0.00     0.001 A 
ENDROOT
BRANCH   1   8
ATOM      8  C1  UNL d   1      -5.064  -0.003  -2.209  0.00  0.00     0.053 C 
ATOM      9  C   UNL d   1      -6.000  -1.145  -2.574  0.00  0.00     0.018 C 
ENDBRANCH   1   8
TORSDOF 1
ENDMDL
