MODEL 1
REMARK minimizedAffinity 10.8672991
REMARK minimizedRMSD -1
REMARK  1 active torsions:
REMARK  status: ('A' for Active; 'I' for Inactive)
REMARK    1  A    between atoms: C1_2  and  C2_3 
ROOT
ATOM      1  C2  UNL d   1      -0.095  -1.576   1.581  0.00  0.00    -0.073 A 
ATOM      2  C3  UNL d   1      -0.364  -0.204   1.646  0.00  0.00    -0.002 A 
ATOM      3  C4  UNL d   1      -1.680   0.255   1.707  0.00  0.00     0.004 A 
ATOM      4  C5  UNL d   1      -2.740  -0.652   1.711  0.00  0.00    -0.004 A 
ATOM      5  C6  UNL d   1      -2.492  -2.027   1.658  0.00  0.00    -0.075 A 
ATOM      6  C7  UNL d   1      -3.621  -3.016   1.659  0.00  0.00     0.076 C 
ATOM      7  C8  UNL d   1      -1.167  -2.480   1.594  0.00  0.00     0.001 A 
ENDROOT
BRANCH   1   8
ATOM      8  C1  UNL d   1       1.325  -2.076   1.521  0.00  0.00     0.053 C 
ATOM      9  C   UNL d   1       1.455  -3.321   0.658  0.00  0.00     0.018 C 
ENDBRANCH   1   8
TORSDOF 1
ENDMDL
