MODEL 1
REMARK minimizedAffinity -4.6078372
REMARK minimizedRMSD -1
REMARK  1 active torsions:
REMARK  status: ('A' for Active; 'I' for Inactive)
REMARK    1  A    between atoms: C1_2  and  C2_3 
ROOT
ATOM      1  C2  UNL d   1       0.347   0.367  -0.332  0.00  0.00    -0.073 A 
ATOM      2  C3  UNL d   1       1.504  -0.263   0.140  0.00  0.00    -0.002 A 
ATOM      3  C4  UNL d   1       1.422  -1.497   0.787  0.00  0.00     0.004 A 
ATOM      4  C5  UNL d   1       0.184  -2.116   0.961  0.00  0.00    -0.004 A 
ATOM      5  C6  UNL d   1      -0.982  -1.509   0.486  0.00  0.00    -0.075 A 
ATOM      6  C7  UNL d   1      -2.321  -2.161   0.668  0.00  0.00     0.076 C 
ATOM      7  C8  UNL d   1      -0.892  -0.268  -0.159  0.00  0.00     0.001 A 
ENDROOT
BRANCH   1   8
ATOM      8  C1  UNL d   1       0.431   1.696  -1.036  0.00  0.00     0.053 C 
ATOM      9  C   UNL d   1       1.811   1.942  -1.626  0.00  0.00     0.018 C 
ENDBRANCH   1   8
TORSDOF 1
ENDMDL
