MODEL 1
REMARK minimizedAffinity 0.929109156
REMARK minimizedRMSD -1
REMARK  1 active torsions:
REMARK  status: ('A' for Active; 'I' for Inactive)
REMARK    1  A    between atoms: C1_2  and  C2_3 
ROOT
ATOM      1  C2  UNL d   1      -0.107  -1.173   1.186  0.00  0.00    -0.073 A 
ATOM      2  C3  UNL d   1      -0.746  -1.894   2.201  0.00  0.00    -0.002 A 
ATOM      3  C4  UNL d   1      -1.806  -1.324   2.909  0.00  0.00     0.004 A 
ATOM      4  C5  UNL d   1      -2.240  -0.034   2.605  0.00  0.00    -0.004 A 
ATOM      5  C6  UNL d   1      -1.622   0.697   1.586  0.00  0.00    -0.075 A 
ATOM      6  C7  UNL d   1      -2.076   2.087   1.249  0.00  0.00     0.076 C 
ATOM      7  C8  UNL d   1      -0.557   0.120   0.882  0.00  0.00     0.001 A 
ENDROOT
BRANCH   1   8
ATOM      8  C1  UNL d   1       1.033  -1.786   0.414  0.00  0.00     0.053 C 
ATOM      9  C   UNL d   1       1.197  -1.154  -0.959  0.00  0.00     0.018 C 
ENDBRANCH   1   8
TORSDOF 1
ENDMDL
