MODEL 1
REMARK minimizedAffinity 0.783486605
REMARK minimizedRMSD -1
REMARK  0 active torsions:
REMARK  status: ('A' for Active; 'I' for Inactive)
ROOT
ATOM      1  C   UNL d   1       2.359  -1.106   3.751  0.00  0.00     0.172 C 
ATOM      2  N   UNL d   1       3.529  -1.431   4.534  0.00  0.00    -0.070 N 
ATOM      3  C1  UNL d   1       4.106  -0.626   5.479  0.00  0.00    -0.004 A 
ATOM      4  C2  UNL d   1       5.194  -1.295   5.996  0.00  0.00    -0.047 A 
ATOM      5  C3  UNL d   1       5.274  -2.546   5.338  0.00  0.00    -0.047 A 
ATOM      6  C4  UNL d   1       4.231  -2.604   4.438  0.00  0.00    -0.004 A 
ENDROOT
TORSDOF 0
ENDMDL
