MODEL 1
REMARK minimizedAffinity -1.93032038
REMARK minimizedRMSD -1
REMARK  0 active torsions:
REMARK  status: ('A' for Active; 'I' for Inactive)
ROOT
ATOM      1  C   UNL d   1      -1.483   0.401   1.822  0.00  0.00     0.172 C 
ATOM      2  N   UNL d   1      -0.518   0.268   0.756  0.00  0.00    -0.070 N 
ATOM      3  C1  UNL d   1       0.817   0.010   0.916  0.00  0.00    -0.004 A 
ATOM      4  C2  UNL d   1       1.390  -0.041  -0.337  0.00  0.00    -0.047 A 
ATOM      5  C3  UNL d   1       0.364   0.196  -1.282  0.00  0.00    -0.047 A 
ATOM      6  C4  UNL d   1      -0.807   0.384  -0.578  0.00  0.00    -0.004 A 
ENDROOT
TORSDOF 0
ENDMDL
