MODEL 1
REMARK minimizedAffinity -1.90038502
REMARK minimizedRMSD -1
REMARK  0 active torsions:
REMARK  status: ('A' for Active; 'I' for Inactive)
ROOT
ATOM      1  C   UNL d   1       0.149  -0.964   3.296  0.00  0.00     0.172 C 
ATOM      2  N   UNL d   1       0.121  -0.398   1.967  0.00  0.00    -0.070 N 
ATOM      3  C1  UNL d   1       1.198  -0.266   1.132  0.00  0.00    -0.004 A 
ATOM      4  C2  UNL d   1       0.758   0.316  -0.036  0.00  0.00    -0.047 A 
ATOM      5  C3  UNL d   1      -0.632   0.543   0.101  0.00  0.00    -0.047 A 
ATOM      6  C4  UNL d   1      -1.000   0.092   1.351  0.00  0.00    -0.004 A 
ENDROOT
TORSDOF 0
ENDMDL
