MODEL 1
REMARK minimizedAffinity -0.423322886
REMARK minimizedRMSD -1
REMARK  0 active torsions:
REMARK  status: ('A' for Active; 'I' for Inactive)
ROOT
ATOM      1  C   UNL d   1       1.285  -0.167   0.816  0.00  0.00     0.172 C 
ATOM      2  N   UNL d   1       0.253  -0.356   1.808  0.00  0.00    -0.070 N 
ATOM      3  C1  UNL d   1      -1.073  -0.053   1.650  0.00  0.00    -0.004 A 
ATOM      4  C2  UNL d   1      -1.723  -0.381   2.820  0.00  0.00    -0.047 A 
ATOM      5  C3  UNL d   1      -0.755  -0.897   3.713  0.00  0.00    -0.047 A 
ATOM      6  C4  UNL d   1       0.460  -0.871   3.061  0.00  0.00    -0.004 A 
ENDROOT
TORSDOF 0
ENDMDL
