MODEL 1
REMARK minimizedAffinity -2.0078299
REMARK minimizedRMSD -1
REMARK  0 active torsions:
REMARK  status: ('A' for Active; 'I' for Inactive)
ROOT
ATOM      1  C   UNL d   1      -1.739   0.229   2.583  0.00  0.00     0.172 C 
ATOM      2  N   UNL d   1      -1.068  -0.465   1.509  0.00  0.00    -0.070 N 
ATOM      3  C1  UNL d   1       0.259  -0.800   1.480  0.00  0.00    -0.004 A 
ATOM      4  C2  UNL d   1       0.505  -1.451   0.291  0.00  0.00    -0.047 A 
ATOM      5  C3  UNL d   1      -0.717  -1.508  -0.421  0.00  0.00    -0.047 A 
ATOM      6  C4  UNL d   1      -1.674  -0.891   0.356  0.00  0.00    -0.004 A 
ENDROOT
TORSDOF 0
ENDMDL
