MODEL 1
REMARK minimizedAffinity -0.48337546
REMARK minimizedRMSD -1
REMARK  0 active torsions:
REMARK  status: ('A' for Active; 'I' for Inactive)
ROOT
ATOM      1  C   UNL d   1       1.204  -0.608   1.017  0.00  0.00     0.172 C 
ATOM      2  N   UNL d   1      -0.195  -0.456   0.691  0.00  0.00    -0.070 N 
ATOM      3  C1  UNL d   1      -0.821  -0.984  -0.406  0.00  0.00    -0.004 A 
ATOM      4  C2  UNL d   1      -2.147  -0.614  -0.353  0.00  0.00    -0.047 A 
ATOM      5  C3  UNL d   1      -2.324   0.164   0.815  0.00  0.00    -0.047 A 
ATOM      6  C4  UNL d   1      -1.099   0.246   1.443  0.00  0.00    -0.004 A 
ENDROOT
TORSDOF 0
ENDMDL
