MODEL 1
REMARK minimizedAffinity 1.52220559
REMARK minimizedRMSD -1
REMARK  0 active torsions:
REMARK  status: ('A' for Active; 'I' for Inactive)
ROOT
ATOM      1  C   UNL d   1       1.438  -0.989   0.564  0.00  0.00     0.172 C 
ATOM      2  N   UNL d   1       0.153  -0.613   0.023  0.00  0.00    -0.070 N 
ATOM      3  C1  UNL d   1      -1.030  -1.264   0.249  0.00  0.00    -0.004 A 
ATOM      4  C2  UNL d   1      -2.018  -0.596  -0.441  0.00  0.00    -0.047 A 
ATOM      5  C3  UNL d   1      -1.407   0.494  -1.106  0.00  0.00    -0.047 A 
ATOM      6  C4  UNL d   1      -0.063   0.460  -0.801  0.00  0.00    -0.004 A 
ENDROOT
TORSDOF 0
ENDMDL
