MODEL 1
REMARK minimizedAffinity -0.688776553
REMARK minimizedRMSD -1
REMARK  0 active torsions:
REMARK  status: ('A' for Active; 'I' for Inactive)
ROOT
ATOM      1  C   UNL d   1       5.512  -0.417  -0.019  0.00  0.00     0.172 C 
ATOM      2  N   UNL d   1       4.752   0.210  -1.075  0.00  0.00    -0.070 N 
ATOM      3  C1  UNL d   1       3.774   1.152  -0.904  0.00  0.00    -0.004 A 
ATOM      4  C2  UNL d   1       3.296   1.496  -2.150  0.00  0.00    -0.047 A 
ATOM      5  C3  UNL d   1       4.011   0.733  -3.103  0.00  0.00    -0.047 A 
ATOM      6  C4  UNL d   1       4.906  -0.055  -2.411  0.00  0.00    -0.004 A 
ENDROOT
TORSDOF 0
ENDMDL
