MODEL 1
REMARK minimizedAffinity -1.62997472
REMARK minimizedRMSD -1
REMARK  0 active torsions:
REMARK  status: ('A' for Active; 'I' for Inactive)
ROOT
ATOM      1  C   UNL d   1       0.122  -1.131   4.147  0.00  0.00     0.172 C 
ATOM      2  N   UNL d   1      -0.385  -0.635   2.889  0.00  0.00    -0.070 N 
ATOM      3  C1  UNL d   1       0.332  -0.524   1.727  0.00  0.00    -0.004 A 
ATOM      4  C2  UNL d   1      -0.506  -0.012   0.761  0.00  0.00    -0.047 A 
ATOM      5  C3  UNL d   1      -1.770   0.193   1.362  0.00  0.00    -0.047 A 
ATOM      6  C4  UNL d   1      -1.667  -0.201   2.680  0.00  0.00    -0.004 A 
ENDROOT
TORSDOF 0
ENDMDL
