MODEL 1
REMARK minimizedAffinity -1.73900104
REMARK minimizedRMSD -1
REMARK  0 active torsions:
REMARK  status: ('A' for Active; 'I' for Inactive)
ROOT
ATOM      1  C   UNL d   1      -0.388  -0.298   3.942  0.00  0.00     0.172 C 
ATOM      2  N   UNL d   1      -0.804  -0.224   2.561  0.00  0.00    -0.070 N 
ATOM      3  C1  UNL d   1      -0.003  -0.446   1.473  0.00  0.00    -0.004 A 
ATOM      4  C2  UNL d   1      -0.772  -0.280   0.342  0.00  0.00    -0.047 A 
ATOM      5  C3  UNL d   1      -2.080   0.054   0.764  0.00  0.00    -0.047 A 
ATOM      6  C4  UNL d   1      -2.072   0.082   2.143  0.00  0.00    -0.004 A 
ENDROOT
TORSDOF 0
ENDMDL
