MODEL 1
REMARK minimizedAffinity -2.78277087
REMARK minimizedRMSD -1
REMARK  0 active torsions:
REMARK  status: ('A' for Active; 'I' for Inactive)
ROOT
ATOM      1  C1  DEN d   1       2.128  -1.932  -2.768  0.00  0.00     0.130 A 
ATOM      2  C2  DEN d   1       1.830  -1.843  -4.194  0.00  0.00    -0.031 A 
ATOM      3  C3  DEN d   1       0.878  -0.731  -4.393  0.00  0.00     0.027 A 
ATOM      4  C4  DEN d   1      -0.153   0.854  -2.639  0.00  0.00     0.027 A 
ATOM      5  C5  DEN d   1      -0.210   1.159  -1.297  0.00  0.00    -0.003 A 
ATOM      6  C6  DEN d   1       0.477   0.440  -0.355  0.00  0.00     0.001 A 
ATOM      7  C7  DEN d   1       1.286  -0.593  -0.747  0.00  0.00     0.017 A 
ATOM      8  C8  DEN d   1       1.342  -0.912  -2.098  0.00  0.00    -0.094 A 
ATOM      9  C9  DEN d   1       0.650  -0.165  -3.036  0.00  0.00    -0.072 A 
ENDROOT
TORSDOF 0
ENDMDL
