MODEL 1
REMARK minimizedAffinity -6.82079506
REMARK minimizedRMSD -1
REMARK  0 active torsions:
REMARK  status: ('A' for Active; 'I' for Inactive)
ROOT
ATOM      1  C1  DEN d   1      -0.817   0.346  -0.629  0.00  0.00     0.130 A 
ATOM      2  C2  DEN d   1       0.634   0.505  -0.597  0.00  0.00    -0.031 A 
ATOM      3  C3  DEN d   1       1.078   0.367   0.804  0.00  0.00     0.027 A 
ATOM      4  C4  DEN d   1      -0.332  -0.079   2.917  0.00  0.00     0.027 A 
ATOM      5  C5  DEN d   1      -1.610  -0.275   3.393  0.00  0.00    -0.003 A 
ATOM      6  C6  DEN d   1      -2.707  -0.244   2.574  0.00  0.00     0.001 A 
ATOM      7  C7  DEN d   1      -2.543  -0.057   1.227  0.00  0.00     0.017 A 
ATOM      8  C8  DEN d   1      -1.259   0.149   0.740  0.00  0.00    -0.094 A 
ATOM      9  C9  DEN d   1      -0.161   0.102   1.583  0.00  0.00    -0.072 A 
ENDROOT
TORSDOF 0
ENDMDL
