MODEL 1
REMARK minimizedAffinity -5.46916008
REMARK minimizedRMSD -1
REMARK  0 active torsions:
REMARK  status: ('A' for Active; 'I' for Inactive)
ROOT
ATOM      1  C1  DEN d   1       1.025   0.460   0.165  0.00  0.00     0.130 A 
ATOM      2  C2  DEN d   1       0.524   0.450  -1.207  0.00  0.00    -0.031 A 
ATOM      3  C3  DEN d   1      -0.911   0.103  -1.166  0.00  0.00     0.027 A 
ATOM      4  C4  DEN d   1      -2.398  -0.414   0.877  0.00  0.00     0.027 A 
ATOM      5  C5  DEN d   1      -2.417  -0.541   2.248  0.00  0.00    -0.003 A 
ATOM      6  C6  DEN d   1      -1.292  -0.378   3.012  0.00  0.00     0.001 A 
ATOM      7  C7  DEN d   1      -0.109  -0.034   2.413  0.00  0.00     0.017 A 
ATOM      8  C8  DEN d   1      -0.080   0.088   1.030  0.00  0.00    -0.094 A 
ATOM      9  C9  DEN d   1      -1.231  -0.068   0.276  0.00  0.00    -0.072 A 
ENDROOT
TORSDOF 0
ENDMDL
