MODEL 1
REMARK minimizedAffinity -1.61543274
REMARK minimizedRMSD -1
REMARK  0 active torsions:
REMARK  status: ('A' for Active; 'I' for Inactive)
ROOT
ATOM      1  C1  DEN d   1       3.516  -1.234  -4.795  0.00  0.00     0.130 A 
ATOM      2  C2  DEN d   1       2.559  -1.510  -3.726  0.00  0.00    -0.031 A 
ATOM      3  C3  DEN d   1       2.138  -0.219  -3.147  0.00  0.00     0.027 A 
ATOM      4  C4  DEN d   1       2.865   2.168  -3.800  0.00  0.00     0.027 A 
ATOM      5  C5  DEN d   1       3.668   2.906  -4.642  0.00  0.00    -0.003 A 
ATOM      6  C6  DEN d   1       4.495   2.319  -5.563  0.00  0.00     0.001 A 
ATOM      7  C7  DEN d   1       4.504   0.956  -5.695  0.00  0.00     0.017 A 
ATOM      8  C8  DEN d   1       3.703   0.205  -4.845  0.00  0.00    -0.094 A 
ATOM      9  C9  DEN d   1       2.865   0.817  -3.929  0.00  0.00    -0.072 A 
ENDROOT
TORSDOF 0
ENDMDL
