MODEL 1
REMARK minimizedAffinity -1.75087988
REMARK minimizedRMSD -1
REMARK  0 active torsions:
REMARK  status: ('A' for Active; 'I' for Inactive)
ROOT
ATOM      1  C1  DEN d   1      -1.436  -0.881   1.945  0.00  0.00     0.130 A 
ATOM      2  C2  DEN d   1      -0.835  -0.501   3.221  0.00  0.00    -0.031 A 
ATOM      3  C3  DEN d   1       0.357   0.322   2.938  0.00  0.00     0.027 A 
ATOM      4  C4  DEN d   1       1.324   1.048   0.659  0.00  0.00     0.027 A 
ATOM      5  C5  DEN d   1       1.166   0.961  -0.706  0.00  0.00    -0.003 A 
ATOM      6  C6  DEN d   1       0.158   0.231  -1.279  0.00  0.00     0.001 A 
ATOM      7  C7  DEN d   1      -0.759  -0.403  -0.483  0.00  0.00     0.017 A 
ATOM      8  C8  DEN d   1      -0.602  -0.326   0.895  0.00  0.00    -0.094 A 
ATOM      9  C9  DEN d   1       0.417   0.427   1.455  0.00  0.00    -0.072 A 
ENDROOT
TORSDOF 0
ENDMDL
