MODEL 1
REMARK minimizedAffinity -0.426493019
REMARK minimizedRMSD -1
REMARK  0 active torsions:
REMARK  status: ('A' for Active; 'I' for Inactive)
ROOT
ATOM      1  C1  DEN d   1      -1.018   0.034  -0.966  0.00  0.00     0.130 A 
ATOM      2  C2  DEN d   1      -0.041   0.645  -1.863  0.00  0.00    -0.031 A 
ATOM      3  C3  DEN d   1       1.146   1.011  -1.064  0.00  0.00     0.027 A 
ATOM      4  C4  DEN d   1       1.566   0.686   1.460  0.00  0.00     0.027 A 
ATOM      5  C5  DEN d   1       1.022   0.222   2.638  0.00  0.00    -0.003 A 
ATOM      6  C6  DEN d   1      -0.242  -0.301   2.703  0.00  0.00     0.001 A 
ATOM      7  C7  DEN d   1      -0.989  -0.415   1.560  0.00  0.00     0.017 A 
ATOM      8  C8  DEN d   1      -0.450   0.057   0.370  0.00  0.00    -0.094 A 
ATOM      9  C9  DEN d   1       0.834   0.571   0.323  0.00  0.00    -0.072 A 
ENDROOT
TORSDOF 0
ENDMDL
