MODEL 1
REMARK minimizedAffinity -5.2341342
REMARK minimizedRMSD -1
REMARK  0 active torsions:
REMARK  status: ('A' for Active; 'I' for Inactive)
ROOT
ATOM      1  C1  DEN d   1       0.565  -0.322   0.568  0.00  0.00     0.130 A 
ATOM      2  C2  DEN d   1       1.606  -0.708   1.516  0.00  0.00    -0.031 A 
ATOM      3  C3  DEN d   1       1.021  -0.687   2.871  0.00  0.00     0.027 A 
ATOM      4  C4  DEN d   1      -1.386  -0.103   3.590  0.00  0.00     0.027 A 
ATOM      5  C5  DEN d   1      -2.626   0.297   3.142  0.00  0.00    -0.003 A 
ATOM      6  C6  DEN d   1      -2.878   0.549   1.819  0.00  0.00     0.001 A 
ATOM      7  C7  DEN d   1      -1.887   0.361   0.892  0.00  0.00     0.017 A 
ATOM      8  C8  DEN d   1      -0.633  -0.035   1.337  0.00  0.00    -0.094 A 
ATOM      9  C9  DEN d   1      -0.402  -0.297   2.677  0.00  0.00    -0.072 A 
ENDROOT
TORSDOF 0
ENDMDL
