MODEL 1
REMARK minimizedAffinity -2.89644933
REMARK minimizedRMSD -1
REMARK  0 active torsions:
REMARK  status: ('A' for Active; 'I' for Inactive)
ROOT
ATOM      1  C1  DEN d   1       0.013   1.090  -0.588  0.00  0.00     0.130 A 
ATOM      2  C2  DEN d   1       0.839   0.617   0.520  0.00  0.00    -0.031 A 
ATOM      3  C3  DEN d   1       1.686  -0.484   0.020  0.00  0.00     0.027 A 
ATOM      4  C4  DEN d   1       1.801  -1.495  -2.351  0.00  0.00     0.027 A 
ATOM      5  C5  DEN d   1       1.282  -1.431  -3.625  0.00  0.00    -0.003 A 
ATOM      6  C6  DEN d   1       0.287  -0.553  -3.964  0.00  0.00     0.001 A 
ATOM      7  C7  DEN d   1      -0.188   0.329  -3.030  0.00  0.00     0.017 A 
ATOM      8  C8  DEN d   1       0.325   0.266  -1.741  0.00  0.00    -0.094 A 
ATOM      9  C9  DEN d   1       1.339  -0.621  -1.421  0.00  0.00    -0.072 A 
ENDROOT
TORSDOF 0
ENDMDL
