MODEL 1
REMARK minimizedAffinity -4.02600622
REMARK minimizedRMSD -1
REMARK  0 active torsions:
REMARK  status: ('A' for Active; 'I' for Inactive)
ROOT
ATOM      1  C1  DEN d   1      -1.519  -1.059   2.005  0.00  0.00     0.130 A 
ATOM      2  C2  DEN d   1      -0.697  -0.908   3.202  0.00  0.00    -0.031 A 
ATOM      3  C3  DEN d   1       0.563  -0.245   2.810  0.00  0.00     0.027 A 
ATOM      4  C4  DEN d   1       1.315   0.563   0.479  0.00  0.00     0.027 A 
ATOM      5  C5  DEN d   1       0.960   0.643  -0.850  0.00  0.00    -0.003 A 
ATOM      6  C6  DEN d   1      -0.221   0.135  -1.322  0.00  0.00     0.001 A 
ATOM      7  C7  DEN d   1      -1.111  -0.435  -0.451  0.00  0.00     0.017 A 
ATOM      8  C8  DEN d   1      -0.757  -0.527   0.889  0.00  0.00    -0.094 A 
ATOM      9  C9  DEN d   1       0.436   0.004   1.349  0.00  0.00    -0.072 A 
ENDROOT
TORSDOF 0
ENDMDL
