MODEL 1
REMARK minimizedAffinity -5.72697163
REMARK minimizedRMSD -1
REMARK  0 active torsions:
REMARK  status: ('A' for Active; 'I' for Inactive)
ROOT
ATOM      1  C1  DEN d   1       1.041   0.238  -0.173  0.00  0.00     0.130 A 
ATOM      2  C2  DEN d   1       0.106   0.363  -1.288  0.00  0.00    -0.031 A 
ATOM      3  C3  DEN d   1      -1.263   0.210  -0.755  0.00  0.00     0.027 A 
ATOM      4  C4  DEN d   1      -2.021  -0.202   1.675  0.00  0.00     0.027 A 
ATOM      5  C5  DEN d   1      -1.589  -0.392   2.969  0.00  0.00    -0.003 A 
ATOM      6  C6  DEN d   1      -0.260  -0.419   3.299  0.00  0.00     0.001 A 
ATOM      7  C7  DEN d   1       0.684  -0.208   2.329  0.00  0.00     0.017 A 
ATOM      8  C8  DEN d   1       0.256  -0.024   1.021  0.00  0.00    -0.094 A 
ATOM      9  C9  DEN d   1      -1.092   0.013   0.710  0.00  0.00    -0.072 A 
ENDROOT
TORSDOF 0
ENDMDL
