MODEL 1
REMARK minimizedAffinity -2.24147129
REMARK minimizedRMSD -1
REMARK  0 active torsions:
REMARK  status: ('A' for Active; 'I' for Inactive)
ROOT
ATOM      1  C1  DEN d   1       1.508   0.563  -0.256  0.00  0.00     0.130 A 
ATOM      2  C2  DEN d   1       0.882   0.551  -1.576  0.00  0.00    -0.031 A 
ATOM      3  C3  DEN d   1      -0.535   0.173  -1.405  0.00  0.00     0.027 A 
ATOM      4  C4  DEN d   1      -1.816  -0.387   0.763  0.00  0.00     0.027 A 
ATOM      5  C5  DEN d   1      -1.705  -0.521   2.129  0.00  0.00    -0.003 A 
ATOM      6  C6  DEN d   1      -0.518  -0.338   2.787  0.00  0.00     0.001 A 
ATOM      7  C7  DEN d   1       0.598   0.034   2.083  0.00  0.00     0.017 A 
ATOM      8  C8  DEN d   1       0.495   0.164   0.705  0.00  0.00    -0.094 A 
ATOM      9  C9  DEN d   1      -0.717  -0.013   0.060  0.00  0.00    -0.072 A 
ENDROOT
TORSDOF 0
ENDMDL
