MODEL 1
REMARK minimizedAffinity -5.75878429
REMARK minimizedRMSD -1
REMARK  0 active torsions:
REMARK  status: ('A' for Active; 'I' for Inactive)
ROOT
ATOM      1  C1  DEN d   1       0.612   0.029  -0.014  0.00  0.00     0.130 A 
ATOM      2  C2  DEN d   1       0.313   0.567  -1.339  0.00  0.00    -0.031 A 
ATOM      3  C3  DEN d   1      -1.143   0.800  -1.420  0.00  0.00     0.027 A 
ATOM      4  C4  DEN d   1      -2.954   0.387   0.370  0.00  0.00     0.027 A 
ATOM      5  C5  DEN d   1      -3.185  -0.072   1.648  0.00  0.00    -0.003 A 
ATOM      6  C6  DEN d   1      -2.180  -0.556   2.443  0.00  0.00     0.001 A 
ATOM      7  C7  DEN d   1      -0.890  -0.552   1.984  0.00  0.00     0.017 A 
ATOM      8  C8  DEN d   1      -0.650  -0.098   0.694  0.00  0.00    -0.094 A 
ATOM      9  C9  DEN d   1      -1.677   0.399  -0.090  0.00  0.00    -0.072 A 
ENDROOT
TORSDOF 0
ENDMDL
