MODEL 1
REMARK minimizedAffinity -6.39157629
REMARK minimizedRMSD -1
REMARK  0 active torsions:
REMARK  status: ('A' for Active; 'I' for Inactive)
ROOT
ATOM      1  C1  DEN d   1      -0.683   0.229  -0.912  0.00  0.00     0.130 A 
ATOM      2  C2  DEN d   1       0.777   0.241  -0.911  0.00  0.00    -0.031 A 
ATOM      3  C3  DEN d   1       1.233   0.100   0.487  0.00  0.00     0.027 A 
ATOM      4  C4  DEN d   1      -0.172  -0.139   2.636  0.00  0.00     0.027 A 
ATOM      5  C5  DEN d   1      -1.453  -0.190   3.140  0.00  0.00    -0.003 A 
ATOM      6  C6  DEN d   1      -2.558  -0.072   2.339  0.00  0.00     0.001 A 
ATOM      7  C7  DEN d   1      -2.403   0.058   0.984  0.00  0.00     0.017 A 
ATOM      8  C8  DEN d   1      -1.115   0.118   0.470  0.00  0.00    -0.094 A 
ATOM      9  C9  DEN d   1      -0.011  -0.015   1.295  0.00  0.00    -0.072 A 
ENDROOT
TORSDOF 0
ENDMDL
