MODEL 1
REMARK minimizedAffinity -4.3887434
REMARK minimizedRMSD -1
REMARK  0 active torsions:
REMARK  status: ('A' for Active; 'I' for Inactive)
ROOT
ATOM      1  C1  DEN d   1      -0.465   0.088  -0.683  0.00  0.00     0.130 A 
ATOM      2  C2  DEN d   1       0.969   0.353  -0.622  0.00  0.00    -0.031 A 
ATOM      3  C3  DEN d   1       1.384   0.294   0.794  0.00  0.00     0.027 A 
ATOM      4  C4  DEN d   1      -0.048  -0.185   2.886  0.00  0.00     0.027 A 
ATOM      5  C5  DEN d   1      -1.321  -0.458   3.336  0.00  0.00    -0.003 A 
ATOM      6  C6  DEN d   1      -2.394  -0.534   2.489  0.00  0.00     0.001 A 
ATOM      7  C7  DEN d   1      -2.208  -0.379   1.141  0.00  0.00     0.017 A 
ATOM      8  C8  DEN d   1      -0.929  -0.096   0.680  0.00  0.00    -0.094 A 
ATOM      9  C9  DEN d   1       0.146  -0.036   1.551  0.00  0.00    -0.072 A 
ENDROOT
TORSDOF 0
ENDMDL
