MODEL 1
REMARK minimizedAffinity -5.33917284
REMARK minimizedRMSD -1
REMARK  0 active torsions:
REMARK  status: ('A' for Active; 'I' for Inactive)
ROOT
ATOM      1  C1  DEN d   1      -0.938   0.253  -0.811  0.00  0.00     0.130 A 
ATOM      2  C2  DEN d   1       0.507   0.089  -0.951  0.00  0.00    -0.031 A 
ATOM      3  C3  DEN d   1       1.076  -0.116   0.396  0.00  0.00     0.027 A 
ATOM      4  C4  DEN d   1      -0.133  -0.197   2.673  0.00  0.00     0.027 A 
ATOM      5  C5  DEN d   1      -1.356  -0.097   3.299  0.00  0.00    -0.003 A 
ATOM      6  C6  DEN d   1      -2.511   0.159   2.608  0.00  0.00     0.001 A 
ATOM      7  C7  DEN d   1      -2.474   0.278   1.244  0.00  0.00     0.017 A 
ATOM      8  C8  DEN d   1      -1.244   0.186   0.607  0.00  0.00    -0.094 A 
ATOM      9  C9  DEN d   1      -0.089  -0.085   1.321  0.00  0.00    -0.072 A 
ENDROOT
TORSDOF 0
ENDMDL
