MODEL 1
REMARK minimizedAffinity 1.49939477
REMARK minimizedRMSD -1
REMARK  1 active torsions:
REMARK  status: ('A' for Active; 'I' for Inactive)
REMARK    1  A    between atoms: C1_2  and  C2_3 
ROOT
ATOM      1  C2  UNL d   1       0.776   0.465  -0.331  0.00  0.00    -0.081 A 
ATOM      2  C3  UNL d   1       1.735   1.038  -1.176  0.00  0.00     0.006 A 
ATOM      3  C4  UNL d   1       1.621   0.916  -2.563  0.00  0.00     0.002 A 
ATOM      4  C5  UNL d   1       0.543   0.227  -3.128  0.00  0.00    -0.080 A 
ATOM      5  C6  UNL d   1       0.392   0.115  -4.616  0.00  0.00     0.076 C 
ATOM      6  C7  UNL d   1      -0.406  -0.361  -2.284  0.00  0.00     0.002 A 
ATOM      7  C8  UNL d   1      -0.292  -0.240  -0.897  0.00  0.00     0.006 A 
ENDROOT
BRANCH   1   8
ATOM      8  C1  UNL d   1       0.862   0.650   1.162  0.00  0.00     0.054 C 
ATOM      9  C   UNL d   1       2.217   0.210   1.697  0.00  0.00     0.018 C 
ENDBRANCH   1   8
TORSDOF 1
ENDMDL
