MODEL 1
REMARK minimizedAffinity -4.67344522
REMARK minimizedRMSD -1
REMARK  1 active torsions:
REMARK  status: ('A' for Active; 'I' for Inactive)
REMARK    1  A    between atoms: C1_2  and  C2_3 
ROOT
ATOM      1  C2  UNL d   1      -0.079   0.303   1.448  0.00  0.00    -0.081 A 
ATOM      2  C3  UNL d   1      -1.360   0.198   2.005  0.00  0.00     0.006 A 
ATOM      3  C4  UNL d   1      -2.431  -0.261   1.234  0.00  0.00     0.002 A 
ATOM      4  C5  UNL d   1      -2.238  -0.628  -0.102  0.00  0.00    -0.080 A 
ATOM      5  C6  UNL d   1      -3.373  -1.150  -0.931  0.00  0.00     0.076 C 
ATOM      6  C7  UNL d   1      -0.962  -0.506  -0.663  0.00  0.00     0.002 A 
ATOM      7  C8  UNL d   1       0.109  -0.047   0.107  0.00  0.00     0.006 A 
ENDROOT
BRANCH   1   8
ATOM      8  C1  UNL d   1       1.091   0.736   2.295  0.00  0.00     0.054 C 
ATOM      9  C   UNL d   1       2.414   0.343   1.652  0.00  0.00     0.018 C 
ENDBRANCH   1   8
TORSDOF 1
ENDMDL
