MODEL 1
REMARK minimizedAffinity -1.10621452
REMARK minimizedRMSD -1
REMARK  1 active torsions:
REMARK  status: ('A' for Active; 'I' for Inactive)
REMARK    1  A    between atoms: C1_2  and  C2_3 
ROOT
ATOM      1  C2  UNL d   1       0.009  -1.166   3.602  0.00  0.00    -0.081 A 
ATOM      2  C3  UNL d   1      -0.613  -2.187   4.330  0.00  0.00     0.006 A 
ATOM      3  C4  UNL d   1      -2.005  -2.300   4.345  0.00  0.00     0.002 A 
ATOM      4  C5  UNL d   1      -2.798  -1.399   3.626  0.00  0.00    -0.080 A 
ATOM      5  C6  UNL d   1      -4.292  -1.527   3.609  0.00  0.00     0.076 C 
ATOM      6  C7  UNL d   1      -2.177  -0.368   2.912  0.00  0.00     0.002 A 
ATOM      7  C8  UNL d   1      -0.785  -0.255   2.897  0.00  0.00     0.006 A 
ENDROOT
BRANCH   1   8
ATOM      8  C1  UNL d   1       1.512  -1.080   3.531  0.00  0.00     0.054 C 
ATOM      9  C   UNL d   1       1.994  -0.984   2.091  0.00  0.00     0.018 C 
ENDBRANCH   1   8
TORSDOF 1
ENDMDL
