MODEL 1
REMARK minimizedAffinity 0.685137331
REMARK minimizedRMSD -1
REMARK  1 active torsions:
REMARK  status: ('A' for Active; 'I' for Inactive)
REMARK    1  A    between atoms: C1_2  and  C2_3 
ROOT
ATOM      1  C2  UNL d   1       1.554  -1.767   4.222  0.00  0.00    -0.081 A 
ATOM      2  C3  UNL d   1       1.095  -1.300   2.984  0.00  0.00     0.006 A 
ATOM      3  C4  UNL d   1      -0.274  -1.153   2.747  0.00  0.00     0.002 A 
ATOM      4  C5  UNL d   1      -1.205  -1.463   3.744  0.00  0.00    -0.080 A 
ATOM      5  C6  UNL d   1      -2.675  -1.280   3.512  0.00  0.00     0.076 C 
ATOM      6  C7  UNL d   1      -0.746  -1.946   4.974  0.00  0.00     0.002 A 
ATOM      7  C8  UNL d   1       0.622  -2.094   5.212  0.00  0.00     0.006 A 
ENDROOT
BRANCH   1   8
ATOM      8  C1  UNL d   1       3.032  -1.866   4.503  0.00  0.00     0.054 C 
ATOM      9  C   UNL d   1       3.310  -1.885   5.999  0.00  0.00     0.018 C 
ENDBRANCH   1   8
TORSDOF 1
ENDMDL
