MODEL 1
REMARK minimizedAffinity 7.80467129
REMARK minimizedRMSD -1
REMARK  1 active torsions:
REMARK  status: ('A' for Active; 'I' for Inactive)
REMARK    1  A    between atoms: C1_2  and  C2_3 
ROOT
ATOM      1  C2  UNL d   1       3.101   3.576   1.714  0.00  0.00    -0.081 A 
ATOM      2  C3  UNL d   1       3.513   4.878   2.021  0.00  0.00     0.006 A 
ATOM      3  C4  UNL d   1       4.421   5.108   3.057  0.00  0.00     0.002 A 
ATOM      4  C5  UNL d   1       4.937   4.040   3.799  0.00  0.00    -0.080 A 
ATOM      5  C6  UNL d   1       5.935   4.271   4.894  0.00  0.00     0.076 C 
ATOM      6  C7  UNL d   1       4.512   2.741   3.504  0.00  0.00     0.002 A 
ATOM      7  C8  UNL d   1       3.604   2.510   2.468  0.00  0.00     0.006 A 
ENDROOT
BRANCH   1   8
ATOM      8  C1  UNL d   1       2.172   3.319   0.555  0.00  0.00     0.054 C 
ATOM      9  C   UNL d   1       1.136   2.259   0.901  0.00  0.00     0.018 C 
ENDBRANCH   1   8
TORSDOF 1
ENDMDL
