MODEL 1
REMARK minimizedAffinity 2.9047935
REMARK minimizedRMSD -1
REMARK  1 active torsions:
REMARK  status: ('A' for Active; 'I' for Inactive)
REMARK    1  A    between atoms: C1_2  and  C2_3 
ROOT
ATOM      1  C2  UNL d   1      -1.627   0.223   1.174  0.00  0.00    -0.081 A 
ATOM      2  C3  UNL d   1      -0.255  -0.019   1.035  0.00  0.00     0.006 A 
ATOM      3  C4  UNL d   1       0.500  -0.461   2.124  0.00  0.00     0.002 A 
ATOM      4  C5  UNL d   1      -0.105  -0.677   3.367  0.00  0.00    -0.080 A 
ATOM      5  C6  UNL d   1       0.688  -1.180   4.536  0.00  0.00     0.076 C 
ATOM      6  C7  UNL d   1      -1.473  -0.418   3.510  0.00  0.00     0.002 A 
ATOM      7  C8  UNL d   1      -2.228   0.025   2.422  0.00  0.00     0.006 A 
ENDROOT
BRANCH   1   8
ATOM      8  C1  UNL d   1      -2.456   0.638  -0.015  0.00  0.00     0.054 C 
ATOM      9  C   UNL d   1      -2.964  -0.572  -0.785  0.00  0.00     0.018 C 
ENDBRANCH   1   8
TORSDOF 1
ENDMDL
