MODEL 1
REMARK minimizedAffinity 1.04272747
REMARK minimizedRMSD -1
REMARK  0 active torsions:
REMARK  status: ('A' for Active; 'I' for Inactive)
ROOT
ATOM      1  C   UNL d   1       5.676  -3.391   6.000  0.00  0.00     0.172 C 
ATOM      2  N   UNL d   1       4.560  -2.821   5.282  0.00  0.00    -0.070 N 
ATOM      3  C1  UNL d   1       4.155  -3.176   4.023  0.00  0.00    -0.004 A 
ATOM      4  C2  UNL d   1       3.060  -2.404   3.699  0.00  0.00    -0.047 A 
ATOM      5  C3  UNL d   1       2.798  -1.557   4.801  0.00  0.00    -0.047 A 
ATOM      6  C4  UNL d   1       3.742  -1.835   5.768  0.00  0.00    -0.004 A 
ENDROOT
TORSDOF 0
ENDMDL
