MODEL 1
REMARK minimizedAffinity -0.0613473207
REMARK minimizedRMSD -1
REMARK  0 active torsions:
REMARK  status: ('A' for Active; 'I' for Inactive)
ROOT
ATOM      1  C   UNL d   1       3.190   5.984  -4.419  0.00  0.00     0.172 C 
ATOM      2  N   UNL d   1       4.314   5.408  -3.719  0.00  0.00    -0.070 N 
ATOM      3  C1  UNL d   1       5.006   6.000  -2.697  0.00  0.00    -0.004 A 
ATOM      4  C2  UNL d   1       6.000   5.131  -2.301  0.00  0.00    -0.047 A 
ATOM      5  C3  UNL d   1       5.901   3.977  -3.114  0.00  0.00    -0.047 A 
ATOM      6  C4  UNL d   1       4.849   4.175  -3.983  0.00  0.00    -0.004 A 
ENDROOT
TORSDOF 0
ENDMDL
