MODEL 1
REMARK minimizedAffinity -0.135966867
REMARK minimizedRMSD -1
REMARK  0 active torsions:
REMARK  status: ('A' for Active; 'I' for Inactive)
ROOT
ATOM      1  C   UNL d   1       5.166  -2.601   2.454  0.00  0.00     0.172 C 
ATOM      2  N   UNL d   1       5.226  -2.520   3.894  0.00  0.00    -0.070 N 
ATOM      3  C1  UNL d   1       4.528  -1.637   4.674  0.00  0.00    -0.004 A 
ATOM      4  C2  UNL d   1       4.861  -1.882   5.989  0.00  0.00    -0.047 A 
ATOM      5  C3  UNL d   1       5.791  -2.948   6.000  0.00  0.00    -0.047 A 
ATOM      6  C4  UNL d   1       6.000  -3.324   4.690  0.00  0.00    -0.004 A 
ENDROOT
TORSDOF 0
ENDMDL
