MODEL 1
REMARK minimizedAffinity -1.75386
REMARK minimizedRMSD -1
REMARK  0 active torsions:
REMARK  status: ('A' for Active; 'I' for Inactive)
ROOT
ATOM      1  C   UNL d   1       5.295  -5.100   5.962  0.00  0.00     0.172 C 
ATOM      2  N   UNL d   1       5.087  -3.692   5.721  0.00  0.00    -0.070 N 
ATOM      3  C1  UNL d   1       3.959  -3.132   5.184  0.00  0.00    -0.004 A 
ATOM      4  C2  UNL d   1       4.154  -1.769   5.119  0.00  0.00    -0.047 A 
ATOM      5  C3  UNL d   1       5.444  -1.501   5.634  0.00  0.00    -0.047 A 
ATOM      6  C4  UNL d   1       6.000  -2.709   6.000  0.00  0.00    -0.004 A 
ENDROOT
TORSDOF 0
ENDMDL
