MODEL 1
REMARK minimizedAffinity 0.681231439
REMARK minimizedRMSD -1
REMARK  0 active torsions:
REMARK  status: ('A' for Active; 'I' for Inactive)
ROOT
ATOM      1  C   UNL d   1      -1.117  -5.996  -3.923  0.00  0.00     0.172 C 
ATOM      2  N   UNL d   1      -0.550  -4.714  -3.576  0.00  0.00    -0.070 N 
ATOM      3  C1  UNL d   1      -0.731  -3.547  -4.269  0.00  0.00    -0.004 A 
ATOM      4  C2  UNL d   1      -0.029  -2.556  -3.618  0.00  0.00    -0.047 A 
ATOM      5  C3  UNL d   1       0.596  -3.148  -2.494  0.00  0.00    -0.047 A 
ATOM      6  C4  UNL d   1       0.257  -4.484  -2.493  0.00  0.00    -0.004 A 
ENDROOT
TORSDOF 0
ENDMDL
