MODEL 1
REMARK minimizedAffinity -3.0169332
REMARK minimizedRMSD -1
REMARK  0 active torsions:
REMARK  status: ('A' for Active; 'I' for Inactive)
ROOT
ATOM      1  C   UNL d   1       5.951   5.999  -2.700  0.00  0.00     0.172 C 
ATOM      2  N   UNL d   1       5.494   5.371  -3.917  0.00  0.00    -0.070 N 
ATOM      3  C1  UNL d   1       4.540   5.869  -4.763  0.00  0.00    -0.004 A 
ATOM      4  C2  UNL d   1       4.392   4.978  -5.804  0.00  0.00    -0.047 A 
ATOM      5  C3  UNL d   1       5.288   3.907  -5.575  0.00  0.00    -0.047 A 
ATOM      6  C4  UNL d   1       5.958   4.176  -4.400  0.00  0.00    -0.004 A 
ENDROOT
TORSDOF 0
ENDMDL
