MODEL 1
REMARK minimizedAffinity -0.85741806
REMARK minimizedRMSD -1
REMARK  0 active torsions:
REMARK  status: ('A' for Active; 'I' for Inactive)
ROOT
ATOM      1  C   UNL d   1       6.000   4.866  -1.701  0.00  0.00     0.172 C 
ATOM      2  N   UNL d   1       5.659   4.900  -3.104  0.00  0.00    -0.070 N 
ATOM      3  C1  UNL d   1       5.999   5.893  -3.983  0.00  0.00    -0.004 A 
ATOM      4  C2  UNL d   1       5.490   5.555  -5.219  0.00  0.00    -0.047 A 
ATOM      5  C3  UNL d   1       4.820   4.316  -5.076  0.00  0.00    -0.047 A 
ATOM      6  C4  UNL d   1       4.941   3.934  -3.756  0.00  0.00    -0.004 A 
ENDROOT
TORSDOF 0
ENDMDL
