MODEL 1
REMARK minimizedAffinity -2.18832088
REMARK minimizedRMSD -1
REMARK  0 active torsions:
REMARK  status: ('A' for Active; 'I' for Inactive)
ROOT
ATOM      1  C   UNL d   1       5.250  -2.032   2.448  0.00  0.00     0.172 C 
ATOM      2  N   UNL d   1       5.248  -2.024   3.893  0.00  0.00    -0.070 N 
ATOM      3  C1  UNL d   1       4.503  -1.193   4.686  0.00  0.00    -0.004 A 
ATOM      4  C2  UNL d   1       4.783  -1.500   6.000  0.00  0.00    -0.047 A 
ATOM      5  C3  UNL d   1       5.730  -2.552   5.996  0.00  0.00    -0.047 A 
ATOM      6  C4  UNL d   1       6.000  -2.857   4.679  0.00  0.00    -0.004 A 
ENDROOT
TORSDOF 0
ENDMDL
