MODEL 1
REMARK minimizedAffinity -0.0401660167
REMARK minimizedRMSD -1
REMARK  0 active torsions:
REMARK  status: ('A' for Active; 'I' for Inactive)
ROOT
ATOM      1  C   UNL d   1       2.280  -1.630  -2.862  0.00  0.00     0.172 C 
ATOM      2  N   UNL d   1       1.115  -2.243  -2.268  0.00  0.00    -0.070 N 
ATOM      3  C1  UNL d   1       0.719  -2.108  -0.964  0.00  0.00    -0.004 A 
ATOM      4  C2  UNL d   1      -0.433  -2.844  -0.795  0.00  0.00    -0.047 A 
ATOM      5  C3  UNL d   1      -0.740  -3.444  -2.040  0.00  0.00    -0.047 A 
ATOM      6  C4  UNL d   1       0.235  -3.054  -2.934  0.00  0.00    -0.004 A 
ENDROOT
TORSDOF 0
ENDMDL
