MODEL 1
REMARK minimizedAffinity -1.31411183
REMARK minimizedRMSD -1
REMARK  0 active torsions:
REMARK  status: ('A' for Active; 'I' for Inactive)
ROOT
ATOM      1  C   UNL d   1       4.131   5.999  -4.830  0.00  0.00     0.172 C 
ATOM      2  N   UNL d   1       4.888   5.342  -3.790  0.00  0.00    -0.070 N 
ATOM      3  C1  UNL d   1       5.289   5.913  -2.612  0.00  0.00    -0.004 A 
ATOM      4  C2  UNL d   1       5.983   4.961  -1.896  0.00  0.00    -0.047 A 
ATOM      5  C3  UNL d   1       6.000   3.777  -2.671  0.00  0.00    -0.047 A 
ATOM      6  C4  UNL d   1       5.315   4.041  -3.839  0.00  0.00    -0.004 A 
ENDROOT
TORSDOF 0
ENDMDL
