MODEL 1
REMARK minimizedAffinity -2.53853273
REMARK minimizedRMSD -1
REMARK  0 active torsions:
REMARK  status: ('A' for Active; 'I' for Inactive)
ROOT
ATOM      1  C   UNL d   1       6.000   5.938  -1.267  0.00  0.00     0.172 C 
ATOM      2  N   UNL d   1       5.612   5.361  -2.532  0.00  0.00    -0.070 N 
ATOM      3  C1  UNL d   1       6.000   4.135  -3.003  0.00  0.00    -0.004 A 
ATOM      4  C2  UNL d   1       5.419   3.954  -4.239  0.00  0.00    -0.047 A 
ATOM      5  C3  UNL d   1       4.656   5.112  -4.522  0.00  0.00    -0.047 A 
ATOM      6  C4  UNL d   1       4.794   5.967  -3.449  0.00  0.00    -0.004 A 
ENDROOT
TORSDOF 0
ENDMDL
