MODEL 1
REMARK minimizedAffinity 1.67702734
REMARK minimizedRMSD -1
REMARK  0 active torsions:
REMARK  status: ('A' for Active; 'I' for Inactive)
ROOT
ATOM      1  C   UNL d   1      -0.310  -2.556  -4.132  0.00  0.00     0.172 C 
ATOM      2  N   UNL d   1      -0.393  -2.695  -2.697  0.00  0.00    -0.070 N 
ATOM      3  C1  UNL d   1       0.515  -3.344  -1.904  0.00  0.00    -0.004 A 
ATOM      4  C2  UNL d   1       0.077  -3.253  -0.600  0.00  0.00    -0.047 A 
ATOM      5  C3  UNL d   1      -1.136  -2.525  -0.611  0.00  0.00    -0.047 A 
ATOM      6  C4  UNL d   1      -1.404  -2.192  -1.922  0.00  0.00    -0.004 A 
ENDROOT
TORSDOF 0
ENDMDL
