MODEL 1
REMARK minimizedAffinity 0.133229136
REMARK minimizedRMSD -1
REMARK  0 active torsions:
REMARK  status: ('A' for Active; 'I' for Inactive)
ROOT
ATOM      1  C   UNL d   1       2.426   5.970  -3.095  0.00  0.00     0.172 C 
ATOM      2  N   UNL d   1       3.867   5.915  -3.014  0.00  0.00    -0.070 N 
ATOM      3  C1  UNL d   1       4.606   6.000  -1.864  0.00  0.00    -0.004 A 
ATOM      4  C2  UNL d   1       5.937   5.906  -2.209  0.00  0.00    -0.047 A 
ATOM      5  C3  UNL d   1       6.000   5.761  -3.616  0.00  0.00    -0.047 A 
ATOM      6  C4  UNL d   1       4.704   5.770  -4.088  0.00  0.00    -0.004 A 
ENDROOT
TORSDOF 0
ENDMDL
