MODEL 1
REMARK minimizedAffinity -0.792610705
REMARK minimizedRMSD -1
REMARK  0 active torsions:
REMARK  status: ('A' for Active; 'I' for Inactive)
ROOT
ATOM      1  C   UNL d   1      -1.827  -2.766  -1.464  0.00  0.00     0.172 C 
ATOM      2  N   UNL d   1      -0.563  -2.753  -2.162  0.00  0.00    -0.070 N 
ATOM      3  C1  UNL d   1      -0.142  -3.690  -3.067  0.00  0.00    -0.004 A 
ATOM      4  C2  UNL d   1       1.111  -3.320  -3.505  0.00  0.00    -0.047 A 
ATOM      5  C3  UNL d   1       1.455  -2.119  -2.840  0.00  0.00    -0.047 A 
ATOM      6  C4  UNL d   1       0.401  -1.791  -2.014  0.00  0.00    -0.004 A 
ENDROOT
TORSDOF 0
ENDMDL
