MODEL 1
REMARK minimizedAffinity -1.73298717
REMARK minimizedRMSD -1
REMARK  0 active torsions:
REMARK  status: ('A' for Active; 'I' for Inactive)
ROOT
ATOM      1  C   UNL d   1       5.632  -1.861   2.384  0.00  0.00     0.172 C 
ATOM      2  N   UNL d   1       5.388  -1.611   3.785  0.00  0.00    -0.070 N 
ATOM      3  C1  UNL d   1       5.999  -2.252   4.829  0.00  0.00    -0.004 A 
ATOM      4  C2  UNL d   1       5.495  -1.728   6.000  0.00  0.00    -0.047 A 
ATOM      5  C3  UNL d   1       4.548  -0.738   5.647  0.00  0.00    -0.047 A 
ATOM      6  C4  UNL d   1       4.501  -0.686   4.270  0.00  0.00    -0.004 A 
ENDROOT
TORSDOF 0
ENDMDL
