MODEL 1
REMARK minimizedAffinity -3.10834384
REMARK minimizedRMSD -1
REMARK  0 active torsions:
REMARK  status: ('A' for Active; 'I' for Inactive)
ROOT
ATOM      1  N1  IND d   1      -1.706   1.096  -1.312  0.00  0.00    -0.196 N 
ATOM      2  C2  IND d   1      -2.529   0.566  -0.358  0.00  0.00     0.054 A 
ATOM      3  C3  IND d   1      -1.805   0.120   0.692  0.00  0.00    -0.031 A 
ATOM      4  C4  IND d   1       0.734   0.250   1.102  0.00  0.00     0.051 A 
ATOM      5  C5  IND d   1       1.905   0.615   0.500  0.00  0.00    -0.031 A 
ATOM      6  C6  IND d   1       1.932   1.173  -0.762  0.00  0.00     0.015 A 
ATOM      7  C7  IND d   1       0.784   1.398  -1.466  0.00  0.00    -0.016 A 
ATOM      8  C8  IND d   1      -0.407   1.022  -0.861  0.00  0.00    -0.047 A 
ATOM      9  C9  IND d   1      -0.438   0.416   0.402  0.00  0.00    -0.096 A 
ATOM     10  HN1 IND d   1      -1.958   1.421  -2.067  0.00  0.00     0.298 HD
ENDROOT
TORSDOF 0
ENDMDL
