MODEL 1
REMARK minimizedAffinity -4.21666622
REMARK minimizedRMSD -1
REMARK  0 active torsions:
REMARK  status: ('A' for Active; 'I' for Inactive)
ROOT
ATOM      1  N1  IND d   1       1.052   1.148   0.158  0.00  0.00    -0.196 N 
ATOM      2  C2  IND d   1       0.381   1.255  -1.028  0.00  0.00     0.054 A 
ATOM      3  C3  IND d   1      -0.779   0.564  -0.976  0.00  0.00    -0.031 A 
ATOM      4  C4  IND d   1      -1.825  -0.732   0.987  0.00  0.00     0.051 A 
ATOM      5  C5  IND d   1      -1.569  -1.143   2.265  0.00  0.00    -0.031 A 
ATOM      6  C6  IND d   1      -0.403  -0.803   2.920  0.00  0.00     0.015 A 
ATOM      7  C7  IND d   1       0.549  -0.025   2.323  0.00  0.00    -0.016 A 
ATOM      8  C8  IND d   1       0.295   0.388   1.023  0.00  0.00    -0.047 A 
ATOM      9  C9  IND d   1      -0.867   0.011   0.338  0.00  0.00    -0.096 A 
ATOM     10  HN1 IND d   1       1.818   1.496   0.335  0.00  0.00     0.298 HD
ENDROOT
TORSDOF 0
ENDMDL
