MODEL 1
REMARK minimizedAffinity -4.85378408
REMARK minimizedRMSD -1
REMARK  0 active torsions:
REMARK  status: ('A' for Active; 'I' for Inactive)
ROOT
ATOM      1  N1  IND d   1       0.111  -0.767  -1.960  0.00  0.00    -0.196 N 
ATOM      2  C2  IND d   1       0.966   0.034  -2.665  0.00  0.00     0.054 A 
ATOM      3  C3  IND d   1       1.578   0.911  -1.838  0.00  0.00    -0.031 A 
ATOM      4  C4  IND d   1       1.406   1.140   0.720  0.00  0.00     0.051 A 
ATOM      5  C5  IND d   1       0.726   0.654   1.802  0.00  0.00    -0.031 A 
ATOM      6  C6  IND d   1      -0.210  -0.353   1.683  0.00  0.00     0.015 A 
ATOM      7  C7  IND d   1      -0.494  -0.921   0.473  0.00  0.00    -0.016 A 
ATOM      8  C8  IND d   1       0.189  -0.425  -0.628  0.00  0.00    -0.047 A 
ATOM      9  C9  IND d   1       1.109   0.625  -0.520  0.00  0.00    -0.096 A 
ATOM     10  HN1 IND d   1      -0.390  -1.381  -2.293  0.00  0.00     0.298 HD
ENDROOT
TORSDOF 0
ENDMDL
