MODEL 1
REMARK minimizedAffinity -3.85222125
REMARK minimizedRMSD -1
REMARK  0 active torsions:
REMARK  status: ('A' for Active; 'I' for Inactive)
ROOT
ATOM      1  N1  IND d   1       0.705  -3.749  -2.543  0.00  0.00    -0.196 N 
ATOM      2  C2  IND d   1       0.269  -4.314  -1.376  0.00  0.00     0.054 A 
ATOM      3  C3  IND d   1       0.294  -3.405  -0.376  0.00  0.00    -0.031 A 
ATOM      4  C4  IND d   1       0.918  -0.908  -0.449  0.00  0.00     0.051 A 
ATOM      5  C5  IND d   1       1.413   0.054  -1.284  0.00  0.00    -0.031 A 
ATOM      6  C6  IND d   1       1.701  -0.206  -2.608  0.00  0.00     0.015 A 
ATOM      7  C7  IND d   1       1.493  -1.442  -3.152  0.00  0.00    -0.016 A 
ATOM      8  C8  IND d   1       0.997  -2.424  -2.306  0.00  0.00    -0.047 A 
ATOM      9  C9  IND d   1       0.742  -2.176  -0.951  0.00  0.00    -0.096 A 
ATOM     10  HN1 IND d   1       0.784  -4.154  -3.297  0.00  0.00     0.298 HD
ENDROOT
TORSDOF 0
ENDMDL
