MODEL 1
REMARK minimizedAffinity -1.6171031
REMARK minimizedRMSD -1
REMARK  0 active torsions:
REMARK  status: ('A' for Active; 'I' for Inactive)
ROOT
ATOM      1  N1  IND d   1      -0.960  -0.679   2.321  0.00  0.00    -0.196 N 
ATOM      2  C2  IND d   1      -0.262  -0.396   3.462  0.00  0.00     0.054 A 
ATOM      3  C3  IND d   1       0.819   0.364   3.176  0.00  0.00    -0.031 A 
ATOM      4  C4  IND d   1       1.578   1.344   0.919  0.00  0.00     0.051 A 
ATOM      5  C5  IND d   1       1.283   1.330  -0.415  0.00  0.00    -0.031 A 
ATOM      6  C6  IND d   1       0.201   0.634  -0.915  0.00  0.00     0.015 A 
ATOM      7  C7  IND d   1      -0.635  -0.068  -0.095  0.00  0.00    -0.016 A 
ATOM      8  C8  IND d   1      -0.334  -0.062   1.260  0.00  0.00    -0.047 A 
ATOM      9  C9  IND d   1       0.786   0.607   1.768  0.00  0.00    -0.096 A 
ATOM     10  HN1 IND d   1      -1.670  -1.162   2.274  0.00  0.00     0.298 HD
ENDROOT
TORSDOF 0
ENDMDL
