MODEL 1
REMARK minimizedAffinity -2.56278515
REMARK minimizedRMSD -1
REMARK  0 active torsions:
REMARK  status: ('A' for Active; 'I' for Inactive)
ROOT
ATOM      1  N1  IND d   1      -1.026   0.415  -2.137  0.00  0.00    -0.196 N 
ATOM      2  C2  IND d   1       0.186   0.685  -2.709  0.00  0.00     0.054 A 
ATOM      3  C3  IND d   1       1.133   0.831  -1.756  0.00  0.00    -0.031 A 
ATOM      4  C4  IND d   1       0.938   0.569   0.798  0.00  0.00     0.051 A 
ATOM      5  C5  IND d   1       0.024   0.362   1.793  0.00  0.00    -0.031 A 
ATOM      6  C6  IND d   1      -1.313   0.155   1.523  0.00  0.00     0.015 A 
ATOM      7  C7  IND d   1      -1.786   0.136   0.241  0.00  0.00    -0.016 A 
ATOM      8  C8  IND d   1      -0.862   0.353  -0.771  0.00  0.00    -0.047 A 
ATOM      9  C9  IND d   1       0.489   0.606  -0.501  0.00  0.00    -0.096 A 
ATOM     10  HN1 IND d   1      -1.766   0.302  -2.560  0.00  0.00     0.298 HD
ENDROOT
TORSDOF 0
ENDMDL
