MODEL 1
REMARK minimizedAffinity -3.47795868
REMARK minimizedRMSD -1
REMARK  0 active torsions:
REMARK  status: ('A' for Active; 'I' for Inactive)
ROOT
ATOM      1  N1  IND d   1      -2.398   1.111  -0.545  0.00  0.00    -0.196 N 
ATOM      2  C2  IND d   1      -2.206   1.456  -1.854  0.00  0.00     0.054 A 
ATOM      3  C3  IND d   1      -0.891   1.654  -2.099  0.00  0.00    -0.031 A 
ATOM      4  C4  IND d   1       1.128   1.367  -0.528  0.00  0.00     0.051 A 
ATOM      5  C5  IND d   1       1.451   1.100   0.773  0.00  0.00    -0.031 A 
ATOM      6  C6  IND d   1       0.488   0.815   1.719  0.00  0.00     0.015 A 
ATOM      7  C7  IND d   1      -0.839   0.774   1.396  0.00  0.00    -0.016 A 
ATOM      8  C8  IND d   1      -1.171   1.052   0.078  0.00  0.00    -0.047 A 
ATOM      9  C9  IND d   1      -0.202   1.384  -0.878  0.00  0.00    -0.096 A 
ATOM     10  HN1 IND d   1      -3.158   0.957  -0.174  0.00  0.00     0.298 HD
ENDROOT
TORSDOF 0
ENDMDL
