MODEL 1
REMARK minimizedAffinity -4.09746981
REMARK minimizedRMSD -1
REMARK  0 active torsions:
REMARK  status: ('A' for Active; 'I' for Inactive)
ROOT
ATOM      1  N1  IND d   1       0.253   0.006  -2.655  0.00  0.00    -0.196 N 
ATOM      2  C2  IND d   1       1.335   0.726  -3.077  0.00  0.00     0.054 A 
ATOM      3  C3  IND d   1       1.875   1.413  -2.045  0.00  0.00    -0.031 A 
ATOM      4  C4  IND d   1       1.208   1.421   0.441  0.00  0.00     0.051 A 
ATOM      5  C5  IND d   1       0.259   0.947   1.304  0.00  0.00    -0.031 A 
ATOM      6  C6  IND d   1      -0.759   0.116   0.883  0.00  0.00     0.015 A 
ATOM      7  C7  IND d   1      -0.860  -0.283  -0.420  0.00  0.00    -0.016 A 
ATOM      8  C8  IND d   1       0.097   0.202  -1.300  0.00  0.00    -0.047 A 
ATOM      9  C9  IND d   1       1.108   1.080  -0.887  0.00  0.00    -0.096 A 
ATOM     10  HN1 IND d   1      -0.246  -0.487  -3.151  0.00  0.00     0.298 HD
ENDROOT
TORSDOF 0
ENDMDL
