MODEL 1
REMARK minimizedAffinity -3.92319703
REMARK minimizedRMSD -1
REMARK  0 active torsions:
REMARK  status: ('A' for Active; 'I' for Inactive)
ROOT
ATOM      1  N1  IND d   1       4.146  -0.552  -4.418  0.00  0.00    -0.196 N 
ATOM      2  C2  IND d   1       4.190   0.773  -4.086  0.00  0.00     0.054 A 
ATOM      3  C3  IND d   1       3.008   1.166  -3.561  0.00  0.00    -0.031 A 
ATOM      4  C4  IND d   1       0.897  -0.222  -3.063  0.00  0.00     0.051 A 
ATOM      5  C5  IND d   1       0.366  -1.470  -3.226  0.00  0.00    -0.031 A 
ATOM      6  C6  IND d   1       1.082  -2.498  -3.804  0.00  0.00     0.015 A 
ATOM      7  C7  IND d   1       2.367  -2.318  -4.232  0.00  0.00    -0.016 A 
ATOM      8  C8  IND d   1       2.908  -1.049  -4.075  0.00  0.00    -0.047 A 
ATOM      9  C9  IND d   1       2.171   0.009  -3.527  0.00  0.00    -0.096 A 
ATOM     10  HN1 IND d   1       4.784  -1.000  -4.781  0.00  0.00     0.298 HD
ENDROOT
TORSDOF 0
ENDMDL
