MODEL 1
REMARK minimizedAffinity 3.79062223
REMARK minimizedRMSD -1
REMARK  0 active torsions:
REMARK  status: ('A' for Active; 'I' for Inactive)
ROOT
ATOM      1  N1  IND d   1      -2.774   2.730   2.123  0.00  0.00    -0.196 N 
ATOM      2  C2  IND d   1      -3.202   2.621   3.416  0.00  0.00     0.054 A 
ATOM      3  C3  IND d   1      -3.858   1.453   3.598  0.00  0.00    -0.031 A 
ATOM      4  C4  IND d   1      -4.256  -0.475   1.939  0.00  0.00     0.051 A 
ATOM      5  C5  IND d   1      -4.083  -0.821   0.628  0.00  0.00    -0.031 A 
ATOM      6  C6  IND d   1      -3.450   0.015  -0.269  0.00  0.00     0.015 A 
ATOM      7  C7  IND d   1      -2.953   1.228   0.116  0.00  0.00    -0.016 A 
ATOM      8  C8  IND d   1      -3.133   1.586   1.444  0.00  0.00    -0.047 A 
ATOM      9  C9  IND d   1      -3.813   0.760   2.350  0.00  0.00    -0.096 A 
ATOM     10  HN1 IND d   1      -2.351   3.400   1.789  0.00  0.00     0.298 HD
ENDROOT
TORSDOF 0
ENDMDL
