MODEL 1
REMARK minimizedAffinity -1.54398406
REMARK minimizedRMSD -1
REMARK  0 active torsions:
REMARK  status: ('A' for Active; 'I' for Inactive)
ROOT
ATOM      1  N1  IND d   1      -2.346   0.402  -0.149  0.00  0.00    -0.196 N 
ATOM      2  C2  IND d   1      -1.721   0.830  -1.287  0.00  0.00     0.054 A 
ATOM      3  C3  IND d   1      -0.381   0.853  -1.108  0.00  0.00    -0.031 A 
ATOM      4  C4  IND d   1       1.008   0.135   0.936  0.00  0.00     0.051 A 
ATOM      5  C5  IND d   1       0.882  -0.291   2.229  0.00  0.00    -0.031 A 
ATOM      6  C6  IND d   1      -0.352  -0.514   2.806  0.00  0.00     0.015 A 
ATOM      7  C7  IND d   1      -1.510  -0.331   2.104  0.00  0.00    -0.016 A 
ATOM      8  C8  IND d   1      -1.386   0.108   0.794  0.00  0.00    -0.047 A 
ATOM      9  C9  IND d   1      -0.138   0.378   0.217  0.00  0.00    -0.096 A 
ATOM     10  HN1 IND d   1      -3.196   0.329  -0.041  0.00  0.00     0.298 HD
ENDROOT
TORSDOF 0
ENDMDL
