MODEL 1
REMARK minimizedAffinity -3.22638297
REMARK minimizedRMSD -1
REMARK  0 active torsions:
REMARK  status: ('A' for Active; 'I' for Inactive)
ROOT
ATOM      1  N1  IND d   1       1.972   0.012   2.808  0.00  0.00    -0.196 N 
ATOM      2  C2  IND d   1       2.992   0.407   1.987  0.00  0.00     0.054 A 
ATOM      3  C3  IND d   1       2.519   0.688   0.752  0.00  0.00    -0.031 A 
ATOM      4  C4  IND d   1       0.095   0.667  -0.115  0.00  0.00     0.051 A 
ATOM      5  C5  IND d   1      -1.179   0.338   0.256  0.00  0.00    -0.031 A 
ATOM      6  C6  IND d   1      -1.474  -0.123   1.522  0.00  0.00     0.015 A 
ATOM      7  C7  IND d   1      -0.503  -0.262   2.474  0.00  0.00    -0.016 A 
ATOM      8  C8  IND d   1       0.793   0.064   2.099  0.00  0.00    -0.047 A 
ATOM      9  C9  IND d   1       1.105   0.492   0.802  0.00  0.00    -0.096 A 
ATOM     10  HN1 IND d   1       2.054  -0.229   3.630  0.00  0.00     0.298 HD
ENDROOT
TORSDOF 0
ENDMDL
