MODEL 1
REMARK minimizedAffinity -5.40764236
REMARK minimizedRMSD -1
REMARK  0 active torsions:
REMARK  status: ('A' for Active; 'I' for Inactive)
ROOT
ATOM      1  N1  IND d   1      -0.702   1.104  -0.486  0.00  0.00    -0.196 N 
ATOM      2  C2  IND d   1      -2.032   0.803  -0.571  0.00  0.00     0.054 A 
ATOM      3  C3  IND d   1      -2.416   0.064   0.494  0.00  0.00    -0.031 A 
ATOM      4  C4  IND d   1      -1.051  -0.679   2.546  0.00  0.00     0.051 A 
ATOM      5  C5  IND d   1       0.217  -0.674   3.056  0.00  0.00    -0.031 A 
ATOM      6  C6  IND d   1       1.264  -0.061   2.399  0.00  0.00     0.015 A 
ATOM      7  C7  IND d   1       1.079   0.582   1.208  0.00  0.00    -0.016 A 
ATOM      8  C8  IND d   1      -0.206   0.573   0.684  0.00  0.00    -0.047 A 
ATOM      9  C9  IND d   1      -1.264  -0.084   1.325  0.00  0.00    -0.096 A 
ATOM     10  HN1 IND d   1      -0.250   1.551  -1.066  0.00  0.00     0.298 HD
ENDROOT
TORSDOF 0
ENDMDL
