MODEL 1
REMARK minimizedAffinity -4.15120268
REMARK minimizedRMSD -1
REMARK  0 active torsions:
REMARK  status: ('A' for Active; 'I' for Inactive)
ROOT
ATOM      1  N1  IND d   1      -0.767   0.125   2.033  0.00  0.00    -0.196 N 
ATOM      2  C2  IND d   1       0.551   0.251   2.370  0.00  0.00     0.054 A 
ATOM      3  C3  IND d   1       1.307   0.414   1.261  0.00  0.00    -0.031 A 
ATOM      4  C4  IND d   1       0.577   0.608  -1.201  0.00  0.00     0.051 A 
ATOM      5  C5  IND d   1      -0.521   0.518  -2.009  0.00  0.00    -0.031 A 
ATOM      6  C6  IND d   1      -1.784   0.290  -1.501  0.00  0.00     0.015 A 
ATOM      7  C7  IND d   1      -1.997   0.155  -0.158  0.00  0.00    -0.016 A 
ATOM      8  C8  IND d   1      -0.883   0.239   0.665  0.00  0.00    -0.047 A 
ATOM      9  C9  IND d   1       0.406   0.427   0.152  0.00  0.00    -0.096 A 
ATOM     10  HN1 IND d   1      -1.416  -0.003   2.583  0.00  0.00     0.298 HD
ENDROOT
TORSDOF 0
ENDMDL
