MODEL 1
REMARK minimizedAffinity -2.00101399
REMARK minimizedRMSD -1
REMARK  0 active torsions:
REMARK  status: ('A' for Active; 'I' for Inactive)
ROOT
ATOM      1  N1  IND d   1      -2.012   0.860   0.358  0.00  0.00    -0.196 N 
ATOM      2  C2  IND d   1      -1.778   0.704  -0.980  0.00  0.00     0.054 A 
ATOM      3  C3  IND d   1      -0.483   0.382  -1.196  0.00  0.00    -0.031 A 
ATOM      4  C4  IND d   1       1.403  -0.042   0.505  0.00  0.00     0.051 A 
ATOM      5  C5  IND d   1       1.681   0.015   1.841  0.00  0.00    -0.031 A 
ATOM      6  C6  IND d   1       0.722   0.362   2.771  0.00  0.00     0.015 A 
ATOM      7  C7  IND d   1      -0.559   0.654   2.398  0.00  0.00    -0.016 A 
ATOM      8  C8  IND d   1      -0.843   0.603   1.041  0.00  0.00    -0.047 A 
ATOM      9  C9  IND d   1       0.137   0.294   0.088  0.00  0.00    -0.096 A 
ATOM     10  HN1 IND d   1      -2.763   1.082   0.713  0.00  0.00     0.298 HD
ENDROOT
TORSDOF 0
ENDMDL
