MODEL 1
REMARK minimizedAffinity -1.2305795
REMARK minimizedRMSD -1
REMARK  0 active torsions:
REMARK  status: ('A' for Active; 'I' for Inactive)
ROOT
ATOM      1  N1  IND d   1      -0.179  -1.644   2.328  0.00  0.00    -0.196 N 
ATOM      2  C2  IND d   1      -0.756  -0.641   3.056  0.00  0.00     0.054 A 
ATOM      3  C3  IND d   1      -0.940   0.454   2.285  0.00  0.00    -0.031 A 
ATOM      4  C4  IND d   1      -0.459   0.788  -0.222  0.00  0.00     0.051 A 
ATOM      5  C5  IND d   1       0.103   0.168  -1.303  0.00  0.00    -0.031 A 
ATOM      6  C6  IND d   1       0.607  -1.114  -1.228  0.00  0.00     0.015 A 
ATOM      7  C7  IND d   1       0.558  -1.832  -0.067  0.00  0.00    -0.016 A 
ATOM      8  C8  IND d   1      -0.005  -1.203   1.035  0.00  0.00    -0.047 A 
ATOM      9  C9  IND d   1      -0.480   0.113   0.976  0.00  0.00    -0.096 A 
ATOM     10  HN1 IND d   1       0.040  -2.420   2.628  0.00  0.00     0.298 HD
ENDROOT
TORSDOF 0
ENDMDL
