MODEL 1
REMARK minimizedAffinity -3.67685986
REMARK minimizedRMSD -1
REMARK  0 active torsions:
REMARK  status: ('A' for Active; 'I' for Inactive)
ROOT
ATOM      1  N1  IND d   1       1.073   0.876  -0.259  0.00  0.00    -0.196 N 
ATOM      2  C2  IND d   1       0.306   0.847  -1.390  0.00  0.00     0.054 A 
ATOM      3  C3  IND d   1      -0.912   0.326  -1.119  0.00  0.00    -0.031 A 
ATOM      4  C4  IND d   1      -1.895  -0.449   1.130  0.00  0.00     0.051 A 
ATOM      5  C5  IND d   1      -1.561  -0.649   2.440  0.00  0.00    -0.031 A 
ATOM      6  C6  IND d   1      -0.308  -0.341   2.928  0.00  0.00     0.015 A 
ATOM      7  C7  IND d   1       0.659   0.190   2.123  0.00  0.00    -0.016 A 
ATOM      8  C8  IND d   1       0.326   0.387   0.790  0.00  0.00    -0.047 A 
ATOM      9  C9  IND d   1      -0.931   0.038   0.280  0.00  0.00    -0.096 A 
ATOM     10  HN1 IND d   1       1.885   1.153  -0.211  0.00  0.00     0.298 HD
ENDROOT
TORSDOF 0
ENDMDL
