MODEL 1
REMARK minimizedAffinity 10.1968908
REMARK minimizedRMSD -1
REMARK  0 active torsions:
REMARK  status: ('A' for Active; 'I' for Inactive)
ROOT
ATOM      1  C2' OXE d   1       0.126   2.679   1.689  0.00  0.00     0.078 C 
ATOM      2  C1' OXE d   1      -1.583   1.679  -0.301  0.00  0.00     0.078 C 
ATOM      3  C1  OXE d   1      -0.683   2.833  -0.663  0.00  0.00    -0.078 A 
ATOM      4  C2  OXE d   1       0.117   3.346   0.330  0.00  0.00    -0.078 A 
ATOM      5  C3  OXE d   1       1.007   4.376   0.036  0.00  0.00     0.003 A 
ATOM      6  C4  OXE d   1       0.985   4.994  -1.220  0.00  0.00    -0.002 A 
ATOM      7  C5  OXE d   1       0.150   4.512  -2.234  0.00  0.00    -0.002 A 
ATOM      8  C6  OXE d   1      -0.657   3.408  -1.985  0.00  0.00     0.003 A 
ENDROOT
TORSDOF 0
ENDMDL
