MODEL 1
REMARK minimizedAffinity 5.36793423
REMARK minimizedRMSD -1
REMARK  0 active torsions:
REMARK  status: ('A' for Active; 'I' for Inactive)
ROOT
ATOM      1  C2' OXE d   1      -6.000   0.440   3.643  0.00  0.00     0.078 C 
ATOM      2  C1' OXE d   1      -3.379  -0.254   2.915  0.00  0.00     0.078 C 
ATOM      3  C1  OXE d   1      -4.050  -1.071   3.990  0.00  0.00    -0.078 A 
ATOM      4  C2  OXE d   1      -5.315  -0.695   4.373  0.00  0.00    -0.078 A 
ATOM      5  C3  OXE d   1      -6.000  -1.449   5.322  0.00  0.00     0.003 A 
ATOM      6  C4  OXE d   1      -5.355  -2.491   6.000  0.00  0.00    -0.002 A 
ATOM      7  C5  OXE d   1      -4.053  -2.865   5.653  0.00  0.00    -0.002 A 
ATOM      8  C6  OXE d   1      -3.403  -2.194   4.623  0.00  0.00     0.003 A 
ENDROOT
TORSDOF 0
ENDMDL
