MODEL 1
REMARK minimizedAffinity 7.39894819
REMARK minimizedRMSD -1
REMARK  0 active torsions:
REMARK  status: ('A' for Active; 'I' for Inactive)
ROOT
ATOM      1  C2' OXE d   1      -1.510  -2.058  -4.916  0.00  0.00     0.078 C 
ATOM      2  C1' OXE d   1       0.312  -4.070  -5.632  0.00  0.00     0.078 C 
ATOM      3  C1  OXE d   1      -1.155  -4.419  -5.627  0.00  0.00    -0.078 A 
ATOM      4  C2  OXE d   1      -2.036  -3.442  -5.231  0.00  0.00    -0.078 A 
ATOM      5  C3  OXE d   1      -3.404  -3.694  -5.261  0.00  0.00     0.003 A 
ATOM      6  C4  OXE d   1      -3.882  -4.979  -5.543  0.00  0.00    -0.002 A 
ATOM      7  C5  OXE d   1      -2.999  -6.000  -5.911  0.00  0.00    -0.002 A 
ATOM      8  C6  OXE d   1      -1.639  -5.725  -5.999  0.00  0.00     0.003 A 
ENDROOT
TORSDOF 0
ENDMDL
