MODEL 1
REMARK minimizedAffinity 4.96126318
REMARK minimizedRMSD -1
REMARK  0 active torsions:
REMARK  status: ('A' for Active; 'I' for Inactive)
ROOT
ATOM      1  C2' OXE d   1      -4.508   3.183  -1.873  0.00  0.00     0.078 C 
ATOM      2  C1' OXE d   1      -5.610   5.729  -1.449  0.00  0.00     0.078 C 
ATOM      3  C1  OXE d   1      -5.519   5.230  -2.869  0.00  0.00    -0.078 A 
ATOM      4  C2  OXE d   1      -4.936   4.002  -3.072  0.00  0.00    -0.078 A 
ATOM      5  C3  OXE d   1      -4.876   3.471  -4.357  0.00  0.00     0.003 A 
ATOM      6  C4  OXE d   1      -5.265   4.240  -5.460  0.00  0.00    -0.002 A 
ATOM      7  C5  OXE d   1      -5.825   5.509  -5.280  0.00  0.00    -0.002 A 
ATOM      8  C6  OXE d   1      -5.998   6.000  -3.990  0.00  0.00     0.003 A 
ENDROOT
TORSDOF 0
ENDMDL
