MODEL 1
REMARK minimizedAffinity 8.35825729
REMARK minimizedRMSD -1
REMARK  0 active torsions:
REMARK  status: ('A' for Active; 'I' for Inactive)
ROOT
ATOM      1  C2' OXE d   1       1.395  -6.000  -1.490  0.00  0.00     0.078 C 
ATOM      2  C1' OXE d   1       0.514  -3.443  -0.736  0.00  0.00     0.078 C 
ATOM      3  C1  OXE d   1      -0.155  -4.097  -1.919  0.00  0.00    -0.078 A 
ATOM      4  C2  OXE d   1       0.314  -5.328  -2.310  0.00  0.00    -0.078 A 
ATOM      5  C3  OXE d   1      -0.304  -5.999  -3.361  0.00  0.00     0.003 A 
ATOM      6  C4  OXE d   1      -1.296  -5.367  -4.120  0.00  0.00    -0.002 A 
ATOM      7  C5  OXE d   1      -1.761  -4.097  -3.764  0.00  0.00    -0.002 A 
ATOM      8  C6  OXE d   1      -1.231  -3.467  -2.643  0.00  0.00     0.003 A 
ENDROOT
TORSDOF 0
ENDMDL
