MODEL 1
REMARK minimizedAffinity 3.11177731
REMARK minimizedRMSD -1
REMARK  0 active torsions:
REMARK  status: ('A' for Active; 'I' for Inactive)
ROOT
ATOM      1  C2' OXE d   1      -4.026   1.401  -5.910  0.00  0.00     0.078 C 
ATOM      2  C1' OXE d   1      -5.999  -0.123  -4.620  0.00  0.00     0.078 C 
ATOM      3  C1  OXE d   1      -5.490   1.110  -3.916  0.00  0.00    -0.078 A 
ATOM      4  C2  OXE d   1      -4.492   1.824  -4.533  0.00  0.00    -0.078 A 
ATOM      5  C3  OXE d   1      -4.025   3.000  -3.953  0.00  0.00     0.003 A 
ATOM      6  C4  OXE d   1      -4.454   3.378  -2.675  0.00  0.00    -0.002 A 
ATOM      7  C5  OXE d   1      -5.442   2.643  -2.011  0.00  0.00    -0.002 A 
ATOM      8  C6  OXE d   1      -6.000   1.533  -2.635  0.00  0.00     0.003 A 
ENDROOT
TORSDOF 0
ENDMDL
