MODEL 1
REMARK minimizedAffinity 7.15505934
REMARK minimizedRMSD -1
REMARK  0 active torsions:
REMARK  status: ('A' for Active; 'I' for Inactive)
ROOT
ATOM      1  C2' OXE d   1       0.086   6.000  -3.579  0.00  0.00     0.078 C 
ATOM      2  C1' OXE d   1      -2.444   5.270  -2.608  0.00  0.00     0.078 C 
ATOM      3  C1  OXE d   1      -1.238   4.887  -1.787  0.00  0.00    -0.078 A 
ATOM      4  C2  OXE d   1      -0.002   5.207  -2.293  0.00  0.00    -0.078 A 
ATOM      5  C3  OXE d   1       1.141   4.925  -1.550  0.00  0.00     0.003 A 
ATOM      6  C4  OXE d   1       1.052   4.182  -0.366  0.00  0.00    -0.002 A 
ATOM      7  C5  OXE d   1      -0.196   3.812   0.147  0.00  0.00    -0.002 A 
ATOM      8  C6  OXE d   1      -1.351   4.193  -0.528  0.00  0.00     0.003 A 
ENDROOT
TORSDOF 0
ENDMDL
