MODEL 1
REMARK minimizedAffinity 8.35214806
REMARK minimizedRMSD -1
REMARK  0 active torsions:
REMARK  status: ('A' for Active; 'I' for Inactive)
ROOT
ATOM      1  C2' OXE d   1      -4.219   4.502  -5.463  0.00  0.00     0.078 C 
ATOM      2  C1' OXE d   1      -5.999   2.390  -4.963  0.00  0.00     0.078 C 
ATOM      3  C1  OXE d   1      -5.538   3.214  -3.787  0.00  0.00    -0.078 A 
ATOM      4  C2  OXE d   1      -4.631   4.217  -4.035  0.00  0.00    -0.078 A 
ATOM      5  C3  OXE d   1      -4.215   5.042  -2.994  0.00  0.00     0.003 A 
ATOM      6  C4  OXE d   1      -4.593   4.765  -1.675  0.00  0.00    -0.002 A 
ATOM      7  C5  OXE d   1      -5.485   3.724  -1.396  0.00  0.00    -0.002 A 
ATOM      8  C6  OXE d   1      -5.999   2.968  -2.443  0.00  0.00     0.003 A 
ENDROOT
TORSDOF 0
ENDMDL
