MODEL 1
REMARK minimizedAffinity -4.85513401
REMARK minimizedRMSD -1
REMARK  3 active torsions:
REMARK  status: ('A' for Active; 'I' for Inactive)
REMARK    1  A    between atoms: C3'_2  and  C2'_3 
REMARK    2  A    between atoms: C2'_3  and  C1'_4 
REMARK    3  A    between atoms: C1'_4  and  C1_5 
ROOT
ATOM      1  C1  N4B d   1      -0.242  -0.032   0.022  0.00  0.00    -0.075 A 
ATOM      2  C2  N4B d   1       0.790  -0.842   0.545  0.00  0.00     0.002 A 
ATOM      3  C3  N4B d   1       0.898  -1.026   1.902  0.00  0.00     0.002 A 
ATOM      4  C4  N4B d   1       0.000  -0.398   2.752  0.00  0.00    -0.004 A 
ATOM      5  C5  N4B d   1      -1.009   0.362   2.237  0.00  0.00     0.002 A 
ATOM      6  C6  N4B d   1      -1.132   0.553   0.876  0.00  0.00     0.002 A 
ENDROOT
BRANCH   1   7
ATOM      7  C1' N4B d   1      -0.348   0.268  -1.449  0.00  0.00     0.057 C 
BRANCH   7   8
ATOM      8  C2' N4B d   1       0.059   1.718  -1.694  0.00  0.00     0.009 C 
BRANCH   8   9
ATOM      9  C3' N4B d   1      -1.012   2.488  -2.448  0.00  0.00     0.004 C 
ATOM     10  C4' N4B d   1      -1.381   3.778  -1.777  0.00  0.00     0.003 C 
ENDBRANCH   8   9
ENDBRANCH   7   8
ENDBRANCH   1   7
TORSDOF 3
ENDMDL
