MODEL 1
REMARK minimizedAffinity -3.1259377
REMARK minimizedRMSD -1
REMARK  3 active torsions:
REMARK  status: ('A' for Active; 'I' for Inactive)
REMARK    1  A    between atoms: C3'_2  and  C2'_3 
REMARK    2  A    between atoms: C2'_3  and  C1'_4 
REMARK    3  A    between atoms: C1'_4  and  C1_5 
ROOT
ATOM      1  C1  N4B d   1      -0.816   1.004  -2.046  0.00  0.00    -0.075 A 
ATOM      2  C2  N4B d   1      -2.057   1.635  -1.814  0.00  0.00     0.002 A 
ATOM      3  C3  N4B d   1      -2.230   2.955  -2.151  0.00  0.00     0.002 A 
ATOM      4  C4  N4B d   1      -1.174   3.666  -2.702  0.00  0.00    -0.004 A 
ATOM      5  C5  N4B d   1       0.014   3.042  -2.946  0.00  0.00     0.002 A 
ATOM      6  C6  N4B d   1       0.201   1.715  -2.616  0.00  0.00     0.002 A 
ENDROOT
BRANCH   1   7
ATOM      7  C1' N4B d   1      -0.552  -0.413  -1.615  0.00  0.00     0.057 C 
BRANCH   7   8
ATOM      8  C2' N4B d   1       0.032  -0.408  -0.206  0.00  0.00     0.009 C 
BRANCH   8   9
ATOM      9  C3' N4B d   1      -1.046  -0.540   0.857  0.00  0.00     0.004 C 
ATOM     10  C4' N4B d   1      -0.489  -0.848   2.214  0.00  0.00     0.003 C 
ENDBRANCH   8   9
ENDBRANCH   7   8
ENDBRANCH   1   7
TORSDOF 3
ENDMDL
