MODEL 1
REMARK minimizedAffinity -2.45435977
REMARK minimizedRMSD -1
REMARK  3 active torsions:
REMARK  status: ('A' for Active; 'I' for Inactive)
REMARK    1  A    between atoms: C3'_2  and  C2'_3 
REMARK    2  A    between atoms: C2'_3  and  C1'_4 
REMARK    3  A    between atoms: C1'_4  and  C1_5 
ROOT
ATOM      1  C1  N4B d   1       0.435  -0.549   0.504  0.00  0.00    -0.075 A 
ATOM      2  C2  N4B d   1       1.492  -1.281  -0.079  0.00  0.00     0.002 A 
ATOM      3  C3  N4B d   1       2.113  -2.276   0.635  0.00  0.00     0.002 A 
ATOM      4  C4  N4B d   1       1.709  -2.543   1.934  0.00  0.00    -0.004 A 
ATOM      5  C5  N4B d   1       0.670  -1.849   2.481  0.00  0.00     0.002 A 
ATOM      6  C6  N4B d   1       0.033  -0.848   1.774  0.00  0.00     0.002 A 
ENDROOT
BRANCH   1   7
ATOM      7  C1' N4B d   1      -0.218   0.606  -0.206  0.00  0.00     0.057 C 
BRANCH   7   8
ATOM      8  C2' N4B d   1      -0.251   0.318  -1.704  0.00  0.00     0.009 C 
BRANCH   8   9
ATOM      9  C3' N4B d   1      -0.990   1.399  -2.474  0.00  0.00     0.004 C 
ATOM     10  C4' N4B d   1      -0.075   2.464  -3.002  0.00  0.00     0.003 C 
ENDBRANCH   8   9
ENDBRANCH   7   8
ENDBRANCH   1   7
TORSDOF 3
ENDMDL
