MODEL 1
REMARK minimizedAffinity -3.6857233
REMARK minimizedRMSD -1
REMARK  3 active torsions:
REMARK  status: ('A' for Active; 'I' for Inactive)
REMARK    1  A    between atoms: C3'_2  and  C2'_3 
REMARK    2  A    between atoms: C2'_3  and  C1'_4 
REMARK    3  A    between atoms: C1'_4  and  C1_5 
ROOT
ATOM      1  C1  N4B d   1      -0.397   0.016  -0.870  0.00  0.00    -0.075 A 
ATOM      2  C2  N4B d   1       0.734  -0.746  -1.239  0.00  0.00     0.002 A 
ATOM      3  C3  N4B d   1       1.366  -1.532  -0.307  0.00  0.00     0.002 A 
ATOM      4  C4  N4B d   1       0.899  -1.557   0.999  0.00  0.00    -0.004 A 
ATOM      5  C5  N4B d   1      -0.209  -0.838   1.341  0.00  0.00     0.002 A 
ATOM      6  C6  N4B d   1      -0.856  -0.047   0.414  0.00  0.00     0.002 A 
ENDROOT
BRANCH   1   7
ATOM      7  C1' N4B d   1      -1.069   0.956  -1.832  0.00  0.00     0.057 C 
BRANCH   7   8
ATOM      8  C2' N4B d   1      -0.129   2.119  -2.136  0.00  0.00     0.009 C 
BRANCH   8   9
ATOM      9  C3' N4B d   1      -0.859   3.289  -2.773  0.00  0.00     0.004 C 
ATOM     10  C4' N4B d   1      -2.330   3.284  -2.481  0.00  0.00     0.003 C 
ENDBRANCH   8   9
ENDBRANCH   7   8
ENDBRANCH   1   7
TORSDOF 3
ENDMDL
