MODEL 1
REMARK minimizedAffinity -2.99302912
REMARK minimizedRMSD -1
REMARK  1 active torsions:
REMARK  status: ('A' for Active; 'I' for Inactive)
REMARK    1  A    between atoms: C1_2  and  C2_3 
ROOT
ATOM      1  C2  UNL d   1      -1.187  -0.909  -3.997  0.00  0.00    -0.076 A 
ATOM      2  C3  UNL d   1      -1.353  -0.795  -2.606  0.00  0.00     0.004 A 
ATOM      3  C4  UNL d   1      -0.799  -1.734  -1.738  0.00  0.00    -0.003 A 
ATOM      4  C5  UNL d   1      -0.069  -2.802  -2.247  0.00  0.00     0.000 A 
ATOM      5  C6  UNL d   1       0.121  -2.921  -3.624  0.00  0.00     0.000 A 
ATOM      6  C7  UNL d   1      -0.418  -1.974  -4.511  0.00  0.00    -0.073 A 
ATOM      7  C8  UNL d   1      -0.187  -2.155  -5.987  0.00  0.00     0.078 C 
ENDROOT
BRANCH   1   8
ATOM      8  C1  UNL d   1      -1.835   0.125  -4.891  0.00  0.00     0.053 C 
ATOM      9  C   UNL d   1      -3.235  -0.277  -5.328  0.00  0.00     0.018 C 
ENDBRANCH   1   8
TORSDOF 1
ENDMDL
