MODEL 1
REMARK minimizedAffinity 3.6228013
REMARK minimizedRMSD -1
REMARK  1 active torsions:
REMARK  status: ('A' for Active; 'I' for Inactive)
REMARK    1  A    between atoms: C1_2  and  C2_3 
ROOT
ATOM      1  C2  UNL d   1      -0.564  -1.071  -2.866  0.00  0.00    -0.076 A 
ATOM      2  C3  UNL d   1      -0.755   0.321  -2.875  0.00  0.00     0.004 A 
ATOM      3  C4  UNL d   1      -0.886   1.020  -4.073  0.00  0.00    -0.003 A 
ATOM      4  C5  UNL d   1      -0.829   0.338  -5.283  0.00  0.00     0.000 A 
ATOM      5  C6  UNL d   1      -0.657  -1.046  -5.294  0.00  0.00     0.000 A 
ATOM      6  C7  UNL d   1      -0.539  -1.768  -4.094  0.00  0.00    -0.073 A 
ATOM      7  C8  UNL d   1      -0.350  -3.258  -4.164  0.00  0.00     0.078 C 
ENDROOT
BRANCH   1   8
ATOM      8  C1  UNL d   1      -0.401  -1.772  -1.537  0.00  0.00     0.053 C 
ATOM      9  C   UNL d   1      -1.647  -1.675  -0.670  0.00  0.00     0.018 C 
ENDBRANCH   1   8
TORSDOF 1
ENDMDL
