MODEL 1
REMARK minimizedAffinity -0.404017717
REMARK minimizedRMSD -1
REMARK  1 active torsions:
REMARK  status: ('A' for Active; 'I' for Inactive)
REMARK    1  A    between atoms: C1_2  and  C2_3 
ROOT
ATOM      1  C2  UNL d   1       0.054  -1.324  -4.371  0.00  0.00    -0.076 A 
ATOM      2  C3  UNL d   1      -1.272  -1.079  -3.975  0.00  0.00     0.004 A 
ATOM      3  C4  UNL d   1      -2.026  -0.071  -4.574  0.00  0.00    -0.003 A 
ATOM      4  C5  UNL d   1      -1.466   0.707  -5.581  0.00  0.00     0.000 A 
ATOM      5  C6  UNL d   1      -0.158   0.466  -6.000  0.00  0.00     0.000 A 
ATOM      6  C7  UNL d   1       0.610  -0.556  -5.416  0.00  0.00    -0.073 A 
ATOM      7  C8  UNL d   1       2.018  -0.768  -5.902  0.00  0.00     0.078 C 
ENDROOT
BRANCH   1   8
ATOM      8  C1  UNL d   1       0.831  -2.412  -3.666  0.00  0.00     0.053 C 
ATOM      9  C   UNL d   1       0.405  -2.587  -2.216  0.00  0.00     0.018 C 
ENDBRANCH   1   8
TORSDOF 1
ENDMDL
