MODEL 1
REMARK minimizedAffinity 1.61667359
REMARK minimizedRMSD -1
REMARK  1 active torsions:
REMARK  status: ('A' for Active; 'I' for Inactive)
REMARK    1  A    between atoms: C1_2  and  C2_3 
ROOT
ATOM      1  C2  UNL d   1      -2.158  -0.663   0.867  0.00  0.00    -0.076 A 
ATOM      2  C3  UNL d   1      -3.373  -0.083   0.462  0.00  0.00     0.004 A 
ATOM      3  C4  UNL d   1      -4.021   0.857   1.261  0.00  0.00    -0.003 A 
ATOM      4  C5  UNL d   1      -3.464   1.234   2.478  0.00  0.00     0.000 A 
ATOM      5  C6  UNL d   1      -2.251   0.682   2.888  0.00  0.00     0.000 A 
ATOM      6  C7  UNL d   1      -1.577  -0.256   2.087  0.00  0.00    -0.073 A 
ATOM      7  C8  UNL d   1      -0.274  -0.823   2.581  0.00  0.00     0.078 C 
ENDROOT
BRANCH   1   8
ATOM      8  C1  UNL d   1      -1.515  -1.698  -0.028  0.00  0.00     0.053 C 
ATOM      9  C   UNL d   1      -2.132  -3.078   0.140  0.00  0.00     0.018 C 
ENDBRANCH   1   8
TORSDOF 1
ENDMDL
