MODEL 1
REMARK minimizedAffinity -2.74426055
REMARK minimizedRMSD -1
REMARK  1 active torsions:
REMARK  status: ('A' for Active; 'I' for Inactive)
REMARK    1  A    between atoms: C1_2  and  C2_3 
ROOT
ATOM      1  C2  UNL d   1      -0.367   0.377  -3.551  0.00  0.00    -0.076 A 
ATOM      2  C3  UNL d   1       1.031   0.252  -3.611  0.00  0.00     0.004 A 
ATOM      3  C4  UNL d   1       1.680   0.028  -4.825  0.00  0.00    -0.003 A 
ATOM      4  C5  UNL d   1       0.940  -0.072  -5.998  0.00  0.00     0.000 A 
ATOM      5  C6  UNL d   1      -0.446   0.067  -5.959  0.00  0.00     0.000 A 
ATOM      6  C7  UNL d   1      -1.115   0.309  -4.747  0.00  0.00    -0.073 A 
ATOM      7  C8  UNL d   1      -2.612   0.445  -4.762  0.00  0.00     0.078 C 
ENDROOT
BRANCH   1   8
ATOM      8  C1  UNL d   1      -1.018   0.592  -2.203  0.00  0.00     0.053 C 
ATOM      9  C   UNL d   1      -0.368  -0.235  -1.104  0.00  0.00     0.018 C 
ENDBRANCH   1   8
TORSDOF 1
ENDMDL
