MODEL 1
REMARK minimizedAffinity 1.15957081
REMARK minimizedRMSD -1
REMARK  1 active torsions:
REMARK  status: ('A' for Active; 'I' for Inactive)
REMARK    1  A    between atoms: C1_2  and  C2_3 
ROOT
ATOM      1  C2  UNL d   1      -0.702  -0.611  -3.817  0.00  0.00    -0.076 A 
ATOM      2  C3  UNL d   1      -0.887  -0.513  -2.427  0.00  0.00     0.004 A 
ATOM      3  C4  UNL d   1      -0.476  -1.537  -1.574  0.00  0.00    -0.003 A 
ATOM      4  C5  UNL d   1       0.128  -2.674  -2.098  0.00  0.00     0.000 A 
ATOM      5  C6  UNL d   1       0.336  -2.780  -3.473  0.00  0.00     0.000 A 
ATOM      6  C7  UNL d   1      -0.058  -1.751  -4.345  0.00  0.00    -0.073 A 
ATOM      7  C8  UNL d   1       0.186  -1.921  -5.819  0.00  0.00     0.078 C 
ENDROOT
BRANCH   1   8
ATOM      8  C1  UNL d   1      -1.193   0.518  -4.694  0.00  0.00     0.053 C 
ATOM      9  C   UNL d   1      -0.087   1.110  -5.555  0.00  0.00     0.018 C 
ENDBRANCH   1   8
TORSDOF 1
ENDMDL
