MODEL 1
REMARK minimizedAffinity 0.641305506
REMARK minimizedRMSD -1
REMARK  1 active torsions:
REMARK  status: ('A' for Active; 'I' for Inactive)
REMARK    1  A    between atoms: C1_2  and  C2_3 
ROOT
ATOM      1  C2  UNL d   1      -3.338  -0.161   0.428  0.00  0.00    -0.076 A 
ATOM      2  C3  UNL d   1      -4.126  -0.703  -0.603  0.00  0.00     0.004 A 
ATOM      3  C4  UNL d   1      -5.446  -0.294  -0.787  0.00  0.00    -0.003 A 
ATOM      4  C5  UNL d   1      -5.999   0.663   0.056  0.00  0.00     0.000 A 
ATOM      5  C6  UNL d   1      -5.227   1.224   1.072  0.00  0.00     0.000 A 
ATOM      6  C7  UNL d   1      -3.890   0.836   1.262  0.00  0.00    -0.073 A 
ATOM      7  C8  UNL d   1      -3.105   1.469   2.377  0.00  0.00     0.078 C 
ENDROOT
BRANCH   1   8
ATOM      8  C1  UNL d   1      -1.922  -0.662   0.597  0.00  0.00     0.053 C 
ATOM      9  C   UNL d   1      -1.500  -0.736   2.056  0.00  0.00     0.018 C 
ENDBRANCH   1   8
TORSDOF 1
ENDMDL
