MODEL 1
REMARK minimizedAffinity -4.79744053
REMARK minimizedRMSD -1
REMARK  1 active torsions:
REMARK  status: ('A' for Active; 'I' for Inactive)
REMARK    1  A    between atoms: C1_2  and  C2_3 
ROOT
ATOM      1  C2  UNL d   1      -1.638  -0.973  -0.205  0.00  0.00    -0.076 A 
ATOM      2  C3  UNL d   1      -3.033  -1.117  -0.298  0.00  0.00     0.004 A 
ATOM      3  C4  UNL d   1      -3.883  -0.033  -0.085  0.00  0.00    -0.003 A 
ATOM      4  C5  UNL d   1      -3.351   1.214   0.224  0.00  0.00     0.000 A 
ATOM      5  C6  UNL d   1      -1.968   1.380   0.303  0.00  0.00     0.000 A 
ATOM      6  C7  UNL d   1      -1.097   0.300   0.075  0.00  0.00    -0.073 A 
ATOM      7  C8  UNL d   1       0.385   0.535   0.179  0.00  0.00     0.078 C 
ENDROOT
BRANCH   1   8
ATOM      8  C1  UNL d   1      -0.768  -2.190  -0.420  0.00  0.00     0.053 C 
ATOM      9  C   UNL d   1      -0.408  -2.399  -1.883  0.00  0.00     0.018 C 
ENDBRANCH   1   8
TORSDOF 1
ENDMDL
