MODEL 1
REMARK minimizedAffinity -3.58815145
REMARK minimizedRMSD -1
REMARK  0 active torsions:
REMARK  status: ('A' for Active; 'I' for Inactive)
ROOT
ATOM      1  C   UNL d   1      -2.655  -2.643   0.928  0.00  0.00     0.077 C 
ATOM      2  C1  UNL d   1      -1.259  -2.214   0.588  0.00  0.00    -0.074 A 
ATOM      3  C2  UNL d   1      -0.242  -3.157   0.405  0.00  0.00    -0.005 A 
ATOM      4  C3  UNL d   1       1.050  -2.743   0.080  0.00  0.00     0.006 A 
ATOM      5  C4  UNL d   1       1.337  -1.385  -0.066  0.00  0.00    -0.005 A 
ATOM      6  C5  UNL d   1       0.333  -0.429   0.112  0.00  0.00    -0.074 A 
ATOM      7  C6  UNL d   1       0.623   1.034  -0.050  0.00  0.00     0.077 C 
ATOM      8  C7  UNL d   1      -0.964  -0.852   0.432  0.00  0.00    -0.001 A 
ENDROOT
TORSDOF 0
ENDMDL
