MODEL 1
REMARK minimizedAffinity -2.65255666
REMARK minimizedRMSD -1
REMARK  0 active torsions:
REMARK  status: ('A' for Active; 'I' for Inactive)
ROOT
ATOM      1  C   UNL d   1      -1.000  -3.881   0.330  0.00  0.00     0.077 C 
ATOM      2  C1  UNL d   1      -1.114  -2.490   0.879  0.00  0.00    -0.074 A 
ATOM      3  C2  UNL d   1      -1.942  -2.213   1.971  0.00  0.00    -0.005 A 
ATOM      4  C3  UNL d   1      -2.031  -0.916   2.477  0.00  0.00     0.006 A 
ATOM      5  C4  UNL d   1      -1.293   0.116   1.896  0.00  0.00    -0.005 A 
ATOM      6  C5  UNL d   1      -0.459  -0.141   0.803  0.00  0.00    -0.074 A 
ATOM      7  C6  UNL d   1       0.348   0.955   0.173  0.00  0.00     0.077 C 
ATOM      8  C7  UNL d   1      -0.370  -1.449   0.306  0.00  0.00    -0.001 A 
ENDROOT
TORSDOF 0
ENDMDL
