MODEL 1
REMARK minimizedAffinity -3.15625572
REMARK minimizedRMSD -1
REMARK  0 active torsions:
REMARK  status: ('A' for Active; 'I' for Inactive)
ROOT
ATOM      1  C   UNL d   1      -2.907  -3.035   0.398  0.00  0.00     0.077 C 
ATOM      2  C1  UNL d   1      -1.506  -2.670   0.008  0.00  0.00    -0.074 A 
ATOM      3  C2  UNL d   1      -0.658  -3.609  -0.589  0.00  0.00    -0.005 A 
ATOM      4  C3  UNL d   1       0.640  -3.252  -0.955  0.00  0.00     0.006 A 
ATOM      5  C4  UNL d   1       1.102  -1.955  -0.728  0.00  0.00    -0.005 A 
ATOM      6  C5  UNL d   1       0.269  -1.003  -0.133  0.00  0.00    -0.074 A 
ATOM      7  C6  UNL d   1       0.747   0.398   0.108  0.00  0.00     0.077 C 
ATOM      8  C7  UNL d   1      -1.036  -1.367   0.225  0.00  0.00    -0.001 A 
ENDROOT
TORSDOF 0
ENDMDL
