MODEL 1
REMARK minimizedAffinity -0.578077435
REMARK minimizedRMSD -1
REMARK  0 active torsions:
REMARK  status: ('A' for Active; 'I' for Inactive)
ROOT
ATOM      1  C   UNL d   1      -2.682  -0.061   2.051  0.00  0.00     0.077 C 
ATOM      2  C1  UNL d   1      -1.991  -1.150   1.287  0.00  0.00    -0.074 A 
ATOM      3  C2  UNL d   1      -2.590  -2.404   1.122  0.00  0.00    -0.005 A 
ATOM      4  C3  UNL d   1      -1.939  -3.404   0.400  0.00  0.00     0.006 A 
ATOM      5  C4  UNL d   1      -0.685  -3.162  -0.163  0.00  0.00    -0.005 A 
ATOM      6  C5  UNL d   1      -0.072  -1.915  -0.009  0.00  0.00    -0.074 A 
ATOM      7  C6  UNL d   1       1.271  -1.635  -0.616  0.00  0.00     0.077 C 
ATOM      8  C7  UNL d   1      -0.735  -0.913   0.712  0.00  0.00    -0.001 A 
ENDROOT
TORSDOF 0
ENDMDL
