MODEL 1
REMARK minimizedAffinity -3.47343469
REMARK minimizedRMSD -1
REMARK  0 active torsions:
REMARK  status: ('A' for Active; 'I' for Inactive)
ROOT
ATOM      1  C   UNL d   1      -2.544  -3.126   0.844  0.00  0.00     0.077 C 
ATOM      2  C1  UNL d   1      -1.582  -2.025   0.510  0.00  0.00    -0.074 A 
ATOM      3  C2  UNL d   1      -1.742  -0.743   1.044  0.00  0.00    -0.005 A 
ATOM      4  C3  UNL d   1      -0.833   0.268   0.732  0.00  0.00     0.006 A 
ATOM      5  C4  UNL d   1       0.243   0.008  -0.117  0.00  0.00    -0.005 A 
ATOM      6  C5  UNL d   1       0.420  -1.269  -0.661  0.00  0.00    -0.074 A 
ATOM      7  C6  UNL d   1       1.577  -1.568  -1.567  0.00  0.00     0.077 C 
ATOM      8  C7  UNL d   1      -0.493  -2.281  -0.336  0.00  0.00    -0.001 A 
ENDROOT
TORSDOF 0
ENDMDL
