MODEL 1
REMARK minimizedAffinity -5.4788146
REMARK minimizedRMSD -1
REMARK  0 active torsions:
REMARK  status: ('A' for Active; 'I' for Inactive)
ROOT
ATOM      1  C   UNL d   1       0.350   1.615  -0.276  0.00  0.00     0.077 C 
ATOM      2  C1  UNL d   1      -0.272   0.381   0.308  0.00  0.00    -0.074 A 
ATOM      3  C2  UNL d   1      -1.411   0.462   1.114  0.00  0.00    -0.005 A 
ATOM      4  C3  UNL d   1      -1.983  -0.695   1.642  0.00  0.00     0.006 A 
ATOM      5  C4  UNL d   1      -1.423  -1.944   1.369  0.00  0.00    -0.005 A 
ATOM      6  C5  UNL d   1      -0.284  -2.045   0.564  0.00  0.00    -0.074 A 
ATOM      7  C6  UNL d   1       0.325  -3.379   0.253  0.00  0.00     0.077 C 
ATOM      8  C7  UNL d   1       0.281  -0.878   0.032  0.00  0.00    -0.001 A 
ENDROOT
TORSDOF 0
ENDMDL
