MODEL 1
REMARK minimizedAffinity -4.7614646
REMARK minimizedRMSD -1
REMARK  0 active torsions:
REMARK  status: ('A' for Active; 'I' for Inactive)
ROOT
ATOM      1  C   UNL d   1       0.815   1.544   0.257  0.00  0.00     0.077 C 
ATOM      2  C1  UNL d   1       0.367   0.112   0.250  0.00  0.00    -0.074 A 
ATOM      3  C2  UNL d   1       0.958  -0.821  -0.608  0.00  0.00    -0.005 A 
ATOM      4  C3  UNL d   1       0.537  -2.151  -0.596  0.00  0.00     0.006 A 
ATOM      5  C4  UNL d   1      -0.476  -2.560   0.271  0.00  0.00    -0.005 A 
ATOM      6  C5  UNL d   1      -1.078  -1.641   1.137  0.00  0.00    -0.074 A 
ATOM      7  C6  UNL d   1      -2.161  -2.067   2.082  0.00  0.00     0.077 C 
ATOM      8  C7  UNL d   1      -0.645  -0.308   1.124  0.00  0.00    -0.001 A 
ENDROOT
TORSDOF 0
ENDMDL
