MODEL 1
REMARK minimizedAffinity -4.10473204
REMARK minimizedRMSD -1
REMARK  0 active torsions:
REMARK  status: ('A' for Active; 'I' for Inactive)
ROOT
ATOM      1  C   UNL d   1       1.226   4.210   2.537  0.00  0.00     0.077 C 
ATOM      2  C1  UNL d   1       1.505   3.692   1.157  0.00  0.00    -0.074 A 
ATOM      3  C2  UNL d   1       2.673   4.051   0.477  0.00  0.00    -0.005 A 
ATOM      4  C3  UNL d   1       2.923   3.554  -0.803  0.00  0.00     0.006 A 
ATOM      5  C4  UNL d   1       2.008   2.696  -1.414  0.00  0.00    -0.005 A 
ATOM      6  C5  UNL d   1       0.835   2.326  -0.749  0.00  0.00    -0.074 A 
ATOM      7  C6  UNL d   1      -0.154   1.396  -1.388  0.00  0.00     0.077 C 
ATOM      8  C7  UNL d   1       0.594   2.823   0.539  0.00  0.00    -0.001 A 
ENDROOT
TORSDOF 0
ENDMDL
