MODEL 1
REMARK minimizedAffinity -4.42489815
REMARK minimizedRMSD -1
REMARK  0 active torsions:
REMARK  status: ('A' for Active; 'I' for Inactive)
ROOT
ATOM      1  C   UNL d   1       0.041  -4.302  -0.682  0.00  0.00     0.077 C 
ATOM      2  C1  UNL d   1      -0.377  -3.014  -0.037  0.00  0.00    -0.074 A 
ATOM      3  C2  UNL d   1      -1.486  -2.964   0.814  0.00  0.00    -0.005 A 
ATOM      4  C3  UNL d   1      -1.858  -1.761   1.415  0.00  0.00     0.006 A 
ATOM      5  C4  UNL d   1      -1.126  -0.599   1.171  0.00  0.00    -0.005 A 
ATOM      6  C5  UNL d   1      -0.014  -0.630   0.323  0.00  0.00    -0.074 A 
ATOM      7  C6  UNL d   1       0.789   0.609   0.058  0.00  0.00     0.077 C 
ATOM      8  C7  UNL d   1       0.357  -1.844  -0.271  0.00  0.00    -0.001 A 
ENDROOT
TORSDOF 0
ENDMDL
