MODEL 1
REMARK minimizedAffinity -4.40004158
REMARK minimizedRMSD -1
REMARK  0 active torsions:
REMARK  status: ('A' for Active; 'I' for Inactive)
ROOT
ATOM      1  C   UNL d   1       0.503   1.156  -0.072  0.00  0.00     0.077 C 
ATOM      2  C1  UNL d   1      -0.095  -0.179   0.259  0.00  0.00    -0.074 A 
ATOM      3  C2  UNL d   1      -1.078  -0.301   1.246  0.00  0.00    -0.005 A 
ATOM      4  C3  UNL d   1      -1.632  -1.548   1.537  0.00  0.00     0.006 A 
ATOM      5  C4  UNL d   1      -1.208  -2.683   0.845  0.00  0.00    -0.005 A 
ATOM      6  C5  UNL d   1      -0.226  -2.580  -0.145  0.00  0.00    -0.074 A 
ATOM      7  C6  UNL d   1       0.234  -3.789  -0.905  0.00  0.00     0.077 C 
ATOM      8  C7  UNL d   1       0.320  -1.323  -0.437  0.00  0.00    -0.001 A 
ENDROOT
TORSDOF 0
ENDMDL
