MODEL 1
REMARK minimizedAffinity -3.95672917
REMARK minimizedRMSD -1
REMARK  0 active torsions:
REMARK  status: ('A' for Active; 'I' for Inactive)
ROOT
ATOM      1  C   UNL d   1       0.363  -3.655   0.146  0.00  0.00     0.077 C 
ATOM      2  C1  UNL d   1      -0.290  -2.334   0.430  0.00  0.00    -0.074 A 
ATOM      3  C2  UNL d   1      -1.392  -2.247   1.286  0.00  0.00    -0.005 A 
ATOM      4  C3  UNL d   1      -1.983  -1.010   1.547  0.00  0.00     0.006 A 
ATOM      5  C4  UNL d   1      -1.478   0.148   0.956  0.00  0.00    -0.005 A 
ATOM      6  C5  UNL d   1      -0.376   0.080   0.098  0.00  0.00    -0.074 A 
ATOM      7  C6  UNL d   1       0.185   1.317  -0.538  0.00  0.00     0.077 C 
ATOM      8  C7  UNL d   1       0.216  -1.165  -0.154  0.00  0.00    -0.001 A 
ENDROOT
TORSDOF 0
ENDMDL
