MODEL 1
REMARK minimizedAffinity -5.11266756
REMARK minimizedRMSD -1
REMARK  0 active torsions:
REMARK  status: ('A' for Active; 'I' for Inactive)
ROOT
ATOM      1  C   UNL d   1      -0.160  -3.416   0.722  0.00  0.00     0.077 C 
ATOM      2  C1  UNL d   1       0.028  -2.296  -0.258  0.00  0.00    -0.074 A 
ATOM      3  C2  UNL d   1       0.318  -2.558  -1.601  0.00  0.00    -0.005 A 
ATOM      4  C3  UNL d   1       0.481  -1.506  -2.503  0.00  0.00     0.006 A 
ATOM      5  C4  UNL d   1       0.354  -0.185  -2.072  0.00  0.00    -0.005 A 
ATOM      6  C5  UNL d   1       0.062   0.096  -0.733  0.00  0.00    -0.074 A 
ATOM      7  C6  UNL d   1      -0.087   1.509  -0.255  0.00  0.00     0.077 C 
ATOM      8  C7  UNL d   1      -0.106  -0.967   0.166  0.00  0.00    -0.001 A 
ENDROOT
TORSDOF 0
ENDMDL
