MODEL 1
REMARK minimizedAffinity -4.0401144
REMARK minimizedRMSD -1
REMARK  0 active torsions:
REMARK  status: ('A' for Active; 'I' for Inactive)
ROOT
ATOM      1  C   UNL d   1      -2.261  -1.028   2.889  0.00  0.00     0.077 C 
ATOM      2  C1  UNL d   1      -1.408  -1.235   1.673  0.00  0.00    -0.074 A 
ATOM      3  C2  UNL d   1      -1.273  -2.502   1.096  0.00  0.00    -0.005 A 
ATOM      4  C3  UNL d   1      -0.484  -2.678  -0.040  0.00  0.00     0.006 A 
ATOM      5  C4  UNL d   1       0.179  -1.590  -0.610  0.00  0.00    -0.005 A 
ATOM      6  C5  UNL d   1       0.056  -0.315  -0.047  0.00  0.00    -0.074 A 
ATOM      7  C6  UNL d   1       0.753   0.866  -0.653  0.00  0.00     0.077 C 
ATOM      8  C7  UNL d   1      -0.745  -0.146   1.090  0.00  0.00    -0.001 A 
ENDROOT
TORSDOF 0
ENDMDL
