MODEL 1
REMARK minimizedAffinity -4.3783145
REMARK minimizedRMSD -1
REMARK  0 active torsions:
REMARK  status: ('A' for Active; 'I' for Inactive)
ROOT
ATOM      1  C   UNL d   1       0.353  -3.819   0.441  0.00  0.00     0.077 C 
ATOM      2  C1  UNL d   1      -0.316  -2.494   0.658  0.00  0.00    -0.074 A 
ATOM      3  C2  UNL d   1      -1.383  -2.365   1.552  0.00  0.00    -0.005 A 
ATOM      4  C3  UNL d   1      -1.988  -1.124   1.750  0.00  0.00     0.006 A 
ATOM      5  C4  UNL d   1      -1.533  -0.002   1.057  0.00  0.00    -0.005 A 
ATOM      6  C5  UNL d   1      -0.467  -0.112   0.159  0.00  0.00    -0.074 A 
ATOM      7  C6  UNL d   1       0.041   1.087  -0.587  0.00  0.00     0.077 C 
ATOM      8  C7  UNL d   1       0.141  -1.361  -0.029  0.00  0.00    -0.001 A 
ENDROOT
TORSDOF 0
ENDMDL
