MODEL 1
REMARK minimizedAffinity -4.10047102
REMARK minimizedRMSD -1
REMARK  0 active torsions:
REMARK  status: ('A' for Active; 'I' for Inactive)
ROOT
ATOM      1  C   UNL d   1      -2.719  -3.186   0.440  0.00  0.00     0.077 C 
ATOM      2  C1  UNL d   1      -1.393  -2.488   0.382  0.00  0.00    -0.074 A 
ATOM      3  C2  UNL d   1      -0.199  -3.216   0.349  0.00  0.00    -0.005 A 
ATOM      4  C3  UNL d   1       1.027  -2.554   0.285  0.00  0.00     0.006 A 
ATOM      5  C4  UNL d   1       1.071  -1.159   0.254  0.00  0.00    -0.005 A 
ATOM      6  C5  UNL d   1      -0.112  -0.415   0.285  0.00  0.00    -0.074 A 
ATOM      7  C6  UNL d   1      -0.082   1.084   0.243  0.00  0.00     0.077 C 
ATOM      8  C7  UNL d   1      -1.340  -1.088   0.343  0.00  0.00    -0.001 A 
ENDROOT
TORSDOF 0
ENDMDL
