MODEL 1
REMARK minimizedAffinity -2.47441435
REMARK minimizedRMSD -1
REMARK  0 active torsions:
REMARK  status: ('A' for Active; 'I' for Inactive)
ROOT
ATOM      1  C   UNL d   1      -3.123  -2.673   0.262  0.00  0.00     0.077 C 
ATOM      2  C1  UNL d   1      -1.717  -2.189   0.065  0.00  0.00    -0.074 A 
ATOM      3  C2  UNL d   1      -0.691  -3.077  -0.273  0.00  0.00    -0.005 A 
ATOM      4  C3  UNL d   1       0.609  -2.611  -0.462  0.00  0.00     0.006 A 
ATOM      5  C4  UNL d   1       0.897  -1.253  -0.316  0.00  0.00    -0.005 A 
ATOM      6  C5  UNL d   1      -0.116  -0.350   0.020  0.00  0.00    -0.074 A 
ATOM      7  C6  UNL d   1       0.175   1.114   0.171  0.00  0.00     0.077 C 
ATOM      8  C7  UNL d   1      -1.422  -0.825   0.202  0.00  0.00    -0.001 A 
ENDROOT
TORSDOF 0
ENDMDL
