MODEL 1
REMARK minimizedAffinity -3.86334014
REMARK minimizedRMSD -1
REMARK  0 active torsions:
REMARK  status: ('A' for Active; 'I' for Inactive)
ROOT
ATOM      1  C   UNL d   1      -1.047  -0.668   1.874  0.00  0.00     0.077 C 
ATOM      2  C1  UNL d   1      -0.772  -1.718   0.839  0.00  0.00    -0.074 A 
ATOM      3  C2  UNL d   1      -1.062  -3.064   1.086  0.00  0.00    -0.005 A 
ATOM      4  C3  UNL d   1      -0.809  -4.028   0.111  0.00  0.00     0.006 A 
ATOM      5  C4  UNL d   1      -0.265  -3.657  -1.120  0.00  0.00    -0.005 A 
ATOM      6  C5  UNL d   1       0.031  -2.317  -1.385  0.00  0.00    -0.074 A 
ATOM      7  C6  UNL d   1       0.608  -1.900  -2.705  0.00  0.00     0.077 C 
ATOM      8  C7  UNL d   1      -0.232  -1.353  -0.402  0.00  0.00    -0.001 A 
ENDROOT
TORSDOF 0
ENDMDL
