MODEL 1
REMARK minimizedAffinity 0.643987536
REMARK minimizedRMSD -1
REMARK  0 active torsions:
REMARK  status: ('A' for Active; 'I' for Inactive)
ROOT
ATOM      1  C   UNL d   1      -0.435   1.423   0.598  0.00  0.00     0.124 A 
ATOM      2  C1  UNL d   1      -1.041   0.250   1.027  0.00  0.00     0.062 A 
ATOM      3  C2  UNL d   1      -0.777  -0.952   0.377  0.00  0.00     0.162 A 
ATOM      4  C3  UNL d   1       0.098  -0.988  -0.709  0.00  0.00    -0.034 A 
ATOM      5  C4  UNL d   1       0.702   0.195  -1.135  0.00  0.00     0.162 A 
ATOM      6  C5  UNL d   1       0.436   1.394  -0.482  0.00  0.00     0.062 A 
ATOM      7  F   UNL d   1       1.022   2.527  -0.898  0.00  0.00    -0.097 F 
ATOM      8  F1  UNL d   1       1.548   0.196  -2.176  0.00  0.00    -0.096 F 
ATOM      9  I   UNL d   1       0.494  -2.784  -1.683  0.00  0.00    -0.060 I 
ATOM     10  F2  UNL d   1      -1.377  -2.070   0.814  0.00  0.00    -0.096 F 
ATOM     11  F3  UNL d   1      -1.883   0.275   2.070  0.00  0.00    -0.097 F 
ATOM     12  F4  UNL d   1      -0.691   2.578   1.224  0.00  0.00    -0.092 F 
ENDROOT
TORSDOF 0
ENDMDL
