MODEL 1
REMARK minimizedAffinity 2.45668483
REMARK minimizedRMSD -1
REMARK  0 active torsions:
REMARK  status: ('A' for Active; 'I' for Inactive)
ROOT
ATOM      1  C   UNL d   1      -0.729   0.893   0.500  0.00  0.00     0.124 A 
ATOM      2  C1  UNL d   1      -0.273   0.940  -0.810  0.00  0.00     0.062 A 
ATOM      3  C2  UNL d   1       0.252  -0.201  -1.410  0.00  0.00     0.162 A 
ATOM      4  C3  UNL d   1       0.322  -1.400  -0.701  0.00  0.00    -0.034 A 
ATOM      5  C4  UNL d   1      -0.138  -1.440   0.616  0.00  0.00     0.162 A 
ATOM      6  C5  UNL d   1      -0.662  -0.297   1.212  0.00  0.00     0.062 A 
ATOM      7  F   UNL d   1      -1.102  -0.344   2.477  0.00  0.00    -0.097 F 
ATOM      8  F1  UNL d   1      -0.086  -2.576   1.327  0.00  0.00    -0.096 F 
ATOM      9  I   UNL d   1       1.105  -3.109  -1.595  0.00  0.00    -0.060 I 
ATOM     10  F2  UNL d   1       0.685  -0.126  -2.678  0.00  0.00    -0.096 F 
ATOM     11  F3  UNL d   1      -0.336   2.088  -1.500  0.00  0.00    -0.097 F 
ATOM     12  F4  UNL d   1      -1.232   1.992   1.075  0.00  0.00    -0.092 F 
ENDROOT
TORSDOF 0
ENDMDL
