MODEL 1
REMARK minimizedAffinity -5.31736803
REMARK minimizedRMSD -1
REMARK  0 active torsions:
REMARK  status: ('A' for Active; 'I' for Inactive)
ROOT
ATOM      1  C   UNL d   1      -0.234   1.109   0.797  0.00  0.00     0.124 A 
ATOM      2  C1  UNL d   1       0.506   0.913  -0.361  0.00  0.00     0.062 A 
ATOM      3  C2  UNL d   1       0.380  -0.272  -1.080  0.00  0.00     0.162 A 
ATOM      4  C3  UNL d   1      -0.491  -1.270  -0.644  0.00  0.00    -0.034 A 
ATOM      5  C4  UNL d   1      -1.231  -1.066   0.522  0.00  0.00     0.162 A 
ATOM      6  C5  UNL d   1      -1.101   0.120   1.237  0.00  0.00     0.062 A 
ATOM      7  F   UNL d   1      -1.817   0.308   2.356  0.00  0.00    -0.097 F 
ATOM      8  F1  UNL d   1      -2.078  -2.005   0.970  0.00  0.00    -0.096 F 
ATOM      9  I   UNL d   1      -0.683  -3.043  -1.717  0.00  0.00    -0.060 I 
ATOM     10  F2  UNL d   1       1.107  -0.434  -2.195  0.00  0.00    -0.096 F 
ATOM     11  F3  UNL d   1       1.346   1.867  -0.788  0.00  0.00    -0.097 F 
ATOM     12  F4  UNL d   1      -0.109   2.250   1.488  0.00  0.00    -0.092 F 
ENDROOT
TORSDOF 0
ENDMDL
