MODEL 1
REMARK minimizedAffinity -2.95600057
REMARK minimizedRMSD -1
REMARK  0 active torsions:
REMARK  status: ('A' for Active; 'I' for Inactive)
ROOT
ATOM      1  C   UNL d   1      -0.820   1.508   0.931  0.00  0.00     0.124 A 
ATOM      2  C1  UNL d   1      -1.313   0.367   1.548  0.00  0.00     0.062 A 
ATOM      3  C2  UNL d   1      -1.046  -0.889   1.013  0.00  0.00     0.162 A 
ATOM      4  C3  UNL d   1      -0.279  -1.012  -0.146  0.00  0.00    -0.034 A 
ATOM      5  C4  UNL d   1       0.213   0.141  -0.762  0.00  0.00     0.162 A 
ATOM      6  C5  UNL d   1      -0.058   1.394  -0.223  0.00  0.00     0.062 A 
ATOM      7  F   UNL d   1       0.419   2.496  -0.820  0.00  0.00    -0.097 F 
ATOM      8  F1  UNL d   1       0.953   0.060  -1.877  0.00  0.00    -0.096 F 
ATOM      9  I   UNL d   1       0.123  -2.889  -0.950  0.00  0.00    -0.060 I 
ATOM     10  F2  UNL d   1      -1.535  -1.975   1.630  0.00  0.00    -0.096 F 
ATOM     11  F3  UNL d   1      -2.051   0.475   2.663  0.00  0.00    -0.097 F 
ATOM     12  F4  UNL d   1      -1.080   2.716   1.448  0.00  0.00    -0.092 F 
ENDROOT
TORSDOF 0
ENDMDL
