MODEL 1
REMARK minimizedAffinity -2.12446165
REMARK minimizedRMSD -1
REMARK  0 active torsions:
REMARK  status: ('A' for Active; 'I' for Inactive)
ROOT
ATOM      1  C   UNL d   1       0.788  -1.228  -1.315  0.00  0.00     0.124 A 
ATOM      2  C1  UNL d   1      -0.317  -1.723  -0.637  0.00  0.00     0.062 A 
ATOM      3  C2  UNL d   1      -1.100  -0.874   0.140  0.00  0.00     0.162 A 
ATOM      4  C3  UNL d   1      -0.781   0.480   0.243  0.00  0.00    -0.034 A 
ATOM      5  C4  UNL d   1       0.332   0.971  -0.441  0.00  0.00     0.162 A 
ATOM      6  C5  UNL d   1       1.112   0.118  -1.216  0.00  0.00     0.062 A 
ATOM      7  F   UNL d   1       2.179   0.599  -1.870  0.00  0.00    -0.097 F 
ATOM      8  F1  UNL d   1       0.668   2.267  -0.364  0.00  0.00    -0.096 F 
ATOM      9  I   UNL d   1      -1.949   1.752   1.404  0.00  0.00    -0.060 I 
ATOM     10  F2  UNL d   1      -2.162  -1.380   0.784  0.00  0.00    -0.096 F 
ATOM     11  F3  UNL d   1      -0.631  -3.023  -0.729  0.00  0.00    -0.097 F 
ATOM     12  F4  UNL d   1       1.540  -2.047  -2.061  0.00  0.00    -0.092 F 
ENDROOT
TORSDOF 0
ENDMDL
