MODEL 1
REMARK minimizedAffinity -1.35998929
REMARK minimizedRMSD -1
REMARK  0 active torsions:
REMARK  status: ('A' for Active; 'I' for Inactive)
ROOT
ATOM      1  C   UNL d   1      -1.573   1.679   1.070  0.00  0.00     0.124 A 
ATOM      2  C1  UNL d   1      -1.332   0.590   1.896  0.00  0.00     0.062 A 
ATOM      3  C2  UNL d   1      -0.594  -0.493   1.429  0.00  0.00     0.162 A 
ATOM      4  C3  UNL d   1      -0.090  -0.494   0.129  0.00  0.00    -0.034 A 
ATOM      5  C4  UNL d   1      -0.337   0.604  -0.697  0.00  0.00     0.162 A 
ATOM      6  C5  UNL d   1      -1.076   1.685  -0.226  0.00  0.00     0.062 A 
ATOM      7  F   UNL d   1      -1.308   2.735  -1.026  0.00  0.00    -0.097 F 
ATOM      8  F1  UNL d   1       0.132   0.636  -1.953  0.00  0.00    -0.096 F 
ATOM      9  I   UNL d   1       1.014  -2.112  -0.573  0.00  0.00    -0.060 I 
ATOM     10  F2  UNL d   1      -0.376  -1.532   2.250  0.00  0.00    -0.096 F 
ATOM     11  F3  UNL d   1      -1.812   0.582   3.148  0.00  0.00    -0.097 F 
ATOM     12  F4  UNL d   1      -2.284   2.720   1.521  0.00  0.00    -0.092 F 
ENDROOT
TORSDOF 0
ENDMDL
