MODEL 1
REMARK minimizedAffinity -2.26366019
REMARK minimizedRMSD -1
REMARK  0 active torsions:
REMARK  status: ('A' for Active; 'I' for Inactive)
ROOT
ATOM      1  C   UNL d   1      -1.464   0.564   2.190  0.00  0.00     0.124 A 
ATOM      2  C1  UNL d   1      -0.693  -0.556   1.913  0.00  0.00     0.062 A 
ATOM      3  C2  UNL d   1      -0.093  -0.703   0.666  0.00  0.00     0.162 A 
ATOM      4  C3  UNL d   1      -0.260   0.275  -0.315  0.00  0.00    -0.034 A 
ATOM      5  C4  UNL d   1      -1.038   1.399  -0.029  0.00  0.00     0.162 A 
ATOM      6  C5  UNL d   1      -1.635   1.541   1.219  0.00  0.00     0.062 A 
ATOM      7  F   UNL d   1      -2.380   2.624   1.484  0.00  0.00    -0.097 F 
ATOM      8  F1  UNL d   1      -1.220   2.358  -0.949  0.00  0.00    -0.096 F 
ATOM      9  I   UNL d   1       0.635   0.060  -2.181  0.00  0.00    -0.060 I 
ATOM     10  F2  UNL d   1       0.646  -1.796   0.426  0.00  0.00    -0.096 F 
ATOM     11  F3  UNL d   1      -0.526  -1.501   2.850  0.00  0.00    -0.097 F 
ATOM     12  F4  UNL d   1      -2.041   0.702   3.391  0.00  0.00    -0.092 F 
ENDROOT
TORSDOF 0
ENDMDL
