MODEL 1
REMARK minimizedAffinity -3.23216414
REMARK minimizedRMSD -1
REMARK  0 active torsions:
REMARK  status: ('A' for Active; 'I' for Inactive)
ROOT
ATOM      1  C   UNL d   1      -1.301   1.932   1.034  0.00  0.00     0.124 A 
ATOM      2  C1  UNL d   1      -0.885   2.072  -0.283  0.00  0.00     0.062 A 
ATOM      3  C2  UNL d   1      -0.333   0.990  -0.962  0.00  0.00     0.162 A 
ATOM      4  C3  UNL d   1      -0.193  -0.243  -0.325  0.00  0.00    -0.034 A 
ATOM      5  C4  UNL d   1      -0.613  -0.376   1.000  0.00  0.00     0.162 A 
ATOM      6  C5  UNL d   1      -1.165   0.708   1.674  0.00  0.00     0.062 A 
ATOM      7  F   UNL d   1      -1.566   0.571   2.946  0.00  0.00    -0.097 F 
ATOM      8  F1  UNL d   1      -0.494  -1.548   1.642  0.00  0.00    -0.096 F 
ATOM      9  I   UNL d   1       0.633  -1.864  -1.336  0.00  0.00    -0.060 I 
ATOM     10  F2  UNL d   1       0.061   1.154  -2.233  0.00  0.00    -0.096 F 
ATOM     11  F3  UNL d   1      -1.015   3.254  -0.903  0.00  0.00    -0.097 F 
ATOM     12  F4  UNL d   1      -1.832   2.975   1.685  0.00  0.00    -0.092 F 
ENDROOT
TORSDOF 0
ENDMDL
