MODEL 1
REMARK minimizedAffinity -0.0529082566
REMARK minimizedRMSD -1
REMARK  0 active torsions:
REMARK  status: ('A' for Active; 'I' for Inactive)
ROOT
ATOM      1  C   UNL d   1      -1.050   2.714  -0.623  0.00  0.00     0.124 A 
ATOM      2  C1  UNL d   1      -0.010   1.917  -1.081  0.00  0.00     0.062 A 
ATOM      3  C2  UNL d   1       0.422   0.829  -0.327  0.00  0.00     0.162 A 
ATOM      4  C3  UNL d   1      -0.186   0.532   0.892  0.00  0.00    -0.034 A 
ATOM      5  C4  UNL d   1      -1.231   1.340   1.347  0.00  0.00     0.162 A 
ATOM      6  C5  UNL d   1      -1.659   2.425   0.590  0.00  0.00     0.062 A 
ATOM      7  F   UNL d   1      -2.663   3.195   1.033  0.00  0.00    -0.097 F 
ATOM      8  F1  UNL d   1      -1.838   1.083   2.515  0.00  0.00    -0.096 F 
ATOM      9  I   UNL d   1       0.457  -1.093   2.023  0.00  0.00    -0.060 I 
ATOM     10  F2  UNL d   1       1.428   0.075  -0.794  0.00  0.00    -0.096 F 
ATOM     11  F3  UNL d   1       0.581   2.194  -2.252  0.00  0.00    -0.097 F 
ATOM     12  F4  UNL d   1      -1.463   3.761  -1.350  0.00  0.00    -0.092 F 
ENDROOT
TORSDOF 0
ENDMDL
