MODEL 1
REMARK minimizedAffinity -2.96840215
REMARK minimizedRMSD -1
REMARK  0 active torsions:
REMARK  status: ('A' for Active; 'I' for Inactive)
ROOT
ATOM      1  C   UNL d   1      -0.889   1.720   0.794  0.00  0.00     0.124 A 
ATOM      2  C1  UNL d   1      -1.052   0.516   1.464  0.00  0.00     0.062 A 
ATOM      3  C2  UNL d   1      -0.537  -0.660   0.925  0.00  0.00     0.162 A 
ATOM      4  C3  UNL d   1       0.147  -0.637  -0.291  0.00  0.00    -0.034 A 
ATOM      5  C4  UNL d   1       0.306   0.579  -0.959  0.00  0.00     0.162 A 
ATOM      6  C5  UNL d   1      -0.211   1.751  -0.416  0.00  0.00     0.062 A 
ATOM      7  F   UNL d   1      -0.053   2.914  -1.065  0.00  0.00    -0.097 F 
ATOM      8  F1  UNL d   1       0.958   0.637  -2.129  0.00  0.00    -0.096 F 
ATOM      9  I   UNL d   1       0.919  -2.392  -1.099  0.00  0.00    -0.060 I 
ATOM     10  F2  UNL d   1      -0.709  -1.810   1.594  0.00  0.00    -0.096 F 
ATOM     11  F3  UNL d   1      -1.708   0.483   2.632  0.00  0.00    -0.097 F 
ATOM     12  F4  UNL d   1      -1.387   2.850   1.314  0.00  0.00    -0.092 F 
ENDROOT
TORSDOF 0
ENDMDL
