MODEL 1
REMARK minimizedAffinity -2.29216599
REMARK minimizedRMSD -1
REMARK  0 active torsions:
REMARK  status: ('A' for Active; 'I' for Inactive)
ROOT
ATOM      1  C   UNL d   1      -0.897   1.617   0.720  0.00  0.00     0.124 A 
ATOM      2  C1  UNL d   1      -0.364   1.499  -0.556  0.00  0.00     0.062 A 
ATOM      3  C2  UNL d   1       0.185   0.290  -0.976  0.00  0.00     0.162 A 
ATOM      4  C3  UNL d   1       0.202  -0.810  -0.119  0.00  0.00    -0.034 A 
ATOM      5  C4  UNL d   1      -0.336  -0.683   1.163  0.00  0.00     0.162 A 
ATOM      6  C5  UNL d   1      -0.883   0.526   1.578  0.00  0.00     0.062 A 
ATOM      7  F   UNL d   1      -1.398   0.639   2.811  0.00  0.00    -0.097 F 
ATOM      8  F1  UNL d   1      -0.335  -1.722   2.012  0.00  0.00    -0.096 F 
ATOM      9  I   UNL d   1       1.021  -2.619  -0.744  0.00  0.00    -0.060 I 
ATOM     10  F2  UNL d   1       0.693   0.205  -2.214  0.00  0.00    -0.096 F 
ATOM     11  F3  UNL d   1      -0.376   2.551  -1.386  0.00  0.00    -0.097 F 
ATOM     12  F4  UNL d   1      -1.424   2.781   1.122  0.00  0.00    -0.092 F 
ENDROOT
TORSDOF 0
ENDMDL
