MODEL 1
REMARK minimizedAffinity 1.10286951
REMARK minimizedRMSD -1
REMARK  0 active torsions:
REMARK  status: ('A' for Active; 'I' for Inactive)
ROOT
ATOM      1  C   UNL d   1      -1.138   0.190   1.759  0.00  0.00     0.124 A 
ATOM      2  C1  UNL d   1       0.098  -0.379   1.485  0.00  0.00     0.062 A 
ATOM      3  C2  UNL d   1       0.795  -0.019   0.336  0.00  0.00     0.162 A 
ATOM      4  C3  UNL d   1       0.259   0.918  -0.549  0.00  0.00    -0.034 A 
ATOM      5  C4  UNL d   1      -0.985   1.485  -0.267  0.00  0.00     0.162 A 
ATOM      6  C5  UNL d   1      -1.678   1.121   0.883  0.00  0.00     0.062 A 
ATOM      7  F   UNL d   1      -2.872   1.672   1.146  0.00  0.00    -0.097 F 
ATOM      8  F1  UNL d   1      -1.530   2.388  -1.095  0.00  0.00    -0.096 F 
ATOM      9  I   UNL d   1       1.299   1.459  -2.268  0.00  0.00    -0.060 I 
ATOM     10  F2  UNL d   1       1.987  -0.585   0.096  0.00  0.00    -0.096 F 
ATOM     11  F3  UNL d   1       0.621  -1.280   2.329  0.00  0.00    -0.097 F 
ATOM     12  F4  UNL d   1      -1.807  -0.159   2.865  0.00  0.00    -0.092 F 
ENDROOT
TORSDOF 0
ENDMDL
