MODEL 1
REMARK minimizedAffinity -0.359617382
REMARK minimizedRMSD -1
REMARK  0 active torsions:
REMARK  status: ('A' for Active; 'I' for Inactive)
ROOT
ATOM      1  C   UNL d   1      -1.707   0.630   1.413  0.00  0.00     0.124 A 
ATOM      2  C1  UNL d   1      -1.621   1.615   0.439  0.00  0.00     0.062 A 
ATOM      3  C2  UNL d   1      -0.563   1.616  -0.465  0.00  0.00     0.162 A 
ATOM      4  C3  UNL d   1       0.419   0.627  -0.400  0.00  0.00    -0.034 A 
ATOM      5  C4  UNL d   1       0.326  -0.360   0.582  0.00  0.00     0.162 A 
ATOM      6  C5  UNL d   1      -0.733  -0.357   1.483  0.00  0.00     0.062 A 
ATOM      7  F   UNL d   1      -0.814  -1.310   2.424  0.00  0.00    -0.097 F 
ATOM      8  F1  UNL d   1       1.253  -1.326   0.673  0.00  0.00    -0.096 F 
ATOM      9  I   UNL d   1       2.003   0.624  -1.750  0.00  0.00    -0.060 I 
ATOM     10  F2  UNL d   1      -0.505   2.581  -1.395  0.00  0.00    -0.096 F 
ATOM     11  F3  UNL d   1      -2.560   2.570   0.369  0.00  0.00    -0.097 F 
ATOM     12  F4  UNL d   1      -2.726   0.632   2.282  0.00  0.00    -0.092 F 
ENDROOT
TORSDOF 0
ENDMDL
