MODEL 1
REMARK minimizedAffinity -2.67731881
REMARK minimizedRMSD -1
REMARK  0 active torsions:
REMARK  status: ('A' for Active; 'I' for Inactive)
ROOT
ATOM      1  C   UNL d   1       1.366  -0.063  -0.938  0.00  0.00     0.124 A 
ATOM      2  C1  UNL d   1       0.688  -0.767   0.048  0.00  0.00     0.062 A 
ATOM      3  C2  UNL d   1      -0.481  -0.250   0.598  0.00  0.00     0.162 A 
ATOM      4  C3  UNL d   1      -0.980   0.978   0.163  0.00  0.00    -0.034 A 
ATOM      5  C4  UNL d   1      -0.292   1.681  -0.827  0.00  0.00     0.162 A 
ATOM      6  C5  UNL d   1       0.876   1.159  -1.374  0.00  0.00     0.062 A 
ATOM      7  F   UNL d   1       1.531   1.841  -2.326  0.00  0.00    -0.097 F 
ATOM      8  F1  UNL d   1      -0.743   2.864  -1.268  0.00  0.00    -0.096 F 
ATOM      9  I   UNL d   1      -2.728   1.756   0.984  0.00  0.00    -0.060 I 
ATOM     10  F2  UNL d   1      -1.117  -0.951   1.548  0.00  0.00    -0.096 F 
ATOM     11  F3  UNL d   1       1.159  -1.948   0.471  0.00  0.00    -0.097 F 
ATOM     12  F4  UNL d   1       2.491  -0.563  -1.465  0.00  0.00    -0.092 F 
ENDROOT
TORSDOF 0
ENDMDL
