MODEL 1
REMARK minimizedAffinity 1.74349058
REMARK minimizedRMSD -1
REMARK  0 active torsions:
REMARK  status: ('A' for Active; 'I' for Inactive)
ROOT
ATOM      1  C   UNL d   1      -1.119   1.593   0.164  0.00  0.00     0.124 A 
ATOM      2  C1  UNL d   1      -1.901   0.449   0.244  0.00  0.00     0.062 A 
ATOM      3  C2  UNL d   1      -1.411  -0.768  -0.223  0.00  0.00     0.162 A 
ATOM      4  C3  UNL d   1      -0.132  -0.847  -0.773  0.00  0.00    -0.034 A 
ATOM      5  C4  UNL d   1       0.648   0.308  -0.850  0.00  0.00     0.162 A 
ATOM      6  C5  UNL d   1       0.154   1.522  -0.383  0.00  0.00     0.062 A 
ATOM      7  F   UNL d   1       0.911   2.626  -0.461  0.00  0.00    -0.097 F 
ATOM      8  F1  UNL d   1       1.883   0.268  -1.373  0.00  0.00    -0.096 F 
ATOM      9  I   UNL d   1       0.604  -2.664  -1.471  0.00  0.00    -0.060 I 
ATOM     10  F2  UNL d   1      -2.189  -1.857  -0.133  0.00  0.00    -0.096 F 
ATOM     11  F3  UNL d   1      -3.132   0.515   0.770  0.00  0.00    -0.097 F 
ATOM     12  F4  UNL d   1      -1.594   2.762   0.612  0.00  0.00    -0.092 F 
ENDROOT
TORSDOF 0
ENDMDL
