MODEL 1
REMARK minimizedAffinity -3.35906553
REMARK minimizedRMSD -1
REMARK  0 active torsions:
REMARK  status: ('A' for Active; 'I' for Inactive)
ROOT
ATOM      1  C   UNL d   1      -1.163   1.165   1.935  0.00  0.00     0.023 A 
ATOM      2  C1  UNL d   1      -2.007   0.575   0.994  0.00  0.00     0.003 A 
ATOM      3  C2  UNL d   1      -1.477   0.039  -0.182  0.00  0.00     0.048 A 
ATOM      4  C3  UNL d   1      -0.103   0.095  -0.409  0.00  0.00     0.023 A 
ATOM      5  C4  UNL d   1       0.746   0.683   0.530  0.00  0.00     0.048 A 
ATOM      6  C5  UNL d   1       0.212   1.218   1.703  0.00  0.00     0.003 A 
ATOM      7  I   UNL d   1       0.688  -0.703  -2.158  0.00  0.00    -0.146 I 
ENDROOT
TORSDOF 0
ENDMDL
