MODEL 1
REMARK minimizedAffinity -1.01819265
REMARK minimizedRMSD -1
REMARK  0 active torsions:
REMARK  status: ('A' for Active; 'I' for Inactive)
ROOT
ATOM      1  C   UNL d   1       1.609   1.270  -4.862  0.00  0.00     0.023 A 
ATOM      2  C1  UNL d   1       0.390   0.633  -4.628  0.00  0.00     0.003 A 
ATOM      3  C2  UNL d   1      -0.020   0.366  -3.321  0.00  0.00     0.048 A 
ATOM      4  C3  UNL d   1       0.793   0.740  -2.251  0.00  0.00     0.023 A 
ATOM      5  C4  UNL d   1       2.013   1.378  -2.480  0.00  0.00     0.048 A 
ATOM      6  C5  UNL d   1       2.420   1.642  -3.789  0.00  0.00     0.003 A 
ATOM      7  I   UNL d   1       0.184   0.345  -0.304  0.00  0.00    -0.146 I 
ENDROOT
TORSDOF 0
ENDMDL
