MODEL 1
REMARK minimizedAffinity 1.18231499
REMARK minimizedRMSD -1
REMARK  0 active torsions:
REMARK  status: ('A' for Active; 'I' for Inactive)
ROOT
ATOM      1  C   UNL d   1       2.095   1.117   2.196  0.00  0.00     0.023 A 
ATOM      2  C1  UNL d   1       1.019   1.871   1.729  0.00  0.00     0.003 A 
ATOM      3  C2  UNL d   1       0.236   1.395   0.675  0.00  0.00     0.048 A 
ATOM      4  C3  UNL d   1       0.534   0.163   0.095  0.00  0.00     0.023 A 
ATOM      5  C4  UNL d   1       1.609  -0.596   0.560  0.00  0.00     0.048 A 
ATOM      6  C5  UNL d   1       2.389  -0.116   1.613  0.00  0.00     0.003 A 
ATOM      7  I   UNL d   1      -0.630  -0.548  -1.474  0.00  0.00    -0.146 I 
ENDROOT
TORSDOF 0
ENDMDL
