MODEL 1
REMARK minimizedAffinity -4.87251759
REMARK minimizedRMSD -1
REMARK  0 active torsions:
REMARK  status: ('A' for Active; 'I' for Inactive)
ROOT
ATOM      1  C   UNL d   1      -0.880   0.682   2.917  0.00  0.00     0.023 A 
ATOM      2  C1  UNL d   1      -1.762   0.953   1.871  0.00  0.00     0.003 A 
ATOM      3  C2  UNL d   1      -1.387   0.684   0.553  0.00  0.00     0.048 A 
ATOM      4  C3  UNL d   1      -0.130   0.141   0.288  0.00  0.00     0.023 A 
ATOM      5  C4  UNL d   1       0.755  -0.133   1.332  0.00  0.00     0.048 A 
ATOM      6  C5  UNL d   1       0.377   0.140   2.648  0.00  0.00     0.003 A 
ATOM      7  I   UNL d   1       0.429  -0.261  -1.672  0.00  0.00    -0.146 I 
ENDROOT
TORSDOF 0
ENDMDL
