MODEL 1
REMARK minimizedAffinity -0.5978176
REMARK minimizedRMSD -1
REMARK  0 active torsions:
REMARK  status: ('A' for Active; 'I' for Inactive)
ROOT
ATOM      1  C   UNL d   1      -0.351  -0.883  -1.454  0.00  0.00     0.023 A 
ATOM      2  C1  UNL d   1      -1.614  -0.498  -1.004  0.00  0.00     0.003 A 
ATOM      3  C2  UNL d   1      -1.758   0.098   0.251  0.00  0.00     0.048 A 
ATOM      4  C3  UNL d   1      -0.634   0.307   1.050  0.00  0.00     0.023 A 
ATOM      5  C4  UNL d   1       0.631  -0.076   0.603  0.00  0.00     0.048 A 
ATOM      6  C5  UNL d   1       0.770  -0.672  -0.652  0.00  0.00     0.003 A 
ATOM      7  I   UNL d   1      -0.846   1.194   2.917  0.00  0.00    -0.146 I 
ENDROOT
TORSDOF 0
ENDMDL
