MODEL 1
REMARK minimizedAffinity -2.20911407
REMARK minimizedRMSD -1
REMARK  0 active torsions:
REMARK  status: ('A' for Active; 'I' for Inactive)
ROOT
ATOM      1  C   UNL d   1      -1.523   0.029  -0.135  0.00  0.00     0.023 A 
ATOM      2  C1  UNL d   1      -1.318   0.666   1.088  0.00  0.00     0.003 A 
ATOM      3  C2  UNL d   1      -0.059   0.632   1.693  0.00  0.00     0.048 A 
ATOM      4  C3  UNL d   1       0.990  -0.040   1.067  0.00  0.00     0.023 A 
ATOM      5  C4  UNL d   1       0.790  -0.678  -0.158  0.00  0.00     0.048 A 
ATOM      6  C5  UNL d   1      -0.470  -0.643  -0.758  0.00  0.00     0.003 A 
ATOM      7  I   UNL d   1       2.864  -0.091   1.965  0.00  0.00    -0.146 I 
ENDROOT
TORSDOF 0
ENDMDL
