MODEL 1
REMARK minimizedAffinity -1.96684253
REMARK minimizedRMSD -1
REMARK  0 active torsions:
REMARK  status: ('A' for Active; 'I' for Inactive)
ROOT
ATOM      1  C   UNL d   1      -1.615   0.976   2.015  0.00  0.00     0.023 A 
ATOM      2  C1  UNL d   1      -0.222   0.908   2.063  0.00  0.00     0.003 A 
ATOM      3  C2  UNL d   1       0.497   0.485   0.943  0.00  0.00     0.048 A 
ATOM      4  C3  UNL d   1      -0.183   0.132  -0.222  0.00  0.00     0.023 A 
ATOM      5  C4  UNL d   1      -1.576   0.199  -0.275  0.00  0.00     0.048 A 
ATOM      6  C5  UNL d   1      -2.291   0.621   0.847  0.00  0.00     0.003 A 
ATOM      7  I   UNL d   1       0.885  -0.498  -1.890  0.00  0.00    -0.146 I 
ENDROOT
TORSDOF 0
ENDMDL
