MODEL 1
REMARK minimizedAffinity -3.55592227
REMARK minimizedRMSD -1
REMARK  0 active torsions:
REMARK  status: ('A' for Active; 'I' for Inactive)
ROOT
ATOM      1  C   UNL d   1      -2.384  -0.296   0.418  0.00  0.00     0.023 A 
ATOM      2  C1  UNL d   1      -1.636  -1.020  -0.510  0.00  0.00     0.003 A 
ATOM      3  C2  UNL d   1      -0.284  -1.276  -0.271  0.00  0.00     0.048 A 
ATOM      4  C3  UNL d   1       0.313  -0.806   0.899  0.00  0.00     0.023 A 
ATOM      5  C4  UNL d   1      -0.433  -0.081   1.830  0.00  0.00     0.048 A 
ATOM      6  C5  UNL d   1      -1.784   0.173   1.587  0.00  0.00     0.003 A 
ATOM      7  I   UNL d   1       2.325  -1.185   1.256  0.00  0.00    -0.146 I 
ENDROOT
TORSDOF 0
ENDMDL
