MODEL 1
REMARK minimizedAffinity -5.09234905
REMARK minimizedRMSD -1
REMARK  0 active torsions:
REMARK  status: ('A' for Active; 'I' for Inactive)
ROOT
ATOM      1  C   UNL d   1       0.260   1.394   3.395  0.00  0.00     0.023 A 
ATOM      2  C1  UNL d   1       1.218   0.455   3.012  0.00  0.00     0.003 A 
ATOM      3  C2  UNL d   1       1.126  -0.169   1.766  0.00  0.00     0.048 A 
ATOM      4  C3  UNL d   1       0.075   0.152   0.907  0.00  0.00     0.023 A 
ATOM      5  C4  UNL d   1      -0.884   1.092   1.286  0.00  0.00     0.048 A 
ATOM      6  C5  UNL d   1      -0.789   1.713   2.533  0.00  0.00     0.003 A 
ATOM      7  I   UNL d   1      -0.063  -0.775  -0.948  0.00  0.00    -0.146 I 
ENDROOT
TORSDOF 0
ENDMDL
