MODEL 1
REMARK minimizedAffinity -2.46517801
REMARK minimizedRMSD -1
REMARK  0 active torsions:
REMARK  status: ('A' for Active; 'I' for Inactive)
ROOT
ATOM      1  C   UNL d   1       0.760  -1.120  -0.760  0.00  0.00     0.023 A 
ATOM      2  C1  UNL d   1       1.629  -1.002   0.324  0.00  0.00     0.003 A 
ATOM      3  C2  UNL d   1       1.224  -0.322   1.474  0.00  0.00     0.048 A 
ATOM      4  C3  UNL d   1      -0.052   0.237   1.534  0.00  0.00     0.023 A 
ATOM      5  C4  UNL d   1      -0.926   0.120   0.451  0.00  0.00     0.048 A 
ATOM      6  C5  UNL d   1      -0.516  -0.560  -0.697  0.00  0.00     0.003 A 
ATOM      7  I   UNL d   1      -0.658   1.249   3.245  0.00  0.00    -0.146 I 
ENDROOT
TORSDOF 0
ENDMDL
