MODEL 1
REMARK minimizedAffinity 8.58403683
REMARK minimizedRMSD -1
REMARK  1 active torsions:
REMARK  status: ('A' for Active; 'I' for Inactive)
REMARK    1  A    between atoms: C1_2  and  C2_3 
ROOT
ATOM      1  C2  UNL d   1       0.335  -0.027   1.121  0.00  0.00    -0.081 A 
ATOM      2  C3  UNL d   1       0.917  -1.276   1.369  0.00  0.00     0.006 A 
ATOM      3  C4  UNL d   1       0.152  -2.442   1.290  0.00  0.00     0.002 A 
ATOM      4  C5  UNL d   1      -1.204  -2.379   0.953  0.00  0.00    -0.080 A 
ATOM      5  C6  UNL d   1      -2.029  -3.626   0.835  0.00  0.00     0.076 C 
ATOM      6  C7  UNL d   1      -1.790  -1.130   0.722  0.00  0.00     0.002 A 
ATOM      7  C8  UNL d   1      -1.026   0.036   0.802  0.00  0.00     0.006 A 
ENDROOT
BRANCH   1   8
ATOM      8  C1  UNL d   1       1.172   1.227   1.142  0.00  0.00     0.054 C 
ATOM      9  C   UNL d   1       2.618   0.933   0.770  0.00  0.00     0.018 C 
ENDBRANCH   1   8
TORSDOF 1
ENDMDL
