MODEL 1
REMARK minimizedAffinity -0.887244165
REMARK minimizedRMSD -1
REMARK  1 active torsions:
REMARK  status: ('A' for Active; 'I' for Inactive)
REMARK    1  A    between atoms: C1_2  and  C2_3 
ROOT
ATOM      1  C2  UNL d   1       2.566  -0.945   1.188  0.00  0.00    -0.081 A 
ATOM      2  C3  UNL d   1       1.273  -1.407   0.917  0.00  0.00     0.006 A 
ATOM      3  C4  UNL d   1       0.726  -2.458   1.658  0.00  0.00     0.002 A 
ATOM      4  C5  UNL d   1       1.460  -3.058   2.687  0.00  0.00    -0.080 A 
ATOM      5  C6  UNL d   1       0.874  -4.166   3.510  0.00  0.00     0.076 C 
ATOM      6  C7  UNL d   1       2.759  -2.607   2.947  0.00  0.00     0.002 A 
ATOM      7  C8  UNL d   1       3.306  -1.557   2.206  0.00  0.00     0.006 A 
ENDROOT
BRANCH   1   8
ATOM      8  C1  UNL d   1       3.134   0.231   0.434  0.00  0.00     0.054 C 
ATOM      9  C   UNL d   1       2.497   1.537   0.886  0.00  0.00     0.018 C 
ENDBRANCH   1   8
TORSDOF 1
ENDMDL
