MODEL 1
REMARK minimizedAffinity 1.6971885
REMARK minimizedRMSD -1
REMARK  1 active torsions:
REMARK  status: ('A' for Active; 'I' for Inactive)
REMARK    1  A    between atoms: C1_2  and  C2_3 
ROOT
ATOM      1  C2  UNL d   1       1.354  -1.296   1.342  0.00  0.00    -0.081 A 
ATOM      2  C3  UNL d   1       0.312  -0.364   1.263  0.00  0.00     0.006 A 
ATOM      3  C4  UNL d   1       0.553   0.930   0.795  0.00  0.00     0.002 A 
ATOM      4  C5  UNL d   1       1.837   1.311   0.391  0.00  0.00    -0.080 A 
ATOM      5  C6  UNL d   1       2.104   2.687  -0.142  0.00  0.00     0.076 C 
ATOM      6  C7  UNL d   1       2.882   0.385   0.487  0.00  0.00     0.002 A 
ATOM      7  C8  UNL d   1       2.642  -0.909   0.955  0.00  0.00     0.006 A 
ENDROOT
BRANCH   1   8
ATOM      8  C1  UNL d   1       1.085  -2.711   1.786  0.00  0.00     0.054 C 
ATOM      9  C   UNL d   1       1.556  -2.943   3.214  0.00  0.00     0.018 C 
ENDBRANCH   1   8
TORSDOF 1
ENDMDL
