MODEL 1
REMARK minimizedAffinity 15.1475506
REMARK minimizedRMSD -1
REMARK  0 active torsions:
REMARK  status: ('A' for Active; 'I' for Inactive)
ROOT
ATOM      1  C   UNL d   1      -5.889   0.381   5.392  0.00  0.00     0.023 A 
ATOM      2  C1  UNL d   1      -5.902   1.004   4.144  0.00  0.00     0.003 A 
ATOM      3  C2  UNL d   1      -5.933   0.236   2.978  0.00  0.00     0.048 A 
ATOM      4  C3  UNL d   1      -5.953  -1.156   3.068  0.00  0.00     0.023 A 
ATOM      5  C4  UNL d   1      -5.941  -1.784   4.314  0.00  0.00     0.048 A 
ATOM      6  C5  UNL d   1      -5.908  -1.011   5.477  0.00  0.00     0.003 A 
ATOM      7  I   UNL d   1      -6.000  -2.301   1.334  0.00  0.00    -0.146 I 
ENDROOT
TORSDOF 0
ENDMDL
