MODEL 1
REMARK minimizedAffinity 11.124382
REMARK minimizedRMSD -1
REMARK  0 active torsions:
REMARK  status: ('A' for Active; 'I' for Inactive)
ROOT
ATOM      1  C   UNL d   1      -5.456   0.280   4.865  0.00  0.00     0.023 A 
ATOM      2  C1  UNL d   1      -4.184   0.781   4.588  0.00  0.00     0.003 A 
ATOM      3  C2  UNL d   1      -3.452   0.276   3.511  0.00  0.00     0.048 A 
ATOM      4  C3  UNL d   1      -3.998  -0.730   2.715  0.00  0.00     0.023 A 
ATOM      5  C4  UNL d   1      -5.271  -1.234   2.988  0.00  0.00     0.048 A 
ATOM      6  C5  UNL d   1      -5.999  -0.726   4.066  0.00  0.00     0.003 A 
ATOM      7  I   UNL d   1      -2.911  -1.484   1.112  0.00  0.00    -0.146 I 
ENDROOT
TORSDOF 0
ENDMDL
