MODEL 1
REMARK minimizedAffinity 7.73751736
REMARK minimizedRMSD -1
REMARK  0 active torsions:
REMARK  status: ('A' for Active; 'I' for Inactive)
ROOT
ATOM      1  C   UNL d   1       2.651   4.057   1.813  0.00  0.00     0.023 A 
ATOM      2  C1  UNL d   1       2.772   2.669   1.894  0.00  0.00     0.003 A 
ATOM      3  C2  UNL d   1       2.324   1.866   0.843  0.00  0.00     0.048 A 
ATOM      4  C3  UNL d   1       1.757   2.456  -0.286  0.00  0.00     0.023 A 
ATOM      5  C4  UNL d   1       1.635   3.844  -0.372  0.00  0.00     0.048 A 
ATOM      6  C5  UNL d   1       2.083   4.643   0.682  0.00  0.00     0.003 A 
ATOM      7  I   UNL d   1       1.091   1.262  -1.851  0.00  0.00    -0.146 I 
ENDROOT
TORSDOF 0
ENDMDL
