MODEL 1
REMARK minimizedAffinity 10.3594704
REMARK minimizedRMSD -1
REMARK  0 active torsions:
REMARK  status: ('A' for Active; 'I' for Inactive)
ROOT
ATOM      1  C   UNL d   1       2.500   0.399  -2.748  0.00  0.00     0.023 A 
ATOM      2  C1  UNL d   1       1.536   1.408  -2.733  0.00  0.00     0.003 A 
ATOM      3  C2  UNL d   1       1.040   1.883  -1.517  0.00  0.00     0.048 A 
ATOM      4  C3  UNL d   1       1.513   1.346  -0.320  0.00  0.00     0.023 A 
ATOM      5  C4  UNL d   1       2.478   0.338  -0.330  0.00  0.00     0.048 A 
ATOM      6  C5  UNL d   1       2.970  -0.135  -1.548  0.00  0.00     0.003 A 
ATOM      7  I   UNL d   1       0.776   2.052   1.490  0.00  0.00    -0.146 I 
ENDROOT
TORSDOF 0
ENDMDL
