MODEL 1
REMARK minimizedAffinity 0.670356274
REMARK minimizedRMSD -1
REMARK  0 active torsions:
REMARK  status: ('A' for Active; 'I' for Inactive)
ROOT
ATOM      1  C   UNL d   1       5.984  -4.821   5.086  0.00  0.00     0.023 A 
ATOM      2  C1  UNL d   1       5.998  -4.543   3.719  0.00  0.00     0.003 A 
ATOM      3  C2  UNL d   1       5.679  -3.262   3.262  0.00  0.00     0.048 A 
ATOM      4  C3  UNL d   1       5.347  -2.264   4.178  0.00  0.00     0.023 A 
ATOM      5  C4  UNL d   1       5.333  -2.537   5.547  0.00  0.00     0.048 A 
ATOM      6  C5  UNL d   1       5.652  -3.819   5.998  0.00  0.00     0.003 A 
ATOM      7  I   UNL d   1       4.872  -0.358   3.501  0.00  0.00    -0.146 I 
ENDROOT
TORSDOF 0
ENDMDL
