MODEL 1
REMARK minimizedAffinity 5.92970657
REMARK minimizedRMSD -1
REMARK  0 active torsions:
REMARK  status: ('A' for Active; 'I' for Inactive)
ROOT
ATOM      1  C   UNL d   1      -0.511   1.810   1.531  0.00  0.00     0.023 A 
ATOM      2  C1  UNL d   1       0.176   2.554   2.490  0.00  0.00     0.003 A 
ATOM      3  C2  UNL d   1       1.454   3.043   2.212  0.00  0.00     0.048 A 
ATOM      4  C3  UNL d   1       2.039   2.786   0.973  0.00  0.00     0.023 A 
ATOM      5  C4  UNL d   1       1.355   2.043   0.009  0.00  0.00     0.048 A 
ATOM      6  C5  UNL d   1       0.077   1.555   0.292  0.00  0.00     0.003 A 
ATOM      7  I   UNL d   1       3.941   3.513   0.557  0.00  0.00    -0.146 I 
ENDROOT
TORSDOF 0
ENDMDL
