MODEL 1
REMARK minimizedAffinity 1.58696091
REMARK minimizedRMSD -1
REMARK  0 active torsions:
REMARK  status: ('A' for Active; 'I' for Inactive)
ROOT
ATOM      1  C   UNL d   1       1.132  -3.248   0.161  0.00  0.00     0.023 A 
ATOM      2  C1  UNL d   1       2.431  -2.737   0.156  0.00  0.00     0.003 A 
ATOM      3  C2  UNL d   1       2.709  -1.543  -0.512  0.00  0.00     0.048 A 
ATOM      4  C3  UNL d   1       1.685  -0.863  -1.170  0.00  0.00     0.023 A 
ATOM      5  C4  UNL d   1       0.385  -1.370  -1.166  0.00  0.00     0.048 A 
ATOM      6  C5  UNL d   1       0.111  -2.565  -0.499  0.00  0.00     0.003 A 
ATOM      7  I   UNL d   1       2.098   0.915  -2.164  0.00  0.00    -0.146 I 
ENDROOT
TORSDOF 0
ENDMDL
