MODEL 1
REMARK minimizedAffinity 4.27404356
REMARK minimizedRMSD -1
REMARK  0 active torsions:
REMARK  status: ('A' for Active; 'I' for Inactive)
ROOT
ATOM      1  C   UNL d   1       1.700  -2.995  -0.041  0.00  0.00     0.023 A 
ATOM      2  C1  UNL d   1       2.908  -2.420  -0.436  0.00  0.00     0.003 A 
ATOM      3  C2  UNL d   1       2.912  -1.196  -1.109  0.00  0.00     0.048 A 
ATOM      4  C3  UNL d   1       1.705  -0.553  -1.382  0.00  0.00     0.023 A 
ATOM      5  C4  UNL d   1       0.495  -1.125  -0.988  0.00  0.00     0.048 A 
ATOM      6  C5  UNL d   1       0.495  -2.349  -0.316  0.00  0.00     0.003 A 
ATOM      7  I   UNL d   1       1.710   1.269  -2.383  0.00  0.00    -0.146 I 
ENDROOT
TORSDOF 0
ENDMDL
