MODEL 1
REMARK minimizedAffinity 2.34541416
REMARK minimizedRMSD -1
REMARK  0 active torsions:
REMARK  status: ('A' for Active; 'I' for Inactive)
ROOT
ATOM      1  C   UNL d   1       3.495   1.229  -1.312  0.00  0.00     0.023 A 
ATOM      2  C1  UNL d   1       4.023  -0.044  -1.093  0.00  0.00     0.003 A 
ATOM      3  C2  UNL d   1       3.421  -1.161  -1.677  0.00  0.00     0.048 A 
ATOM      4  C3  UNL d   1       2.293  -0.998  -2.480  0.00  0.00     0.023 A 
ATOM      5  C4  UNL d   1       1.762   0.274  -2.702  0.00  0.00     0.048 A 
ATOM      6  C5  UNL d   1       2.366   1.387  -2.116  0.00  0.00     0.003 A 
ATOM      7  I   UNL d   1       1.396  -2.658  -3.350  0.00  0.00    -0.146 I 
ENDROOT
TORSDOF 0
ENDMDL
