MODEL 1
REMARK minimizedAffinity 12.0463705
REMARK minimizedRMSD -1
REMARK  0 active torsions:
REMARK  status: ('A' for Active; 'I' for Inactive)
ROOT
ATOM      1  C   UNL d   1      -0.137   2.851   1.521  0.00  0.00     0.023 A 
ATOM      2  C1  UNL d   1      -0.882   2.587   0.372  0.00  0.00     0.003 A 
ATOM      3  C2  UNL d   1      -0.289   1.938  -0.713  0.00  0.00     0.048 A 
ATOM      4  C3  UNL d   1       1.050   1.555  -0.642  0.00  0.00     0.023 A 
ATOM      5  C4  UNL d   1       1.799   1.816   0.506  0.00  0.00     0.048 A 
ATOM      6  C5  UNL d   1       1.202   2.466   1.588  0.00  0.00     0.003 A 
ATOM      7  I   UNL d   1       1.935   0.588  -2.255  0.00  0.00    -0.146 I 
ENDROOT
TORSDOF 0
ENDMDL
