MODEL 1
REMARK minimizedAffinity 1.84667552
REMARK minimizedRMSD -1
REMARK  0 active torsions:
REMARK  status: ('A' for Active; 'I' for Inactive)
ROOT
ATOM      1  C   UNL d   1      -0.454   2.863   1.439  0.00  0.00     0.023 A 
ATOM      2  C1  UNL d   1       0.837   2.452   1.773  0.00  0.00     0.003 A 
ATOM      3  C2  UNL d   1       1.574   1.669   0.884  0.00  0.00     0.048 A 
ATOM      4  C3  UNL d   1       1.015   1.300  -0.340  0.00  0.00     0.023 A 
ATOM      5  C4  UNL d   1      -0.276   1.709  -0.679  0.00  0.00     0.048 A 
ATOM      6  C5  UNL d   1      -1.009   2.492   0.215  0.00  0.00     0.003 A 
ATOM      7  I   UNL d   1       2.110   0.133  -1.666  0.00  0.00    -0.146 I 
ENDROOT
TORSDOF 0
ENDMDL
