MODEL 1
REMARK minimizedAffinity 1.40667176
REMARK minimizedRMSD -1
REMARK  0 active torsions:
REMARK  status: ('A' for Active; 'I' for Inactive)
ROOT
ATOM      1  C   UNL d   1      -0.379   3.922   0.939  0.00  0.00     0.023 A 
ATOM      2  C1  UNL d   1      -0.677   3.889  -0.423  0.00  0.00     0.003 A 
ATOM      3  C2  UNL d   1      -0.212   2.837  -1.215  0.00  0.00     0.048 A 
ATOM      4  C3  UNL d   1       0.550   1.821  -0.638  0.00  0.00     0.023 A 
ATOM      5  C4  UNL d   1       0.850   1.850   0.725  0.00  0.00     0.048 A 
ATOM      6  C5  UNL d   1       0.383   2.904   1.512  0.00  0.00     0.003 A 
ATOM      7  I   UNL d   1       1.243   0.255  -1.815  0.00  0.00    -0.146 I 
ENDROOT
TORSDOF 0
ENDMDL
