MODEL 1
REMARK minimizedAffinity 2.50796151
REMARK minimizedRMSD -1
REMARK  1 active torsions:
REMARK  status: ('A' for Active; 'I' for Inactive)
REMARK    1  A    between atoms: N_2  and  C1_3 
ROOT
ATOM      1  C1  UNL d   1       0.022  -2.523  -0.108  0.00  0.00     0.143 A 
ATOM      2  C2  UNL d   1      -0.075  -1.148  -0.346  0.00  0.00    -0.057 A 
ATOM      3  C3  UNL d   1      -1.151  -0.400   0.147  0.00  0.00     0.033 A 
ATOM      4  C4  UNL d   1      -2.167  -1.022   0.865  0.00  0.00    -0.042 A 
ATOM      5  C5  UNL d   1      -2.104  -2.392   1.092  0.00  0.00     0.033 A 
ATOM      6  C6  UNL d   1      -1.024  -3.133   0.603  0.00  0.00    -0.057 A 
ENDROOT
BRANCH   1   7
ATOM      7  N   UNL d   1       1.016  -3.339  -0.654  0.00  0.00    -0.732 N 
ATOM      8  C   UNL d   1       1.516  -3.096  -1.991  0.00  0.00     0.284 C 
ATOM      9  H3  UNL d   1       1.737  -3.579   0.022  0.00  0.00     0.395 HD
ENDBRANCH   1   7
TORSDOF 1
ENDMDL
