MODEL 1
REMARK minimizedAffinity 5.65169096
REMARK minimizedRMSD -1
REMARK  1 active torsions:
REMARK  status: ('A' for Active; 'I' for Inactive)
REMARK    1  A    between atoms: N_2  and  C1_3 
ROOT
ATOM      1  C1  UNL d   1       5.512  -1.462  -4.948  0.00  0.00     0.143 A 
ATOM      2  C2  UNL d   1       5.895  -0.535  -5.923  0.00  0.00    -0.057 A 
ATOM      3  C3  UNL d   1       5.297   0.729  -5.999  0.00  0.00     0.033 A 
ATOM      4  C4  UNL d   1       4.281   1.077  -5.115  0.00  0.00    -0.042 A 
ATOM      5  C5  UNL d   1       3.866   0.162  -4.154  0.00  0.00     0.033 A 
ATOM      6  C6  UNL d   1       4.472  -1.095  -4.079  0.00  0.00    -0.057 A 
ENDROOT
BRANCH   1   7
ATOM      7  N   UNL d   1       6.000  -2.770  -4.884  0.00  0.00    -0.732 N 
ATOM      8  C   UNL d   1       5.830  -3.675  -6.000  0.00  0.00     0.284 C 
ATOM      9  H3  UNL d   1       6.915  -2.822  -4.442  0.00  0.00     0.395 HD
ENDBRANCH   1   7
TORSDOF 1
ENDMDL
