MODEL 1
REMARK minimizedAffinity 0.699117422
REMARK minimizedRMSD -1
REMARK  1 active torsions:
REMARK  status: ('A' for Active; 'I' for Inactive)
REMARK    1  A    between atoms: N_2  and  C1_3 
ROOT
ATOM      1  C1  UNL d   1       1.836  -0.868   1.631  0.00  0.00     0.143 A 
ATOM      2  C2  UNL d   1       0.483  -0.541   1.486  0.00  0.00    -0.057 A 
ATOM      3  C3  UNL d   1       0.087   0.668   0.901  0.00  0.00     0.033 A 
ATOM      4  C4  UNL d   1       1.041   1.587   0.476  0.00  0.00    -0.042 A 
ATOM      5  C5  UNL d   1       2.391   1.294   0.634  0.00  0.00     0.033 A 
ATOM      6  C6  UNL d   1       2.780   0.082   1.212  0.00  0.00    -0.057 A 
ENDROOT
BRANCH   1   7
ATOM      7  N   UNL d   1       2.293  -2.010   2.293  0.00  0.00    -0.732 N 
ATOM      8  C   UNL d   1       1.389  -2.811   3.091  0.00  0.00     0.284 C 
ATOM      9  H3  UNL d   1       2.941  -2.554   1.728  0.00  0.00     0.395 HD
ENDBRANCH   1   7
TORSDOF 1
ENDMDL
