MODEL 1
REMARK minimizedAffinity -0.837384522
REMARK minimizedRMSD -1
REMARK  1 active torsions:
REMARK  status: ('A' for Active; 'I' for Inactive)
REMARK    1  A    between atoms: N_2  and  C1_3 
ROOT
ATOM      1  C1  UNL d   1      -5.338   0.144  -5.129  0.00  0.00     0.143 A 
ATOM      2  C2  UNL d   1      -4.733   1.249  -5.737  0.00  0.00    -0.057 A 
ATOM      3  C3  UNL d   1      -4.172   2.281  -4.974  0.00  0.00     0.033 A 
ATOM      4  C4  UNL d   1      -4.233   2.239  -3.585  0.00  0.00    -0.042 A 
ATOM      5  C5  UNL d   1      -4.852   1.163  -2.960  0.00  0.00     0.033 A 
ATOM      6  C6  UNL d   1      -5.404   0.132  -3.727  0.00  0.00    -0.057 A 
ENDROOT
BRANCH   1   7
ATOM      7  N   UNL d   1      -6.000  -0.865  -5.833  0.00  0.00    -0.732 N 
ATOM      8  C   UNL d   1      -5.905  -2.245  -5.407  0.00  0.00     0.284 C 
ATOM      9  H3  UNL d   1      -6.932  -0.585  -6.129  0.00  0.00     0.395 HD
ENDBRANCH   1   7
TORSDOF 1
ENDMDL
