MODEL 1
REMARK minimizedAffinity -3.55602026
REMARK minimizedRMSD -1
REMARK  0 active torsions:
REMARK  status: ('A' for Active; 'I' for Inactive)
ROOT
ATOM      1  C   UNL d   1       1.284  -3.178  -1.029  0.00  0.00    -0.002 A 
ATOM      2  C1  UNL d   1       0.431  -3.022   0.054  0.00  0.00     0.010 A 
ATOM      3  C2  UNL d   1       0.087  -1.748   0.509  0.00  0.00     0.041 A 
ATOM      4  C3  UNL d   1       0.619  -0.622  -0.150  0.00  0.00    -0.075 A 
ATOM      5  S   UNL d   1       0.337   1.035   0.232  0.00  0.00     0.015 SA
ATOM      6  C4  UNL d   1       1.341   1.575  -1.034  0.00  0.00     0.022 A 
ATOM      7  C5  UNL d   1       1.887   0.530  -1.741  0.00  0.00     0.026 A 
ATOM      8  C6  UNL d   1       1.480  -0.754  -1.243  0.00  0.00    -0.082 A 
ATOM      9  C7  UNL d   1       1.810  -2.059  -1.680  0.00  0.00     0.045 A 
ENDROOT
TORSDOF 0
ENDMDL
