MODEL 1
REMARK minimizedAffinity -4.12775755
REMARK minimizedRMSD -1
REMARK  0 active torsions:
REMARK  status: ('A' for Active; 'I' for Inactive)
ROOT
ATOM      1  C   UNL d   1       1.256  -3.133  -1.251  0.00  0.00    -0.002 A 
ATOM      2  C1  UNL d   1       1.935  -2.120  -1.914  0.00  0.00     0.010 A 
ATOM      3  C2  UNL d   1       1.468  -0.805  -1.872  0.00  0.00     0.041 A 
ATOM      4  C3  UNL d   1       0.297  -0.521  -1.142  0.00  0.00    -0.075 A 
ATOM      5  S   UNL d   1      -0.460   1.015  -0.948  0.00  0.00     0.015 SA
ATOM      6  C4  UNL d   1      -1.702   0.365   0.021  0.00  0.00     0.022 A 
ATOM      7  C5  UNL d   1      -1.559  -0.990   0.202  0.00  0.00     0.026 A 
ATOM      8  C6  UNL d   1      -0.404  -1.523  -0.464  0.00  0.00    -0.082 A 
ATOM      9  C7  UNL d   1       0.095  -2.847  -0.528  0.00  0.00     0.045 A 
ENDROOT
TORSDOF 0
ENDMDL
