MODEL 1
REMARK minimizedAffinity -3.83030725
REMARK minimizedRMSD -1
REMARK  0 active torsions:
REMARK  status: ('A' for Active; 'I' for Inactive)
ROOT
ATOM      1  C   UNL d   1       2.962  -1.180  -1.276  0.00  0.00    -0.002 A 
ATOM      2  C1  UNL d   1       3.007   0.202  -1.383  0.00  0.00     0.010 A 
ATOM      3  C2  UNL d   1       1.930   0.983  -0.958  0.00  0.00     0.041 A 
ATOM      4  C3  UNL d   1       0.797   0.345  -0.417  0.00  0.00    -0.075 A 
ATOM      5  S   UNL d   1      -0.639   1.097   0.169  0.00  0.00     0.015 SA
ATOM      6  C4  UNL d   1      -1.346  -0.399   0.577  0.00  0.00     0.022 A 
ATOM      7  C5  UNL d   1      -0.520  -1.457   0.280  0.00  0.00     0.026 A 
ATOM      8  C6  UNL d   1       0.729  -1.046  -0.298  0.00  0.00    -0.082 A 
ATOM      9  C7  UNL d   1       1.836  -1.810  -0.738  0.00  0.00     0.045 A 
ENDROOT
TORSDOF 0
ENDMDL
