MODEL 1
REMARK minimizedAffinity -3.11631966
REMARK minimizedRMSD -1
REMARK  0 active torsions:
REMARK  status: ('A' for Active; 'I' for Inactive)
ROOT
ATOM      1  C   UNL d   1       1.134  -2.021  -0.405  0.00  0.00    -0.002 A 
ATOM      2  C1  UNL d   1      -0.210  -1.767  -0.175  0.00  0.00     0.010 A 
ATOM      3  C2  UNL d   1      -0.727  -0.480  -0.337  0.00  0.00     0.041 A 
ATOM      4  C3  UNL d   1       0.137   0.556  -0.742  0.00  0.00    -0.075 A 
ATOM      5  S   UNL d   1      -0.274   2.210  -1.006  0.00  0.00     0.015 SA
ATOM      6  C4  UNL d   1       1.326   2.617  -1.432  0.00  0.00     0.022 A 
ATOM      7  C5  UNL d   1       2.166   1.530  -1.379  0.00  0.00     0.026 A 
ATOM      8  C6  UNL d   1       1.495   0.324  -0.981  0.00  0.00    -0.082 A 
ATOM      9  C7  UNL d   1       1.989  -0.991  -0.806  0.00  0.00     0.045 A 
ENDROOT
TORSDOF 0
ENDMDL
