MODEL 1
REMARK minimizedAffinity 2.61471057
REMARK minimizedRMSD -1
REMARK  0 active torsions:
REMARK  status: ('A' for Active; 'I' for Inactive)
ROOT
ATOM      1  C   UNL d   1       1.047   0.030  -2.292  0.00  0.00    -0.002 A 
ATOM      2  C1  UNL d   1       1.867  -1.033  -1.941  0.00  0.00     0.010 A 
ATOM      3  C2  UNL d   1       1.937  -1.469  -0.616  0.00  0.00     0.041 A 
ATOM      4  C3  UNL d   1       1.161  -0.813   0.359  0.00  0.00    -0.075 A 
ATOM      5  S   UNL d   1       1.086  -1.173   2.044  0.00  0.00     0.015 SA
ATOM      6  C4  UNL d   1      -0.038   0.075   2.337  0.00  0.00     0.022 A 
ATOM      7  C5  UNL d   1      -0.358   0.760   1.189  0.00  0.00     0.026 A 
ATOM      8  C6  UNL d   1       0.327   0.260   0.030  0.00  0.00    -0.082 A 
ATOM      9  C7  UNL d   1       0.278   0.678  -1.321  0.00  0.00     0.045 A 
ENDROOT
TORSDOF 0
ENDMDL
