MODEL 1
REMARK minimizedAffinity -2.98013949
REMARK minimizedRMSD -1
REMARK  0 active torsions:
REMARK  status: ('A' for Active; 'I' for Inactive)
ROOT
ATOM      1  C   UNL d   1       1.811  -2.162  -0.308  0.00  0.00    -0.002 A 
ATOM      2  C1  UNL d   1       2.724  -1.253  -0.823  0.00  0.00     0.010 A 
ATOM      3  C2  UNL d   1       2.344   0.065  -1.083  0.00  0.00     0.041 A 
ATOM      4  C3  UNL d   1       1.018   0.459  -0.812  0.00  0.00    -0.075 A 
ATOM      5  S   UNL d   1       0.328   2.020  -1.050  0.00  0.00     0.015 SA
ATOM      6  C4  UNL d   1      -1.194   1.518  -0.472  0.00  0.00     0.022 A 
ATOM      7  C5  UNL d   1      -1.194   0.194  -0.102  0.00  0.00     0.026 A 
ATOM      8  C6  UNL d   1       0.081  -0.439  -0.292  0.00  0.00    -0.082 A 
ATOM      9  C7  UNL d   1       0.497  -1.768  -0.040  0.00  0.00     0.045 A 
ENDROOT
TORSDOF 0
ENDMDL
