MODEL 1
REMARK minimizedAffinity -0.205456316
REMARK minimizedRMSD -1
REMARK  0 active torsions:
REMARK  status: ('A' for Active; 'I' for Inactive)
ROOT
ATOM      1  C   UNL d   1      -0.295   0.278  -0.458  0.00  0.00    -0.002 A 
ATOM      2  C1  UNL d   1       0.830  -0.115   0.253  0.00  0.00     0.010 A 
ATOM      3  C2  UNL d   1       0.864  -0.010   1.645  0.00  0.00     0.041 A 
ATOM      4  C3  UNL d   1      -0.265   0.499   2.317  0.00  0.00    -0.075 A 
ATOM      5  S   UNL d   1      -0.451   0.717   4.017  0.00  0.00     0.015 SA
ATOM      6  C4  UNL d   1      -2.029   1.336   3.840  0.00  0.00     0.022 A 
ATOM      7  C5  UNL d   1      -2.420   1.383   2.523  0.00  0.00     0.026 A 
ATOM      8  C6  UNL d   1      -1.410   0.901   1.623  0.00  0.00    -0.082 A 
ATOM      9  C7  UNL d   1      -1.412   0.783   0.212  0.00  0.00     0.045 A 
ENDROOT
TORSDOF 0
ENDMDL
