MODEL 1
REMARK minimizedAffinity -1.91879928
REMARK minimizedRMSD -1
REMARK  0 active torsions:
REMARK  status: ('A' for Active; 'I' for Inactive)
ROOT
ATOM      1  C   UNL d   1      -0.627   0.751   0.685  0.00  0.00    -0.002 A 
ATOM      2  C1  UNL d   1      -1.217  -0.451   0.321  0.00  0.00     0.010 A 
ATOM      3  C2  UNL d   1      -0.497  -1.406  -0.399  0.00  0.00     0.041 A 
ATOM      4  C3  UNL d   1       0.839  -1.131  -0.749  0.00  0.00    -0.075 A 
ATOM      5  S   UNL d   1       1.915  -2.153  -1.629  0.00  0.00     0.015 SA
ATOM      6  C4  UNL d   1       3.183  -1.018  -1.541  0.00  0.00     0.022 A 
ATOM      7  C5  UNL d   1       2.813   0.118  -0.862  0.00  0.00     0.026 A 
ATOM      8  C6  UNL d   1       1.456   0.071  -0.393  0.00  0.00    -0.082 A 
ATOM      9  C7  UNL d   1       0.699   1.020   0.336  0.00  0.00     0.045 A 
ENDROOT
TORSDOF 0
ENDMDL
