MODEL 1
REMARK minimizedAffinity -3.81862068
REMARK minimizedRMSD -1
REMARK  0 active torsions:
REMARK  status: ('A' for Active; 'I' for Inactive)
ROOT
ATOM      1  C   UNL d   1       2.907  -0.861  -2.146  0.00  0.00    -0.002 A 
ATOM      2  C1  UNL d   1       3.025   0.353  -1.485  0.00  0.00     0.010 A 
ATOM      3  C2  UNL d   1       2.080   0.737  -0.531  0.00  0.00     0.041 A 
ATOM      4  C3  UNL d   1       1.006  -0.130  -0.249  0.00  0.00    -0.075 A 
ATOM      5  S   UNL d   1      -0.270   0.130   0.880  0.00  0.00     0.015 SA
ATOM      6  C4  UNL d   1      -1.002  -1.364   0.512  0.00  0.00     0.022 A 
ATOM      7  C5  UNL d   1      -0.303  -2.058  -0.448  0.00  0.00     0.026 A 
ATOM      8  C6  UNL d   1       0.866  -1.358  -0.902  0.00  0.00    -0.082 A 
ATOM      9  C7  UNL d   1       1.840  -1.718  -1.864  0.00  0.00     0.045 A 
ENDROOT
TORSDOF 0
ENDMDL
