MODEL 1
REMARK minimizedAffinity -3.2665751
REMARK minimizedRMSD -1
REMARK  0 active torsions:
REMARK  status: ('A' for Active; 'I' for Inactive)
ROOT
ATOM      1  C   UNL d   1       2.086  -1.019  -1.125  0.00  0.00    -0.002 A 
ATOM      2  C1  UNL d   1       1.076  -1.970  -1.173  0.00  0.00     0.010 A 
ATOM      3  C2  UNL d   1      -0.101  -1.792  -0.444  0.00  0.00     0.041 A 
ATOM      4  C3  UNL d   1      -0.249  -0.630   0.340  0.00  0.00    -0.075 A 
ATOM      5  S   UNL d   1      -1.604  -0.200   1.315  0.00  0.00     0.015 SA
ATOM      6  C4  UNL d   1      -0.875   1.257   1.816  0.00  0.00     0.022 A 
ATOM      7  C5  UNL d   1       0.372   1.426   1.263  0.00  0.00     0.026 A 
ATOM      8  C6  UNL d   1       0.753   0.342   0.403  0.00  0.00    -0.082 A 
ATOM      9  C7  UNL d   1       1.936   0.132  -0.347  0.00  0.00     0.045 A 
ENDROOT
TORSDOF 0
ENDMDL
