MODEL 1
REMARK minimizedAffinity -1.27728415
REMARK minimizedRMSD -1
REMARK  0 active torsions:
REMARK  status: ('A' for Active; 'I' for Inactive)
ROOT
ATOM      1  C   UNL d   1       2.616  -1.387  -1.199  0.00  0.00    -0.002 A 
ATOM      2  C1  UNL d   1       1.565  -2.218  -0.838  0.00  0.00     0.010 A 
ATOM      3  C2  UNL d   1       0.315  -1.684  -0.521  0.00  0.00     0.041 A 
ATOM      4  C3  UNL d   1       0.136  -0.287  -0.575  0.00  0.00    -0.075 A 
ATOM      5  S   UNL d   1      -1.307   0.590  -0.229  0.00  0.00     0.015 SA
ATOM      6  C4  UNL d   1      -0.562   2.089  -0.553  0.00  0.00     0.022 A 
ATOM      7  C5  UNL d   1       0.756   1.941  -0.917  0.00  0.00     0.026 A 
ATOM      8  C6  UNL d   1       1.180   0.570  -0.936  0.00  0.00    -0.082 A 
ATOM      9  C7  UNL d   1       2.436  -0.003  -1.252  0.00  0.00     0.045 A 
ENDROOT
TORSDOF 0
ENDMDL
