MODEL 1
REMARK minimizedAffinity -1.98991621
REMARK minimizedRMSD -1
REMARK  0 active torsions:
REMARK  status: ('A' for Active; 'I' for Inactive)
ROOT
ATOM      1  C   UNL d   1       2.433  -1.888  -1.538  0.00  0.00    -0.002 A 
ATOM      2  C1  UNL d   1       1.813  -2.433  -0.423  0.00  0.00     0.010 A 
ATOM      3  C2  UNL d   1       0.704  -1.807   0.150  0.00  0.00     0.041 A 
ATOM      4  C3  UNL d   1       0.222  -0.615  -0.424  0.00  0.00    -0.075 A 
ATOM      5  S   UNL d   1      -1.123   0.325   0.107  0.00  0.00     0.015 SA
ATOM      6  C4  UNL d   1      -0.907   1.472  -1.136  0.00  0.00     0.022 A 
ATOM      7  C5  UNL d   1       0.160   1.161  -1.945  0.00  0.00     0.026 A 
ATOM      8  C6  UNL d   1       0.828  -0.047  -1.548  0.00  0.00    -0.082 A 
ATOM      9  C7  UNL d   1       1.951  -0.704  -2.105  0.00  0.00     0.045 A 
ENDROOT
TORSDOF 0
ENDMDL
