MODEL 1
REMARK minimizedAffinity -3.47607112
REMARK minimizedRMSD -1
REMARK  0 active torsions:
REMARK  status: ('A' for Active; 'I' for Inactive)
ROOT
ATOM      1  C   UNL d   1       2.403  -1.496  -0.916  0.00  0.00    -0.002 A 
ATOM      2  C1  UNL d   1       2.730  -0.299  -1.537  0.00  0.00     0.010 A 
ATOM      3  C2  UNL d   1       1.857   0.790  -1.485  0.00  0.00     0.041 A 
ATOM      4  C3  UNL d   1       0.640   0.655  -0.789  0.00  0.00    -0.075 A 
ATOM      5  S   UNL d   1      -0.583   1.855  -0.591  0.00  0.00     0.015 SA
ATOM      6  C4  UNL d   1      -1.568   0.806   0.323  0.00  0.00     0.022 A 
ATOM      7  C5  UNL d   1      -0.993  -0.432   0.483  0.00  0.00     0.026 A 
ATOM      8  C6  UNL d   1       0.289  -0.540  -0.155  0.00  0.00    -0.082 A 
ATOM      9  C7  UNL d   1       1.194  -1.626  -0.227  0.00  0.00     0.045 A 
ENDROOT
TORSDOF 0
ENDMDL
