MODEL 1
REMARK minimizedAffinity 3.78037977
REMARK minimizedRMSD -1
REMARK  1 active torsions:
REMARK  status: ('A' for Active; 'I' for Inactive)
REMARK    1  A    between atoms: C3_4  and  O_7 
ROOT
ATOM      1  C   UNL d   1       0.682   4.875   1.768  0.00  0.00    -0.033 A 
ATOM      2  C1  UNL d   1       1.153   3.751   2.450  0.00  0.00     0.039 A 
ATOM      3  C2  UNL d   1       2.440   3.749   2.991  0.00  0.00    -0.080 A 
ATOM      4  C3  UNL d   1       3.244   4.875   2.844  0.00  0.00     0.150 A 
ATOM      5  C4  UNL d   1       2.780   6.000   2.169  0.00  0.00    -0.007 A 
ATOM      6  C5  UNL d   1       1.495   6.000   1.629  0.00  0.00     0.039 A 
ENDROOT
BRANCH   4   7
ATOM      7  O   UNL d   1       4.509   4.918   3.351  0.00  0.00    -0.526 OA
ATOM      8  H5  UNL d   1       4.704   4.061   3.765  0.00  0.00     0.418 HD
ENDBRANCH   4   7
TORSDOF 1
ENDMDL
