MODEL 1
REMARK minimizedAffinity 2.79853439
REMARK minimizedRMSD -1
REMARK  1 active torsions:
REMARK  status: ('A' for Active; 'I' for Inactive)
REMARK    1  A    between atoms: C3_4  and  O_7 
ROOT
ATOM      1  C   UNL d   1       5.168   1.406  -0.261  0.00  0.00    -0.033 A 
ATOM      2  C1  UNL d   1       4.312   0.797   0.659  0.00  0.00     0.039 A 
ATOM      3  C2  UNL d   1       3.190   0.097   0.214  0.00  0.00    -0.080 A 
ATOM      4  C3  UNL d   1       2.935   0.011  -1.152  0.00  0.00     0.150 A 
ATOM      5  C4  UNL d   1       3.786   0.612  -2.074  0.00  0.00    -0.007 A 
ATOM      6  C5  UNL d   1       4.906   1.312  -1.628  0.00  0.00     0.039 A 
ENDROOT
BRANCH   4   7
ATOM      7  O   UNL d   1       1.850  -0.658  -1.634  0.00  0.00    -0.526 OA
ATOM      8  H5  UNL d   1       1.337  -0.996  -0.881  0.00  0.00     0.418 HD
ENDBRANCH   4   7
TORSDOF 1
ENDMDL
