MODEL 1
REMARK minimizedAffinity 0.953318655
REMARK minimizedRMSD -1
REMARK  1 active torsions:
REMARK  status: ('A' for Active; 'I' for Inactive)
REMARK    1  A    between atoms: C3_4  and  O_7 
ROOT
ATOM      1  C   UNL d   1       2.646   0.949   1.060  0.00  0.00    -0.033 A 
ATOM      2  C1  UNL d   1       1.715   0.471   0.136  0.00  0.00     0.039 A 
ATOM      3  C2  UNL d   1       2.012   0.483  -1.228  0.00  0.00    -0.080 A 
ATOM      4  C3  UNL d   1       3.243   0.974  -1.654  0.00  0.00     0.150 A 
ATOM      5  C4  UNL d   1       4.177   1.449  -0.739  0.00  0.00    -0.007 A 
ATOM      6  C5  UNL d   1       3.877   1.437   0.623  0.00  0.00     0.039 A 
ENDROOT
BRANCH   4   7
ATOM      7  O   UNL d   1       3.577   1.010  -2.975  0.00  0.00    -0.526 OA
ATOM      8  H5  UNL d   1       2.824   0.678  -3.492  0.00  0.00     0.418 HD
ENDBRANCH   4   7
TORSDOF 1
ENDMDL
