MODEL 1
REMARK minimizedAffinity 4.98418951
REMARK minimizedRMSD -1
REMARK  1 active torsions:
REMARK  status: ('A' for Active; 'I' for Inactive)
REMARK    1  A    between atoms: C3_4  and  O_7 
ROOT
ATOM      1  C   UNL d   1       5.554   1.974  -1.511  0.00  0.00    -0.033 A 
ATOM      2  C1  UNL d   1       5.087   1.543  -0.267  0.00  0.00     0.039 A 
ATOM      3  C2  UNL d   1       3.897   0.817  -0.179  0.00  0.00    -0.080 A 
ATOM      4  C3  UNL d   1       3.186   0.529  -1.340  0.00  0.00     0.150 A 
ATOM      5  C4  UNL d   1       3.646   0.952  -2.583  0.00  0.00    -0.007 A 
ATOM      6  C5  UNL d   1       4.834   1.677  -2.668  0.00  0.00     0.039 A 
ENDROOT
BRANCH   4   7
ATOM      7  O   UNL d   1       2.017  -0.172  -1.304  0.00  0.00    -0.526 OA
ATOM      8  H5  UNL d   1       1.808  -0.373  -0.376  0.00  0.00     0.418 HD
ENDBRANCH   4   7
TORSDOF 1
ENDMDL
