MODEL 1
REMARK minimizedAffinity 1.89923239
REMARK minimizedRMSD -1
REMARK  1 active torsions:
REMARK  status: ('A' for Active; 'I' for Inactive)
REMARK    1  A    between atoms: C3_4  and  O_7 
ROOT
ATOM      1  C   UNL d   1       3.290   0.802  -2.213  0.00  0.00    -0.033 A 
ATOM      2  C1  UNL d   1       3.662   0.506  -3.525  0.00  0.00     0.039 A 
ATOM      3  C2  UNL d   1       3.168  -0.640  -4.152  0.00  0.00    -0.080 A 
ATOM      4  C3  UNL d   1       2.303  -1.480  -3.456  0.00  0.00     0.150 A 
ATOM      5  C4  UNL d   1       1.925  -1.189  -2.149  0.00  0.00    -0.007 A 
ATOM      6  C5  UNL d   1       2.421  -0.045  -1.525  0.00  0.00     0.039 A 
ENDROOT
BRANCH   4   7
ATOM      7  O   UNL d   1       1.799  -2.612  -4.024  0.00  0.00    -0.526 OA
ATOM      8  H5  UNL d   1       2.169  -2.699  -4.918  0.00  0.00     0.418 HD
ENDBRANCH   4   7
TORSDOF 1
ENDMDL
