MODEL 1
REMARK minimizedAffinity 12.8258848
REMARK minimizedRMSD -1
REMARK  1 active torsions:
REMARK  status: ('A' for Active; 'I' for Inactive)
REMARK    1  A    between atoms: C3_4  and  O_7 
ROOT
ATOM      1  C   UNL d   1      -5.176   1.072  -4.589  0.00  0.00    -0.033 A 
ATOM      2  C1  UNL d   1      -6.000   0.441  -5.522  0.00  0.00     0.039 A 
ATOM      3  C2  UNL d   1      -5.671  -0.829  -6.000  0.00  0.00    -0.080 A 
ATOM      4  C3  UNL d   1      -4.518  -1.457  -5.536  0.00  0.00     0.150 A 
ATOM      5  C4  UNL d   1      -3.695  -0.835  -4.603  0.00  0.00    -0.007 A 
ATOM      6  C5  UNL d   1      -4.024   0.434  -4.128  0.00  0.00     0.039 A 
ENDROOT
BRANCH   4   7
ATOM      7  O   UNL d   1      -4.153  -2.694  -5.976  0.00  0.00    -0.526 OA
ATOM      8  H5  UNL d   1      -4.800  -2.988  -6.639  0.00  0.00     0.418 HD
ENDBRANCH   4   7
TORSDOF 1
ENDMDL
