MODEL 1
REMARK minimizedAffinity -4.54617119
REMARK minimizedRMSD -1
REMARK  1 active torsions:
REMARK  status: ('A' for Active; 'I' for Inactive)
REMARK    1  A    between atoms: C1_2  and  C2_3 
ROOT
ATOM      1  C2  UNL d   1       0.315  -1.047  -0.351  0.00  0.00    -0.077 A 
ATOM      2  C3  UNL d   1       0.087  -1.252   1.017  0.00  0.00     0.002 A 
ATOM      3  C4  UNL d   1      -0.629  -0.313   1.762  0.00  0.00     0.002 A 
ATOM      4  C5  UNL d   1      -1.127   0.834   1.147  0.00  0.00    -0.004 A 
ATOM      5  C6  UNL d   1      -0.904   1.047  -0.213  0.00  0.00     0.002 A 
ATOM      6  C7  UNL d   1      -0.187   0.111  -0.959  0.00  0.00     0.002 A 
ENDROOT
BRANCH   1   7
ATOM      7  C1  UNL d   1       1.045  -2.083  -1.167  0.00  0.00     0.055 C 
ATOM      8  C   UNL d   1       0.267  -2.447  -2.423  0.00  0.00     0.019 C 
ENDBRANCH   1   7
TORSDOF 1
ENDMDL
