MODEL 1
REMARK minimizedAffinity -3.320297
REMARK minimizedRMSD -1
REMARK  1 active torsions:
REMARK  status: ('A' for Active; 'I' for Inactive)
REMARK    1  A    between atoms: C1_2  and  C2_3 
ROOT
ATOM      1  C2  UNL d   1      -0.621   1.186  -0.371  0.00  0.00    -0.077 A 
ATOM      2  C3  UNL d   1      -1.197   0.969   0.889  0.00  0.00     0.002 A 
ATOM      3  C4  UNL d   1      -1.568   2.050   1.691  0.00  0.00     0.002 A 
ATOM      4  C5  UNL d   1      -1.370   3.354   1.241  0.00  0.00    -0.004 A 
ATOM      5  C6  UNL d   1      -0.796   3.579  -0.009  0.00  0.00     0.002 A 
ATOM      6  C7  UNL d   1      -0.424   2.500  -0.812  0.00  0.00     0.002 A 
ENDROOT
BRANCH   1   7
ATOM      7  C1  UNL d   1      -0.265   0.021  -1.258  0.00  0.00     0.055 C 
ATOM      8  C   UNL d   1       0.971  -0.706  -0.749  0.00  0.00     0.019 C 
ENDBRANCH   1   7
TORSDOF 1
ENDMDL
