MODEL 1
REMARK minimizedAffinity -2.78479719
REMARK minimizedRMSD -1
REMARK  1 active torsions:
REMARK  status: ('A' for Active; 'I' for Inactive)
REMARK    1  A    between atoms: C1_2  and  C2_3 
ROOT
ATOM      1  C2  UNL d   1      -0.638   0.779   0.916  0.00  0.00    -0.077 A 
ATOM      2  C3  UNL d   1      -0.100  -0.514   0.974  0.00  0.00     0.002 A 
ATOM      3  C4  UNL d   1       0.779  -0.958  -0.016  0.00  0.00     0.002 A 
ATOM      4  C5  UNL d   1       1.131  -0.114  -1.068  0.00  0.00    -0.004 A 
ATOM      5  C6  UNL d   1       0.599   1.173  -1.135  0.00  0.00     0.002 A 
ATOM      6  C7  UNL d   1      -0.281   1.618  -0.147  0.00  0.00     0.002 A 
ENDROOT
BRANCH   1   7
ATOM      7  C1  UNL d   1      -1.547   1.277   2.009  0.00  0.00     0.055 C 
ATOM      8  C   UNL d   1      -2.338   2.496   1.559  0.00  0.00     0.019 C 
ENDBRANCH   1   7
TORSDOF 1
ENDMDL
