MODEL 1
REMARK minimizedAffinity -5.83641386
REMARK minimizedRMSD -1
REMARK  1 active torsions:
REMARK  status: ('A' for Active; 'I' for Inactive)
REMARK    1  A    between atoms: C1_2  and  C2_3 
ROOT
ATOM      1  C2  UNL d   1      -0.137   0.264   0.029  0.00  0.00    -0.077 A 
ATOM      2  C3  UNL d   1      -0.599   1.536  -0.337  0.00  0.00     0.002 A 
ATOM      3  C4  UNL d   1      -1.562   2.188   0.436  0.00  0.00     0.002 A 
ATOM      4  C5  UNL d   1      -2.068   1.577   1.581  0.00  0.00    -0.004 A 
ATOM      5  C6  UNL d   1      -1.617   0.311   1.953  0.00  0.00     0.002 A 
ATOM      6  C7  UNL d   1      -0.655  -0.342   1.181  0.00  0.00     0.002 A 
ENDROOT
BRANCH   1   7
ATOM      7  C1  UNL d   1       0.937  -0.419  -0.776  0.00  0.00     0.055 C 
ATOM      8  C   UNL d   1       0.435  -1.724  -1.375  0.00  0.00     0.019 C 
ENDBRANCH   1   7
TORSDOF 1
ENDMDL
