MODEL 1
REMARK minimizedAffinity -2.33503032
REMARK minimizedRMSD -1
REMARK  1 active torsions:
REMARK  status: ('A' for Active; 'I' for Inactive)
REMARK    1  A    between atoms: C1_2  and  C2_3 
ROOT
ATOM      1  C2  UNL d   1       0.204  -1.242  -0.712  0.00  0.00    -0.077 A 
ATOM      2  C3  UNL d   1      -0.599  -1.841  -1.693  0.00  0.00     0.002 A 
ATOM      3  C4  UNL d   1      -0.331  -3.141  -2.128  0.00  0.00     0.002 A 
ATOM      4  C5  UNL d   1       0.737  -3.852  -1.586  0.00  0.00    -0.004 A 
ATOM      5  C6  UNL d   1       1.543  -3.264  -0.612  0.00  0.00     0.002 A 
ATOM      6  C7  UNL d   1       1.277  -1.965  -0.176  0.00  0.00     0.002 A 
ENDROOT
BRANCH   1   7
ATOM      7  C1  UNL d   1      -0.114   0.141  -0.206  0.00  0.00     0.055 C 
ATOM      8  C   UNL d   1      -0.736   0.093   1.182  0.00  0.00     0.019 C 
ENDBRANCH   1   7
TORSDOF 1
ENDMDL
