MODEL 1
REMARK minimizedAffinity -6.04409409
REMARK minimizedRMSD -1
REMARK  1 active torsions:
REMARK  status: ('A' for Active; 'I' for Inactive)
REMARK    1  A    between atoms: C1_2  and  C2_3 
ROOT
ATOM      1  C2  UNL d   1       0.210   0.208   0.021  0.00  0.00    -0.077 A 
ATOM      2  C3  UNL d   1       0.080  -0.107   1.381  0.00  0.00     0.002 A 
ATOM      3  C4  UNL d   1      -1.040   0.317   2.100  0.00  0.00     0.002 A 
ATOM      4  C5  UNL d   1      -2.039   1.053   1.466  0.00  0.00    -0.004 A 
ATOM      5  C6  UNL d   1      -1.917   1.373   0.114  0.00  0.00     0.002 A 
ATOM      6  C7  UNL d   1      -0.798   0.951  -0.605  0.00  0.00     0.002 A 
ENDROOT
BRANCH   1   7
ATOM      7  C1  UNL d   1       1.393  -0.290  -0.767  0.00  0.00     0.055 C 
ATOM      8  C   UNL d   1       1.195  -1.732  -1.212  0.00  0.00     0.019 C 
ENDBRANCH   1   7
TORSDOF 1
ENDMDL
