MODEL 1
REMARK minimizedAffinity -4.65796566
REMARK minimizedRMSD -1
REMARK  1 active torsions:
REMARK  status: ('A' for Active; 'I' for Inactive)
REMARK    1  A    between atoms: C1_2  and  C2_3 
ROOT
ATOM      1  C2  UNL d   1      -0.465  -0.537   1.496  0.00  0.00    -0.077 A 
ATOM      2  C3  UNL d   1      -1.278   0.605   1.488  0.00  0.00     0.002 A 
ATOM      3  C4  UNL d   1      -1.265   1.474   0.396  0.00  0.00     0.002 A 
ATOM      4  C5  UNL d   1      -0.443   1.209  -0.697  0.00  0.00    -0.004 A 
ATOM      5  C6  UNL d   1       0.372   0.078  -0.698  0.00  0.00     0.002 A 
ATOM      6  C7  UNL d   1       0.360  -0.792   0.393  0.00  0.00     0.002 A 
ENDROOT
BRANCH   1   7
ATOM      7  C1  UNL d   1      -0.515  -1.502   2.652  0.00  0.00     0.055 C 
ATOM      8  C   UNL d   1       0.875  -2.004   3.014  0.00  0.00     0.019 C 
ENDBRANCH   1   7
TORSDOF 1
ENDMDL
