MODEL 1
REMARK minimizedAffinity -5.20906734
REMARK minimizedRMSD -1
REMARK  1 active torsions:
REMARK  status: ('A' for Active; 'I' for Inactive)
REMARK    1  A    between atoms: C1_2  and  C2_3 
ROOT
ATOM      1  C2  UNL d   1       0.127   0.537   0.220  0.00  0.00    -0.077 A 
ATOM      2  C3  UNL d   1      -0.508   1.703  -0.228  0.00  0.00     0.002 A 
ATOM      3  C4  UNL d   1      -1.331   2.434   0.631  0.00  0.00     0.002 A 
ATOM      4  C5  UNL d   1      -1.522   2.009   1.944  0.00  0.00    -0.004 A 
ATOM      5  C6  UNL d   1      -0.897   0.849   2.399  0.00  0.00     0.002 A 
ATOM      6  C7  UNL d   1      -0.075   0.116   1.541  0.00  0.00     0.002 A 
ENDROOT
BRANCH   1   7
ATOM      7  C1  UNL d   1       1.054  -0.226  -0.691  0.00  0.00     0.055 C 
ATOM      8  C   UNL d   1       0.423  -1.530  -1.156  0.00  0.00     0.019 C 
ENDBRANCH   1   7
TORSDOF 1
ENDMDL
