MODEL 1
REMARK minimizedAffinity -4.79725885
REMARK minimizedRMSD -1
REMARK  1 active torsions:
REMARK  status: ('A' for Active; 'I' for Inactive)
REMARK    1  A    between atoms: C1_2  and  C2_3 
ROOT
ATOM      1  C2  UNL d   1      -0.438   1.071   0.089  0.00  0.00    -0.077 A 
ATOM      2  C3  UNL d   1       0.070   1.954  -0.873  0.00  0.00     0.002 A 
ATOM      3  C4  UNL d   1      -0.257   3.311  -0.830  0.00  0.00     0.002 A 
ATOM      4  C5  UNL d   1      -1.090   3.797   0.176  0.00  0.00    -0.004 A 
ATOM      5  C6  UNL d   1      -1.603   2.926   1.137  0.00  0.00     0.002 A 
ATOM      6  C7  UNL d   1      -1.278   1.569   1.094  0.00  0.00     0.002 A 
ENDROOT
BRANCH   1   7
ATOM      7  C1  UNL d   1      -0.047  -0.384   0.073  0.00  0.00     0.055 C 
ATOM      8  C   UNL d   1       0.182  -0.911   1.482  0.00  0.00     0.019 C 
ENDBRANCH   1   7
TORSDOF 1
ENDMDL
