MODEL 1
REMARK minimizedAffinity -4.35418749
REMARK minimizedRMSD -1
REMARK  1 active torsions:
REMARK  status: ('A' for Active; 'I' for Inactive)
REMARK    1  A    between atoms: C1_2  and  C2_3 
ROOT
ATOM      1  C2  UNL d   1       0.124  -0.350   0.035  0.00  0.00    -0.077 A 
ATOM      2  C3  UNL d   1      -0.314   0.759  -0.703  0.00  0.00     0.002 A 
ATOM      3  C4  UNL d   1      -1.191   1.684  -0.133  0.00  0.00     0.002 A 
ATOM      4  C5  UNL d   1      -1.634   1.513   1.176  0.00  0.00    -0.004 A 
ATOM      5  C6  UNL d   1      -1.206   0.412   1.918  0.00  0.00     0.002 A 
ATOM      6  C7  UNL d   1      -0.330  -0.514   1.350  0.00  0.00     0.002 A 
ENDROOT
BRANCH   1   7
ATOM      7  C1  UNL d   1       1.108  -1.322  -0.560  0.00  0.00     0.055 C 
ATOM      8  C   UNL d   1       0.502  -2.073  -1.737  0.00  0.00     0.019 C 
ENDBRANCH   1   7
TORSDOF 1
ENDMDL
