MODEL 1
REMARK minimizedAffinity -5.66493177
REMARK minimizedRMSD -1
REMARK  0 active torsions:
REMARK  status: ('A' for Active; 'I' for Inactive)
ROOT
ATOM      1  C   UNL d   1      -0.391  -0.580  -1.123  0.00  0.00     0.078 C 
ATOM      2  C1  UNL d   1       0.290   0.375  -0.189  0.00  0.00    -0.077 A 
ATOM      3  C2  UNL d   1       1.520   0.957  -0.522  0.00  0.00    -0.001 A 
ATOM      4  C3  UNL d   1       2.147   1.837   0.361  0.00  0.00     0.003 A 
ATOM      5  C4  UNL d   1       1.553   2.143   1.584  0.00  0.00    -0.005 A 
ATOM      6  C5  UNL d   1       0.330   1.567   1.925  0.00  0.00     0.003 A 
ATOM      7  C6  UNL d   1      -0.298   0.687   1.043  0.00  0.00    -0.001 A 
ENDROOT
TORSDOF 0
ENDMDL
