MODEL 1
REMARK minimizedAffinity -5.14537907
REMARK minimizedRMSD -1
REMARK  0 active torsions:
REMARK  status: ('A' for Active; 'I' for Inactive)
ROOT
ATOM      1  C   UNL d   1      -0.234  -1.196  -0.646  0.00  0.00     0.078 C 
ATOM      2  C1  UNL d   1       0.237   0.054   0.036  0.00  0.00    -0.077 A 
ATOM      3  C2  UNL d   1       1.371   0.739  -0.417  0.00  0.00    -0.001 A 
ATOM      4  C3  UNL d   1       1.803   1.896   0.234  0.00  0.00     0.003 A 
ATOM      5  C4  UNL d   1       1.108   2.377   1.341  0.00  0.00    -0.005 A 
ATOM      6  C5  UNL d   1      -0.020   1.701   1.800  0.00  0.00     0.003 A 
ATOM      7  C6  UNL d   1      -0.454   0.544   1.151  0.00  0.00    -0.001 A 
ENDROOT
TORSDOF 0
ENDMDL
