MODEL 1
REMARK minimizedAffinity -2.53150725
REMARK minimizedRMSD -1
REMARK  0 active torsions:
REMARK  status: ('A' for Active; 'I' for Inactive)
ROOT
ATOM      1  C   UNL d   1      -1.275   5.911  -4.641  0.00  0.00     0.078 C 
ATOM      2  C1  UNL d   1      -2.773   5.901  -4.698  0.00  0.00    -0.077 A 
ATOM      3  C2  UNL d   1      -3.447   5.810  -5.922  0.00  0.00    -0.001 A 
ATOM      4  C3  UNL d   1      -4.843   5.812  -5.962  0.00  0.00     0.003 A 
ATOM      5  C4  UNL d   1      -5.576   5.904  -4.780  0.00  0.00    -0.005 A 
ATOM      6  C5  UNL d   1      -4.914   5.997  -3.558  0.00  0.00     0.003 A 
ATOM      7  C6  UNL d   1      -3.519   5.995  -3.516  0.00  0.00    -0.001 A 
ENDROOT
TORSDOF 0
ENDMDL
