MODEL 1
REMARK minimizedAffinity -4.01025677
REMARK minimizedRMSD -1
REMARK  0 active torsions:
REMARK  status: ('A' for Active; 'I' for Inactive)
ROOT
ATOM      1  C   UNL d   1       1.509   2.767   1.632  0.00  0.00     0.078 C 
ATOM      2  C1  UNL d   1       0.936   1.498   1.074  0.00  0.00    -0.077 A 
ATOM      3  C2  UNL d   1       1.564   0.827   0.018  0.00  0.00    -0.001 A 
ATOM      4  C3  UNL d   1       1.014  -0.348  -0.498  0.00  0.00     0.003 A 
ATOM      5  C4  UNL d   1      -0.166  -0.861   0.036  0.00  0.00    -0.005 A 
ATOM      6  C5  UNL d   1      -0.799  -0.199   1.086  0.00  0.00     0.003 A 
ATOM      7  C6  UNL d   1      -0.251   0.976   1.603  0.00  0.00    -0.001 A 
ENDROOT
TORSDOF 0
ENDMDL
