MODEL 1
REMARK minimizedAffinity -4.60917091
REMARK minimizedRMSD -1
REMARK  0 active torsions:
REMARK  status: ('A' for Active; 'I' for Inactive)
ROOT
ATOM      1  C   UNL d   1      -0.091  -0.617  -0.170  0.00  0.00     0.078 C 
ATOM      2  C1  UNL d   1       0.848   0.402   0.402  0.00  0.00    -0.077 A 
ATOM      3  C2  UNL d   1       1.926   0.890  -0.348  0.00  0.00    -0.001 A 
ATOM      4  C3  UNL d   1       2.798   1.832   0.201  0.00  0.00     0.003 A 
ATOM      5  C4  UNL d   1       2.602   2.294   1.501  0.00  0.00    -0.005 A 
ATOM      6  C5  UNL d   1       1.533   1.812   2.255  0.00  0.00     0.003 A 
ATOM      7  C6  UNL d   1       0.660   0.870   1.708  0.00  0.00    -0.001 A 
ENDROOT
TORSDOF 0
ENDMDL
