MODEL 1
REMARK minimizedAffinity -4.65550661
REMARK minimizedRMSD -1
REMARK  0 active torsions:
REMARK  status: ('A' for Active; 'I' for Inactive)
ROOT
ATOM      1  C   UNL d   1       1.486   2.794   1.157  0.00  0.00     0.078 C 
ATOM      2  C1  UNL d   1       1.218   1.461   0.525  0.00  0.00    -0.077 A 
ATOM      3  C2  UNL d   1       0.022   0.775   0.770  0.00  0.00    -0.001 A 
ATOM      4  C3  UNL d   1      -0.211  -0.470   0.184  0.00  0.00     0.003 A 
ATOM      5  C4  UNL d   1       0.749  -1.040  -0.651  0.00  0.00    -0.005 A 
ATOM      6  C5  UNL d   1       1.943  -0.366  -0.898  0.00  0.00     0.003 A 
ATOM      7  C6  UNL d   1       2.177   0.879  -0.313  0.00  0.00    -0.001 A 
ENDROOT
TORSDOF 0
ENDMDL
