MODEL 1
REMARK minimizedAffinity -2.91304922
REMARK minimizedRMSD -1
REMARK  0 active torsions:
REMARK  status: ('A' for Active; 'I' for Inactive)
ROOT
ATOM      1  C   UNL d   1      -0.426  -1.515  -0.851  0.00  0.00     0.078 C 
ATOM      2  C1  UNL d   1      -0.258  -0.226  -0.102  0.00  0.00    -0.077 A 
ATOM      3  C2  UNL d   1      -1.070   0.081   0.997  0.00  0.00    -0.001 A 
ATOM      4  C3  UNL d   1      -0.908   1.288   1.678  0.00  0.00     0.003 A 
ATOM      5  C4  UNL d   1       0.064   2.199   1.267  0.00  0.00    -0.005 A 
ATOM      6  C5  UNL d   1       0.875   1.902   0.174  0.00  0.00     0.003 A 
ATOM      7  C6  UNL d   1       0.715   0.696  -0.509  0.00  0.00    -0.001 A 
ENDROOT
TORSDOF 0
ENDMDL
