MODEL 1
REMARK minimizedAffinity -2.43106484
REMARK minimizedRMSD -1
REMARK  0 active torsions:
REMARK  status: ('A' for Active; 'I' for Inactive)
ROOT
ATOM      1  C   UNL d   1       2.002  -0.546  -1.080  0.00  0.00     0.078 C 
ATOM      2  C1  UNL d   1       0.826  -0.200  -0.216  0.00  0.00    -0.077 A 
ATOM      3  C2  UNL d   1       0.835   0.945   0.589  0.00  0.00    -0.001 A 
ATOM      4  C3  UNL d   1      -0.263   1.250   1.395  0.00  0.00     0.003 A 
ATOM      5  C4  UNL d   1      -1.377   0.413   1.406  0.00  0.00    -0.005 A 
ATOM      6  C5  UNL d   1      -1.394  -0.730   0.610  0.00  0.00     0.003 A 
ATOM      7  C6  UNL d   1      -0.298  -1.036  -0.198  0.00  0.00    -0.001 A 
ENDROOT
TORSDOF 0
ENDMDL
