MODEL 1
REMARK minimizedAffinity -3.54521775
REMARK minimizedRMSD -1
REMARK  0 active torsions:
REMARK  status: ('A' for Active; 'I' for Inactive)
ROOT
ATOM      1  C   UNL d   1      -4.245  -3.341  -1.760  0.00  0.00     0.078 C 
ATOM      2  C1  UNL d   1      -3.485  -2.374  -2.618  0.00  0.00    -0.077 A 
ATOM      3  C2  UNL d   1      -3.235  -1.067  -2.184  0.00  0.00    -0.001 A 
ATOM      4  C3  UNL d   1      -2.535  -0.174  -2.998  0.00  0.00     0.003 A 
ATOM      5  C4  UNL d   1      -2.080  -0.580  -4.251  0.00  0.00    -0.005 A 
ATOM      6  C5  UNL d   1      -2.326  -1.878  -4.692  0.00  0.00     0.003 A 
ATOM      7  C6  UNL d   1      -3.026  -2.772  -3.880  0.00  0.00    -0.001 A 
ENDROOT
TORSDOF 0
ENDMDL
