MODEL 1
REMARK minimizedAffinity -5.78572655
REMARK minimizedRMSD -1
REMARK  0 active torsions:
REMARK  status: ('A' for Active; 'I' for Inactive)
ROOT
ATOM      1  C   UNL d   1      -0.108  -0.940  -0.460  0.00  0.00     0.078 C 
ATOM      2  C1  UNL d   1       0.518   0.273   0.162  0.00  0.00    -0.077 A 
ATOM      3  C2  UNL d   1      -0.160   1.015   1.137  0.00  0.00    -0.001 A 
ATOM      4  C3  UNL d   1       0.431   2.147   1.700  0.00  0.00     0.003 A 
ATOM      5  C4  UNL d   1       1.703   2.547   1.295  0.00  0.00    -0.005 A 
ATOM      6  C5  UNL d   1       2.385   1.816   0.325  0.00  0.00     0.003 A 
ATOM      7  C6  UNL d   1       1.795   0.684  -0.240  0.00  0.00    -0.001 A 
ENDROOT
TORSDOF 0
ENDMDL
