MODEL 1
REMARK minimizedAffinity -4.62921333
REMARK minimizedRMSD -1
REMARK  0 active torsions:
REMARK  status: ('A' for Active; 'I' for Inactive)
ROOT
ATOM      1  C   UNL d   1      -4.159  -3.314  -0.796  0.00  0.00     0.078 C 
ATOM      2  C1  UNL d   1      -3.038  -2.534  -1.415  0.00  0.00    -0.077 A 
ATOM      3  C2  UNL d   1      -1.910  -2.175  -0.667  0.00  0.00    -0.001 A 
ATOM      4  C3  UNL d   1      -0.879  -1.440  -1.253  0.00  0.00     0.003 A 
ATOM      5  C4  UNL d   1      -0.965  -1.057  -2.590  0.00  0.00    -0.005 A 
ATOM      6  C5  UNL d   1      -2.084  -1.407  -3.342  0.00  0.00     0.003 A 
ATOM      7  C6  UNL d   1      -3.117  -2.142  -2.757  0.00  0.00    -0.001 A 
ENDROOT
TORSDOF 0
ENDMDL
