MODEL 1
REMARK minimizedAffinity -3.18723822
REMARK minimizedRMSD -1
REMARK  0 active torsions:
REMARK  status: ('A' for Active; 'I' for Inactive)
ROOT
ATOM      1  C   UNL d   1      -0.737  -1.159  -0.840  0.00  0.00     0.078 C 
ATOM      2  C1  UNL d   1      -0.268   0.024  -0.047  0.00  0.00    -0.077 A 
ATOM      3  C2  UNL d   1      -0.937   0.424   1.116  0.00  0.00    -0.001 A 
ATOM      4  C3  UNL d   1      -0.494   1.533   1.838  0.00  0.00     0.003 A 
ATOM      5  C4  UNL d   1       0.618   2.253   1.405  0.00  0.00    -0.005 A 
ATOM      6  C5  UNL d   1       1.289   1.864   0.248  0.00  0.00     0.003 A 
ATOM      7  C6  UNL d   1       0.848   0.755  -0.476  0.00  0.00    -0.001 A 
ENDROOT
TORSDOF 0
ENDMDL
