MODEL 1
REMARK minimizedAffinity -3.87759113
REMARK minimizedRMSD -1
REMARK  0 active torsions:
REMARK  status: ('A' for Active; 'I' for Inactive)
ROOT
ATOM      1  C   UNL d   1      -1.138  -1.471  -1.534  0.00  0.00     0.078 C 
ATOM      2  C1  UNL d   1      -1.045  -0.510  -0.386  0.00  0.00    -0.077 A 
ATOM      3  C2  UNL d   1       0.069  -0.505   0.462  0.00  0.00    -0.001 A 
ATOM      4  C3  UNL d   1       0.137   0.388   1.532  0.00  0.00     0.003 A 
ATOM      5  C4  UNL d   1      -0.906   1.282   1.765  0.00  0.00    -0.005 A 
ATOM      6  C5  UNL d   1      -2.020   1.283   0.928  0.00  0.00     0.003 A 
ATOM      7  C6  UNL d   1      -2.090   0.390  -0.143  0.00  0.00    -0.001 A 
ENDROOT
TORSDOF 0
ENDMDL
