MODEL 1
REMARK minimizedAffinity -2.88254571
REMARK minimizedRMSD -1
REMARK  0 active torsions:
REMARK  status: ('A' for Active; 'I' for Inactive)
ROOT
ATOM      1  C   UNL d   1       3.454   0.817   0.515  0.00  0.00     0.078 C 
ATOM      2  C1  UNL d   1       1.971   0.760   0.730  0.00  0.00    -0.077 A 
ATOM      3  C2  UNL d   1       1.343   1.607   1.652  0.00  0.00    -0.001 A 
ATOM      4  C3  UNL d   1      -0.037   1.536   1.849  0.00  0.00     0.003 A 
ATOM      5  C4  UNL d   1      -0.801   0.620   1.129  0.00  0.00    -0.005 A 
ATOM      6  C5  UNL d   1      -0.185  -0.229   0.211  0.00  0.00     0.003 A 
ATOM      7  C6  UNL d   1       1.195  -0.160   0.013  0.00  0.00    -0.001 A 
ENDROOT
TORSDOF 0
ENDMDL
