MODEL 1
REMARK minimizedAffinity -3.79814911
REMARK minimizedRMSD -1
REMARK  0 active torsions:
REMARK  status: ('A' for Active; 'I' for Inactive)
ROOT
ATOM      1  C   UNL d   1       3.449   1.069   1.347  0.00  0.00     0.078 C 
ATOM      2  C1  UNL d   1       2.035   0.630   1.110  0.00  0.00    -0.077 A 
ATOM      3  C2  UNL d   1       0.976   1.185   1.838  0.00  0.00    -0.001 A 
ATOM      4  C3  UNL d   1      -0.334   0.759   1.613  0.00  0.00     0.003 A 
ATOM      5  C4  UNL d   1      -0.597  -0.225   0.662  0.00  0.00    -0.005 A 
ATOM      6  C5  UNL d   1       0.451  -0.785  -0.066  0.00  0.00     0.003 A 
ATOM      7  C6  UNL d   1       1.762  -0.360   0.157  0.00  0.00    -0.001 A 
ENDROOT
TORSDOF 0
ENDMDL
