MODEL 1
REMARK minimizedAffinity -5.02458239
REMARK minimizedRMSD -1
REMARK  0 active torsions:
REMARK  status: ('A' for Active; 'I' for Inactive)
ROOT
ATOM      1  C   UNL d   1       1.041   2.658   0.908  0.00  0.00     0.078 C 
ATOM      2  C1  UNL d   1       0.821   1.351   0.207  0.00  0.00    -0.077 A 
ATOM      3  C2  UNL d   1      -0.237   0.508   0.568  0.00  0.00    -0.001 A 
ATOM      4  C3  UNL d   1      -0.423  -0.711  -0.087  0.00  0.00     0.003 A 
ATOM      5  C4  UNL d   1       0.445  -1.098  -1.106  0.00  0.00    -0.005 A 
ATOM      6  C5  UNL d   1       1.503  -0.266  -1.470  0.00  0.00     0.003 A 
ATOM      7  C6  UNL d   1       1.691   0.952  -0.816  0.00  0.00    -0.001 A 
ENDROOT
TORSDOF 0
ENDMDL
