MODEL 1
REMARK minimizedAffinity -3.72930455
REMARK minimizedRMSD -1
REMARK  0 active torsions:
REMARK  status: ('A' for Active; 'I' for Inactive)
ROOT
ATOM      1  C2' OXE d   1      -0.941  -1.296  -0.281  0.00  0.00     0.078 C 
ATOM      2  C1' OXE d   1      -2.292  -0.584   2.074  0.00  0.00     0.078 C 
ATOM      3  C1  OXE d   1      -1.180   0.319   1.600  0.00  0.00    -0.078 A 
ATOM      4  C2  OXE d   1      -0.494  -0.062   0.473  0.00  0.00    -0.078 A 
ATOM      5  C3  OXE d   1       0.504   0.763  -0.038  0.00  0.00     0.003 A 
ATOM      6  C4  OXE d   1       0.919   1.897   0.670  0.00  0.00    -0.002 A 
ATOM      7  C5  OXE d   1       0.260   2.281   1.843  0.00  0.00    -0.002 A 
ATOM      8  C6  OXE d   1      -0.817   1.528   2.297  0.00  0.00     0.003 A 
ENDROOT
TORSDOF 0
ENDMDL
