MODEL 1
REMARK minimizedAffinity 1.26705861
REMARK minimizedRMSD -1
REMARK  0 active torsions:
REMARK  status: ('A' for Active; 'I' for Inactive)
ROOT
ATOM      1  C2' OXE d   1      -0.970   1.779   4.029  0.00  0.00     0.078 C 
ATOM      2  C1' OXE d   1      -2.615  -0.458   3.613  0.00  0.00     0.078 C 
ATOM      3  C1  OXE d   1      -1.858   0.089   2.429  0.00  0.00    -0.078 A 
ATOM      4  C2  OXE d   1      -1.092   1.212   2.631  0.00  0.00    -0.078 A 
ATOM      5  C3  OXE d   1      -0.331   1.725   1.585  0.00  0.00     0.003 A 
ATOM      6  C4  OXE d   1      -0.457   1.201   0.293  0.00  0.00    -0.002 A 
ATOM      7  C5  OXE d   1      -1.263   0.082   0.056  0.00  0.00    -0.002 A 
ATOM      8  C6  OXE d   1      -1.935  -0.510   1.119  0.00  0.00     0.003 A 
ENDROOT
TORSDOF 0
ENDMDL
