MODEL 1
REMARK minimizedAffinity -2.71011639
REMARK minimizedRMSD -1
REMARK  0 active torsions:
REMARK  status: ('A' for Active; 'I' for Inactive)
ROOT
ATOM      1  C2' OXE d   1      -0.309   1.334   4.081  0.00  0.00     0.078 C 
ATOM      2  C1' OXE d   1      -1.974   1.248   1.822  0.00  0.00     0.078 C 
ATOM      3  C1  OXE d   1      -0.604   0.626   1.711  0.00  0.00    -0.078 A 
ATOM      4  C2  OXE d   1       0.221   0.714   2.806  0.00  0.00    -0.078 A 
ATOM      5  C3  OXE d   1       1.474   0.108   2.775  0.00  0.00     0.003 A 
ATOM      6  C4  OXE d   1       1.961  -0.454   1.589  0.00  0.00    -0.002 A 
ATOM      7  C5  OXE d   1       1.152  -0.519   0.450  0.00  0.00    -0.002 A 
ATOM      8  C6  OXE d   1      -0.146  -0.023   0.507  0.00  0.00     0.003 A 
ENDROOT
TORSDOF 0
ENDMDL
