MODEL 1
REMARK minimizedAffinity -3.77800918
REMARK minimizedRMSD -1
REMARK  0 active torsions:
REMARK  status: ('A' for Active; 'I' for Inactive)
ROOT
ATOM      1  C2' OXE d   1       2.521   0.608   2.695  0.00  0.00     0.078 C 
ATOM      2  C1' OXE d   1       1.694  -0.708   0.358  0.00  0.00     0.078 C 
ATOM      3  C1  OXE d   1       0.651   0.038   1.152  0.00  0.00    -0.078 A 
ATOM      4  C2  OXE d   1       1.056   0.640   2.319  0.00  0.00    -0.078 A 
ATOM      5  C3  OXE d   1       0.146   1.387   3.061  0.00  0.00     0.003 A 
ATOM      6  C4  OXE d   1      -1.210   1.404   2.711  0.00  0.00    -0.002 A 
ATOM      7  C5  OXE d   1      -1.651   0.764   1.548  0.00  0.00    -0.002 A 
ATOM      8  C6  OXE d   1      -0.728   0.114   0.736  0.00  0.00     0.003 A 
ENDROOT
TORSDOF 0
ENDMDL
