MODEL 1
REMARK minimizedAffinity -3.60648847
REMARK minimizedRMSD -1
REMARK  0 active torsions:
REMARK  status: ('A' for Active; 'I' for Inactive)
ROOT
ATOM      1  C2' OXE d   1       2.178   1.473  -3.601  0.00  0.00     0.078 C 
ATOM      2  C1' OXE d   1       0.818   0.087  -1.574  0.00  0.00     0.078 C 
ATOM      3  C1  OXE d   1       0.305  -0.049  -2.985  0.00  0.00    -0.078 A 
ATOM      4  C2  OXE d   1       0.948   0.670  -3.964  0.00  0.00    -0.078 A 
ATOM      5  C3  OXE d   1       0.550   0.537  -5.291  0.00  0.00     0.003 A 
ATOM      6  C4  OXE d   1      -0.595  -0.200  -5.617  0.00  0.00    -0.002 A 
ATOM      7  C5  OXE d   1      -1.289  -0.908  -4.630  0.00  0.00    -0.002 A 
ATOM      8  C6  OXE d   1      -0.828  -0.877  -3.319  0.00  0.00     0.003 A 
ENDROOT
TORSDOF 0
ENDMDL
