MODEL 1
REMARK minimizedAffinity -4.01155806
REMARK minimizedRMSD -1
REMARK  0 active torsions:
REMARK  status: ('A' for Active; 'I' for Inactive)
ROOT
ATOM      1  C2' OXE d   1       2.480   0.871  -3.489  0.00  0.00     0.078 C 
ATOM      2  C1' OXE d   1       0.537  -0.130  -1.728  0.00  0.00     0.078 C 
ATOM      3  C1  OXE d   1       0.238  -0.177  -3.206  0.00  0.00    -0.078 A 
ATOM      4  C2  OXE d   1       1.175   0.358  -4.058  0.00  0.00    -0.078 A 
ATOM      5  C3  OXE d   1       0.973   0.292  -5.433  0.00  0.00     0.003 A 
ATOM      6  C4  OXE d   1      -0.241  -0.175  -5.950  0.00  0.00    -0.002 A 
ATOM      7  C5  OXE d   1      -1.225  -0.688  -5.098  0.00  0.00    -0.002 A 
ATOM      8  C6  OXE d   1      -0.984  -0.735  -3.729  0.00  0.00     0.003 A 
ENDROOT
TORSDOF 0
ENDMDL
