MODEL 1
REMARK minimizedAffinity -1.22506452
REMARK minimizedRMSD -1
REMARK  0 active torsions:
REMARK  status: ('A' for Active; 'I' for Inactive)
ROOT
ATOM      1  C2' OXE d   1      -2.104   0.698   0.610  0.00  0.00     0.078 C 
ATOM      2  C1' OXE d   1      -0.888   1.544   2.994  0.00  0.00     0.078 C 
ATOM      3  C1  OXE d   1      -0.038   0.796   1.998  0.00  0.00    -0.078 A 
ATOM      4  C2  OXE d   1      -0.653   0.345   0.855  0.00  0.00    -0.078 A 
ATOM      5  C3  OXE d   1       0.098  -0.303  -0.122  0.00  0.00     0.003 A 
ATOM      6  C4  OXE d   1       1.437  -0.634   0.117  0.00  0.00    -0.002 A 
ATOM      7  C5  OXE d   1       2.072  -0.219   1.292  0.00  0.00    -0.002 A 
ATOM      8  C6  OXE d   1       1.362   0.533   2.222  0.00  0.00     0.003 A 
ENDROOT
TORSDOF 0
ENDMDL
