MODEL 1
REMARK minimizedAffinity -4.69378471
REMARK minimizedRMSD -1
REMARK  0 active torsions:
REMARK  status: ('A' for Active; 'I' for Inactive)
ROOT
ATOM      1  C2' OXE d   1       0.359  -0.167  -1.186  0.00  0.00     0.078 C 
ATOM      2  C1' OXE d   1      -1.854  -1.458  -0.038  0.00  0.00     0.078 C 
ATOM      3  C1  OXE d   1      -1.147  -0.409   0.784  0.00  0.00    -0.078 A 
ATOM      4  C2  OXE d   1      -0.036   0.184   0.232  0.00  0.00    -0.078 A 
ATOM      5  C3  OXE d   1       0.620   1.197   0.925  0.00  0.00     0.003 A 
ATOM      6  C4  OXE d   1       0.254   1.509   2.240  0.00  0.00    -0.002 A 
ATOM      7  C5  OXE d   1      -0.849   0.888   2.836  0.00  0.00    -0.002 A 
ATOM      8  C6  OXE d   1      -1.585  -0.040   2.107  0.00  0.00     0.003 A 
ENDROOT
TORSDOF 0
ENDMDL
