MODEL 1
REMARK minimizedAffinity -1.79257131
REMARK minimizedRMSD -1
REMARK  0 active torsions:
REMARK  status: ('A' for Active; 'I' for Inactive)
ROOT
ATOM      1  C2' OXE d   1       2.445  -1.087   0.412  0.00  0.00     0.078 C 
ATOM      2  C1' OXE d   1       0.133  -0.676  -1.126  0.00  0.00     0.078 C 
ATOM      3  C1  OXE d   1       0.240   0.050   0.191  0.00  0.00    -0.078 A 
ATOM      4  C2  OXE d   1       1.353  -0.193   0.959  0.00  0.00    -0.078 A 
ATOM      5  C3  OXE d   1       1.527   0.493   2.158  0.00  0.00     0.003 A 
ATOM      6  C4  OXE d   1       0.508   1.310   2.661  0.00  0.00    -0.002 A 
ATOM      7  C5  OXE d   1      -0.652   1.541   1.913  0.00  0.00    -0.002 A 
ATOM      8  C6  OXE d   1      -0.782   0.953   0.660  0.00  0.00     0.003 A 
ENDROOT
TORSDOF 0
ENDMDL
