MODEL 1
REMARK minimizedAffinity -0.546094537
REMARK minimizedRMSD -1
REMARK  0 active torsions:
REMARK  status: ('A' for Active; 'I' for Inactive)
ROOT
ATOM      1  C2' OXE d   1      -2.115  -0.039   1.977  0.00  0.00     0.078 C 
ATOM      2  C1' OXE d   1      -0.473   1.792   3.330  0.00  0.00     0.078 C 
ATOM      3  C1  OXE d   1       0.162   0.927   2.270  0.00  0.00    -0.078 A 
ATOM      4  C2  OXE d   1      -0.639   0.001   1.646  0.00  0.00    -0.078 A 
ATOM      5  C3  OXE d   1      -0.116  -0.784   0.623  0.00  0.00     0.003 A 
ATOM      6  C4  OXE d   1       1.253  -0.747   0.330  0.00  0.00    -0.002 A 
ATOM      7  C5  OXE d   1       2.094   0.161   0.981  0.00  0.00    -0.002 A 
ATOM      8  C6  OXE d   1       1.557   1.033   1.922  0.00  0.00     0.003 A 
ENDROOT
TORSDOF 0
ENDMDL
