MODEL 1
REMARK minimizedAffinity -3.49607325
REMARK minimizedRMSD -1
REMARK  0 active torsions:
REMARK  status: ('A' for Active; 'I' for Inactive)
ROOT
ATOM      1  C2' OXE d   1       2.189   0.749  -3.352  0.00  0.00     0.078 C 
ATOM      2  C1' OXE d   1       0.380  -0.789  -1.855  0.00  0.00     0.078 C 
ATOM      3  C1  OXE d   1       0.069  -0.557  -3.312  0.00  0.00    -0.078 A 
ATOM      4  C2  OXE d   1       0.935   0.235  -4.026  0.00  0.00    -0.078 A 
ATOM      5  C3  OXE d   1       0.724   0.436  -5.387  0.00  0.00     0.003 A 
ATOM      6  C4  OXE d   1      -0.444  -0.034  -6.000  0.00  0.00    -0.002 A 
ATOM      7  C5  OXE d   1      -1.360  -0.810  -5.281  0.00  0.00    -0.002 A 
ATOM      8  C6  OXE d   1      -1.097  -1.116  -3.950  0.00  0.00     0.003 A 
ENDROOT
TORSDOF 0
ENDMDL
