MODEL 1
REMARK minimizedAffinity -1.91393113
REMARK minimizedRMSD -1
REMARK  1 active torsions:
REMARK  status: ('A' for Active; 'I' for Inactive)
REMARK    1  A    between atoms: C1_2  and  C2_3 
ROOT
ATOM      1  C2  UNL d   1       3.837  -5.297  -4.493  0.00  0.00    -0.077 A 
ATOM      2  C3  UNL d   1       3.214  -5.664  -3.292  0.00  0.00     0.002 A 
ATOM      3  C4  UNL d   1       3.979  -5.999  -2.173  0.00  0.00     0.002 A 
ATOM      4  C5  UNL d   1       5.370  -5.968  -2.243  0.00  0.00    -0.004 A 
ATOM      5  C6  UNL d   1       5.999  -5.607  -3.433  0.00  0.00     0.002 A 
ATOM      6  C7  UNL d   1       5.236  -5.272  -4.553  0.00  0.00     0.002 A 
ENDROOT
BRANCH   1   7
ATOM      7  C1  UNL d   1       3.014  -4.887  -5.686  0.00  0.00     0.055 C 
ATOM      8  C   UNL d   1       1.942  -5.920  -6.000  0.00  0.00     0.019 C 
ENDBRANCH   1   7
TORSDOF 1
ENDMDL
