MODEL 1
REMARK minimizedAffinity -2.83059597
REMARK minimizedRMSD -1
REMARK  1 active torsions:
REMARK  status: ('A' for Active; 'I' for Inactive)
REMARK    1  A    between atoms: C1_2  and  C2_3 
ROOT
ATOM      1  C2  UNL d   1       3.244  -5.658  -5.273  0.00  0.00    -0.077 A 
ATOM      2  C3  UNL d   1       3.261  -5.332  -3.909  0.00  0.00     0.002 A 
ATOM      3  C4  UNL d   1       4.456  -4.971  -3.285  0.00  0.00     0.002 A 
ATOM      4  C5  UNL d   1       5.642  -4.929  -4.016  0.00  0.00    -0.004 A 
ATOM      5  C6  UNL d   1       5.635  -5.253  -5.372  0.00  0.00     0.002 A 
ATOM      6  C7  UNL d   1       4.442  -5.616  -5.998  0.00  0.00     0.002 A 
ENDROOT
BRANCH   1   7
ATOM      7  C1  UNL d   1       1.947  -6.000  -5.960  0.00  0.00     0.055 C 
ATOM      8  C   UNL d   1       1.009  -4.802  -5.999  0.00  0.00     0.019 C 
ENDBRANCH   1   7
TORSDOF 1
ENDMDL
