MODEL 1
REMARK minimizedAffinity 0.647079647
REMARK minimizedRMSD -1
REMARK  1 active torsions:
REMARK  status: ('A' for Active; 'I' for Inactive)
REMARK    1  A    between atoms: C1_2  and  C2_3 
ROOT
ATOM      1  C2  UNL d   1      -3.325   2.605  -5.292  0.00  0.00    -0.077 A 
ATOM      2  C3  UNL d   1      -3.710   3.753  -5.999  0.00  0.00     0.002 A 
ATOM      3  C4  UNL d   1      -5.043   4.170  -5.998  0.00  0.00     0.002 A 
ATOM      4  C5  UNL d   1      -6.000   3.447  -5.290  0.00  0.00    -0.004 A 
ATOM      5  C6  UNL d   1      -5.627   2.302  -4.585  0.00  0.00     0.002 A 
ATOM      6  C7  UNL d   1      -4.296   1.884  -4.586  0.00  0.00     0.002 A 
ENDROOT
BRANCH   1   7
ATOM      7  C1  UNL d   1      -1.880   2.182  -5.252  0.00  0.00     0.055 C 
ATOM      8  C   UNL d   1      -1.150   2.819  -4.078  0.00  0.00     0.019 C 
ENDBRANCH   1   7
TORSDOF 1
ENDMDL
