MODEL 1
REMARK minimizedAffinity -0.121496171
REMARK minimizedRMSD -1
REMARK  1 active torsions:
REMARK  status: ('A' for Active; 'I' for Inactive)
REMARK    1  A    between atoms: C1_2  and  C2_3 
ROOT
ATOM      1  C2  UNL d   1      -3.840   4.699  -5.514  0.00  0.00    -0.077 A 
ATOM      2  C3  UNL d   1      -4.405   3.477  -5.901  0.00  0.00     0.002 A 
ATOM      3  C4  UNL d   1      -3.890   2.274  -5.414  0.00  0.00     0.002 A 
ATOM      4  C5  UNL d   1      -2.810   2.283  -4.534  0.00  0.00    -0.004 A 
ATOM      5  C6  UNL d   1      -2.239   3.493  -4.144  0.00  0.00     0.002 A 
ATOM      6  C7  UNL d   1      -2.752   4.696  -4.631  0.00  0.00     0.002 A 
ENDROOT
BRANCH   1   7
ATOM      7  C1  UNL d   1      -4.425   6.000  -6.000  0.00  0.00     0.055 C 
ATOM      8  C   UNL d   1      -5.946   5.956  -6.000  0.00  0.00     0.019 C 
ENDBRANCH   1   7
TORSDOF 1
ENDMDL
