MODEL 1
REMARK minimizedAffinity -2.3823421
REMARK minimizedRMSD -1
REMARK  1 active torsions:
REMARK  status: ('A' for Active; 'I' for Inactive)
REMARK    1  A    between atoms: C1_2  and  C2_3 
ROOT
ATOM      1  C2  UNL d   1      -3.223   3.181  -5.714  0.00  0.00    -0.077 A 
ATOM      2  C3  UNL d   1      -4.092   2.089  -5.585  0.00  0.00     0.002 A 
ATOM      3  C4  UNL d   1      -5.474   2.272  -5.662  0.00  0.00     0.002 A 
ATOM      4  C5  UNL d   1      -5.999   3.546  -5.872  0.00  0.00    -0.004 A 
ATOM      5  C6  UNL d   1      -5.143   4.639  -6.000  0.00  0.00     0.002 A 
ATOM      6  C7  UNL d   1      -3.761   4.458  -5.922  0.00  0.00     0.002 A 
ENDROOT
BRANCH   1   7
ATOM      7  C1  UNL d   1      -1.731   2.978  -5.680  0.00  0.00     0.055 C 
ATOM      8  C   UNL d   1      -1.154   3.336  -4.318  0.00  0.00     0.019 C 
ENDBRANCH   1   7
TORSDOF 1
ENDMDL
