MODEL 1
REMARK minimizedAffinity 2.70291543
REMARK minimizedRMSD -1
REMARK  1 active torsions:
REMARK  status: ('A' for Active; 'I' for Inactive)
REMARK    1  A    between atoms: C1_2  and  C2_3 
ROOT
ATOM      1  C2  UNL d   1       2.641   4.262   0.070  0.00  0.00    -0.077 A 
ATOM      2  C3  UNL d   1       3.816   3.582   0.417  0.00  0.00     0.002 A 
ATOM      3  C4  UNL d   1       3.771   2.236   0.784  0.00  0.00     0.002 A 
ATOM      4  C5  UNL d   1       2.554   1.558   0.804  0.00  0.00    -0.004 A 
ATOM      5  C6  UNL d   1       1.379   2.226   0.463  0.00  0.00     0.002 A 
ATOM      6  C7  UNL d   1       1.422   3.572   0.097  0.00  0.00     0.002 A 
ENDROOT
BRANCH   1   7
ATOM      7  C1  UNL d   1       2.694   5.701  -0.373  0.00  0.00     0.055 C 
ATOM      8  C   UNL d   1       3.961   5.990  -1.165  0.00  0.00     0.019 C 
ENDBRANCH   1   7
TORSDOF 1
ENDMDL
