MODEL 1
REMARK minimizedAffinity 0.0989748016
REMARK minimizedRMSD -1
REMARK  1 active torsions:
REMARK  status: ('A' for Active; 'I' for Inactive)
REMARK    1  A    between atoms: C1_2  and  C2_3 
ROOT
ATOM      1  C2  UNL d   1      -3.306   3.356  -5.327  0.00  0.00    -0.077 A 
ATOM      2  C3  UNL d   1      -4.291   4.092  -6.000  0.00  0.00     0.002 A 
ATOM      3  C4  UNL d   1      -5.632   3.709  -5.928  0.00  0.00     0.002 A 
ATOM      4  C5  UNL d   1      -5.999   2.591  -5.181  0.00  0.00    -0.004 A 
ATOM      5  C6  UNL d   1      -5.026   1.852  -4.510  0.00  0.00     0.002 A 
ATOM      6  C7  UNL d   1      -3.686   2.233  -4.582  0.00  0.00     0.002 A 
ENDROOT
BRANCH   1   7
ATOM      7  C1  UNL d   1      -1.866   3.797  -5.363  0.00  0.00     0.055 C 
ATOM      8  C   UNL d   1      -1.130   3.390  -4.094  0.00  0.00     0.019 C 
ENDBRANCH   1   7
TORSDOF 1
ENDMDL
