MODEL 1
REMARK minimizedAffinity -3.22498536
REMARK minimizedRMSD -1
REMARK  1 active torsions:
REMARK  status: ('A' for Active; 'I' for Inactive)
REMARK    1  A    between atoms: C1_2  and  C2_3 
ROOT
ATOM      1  C2  UNL d   1       3.331  -5.913  -4.012  0.00  0.00    -0.077 A 
ATOM      2  C3  UNL d   1       3.635  -5.976  -2.645  0.00  0.00     0.002 A 
ATOM      3  C4  UNL d   1       4.957  -5.867  -2.209  0.00  0.00     0.002 A 
ATOM      4  C5  UNL d   1       5.985  -5.691  -3.133  0.00  0.00    -0.004 A 
ATOM      5  C6  UNL d   1       5.693  -5.629  -4.495  0.00  0.00     0.002 A 
ATOM      6  C7  UNL d   1       4.372  -5.738  -4.932  0.00  0.00     0.002 A 
ENDROOT
BRANCH   1   7
ATOM      7  C1  UNL d   1       1.901  -5.980  -4.480  0.00  0.00     0.055 C 
ATOM      8  C   UNL d   1       1.816  -5.996  -5.999  0.00  0.00     0.019 C 
ENDBRANCH   1   7
TORSDOF 1
ENDMDL
