MODEL 1
REMARK minimizedAffinity -1.13490129
REMARK minimizedRMSD -1
REMARK  1 active torsions:
REMARK  status: ('A' for Active; 'I' for Inactive)
REMARK    1  A    between atoms: C1_2  and  C2_3 
ROOT
ATOM      1  C2  UNL d   1       3.805  -5.765  -4.523  0.00  0.00    -0.077 A 
ATOM      2  C3  UNL d   1       2.457  -5.464  -4.281  0.00  0.00     0.002 A 
ATOM      3  C4  UNL d   1       2.010  -5.220  -2.981  0.00  0.00     0.002 A 
ATOM      4  C5  UNL d   1       2.905  -5.270  -1.914  0.00  0.00    -0.004 A 
ATOM      5  C6  UNL d   1       4.247  -5.571  -2.144  0.00  0.00     0.002 A 
ATOM      6  C7  UNL d   1       4.695  -5.816  -3.443  0.00  0.00     0.002 A 
ENDROOT
BRANCH   1   7
ATOM      7  C1  UNL d   1       4.298  -5.979  -5.930  0.00  0.00     0.055 C 
ATOM      8  C   UNL d   1       5.819  -5.992  -5.987  0.00  0.00     0.019 C 
ENDBRANCH   1   7
TORSDOF 1
ENDMDL
