MODEL 1
REMARK minimizedAffinity -3.28691888
REMARK minimizedRMSD -1
REMARK  1 active torsions:
REMARK  status: ('A' for Active; 'I' for Inactive)
REMARK    1  A    between atoms: C1_2  and  C2_3 
ROOT
ATOM      1  C2  UNL d   1      -1.465   2.381  -5.462  0.00  0.00    -0.077 A 
ATOM      2  C3  UNL d   1      -1.261   1.345  -4.541  0.00  0.00     0.002 A 
ATOM      3  C4  UNL d   1       0.033   0.983  -4.160  0.00  0.00     0.002 A 
ATOM      4  C5  UNL d   1       1.131   1.656  -4.692  0.00  0.00    -0.004 A 
ATOM      5  C6  UNL d   1       0.938   2.687  -5.611  0.00  0.00     0.002 A 
ATOM      6  C7  UNL d   1      -0.354   3.049  -5.993  0.00  0.00     0.002 A 
ENDROOT
BRANCH   1   7
ATOM      7  C1  UNL d   1      -2.862   2.806  -5.836  0.00  0.00     0.055 C 
ATOM      8  C   UNL d   1      -3.901   1.848  -5.272  0.00  0.00     0.019 C 
ENDBRANCH   1   7
TORSDOF 1
ENDMDL
