MODEL 1
REMARK minimizedAffinity 8.7948103
REMARK minimizedRMSD -1
REMARK  0 active torsions:
REMARK  status: ('A' for Active; 'I' for Inactive)
ROOT
ATOM      1  C   UNL d   1      -0.411   1.969   2.707  0.00  0.00     0.124 A 
ATOM      2  C1  UNL d   1       0.086   0.760   2.240  0.00  0.00     0.062 A 
ATOM      3  C2  UNL d   1      -0.716  -0.075   1.468  0.00  0.00     0.162 A 
ATOM      4  C3  UNL d   1      -2.024   0.296   1.157  0.00  0.00    -0.034 A 
ATOM      5  C4  UNL d   1      -2.517   1.513   1.630  0.00  0.00     0.162 A 
ATOM      6  C5  UNL d   1      -1.712   2.345   2.402  0.00  0.00     0.062 A 
ATOM      7  F   UNL d   1      -2.194   3.512   2.852  0.00  0.00    -0.097 F 
ATOM      8  F1  UNL d   1      -3.770   1.901   1.350  0.00  0.00    -0.096 F 
ATOM      9  I   UNL d   1      -3.226  -0.950   0.002  0.00  0.00    -0.060 I 
ATOM     10  F2  UNL d   1      -0.209  -1.237   1.030  0.00  0.00    -0.096 F 
ATOM     11  F3  UNL d   1       1.342   0.395   2.535  0.00  0.00    -0.097 F 
ATOM     12  F4  UNL d   1       0.363   2.771   3.451  0.00  0.00    -0.092 F 
ENDROOT
TORSDOF 0
ENDMDL
