MODEL 1
REMARK minimizedAffinity 16.1364193
REMARK minimizedRMSD -1
REMARK  0 active torsions:
REMARK  status: ('A' for Active; 'I' for Inactive)
ROOT
ATOM      1  C   UNL d   1       3.981  -1.927  -3.066  0.00  0.00     0.124 A 
ATOM      2  C1  UNL d   1       2.827  -1.778  -3.822  0.00  0.00     0.062 A 
ATOM      3  C2  UNL d   1       2.574  -0.580  -4.484  0.00  0.00     0.162 A 
ATOM      4  C3  UNL d   1       3.478   0.479  -4.393  0.00  0.00    -0.034 A 
ATOM      5  C4  UNL d   1       4.636   0.322  -3.630  0.00  0.00     0.162 A 
ATOM      6  C5  UNL d   1       4.884  -0.878  -2.970  0.00  0.00     0.062 A 
ATOM      7  F   UNL d   1       6.000  -1.020  -2.240  0.00  0.00    -0.097 F 
ATOM      8  F1  UNL d   1       5.526   1.319  -3.521  0.00  0.00    -0.096 F 
ATOM      9  I   UNL d   1       3.103   2.272  -5.382  0.00  0.00    -0.060 I 
ATOM     10  F2  UNL d   1       1.451  -0.464  -5.208  0.00  0.00    -0.096 F 
ATOM     11  F3  UNL d   1       1.953  -2.790  -3.915  0.00  0.00    -0.097 F 
ATOM     12  F4  UNL d   1       4.222  -3.080  -2.429  0.00  0.00    -0.092 F 
ENDROOT
TORSDOF 0
ENDMDL
