MODEL 1
REMARK minimizedAffinity 10.0433969
REMARK minimizedRMSD -1
REMARK  0 active torsions:
REMARK  status: ('A' for Active; 'I' for Inactive)
ROOT
ATOM      1  C   UNL d   1      -5.674   1.589   2.385  0.00  0.00     0.124 A 
ATOM      2  C1  UNL d   1      -5.780   1.174   3.706  0.00  0.00     0.062 A 
ATOM      3  C2  UNL d   1      -5.825   2.112   4.733  0.00  0.00     0.162 A 
ATOM      4  C3  UNL d   1      -5.765   3.475   4.444  0.00  0.00    -0.034 A 
ATOM      5  C4  UNL d   1      -5.657   3.885   3.114  0.00  0.00     0.162 A 
ATOM      6  C5  UNL d   1      -5.613   2.944   2.091  0.00  0.00     0.062 A 
ATOM      7  F   UNL d   1      -5.510   3.347   0.816  0.00  0.00    -0.097 F 
ATOM      8  F1  UNL d   1      -5.598   5.188   2.802  0.00  0.00    -0.096 F 
ATOM      9  I   UNL d   1      -5.832   4.881   5.978  0.00  0.00    -0.060 I 
ATOM     10  F2  UNL d   1      -5.928   1.682   5.999  0.00  0.00    -0.096 F 
ATOM     11  F3  UNL d   1      -5.838  -0.135   3.993  0.00  0.00    -0.097 F 
ATOM     12  F4  UNL d   1      -5.629   0.684   1.399  0.00  0.00    -0.092 F 
ENDROOT
TORSDOF 0
ENDMDL
