MODEL 1
REMARK minimizedAffinity 10.2649593
REMARK minimizedRMSD -1
REMARK  0 active torsions:
REMARK  status: ('A' for Active; 'I' for Inactive)
ROOT
ATOM      1  C   UNL d   1       1.780   0.534   0.671  0.00  0.00     0.124 A 
ATOM      2  C1  UNL d   1       2.894   1.309   0.379  0.00  0.00     0.062 A 
ATOM      3  C2  UNL d   1       4.093   1.092   1.050  0.00  0.00     0.162 A 
ATOM      4  C3  UNL d   1       4.186   0.095   2.021  0.00  0.00    -0.034 A 
ATOM      5  C4  UNL d   1       3.061  -0.680   2.310  0.00  0.00     0.162 A 
ATOM      6  C5  UNL d   1       1.865  -0.459   1.636  0.00  0.00     0.062 A 
ATOM      7  F   UNL d   1       0.790  -1.209   1.919  0.00  0.00    -0.097 F 
ATOM      8  F1  UNL d   1       3.115  -1.648   3.238  0.00  0.00    -0.096 F 
ATOM      9  I   UNL d   1       5.978  -0.233   3.028  0.00  0.00    -0.060 I 
ATOM     10  F2  UNL d   1       5.153   1.856   0.748  0.00  0.00    -0.096 F 
ATOM     11  F3  UNL d   1       2.814   2.270  -0.553  0.00  0.00    -0.097 F 
ATOM     12  F4  UNL d   1       0.627   0.746   0.023  0.00  0.00    -0.092 F 
ENDROOT
TORSDOF 0
ENDMDL
