MODEL 1
REMARK minimizedAffinity 24.9189339
REMARK minimizedRMSD -1
REMARK  0 active torsions:
REMARK  status: ('A' for Active; 'I' for Inactive)
ROOT
ATOM      1  C   UNL d   1       1.694   0.322   1.059  0.00  0.00     0.124 A 
ATOM      2  C1  UNL d   1       1.979  -0.668   1.989  0.00  0.00     0.062 A 
ATOM      3  C2  UNL d   1       3.208  -0.682   2.643  0.00  0.00     0.162 A 
ATOM      4  C3  UNL d   1       4.161   0.299   2.369  0.00  0.00    -0.034 A 
ATOM      5  C4  UNL d   1       3.868   1.290   1.431  0.00  0.00     0.162 A 
ATOM      6  C5  UNL d   1       2.638   1.300   0.781  0.00  0.00     0.062 A 
ATOM      7  F   UNL d   1       2.365   2.257  -0.117  0.00  0.00    -0.097 F 
ATOM      8  F1  UNL d   1       4.762   2.248   1.144  0.00  0.00    -0.096 F 
ATOM      9  I   UNL d   1       6.000   0.281   3.344  0.00  0.00    -0.060 I 
ATOM     10  F2  UNL d   1       3.456  -1.651   3.537  0.00  0.00    -0.096 F 
ATOM     11  F3  UNL d   1       1.068  -1.615   2.259  0.00  0.00    -0.097 F 
ATOM     12  F4  UNL d   1       0.511   0.332   0.431  0.00  0.00    -0.092 F 
ENDROOT
TORSDOF 0
ENDMDL
