MODEL 1
REMARK minimizedAffinity 27.3335667
REMARK minimizedRMSD -1
REMARK  0 active torsions:
REMARK  status: ('A' for Active; 'I' for Inactive)
ROOT
ATOM      1  C   UNL d   1      -2.708  -3.067   3.389  0.00  0.00     0.124 A 
ATOM      2  C1  UNL d   1      -3.425  -4.135   3.908  0.00  0.00     0.062 A 
ATOM      3  C2  UNL d   1      -4.144  -4.974   3.061  0.00  0.00     0.162 A 
ATOM      4  C3  UNL d   1      -4.148  -4.748   1.685  0.00  0.00    -0.034 A 
ATOM      5  C4  UNL d   1      -3.424  -3.670   1.170  0.00  0.00     0.162 A 
ATOM      6  C5  UNL d   1      -2.708  -2.835   2.021  0.00  0.00     0.062 A 
ATOM      7  F   UNL d   1      -2.015  -1.803   1.517  0.00  0.00    -0.097 F 
ATOM      8  F1  UNL d   1      -3.406  -3.424  -0.149  0.00  0.00    -0.096 F 
ATOM      9  I   UNL d   1      -5.221  -5.999   0.414  0.00  0.00    -0.060 I 
ATOM     10  F2  UNL d   1      -4.828  -5.999   3.590  0.00  0.00    -0.096 F 
ATOM     11  F3  UNL d   1      -3.427  -4.361   5.230  0.00  0.00    -0.097 F 
ATOM     12  F4  UNL d   1      -2.018  -2.261   4.207  0.00  0.00    -0.092 F 
ENDROOT
TORSDOF 0
ENDMDL
