MODEL 1
REMARK minimizedAffinity 12.2741747
REMARK minimizedRMSD -1
REMARK  0 active torsions:
REMARK  status: ('A' for Active; 'I' for Inactive)
ROOT
ATOM      1  C   UNL d   1      -2.521   1.707   2.890  0.00  0.00     0.124 A 
ATOM      2  C1  UNL d   1      -1.278   1.952   3.459  0.00  0.00     0.062 A 
ATOM      3  C2  UNL d   1      -0.116   1.588   2.785  0.00  0.00     0.162 A 
ATOM      4  C3  UNL d   1      -0.190   0.977   1.534  0.00  0.00    -0.034 A 
ATOM      5  C4  UNL d   1      -1.443   0.733   0.969  0.00  0.00     0.162 A 
ATOM      6  C5  UNL d   1      -2.602   1.098   1.646  0.00  0.00     0.062 A 
ATOM      7  F   UNL d   1      -3.801   0.861   1.095  0.00  0.00    -0.097 F 
ATOM      8  F1  UNL d   1      -1.551   0.147  -0.233  0.00  0.00    -0.096 F 
ATOM      9  I   UNL d   1       1.545   0.432   0.523  0.00  0.00    -0.060 I 
ATOM     10  F2  UNL d   1       1.071   1.837   3.359  0.00  0.00    -0.096 F 
ATOM     11  F3  UNL d   1      -1.197   2.539   4.662  0.00  0.00    -0.097 F 
ATOM     12  F4  UNL d   1      -3.637   2.057   3.542  0.00  0.00    -0.092 F 
ENDROOT
TORSDOF 0
ENDMDL
