MODEL 1
REMARK minimizedAffinity 1.68134928
REMARK minimizedRMSD -1
REMARK  0 active torsions:
REMARK  status: ('A' for Active; 'I' for Inactive)
ROOT
ATOM      1  C   UNL d   1      -0.906   0.811   1.849  0.00  0.00     0.124 A 
ATOM      2  C1  UNL d   1      -1.875   0.026   1.241  0.00  0.00     0.062 A 
ATOM      3  C2  UNL d   1      -3.222   0.229   1.527  0.00  0.00     0.162 A 
ATOM      4  C3  UNL d   1      -3.608   1.223   2.427  0.00  0.00    -0.034 A 
ATOM      5  C4  UNL d   1      -2.627   2.008   3.035  0.00  0.00     0.162 A 
ATOM      6  C5  UNL d   1      -1.282   1.801   2.745  0.00  0.00     0.062 A 
ATOM      7  F   UNL d   1      -0.347   2.560   3.334  0.00  0.00    -0.097 F 
ATOM      8  F1  UNL d   1      -2.963   2.973   3.905  0.00  0.00    -0.096 F 
ATOM      9  I   UNL d   1      -5.620   1.531   2.858  0.00  0.00    -0.060 I 
ATOM     10  F2  UNL d   1      -4.137  -0.544   0.925  0.00  0.00    -0.096 F 
ATOM     11  F3  UNL d   1      -1.514  -0.932   0.375  0.00  0.00    -0.097 F 
ATOM     12  F4  UNL d   1       0.389   0.612   1.572  0.00  0.00    -0.092 F 
ENDROOT
TORSDOF 0
ENDMDL
