MODEL 1
REMARK minimizedAffinity 4.98768377
REMARK minimizedRMSD -1
REMARK  0 active torsions:
REMARK  status: ('A' for Active; 'I' for Inactive)
ROOT
ATOM      1  C   UNL d   1      -0.493   1.596   2.774  0.00  0.00     0.124 A 
ATOM      2  C1  UNL d   1      -1.848   1.791   2.546  0.00  0.00     0.062 A 
ATOM      3  C2  UNL d   1      -2.528   0.986   1.637  0.00  0.00     0.162 A 
ATOM      4  C3  UNL d   1      -1.854  -0.023   0.950  0.00  0.00    -0.034 A 
ATOM      5  C4  UNL d   1      -0.491  -0.213   1.183  0.00  0.00     0.162 A 
ATOM      6  C5  UNL d   1       0.184   0.594   2.093  0.00  0.00     0.062 A 
ATOM      7  F   UNL d   1       1.494   0.404   2.311  0.00  0.00    -0.097 F 
ATOM      8  F1  UNL d   1       0.187  -1.174   0.539  0.00  0.00    -0.096 F 
ATOM      9  I   UNL d   1      -2.868  -1.229  -0.410  0.00  0.00    -0.060 I 
ATOM     10  F2  UNL d   1      -3.837   1.197   1.437  0.00  0.00    -0.096 F 
ATOM     11  F3  UNL d   1      -2.504   2.759   3.203  0.00  0.00    -0.097 F 
ATOM     12  F4  UNL d   1       0.160   2.373   3.648  0.00  0.00    -0.092 F 
ENDROOT
TORSDOF 0
ENDMDL
