MODEL 1
REMARK minimizedAffinity 16.5425911
REMARK minimizedRMSD -1
REMARK  0 active torsions:
REMARK  status: ('A' for Active; 'I' for Inactive)
ROOT
ATOM      1  C   UNL d   1      -0.440   1.763   2.537  0.00  0.00     0.124 A 
ATOM      2  C1  UNL d   1       0.162   0.735   1.826  0.00  0.00     0.062 A 
ATOM      3  C2  UNL d   1      -0.597  -0.071   0.981  0.00  0.00     0.162 A 
ATOM      4  C3  UNL d   1      -1.967   0.150   0.842  0.00  0.00    -0.034 A 
ATOM      5  C4  UNL d   1      -2.566   1.186   1.561  0.00  0.00     0.162 A 
ATOM      6  C5  UNL d   1      -1.803   1.988   2.404  0.00  0.00     0.062 A 
ATOM      7  F   UNL d   1      -2.387   2.981   3.090  0.00  0.00    -0.097 F 
ATOM      8  F1  UNL d   1      -3.881   1.426   1.451  0.00  0.00    -0.096 F 
ATOM      9  I   UNL d   1      -3.105  -1.052  -0.420  0.00  0.00    -0.060 I 
ATOM     10  F2  UNL d   1       0.012  -1.057   0.306  0.00  0.00    -0.096 F 
ATOM     11  F3  UNL d   1       1.479   0.515   1.953  0.00  0.00    -0.097 F 
ATOM     12  F4  UNL d   1       0.292   2.536   3.350  0.00  0.00    -0.092 F 
ENDROOT
TORSDOF 0
ENDMDL
