MODEL 1
REMARK minimizedAffinity 13.4278831
REMARK minimizedRMSD -1
REMARK  0 active torsions:
REMARK  status: ('A' for Active; 'I' for Inactive)
ROOT
ATOM      1  C   UNL d   1      -0.737   1.766   2.773  0.00  0.00     0.124 A 
ATOM      2  C1  UNL d   1      -2.084   2.025   2.560  0.00  0.00     0.062 A 
ATOM      3  C2  UNL d   1      -2.793   1.303   1.605  0.00  0.00     0.162 A 
ATOM      4  C3  UNL d   1      -2.158   0.313   0.856  0.00  0.00    -0.034 A 
ATOM      5  C4  UNL d   1      -0.802   0.058   1.075  0.00  0.00     0.162 A 
ATOM      6  C5  UNL d   1      -0.098   0.783   2.030  0.00  0.00     0.062 A 
ATOM      7  F   UNL d   1       1.204   0.531   2.234  0.00  0.00    -0.097 F 
ATOM      8  F1  UNL d   1      -0.160  -0.887   0.372  0.00  0.00    -0.096 F 
ATOM      9  I   UNL d   1      -3.215  -0.770  -0.573  0.00  0.00    -0.060 I 
ATOM     10  F2  UNL d   1      -4.094   1.574   1.421  0.00  0.00    -0.096 F 
ATOM     11  F3  UNL d   1      -2.703   2.975   3.275  0.00  0.00    -0.097 F 
ATOM     12  F4  UNL d   1      -0.056   2.463   3.691  0.00  0.00    -0.092 F 
ENDROOT
TORSDOF 0
ENDMDL
