MODEL 1
REMARK minimizedAffinity 18.1741161
REMARK minimizedRMSD -1
REMARK  0 active torsions:
REMARK  status: ('A' for Active; 'I' for Inactive)
ROOT
ATOM      1  C   UNL d   1      -0.660   1.855   2.753  0.00  0.00     0.124 A 
ATOM      2  C1  UNL d   1       0.057   0.900   2.046  0.00  0.00     0.062 A 
ATOM      3  C2  UNL d   1      -0.603   0.016   1.197  0.00  0.00     0.162 A 
ATOM      4  C3  UNL d   1      -1.989   0.085   1.048  0.00  0.00    -0.034 A 
ATOM      5  C4  UNL d   1      -2.702   1.049   1.763  0.00  0.00     0.162 A 
ATOM      6  C5  UNL d   1      -2.038   1.929   2.611  0.00  0.00     0.062 A 
ATOM      7  F   UNL d   1      -2.732   2.852   3.293  0.00  0.00    -0.097 F 
ATOM      8  F1  UNL d   1      -4.035   1.143   1.644  0.00  0.00    -0.096 F 
ATOM      9  I   UNL d   1      -2.979  -1.233  -0.221  0.00  0.00    -0.060 I 
ATOM     10  F2  UNL d   1       0.114  -0.897   0.526  0.00  0.00    -0.096 F 
ATOM     11  F3  UNL d   1       1.389   0.826   2.182  0.00  0.00    -0.097 F 
ATOM     12  F4  UNL d   1      -0.022   2.703   3.570  0.00  0.00    -0.092 F 
ENDROOT
TORSDOF 0
ENDMDL
