MODEL 1
REMARK minimizedAffinity 11.1968479
REMARK minimizedRMSD -1
REMARK  0 active torsions:
REMARK  status: ('A' for Active; 'I' for Inactive)
ROOT
ATOM      1  C   UNL d   1      -1.687   1.548   2.441  0.00  0.00     0.124 A 
ATOM      2  C1  UNL d   1      -0.464   1.958   2.953  0.00  0.00     0.062 A 
ATOM      3  C2  UNL d   1       0.721   1.489   2.394  0.00  0.00     0.162 A 
ATOM      4  C3  UNL d   1       0.689   0.606   1.314  0.00  0.00    -0.034 A 
ATOM      5  C4  UNL d   1      -0.545   0.198   0.805  0.00  0.00     0.162 A 
ATOM      6  C5  UNL d   1      -1.727   0.669   1.368  0.00  0.00     0.062 A 
ATOM      7  F   UNL d   1      -2.908   0.273   0.872  0.00  0.00    -0.097 F 
ATOM      8  F1  UNL d   1      -0.613  -0.650  -0.231  0.00  0.00    -0.096 F 
ATOM      9  I   UNL d   1       2.459  -0.097   0.475  0.00  0.00    -0.060 I 
ATOM     10  F2  UNL d   1       1.889   1.902   2.909  0.00  0.00    -0.096 F 
ATOM     11  F3  UNL d   1      -0.423   2.807   3.990  0.00  0.00    -0.097 F 
ATOM     12  F4  UNL d   1      -2.826   2.000   2.982  0.00  0.00    -0.092 F 
ENDROOT
TORSDOF 0
ENDMDL
