MODEL 1
REMARK minimizedAffinity 15.5824175
REMARK minimizedRMSD -1
REMARK  0 active torsions:
REMARK  status: ('A' for Active; 'I' for Inactive)
ROOT
ATOM      1  C   UNL d   1       2.377   1.343  -5.398  0.00  0.00     0.124 A 
ATOM      2  C1  UNL d   1       3.702   0.934  -5.349  0.00  0.00     0.062 A 
ATOM      3  C2  UNL d   1       4.727   1.861  -5.520  0.00  0.00     0.162 A 
ATOM      4  C3  UNL d   1       4.430   3.206  -5.740  0.00  0.00    -0.034 A 
ATOM      5  C4  UNL d   1       3.094   3.609  -5.789  0.00  0.00     0.162 A 
ATOM      6  C5  UNL d   1       2.074   2.679  -5.618  0.00  0.00     0.062 A 
ATOM      7  F   UNL d   1       0.793   3.075  -5.665  0.00  0.00    -0.097 F 
ATOM      8  F1  UNL d   1       2.773   4.894  -5.999  0.00  0.00    -0.096 F 
ATOM      9  I   UNL d   1       5.959   4.595  -5.996  0.00  0.00    -0.060 I 
ATOM     10  F2  UNL d   1       5.999   1.439  -5.468  0.00  0.00    -0.096 F 
ATOM     11  F3  UNL d   1       3.998  -0.356  -5.138  0.00  0.00    -0.097 F 
ATOM     12  F4  UNL d   1       1.393   0.449  -5.234  0.00  0.00    -0.092 F 
ENDROOT
TORSDOF 0
ENDMDL
