MODEL 1
REMARK minimizedAffinity 19.0800762
REMARK minimizedRMSD -1
REMARK  0 active torsions:
REMARK  status: ('A' for Active; 'I' for Inactive)
ROOT
ATOM      1  C   UNL d   1      -1.608   0.025   1.123  0.00  0.00     0.124 A 
ATOM      2  C1  UNL d   1      -1.720   1.120   1.969  0.00  0.00     0.062 A 
ATOM      3  C2  UNL d   1      -2.972   1.542   2.406  0.00  0.00     0.162 A 
ATOM      4  C3  UNL d   1      -4.124   0.868   1.999  0.00  0.00    -0.034 A 
ATOM      5  C4  UNL d   1      -4.004  -0.232   1.148  0.00  0.00     0.162 A 
ATOM      6  C5  UNL d   1      -2.750  -0.650   0.714  0.00  0.00     0.062 A 
ATOM      7  F   UNL d   1      -2.644  -1.708  -0.103  0.00  0.00    -0.097 F 
ATOM      8  F1  UNL d   1      -5.090  -0.902   0.737  0.00  0.00    -0.096 F 
ATOM      9  I   UNL d   1      -5.998   1.496   2.651  0.00  0.00    -0.060 I 
ATOM     10  F2  UNL d   1      -3.050   2.603   3.223  0.00  0.00    -0.096 F 
ATOM     11  F3  UNL d   1      -0.619   1.774   2.365  0.00  0.00    -0.097 F 
ATOM     12  F4  UNL d   1      -0.402  -0.378   0.703  0.00  0.00    -0.092 F 
ENDROOT
TORSDOF 0
ENDMDL
