MODEL 1
REMARK minimizedAffinity 8.33839798
REMARK minimizedRMSD -1
REMARK  0 active torsions:
REMARK  status: ('A' for Active; 'I' for Inactive)
ROOT
ATOM      1  C   UNL d   1      -0.157   1.326   2.332  0.00  0.00     0.124 A 
ATOM      2  C1  UNL d   1      -0.926   1.982   3.284  0.00  0.00     0.062 A 
ATOM      3  C2  UNL d   1      -2.307   2.064   3.133  0.00  0.00     0.162 A 
ATOM      4  C3  UNL d   1      -2.929   1.487   2.026  0.00  0.00    -0.034 A 
ATOM      5  C4  UNL d   1      -2.150   0.829   1.073  0.00  0.00     0.162 A 
ATOM      6  C5  UNL d   1      -0.770   0.750   1.228  0.00  0.00     0.062 A 
ATOM      7  F   UNL d   1      -0.029   0.116   0.308  0.00  0.00    -0.097 F 
ATOM      8  F1  UNL d   1      -2.716   0.263  -0.003  0.00  0.00    -0.096 F 
ATOM      9  I   UNL d   1      -4.994   1.606   1.797  0.00  0.00    -0.060 I 
ATOM     10  F2  UNL d   1      -3.025   2.704   4.068  0.00  0.00    -0.096 F 
ATOM     11  F3  UNL d   1      -0.336   2.540   4.351  0.00  0.00    -0.097 F 
ATOM     12  F4  UNL d   1       1.172   1.250   2.480  0.00  0.00    -0.092 F 
ENDROOT
TORSDOF 0
ENDMDL
