MODEL 1
REMARK minimizedAffinity 14.2833719
REMARK minimizedRMSD -1
REMARK  0 active torsions:
REMARK  status: ('A' for Active; 'I' for Inactive)
ROOT
ATOM      1  C   UNL d   1      -0.559   0.786   1.474  0.00  0.00     0.124 A 
ATOM      2  C1  UNL d   1      -1.483  -0.043   0.853  0.00  0.00     0.062 A 
ATOM      3  C2  UNL d   1      -2.846   0.176   1.025  0.00  0.00     0.162 A 
ATOM      4  C3  UNL d   1      -3.295   1.231   1.820  0.00  0.00    -0.034 A 
ATOM      5  C4  UNL d   1      -2.360   2.060   2.442  0.00  0.00     0.162 A 
ATOM      6  C5  UNL d   1      -0.998   1.836   2.268  0.00  0.00     0.062 A 
ATOM      7  F   UNL d   1      -0.107   2.638   2.869  0.00  0.00    -0.097 F 
ATOM      8  F1  UNL d   1      -2.756   3.082   3.214  0.00  0.00    -0.096 F 
ATOM      9  I   UNL d   1      -5.333   1.562   2.079  0.00  0.00    -0.060 I 
ATOM     10  F2  UNL d   1      -3.717  -0.640   0.413  0.00  0.00    -0.096 F 
ATOM     11  F3  UNL d   1      -1.061  -1.059   0.087  0.00  0.00    -0.097 F 
ATOM     12  F4  UNL d   1       0.753   0.572   1.308  0.00  0.00    -0.092 F 
ENDROOT
TORSDOF 0
ENDMDL
