MODEL 1
REMARK minimizedAffinity 7.48641443
REMARK minimizedRMSD -1
REMARK  0 active torsions:
REMARK  status: ('A' for Active; 'I' for Inactive)
ROOT
ATOM      1  C   UNL d   1      -0.700   1.801   2.948  0.00  0.00     0.124 A 
ATOM      2  C1  UNL d   1      -2.015   2.133   2.652  0.00  0.00     0.062 A 
ATOM      3  C2  UNL d   1      -2.702   1.448   1.653  0.00  0.00     0.162 A 
ATOM      4  C3  UNL d   1      -2.074   0.424   0.944  0.00  0.00    -0.034 A 
ATOM      5  C4  UNL d   1      -0.751   0.097   1.246  0.00  0.00     0.162 A 
ATOM      6  C5  UNL d   1      -0.070   0.785   2.245  0.00  0.00     0.062 A 
ATOM      7  F   UNL d   1       1.201   0.463   2.530  0.00  0.00    -0.097 F 
ATOM      8  F1  UNL d   1      -0.118  -0.882   0.583  0.00  0.00    -0.096 F 
ATOM      9  I   UNL d   1      -3.097  -0.602  -0.551  0.00  0.00    -0.060 I 
ATOM     10  F2  UNL d   1      -3.971   1.789   1.389  0.00  0.00    -0.096 F 
ATOM     11  F3  UNL d   1      -2.626   3.116   3.329  0.00  0.00    -0.097 F 
ATOM     12  F4  UNL d   1      -0.042   2.462   3.909  0.00  0.00    -0.092 F 
ENDROOT
TORSDOF 0
ENDMDL
