MODEL 1
REMARK minimizedAffinity -1.9602778
REMARK minimizedRMSD -1
REMARK  0 active torsions:
REMARK  status: ('A' for Active; 'I' for Inactive)
ROOT
ATOM      1  C   UNL d   1      -3.875  -0.766   3.662  0.00  0.00     0.077 C 
ATOM      2  C1  UNL d   1      -2.735   0.081   3.180  0.00  0.00    -0.074 A 
ATOM      3  C2  UNL d   1      -2.156   1.046   4.010  0.00  0.00    -0.005 A 
ATOM      4  C3  UNL d   1      -1.091   1.821   3.552  0.00  0.00     0.006 A 
ATOM      5  C4  UNL d   1      -0.594   1.638   2.260  0.00  0.00    -0.005 A 
ATOM      6  C5  UNL d   1      -1.160   0.677   1.416  0.00  0.00    -0.074 A 
ATOM      7  C6  UNL d   1      -0.632   0.461   0.029  0.00  0.00     0.077 C 
ATOM      8  C7  UNL d   1      -2.226  -0.102   1.887  0.00  0.00    -0.001 A 
ENDROOT
TORSDOF 0
ENDMDL
