MODEL 1
REMARK minimizedAffinity -2.50438666
REMARK minimizedRMSD -1
REMARK  0 active torsions:
REMARK  status: ('A' for Active; 'I' for Inactive)
ROOT
ATOM      1  C   UNL d   1      -3.895  -1.170   4.100  0.00  0.00     0.077 C 
ATOM      2  C1  UNL d   1      -2.850  -0.112   3.906  0.00  0.00    -0.074 A 
ATOM      3  C2  UNL d   1      -1.513  -0.352   4.240  0.00  0.00    -0.005 A 
ATOM      4  C3  UNL d   1      -0.550   0.639   4.045  0.00  0.00     0.006 A 
ATOM      5  C4  UNL d   1      -0.914   1.877   3.514  0.00  0.00    -0.005 A 
ATOM      6  C5  UNL d   1      -2.246   2.134   3.173  0.00  0.00    -0.074 A 
ATOM      7  C6  UNL d   1      -2.652   3.456   2.592  0.00  0.00     0.077 C 
ATOM      8  C7  UNL d   1      -3.206   1.132   3.365  0.00  0.00    -0.001 A 
ENDROOT
TORSDOF 0
ENDMDL
