MODEL 1
REMARK minimizedAffinity -4.30042887
REMARK minimizedRMSD -1
REMARK  0 active torsions:
REMARK  status: ('A' for Active; 'I' for Inactive)
ROOT
ATOM      1  C   UNL d   1       1.956   2.294  -1.697  0.00  0.00     0.077 C 
ATOM      2  C1  UNL d   1       1.504   0.947  -1.217  0.00  0.00    -0.074 A 
ATOM      3  C2  UNL d   1       2.190  -0.215  -1.586  0.00  0.00    -0.005 A 
ATOM      4  C3  UNL d   1       1.764  -1.460  -1.124  0.00  0.00     0.006 A 
ATOM      5  C4  UNL d   1       0.649  -1.556  -0.290  0.00  0.00    -0.005 A 
ATOM      6  C5  UNL d   1      -0.049  -0.405   0.090  0.00  0.00    -0.074 A 
ATOM      7  C6  UNL d   1      -1.243  -0.489   0.994  0.00  0.00     0.077 C 
ATOM      8  C7  UNL d   1       0.390   0.843  -0.372  0.00  0.00    -0.001 A 
ENDROOT
TORSDOF 0
ENDMDL
