MODEL 1
REMARK minimizedAffinity -4.33065462
REMARK minimizedRMSD -1
REMARK  0 active torsions:
REMARK  status: ('A' for Active; 'I' for Inactive)
ROOT
ATOM      1  C   UNL d   1       0.040  -1.736   0.243  0.00  0.00     0.077 C 
ATOM      2  C1  UNL d   1       0.923  -0.860  -0.595  0.00  0.00    -0.074 A 
ATOM      3  C2  UNL d   1       2.092  -1.363  -1.175  0.00  0.00    -0.005 A 
ATOM      4  C3  UNL d   1       2.899  -0.539  -1.960  0.00  0.00     0.006 A 
ATOM      5  C4  UNL d   1       2.545   0.794  -2.173  0.00  0.00    -0.005 A 
ATOM      6  C5  UNL d   1       1.379   1.314  -1.602  0.00  0.00    -0.074 A 
ATOM      7  C6  UNL d   1       0.979   2.742  -1.828  0.00  0.00     0.077 C 
ATOM      8  C7  UNL d   1       0.570   0.478  -0.820  0.00  0.00    -0.001 A 
ENDROOT
TORSDOF 0
ENDMDL
