MODEL 1
REMARK minimizedAffinity -2.39404225
REMARK minimizedRMSD -1
REMARK  0 active torsions:
REMARK  status: ('A' for Active; 'I' for Inactive)
ROOT
ATOM      1  C   UNL d   1       1.567  -3.390  -2.663  0.00  0.00     0.077 C 
ATOM      2  C1  UNL d   1       1.788  -2.186  -1.797  0.00  0.00    -0.074 A 
ATOM      3  C2  UNL d   1       2.916  -1.376  -1.966  0.00  0.00    -0.005 A 
ATOM      4  C3  UNL d   1       3.103  -0.253  -1.160  0.00  0.00     0.006 A 
ATOM      5  C4  UNL d   1       2.166   0.070  -0.177  0.00  0.00    -0.005 A 
ATOM      6  C5  UNL d   1       1.032  -0.727   0.006  0.00  0.00    -0.074 A 
ATOM      7  C6  UNL d   1       0.011  -0.388   1.051  0.00  0.00     0.077 C 
ATOM      8  C7  UNL d   1       0.848  -1.849  -0.813  0.00  0.00    -0.001 A 
ENDROOT
TORSDOF 0
ENDMDL
