MODEL 1
REMARK minimizedAffinity -4.02529621
REMARK minimizedRMSD -1
REMARK  0 active torsions:
REMARK  status: ('A' for Active; 'I' for Inactive)
ROOT
ATOM      1  C   UNL d   1      -0.501   2.363  -0.805  0.00  0.00     0.077 C 
ATOM      2  C1  UNL d   1       0.207   1.047  -0.678  0.00  0.00    -0.074 A 
ATOM      3  C2  UNL d   1      -0.391  -0.029  -0.013  0.00  0.00    -0.005 A 
ATOM      4  C3  UNL d   1       0.275  -1.251   0.088  0.00  0.00     0.006 A 
ATOM      5  C4  UNL d   1       1.543  -1.408  -0.472  0.00  0.00    -0.005 A 
ATOM      6  C5  UNL d   1       2.156  -0.344  -1.140  0.00  0.00    -0.074 A 
ATOM      7  C6  UNL d   1       3.515  -0.499  -1.757  0.00  0.00     0.077 C 
ATOM      8  C7  UNL d   1       1.478   0.878  -1.245  0.00  0.00    -0.001 A 
ENDROOT
TORSDOF 0
ENDMDL
