MODEL 1
REMARK minimizedAffinity -4.68178034
REMARK minimizedRMSD -1
REMARK  0 active torsions:
REMARK  status: ('A' for Active; 'I' for Inactive)
ROOT
ATOM      1  C   UNL d   1      -2.944  -2.359  -0.779  0.00  0.00     0.077 C 
ATOM      2  C1  UNL d   1      -2.494  -1.365   0.250  0.00  0.00    -0.074 A 
ATOM      3  C2  UNL d   1      -1.313  -0.637   0.077  0.00  0.00    -0.005 A 
ATOM      4  C3  UNL d   1      -0.911   0.291   1.039  0.00  0.00     0.006 A 
ATOM      5  C4  UNL d   1      -1.686   0.499   2.181  0.00  0.00    -0.005 A 
ATOM      6  C5  UNL d   1      -2.871  -0.219   2.370  0.00  0.00    -0.074 A 
ATOM      7  C6  UNL d   1      -3.721  -0.000   3.586  0.00  0.00     0.077 C 
ATOM      8  C7  UNL d   1      -3.271  -1.144   1.396  0.00  0.00    -0.001 A 
ENDROOT
TORSDOF 0
ENDMDL
