MODEL 1
REMARK minimizedAffinity -5.14621544
REMARK minimizedRMSD -1
REMARK  0 active torsions:
REMARK  status: ('A' for Active; 'I' for Inactive)
ROOT
ATOM      1  C   UNL d   1      -2.982  -0.030   0.027  0.00  0.00     0.077 C 
ATOM      2  C1  UNL d   1      -2.169  -1.291   0.006  0.00  0.00    -0.074 A 
ATOM      3  C2  UNL d   1      -0.782  -1.255   0.182  0.00  0.00    -0.005 A 
ATOM      4  C3  UNL d   1      -0.041  -2.436   0.170  0.00  0.00     0.006 A 
ATOM      5  C4  UNL d   1      -0.677  -3.663  -0.017  0.00  0.00    -0.005 A 
ATOM      6  C5  UNL d   1      -2.064  -3.719  -0.194  0.00  0.00    -0.074 A 
ATOM      7  C6  UNL d   1      -2.765  -5.031  -0.387  0.00  0.00     0.077 C 
ATOM      8  C7  UNL d   1      -2.803  -2.528  -0.174  0.00  0.00    -0.001 A 
ENDROOT
TORSDOF 0
ENDMDL
