MODEL 1
REMARK minimizedAffinity -2.49001312
REMARK minimizedRMSD -1
REMARK  0 active torsions:
REMARK  status: ('A' for Active; 'I' for Inactive)
ROOT
ATOM      1  C   UNL d   1      -2.602  -3.552  -0.728  0.00  0.00     0.077 C 
ATOM      2  C1  UNL d   1      -1.631  -2.430  -0.512  0.00  0.00    -0.074 A 
ATOM      3  C2  UNL d   1      -2.078  -1.119  -0.314  0.00  0.00    -0.005 A 
ATOM      4  C3  UNL d   1      -1.163  -0.088  -0.105  0.00  0.00     0.006 A 
ATOM      5  C4  UNL d   1       0.206  -0.355  -0.092  0.00  0.00    -0.005 A 
ATOM      6  C5  UNL d   1       0.672  -1.659  -0.288  0.00  0.00    -0.074 A 
ATOM      7  C6  UNL d   1       2.141  -1.965  -0.267  0.00  0.00     0.077 C 
ATOM      8  C7  UNL d   1      -0.254  -2.691  -0.490  0.00  0.00    -0.001 A 
ENDROOT
TORSDOF 0
ENDMDL
