MODEL 1
REMARK minimizedAffinity -2.88557315
REMARK minimizedRMSD -1
REMARK  0 active torsions:
REMARK  status: ('A' for Active; 'I' for Inactive)
ROOT
ATOM      1  C   UNL d   1      -0.637   2.509  -1.139  0.00  0.00     0.077 C 
ATOM      2  C1  UNL d   1       0.085   1.256  -0.743  0.00  0.00    -0.074 A 
ATOM      3  C2  UNL d   1      -0.554   0.266   0.011  0.00  0.00    -0.005 A 
ATOM      4  C3  UNL d   1       0.127  -0.899   0.364  0.00  0.00     0.006 A 
ATOM      5  C4  UNL d   1       1.452  -1.086  -0.033  0.00  0.00    -0.005 A 
ATOM      6  C5  UNL d   1       2.107  -0.107  -0.788  0.00  0.00    -0.074 A 
ATOM      7  C6  UNL d   1       3.527  -0.296  -1.230  0.00  0.00     0.077 C 
ATOM      8  C7  UNL d   1       1.413   1.057  -1.144  0.00  0.00    -0.001 A 
ENDROOT
TORSDOF 0
ENDMDL
