MODEL 1
REMARK minimizedAffinity 0.837536275
REMARK minimizedRMSD -1
REMARK  0 active torsions:
REMARK  status: ('A' for Active; 'I' for Inactive)
ROOT
ATOM      1  C   UNL d   1      -3.080  -1.514   0.706  0.00  0.00     0.077 C 
ATOM      2  C1  UNL d   1      -2.778  -1.210   2.144  0.00  0.00    -0.074 A 
ATOM      3  C2  UNL d   1      -3.136  -2.104   3.158  0.00  0.00    -0.005 A 
ATOM      4  C3  UNL d   1      -2.840  -1.812   4.489  0.00  0.00     0.006 A 
ATOM      5  C4  UNL d   1      -2.185  -0.625   4.820  0.00  0.00    -0.005 A 
ATOM      6  C5  UNL d   1      -1.819   0.280   3.819  0.00  0.00    -0.074 A 
ATOM      7  C6  UNL d   1      -1.105   1.556   4.156  0.00  0.00     0.077 C 
ATOM      8  C7  UNL d   1      -2.113  -0.023   2.483  0.00  0.00    -0.001 A 
ENDROOT
TORSDOF 0
ENDMDL
