MODEL 1
REMARK minimizedAffinity 2.58175659
REMARK minimizedRMSD -1
REMARK  0 active torsions:
REMARK  status: ('A' for Active; 'I' for Inactive)
ROOT
ATOM      1  C   UNL d   1       2.664   5.972  -5.618  0.00  0.00     0.077 C 
ATOM      2  C1  UNL d   1       2.941   5.985  -4.144  0.00  0.00    -0.074 A 
ATOM      3  C2  UNL d   1       1.894   5.996  -3.216  0.00  0.00    -0.005 A 
ATOM      4  C3  UNL d   1       2.167   5.999  -1.848  0.00  0.00     0.006 A 
ATOM      5  C4  UNL d   1       3.487   5.989  -1.395  0.00  0.00    -0.005 A 
ATOM      6  C5  UNL d   1       4.546   5.977  -2.308  0.00  0.00    -0.074 A 
ATOM      7  C6  UNL d   1       5.970   5.957  -1.838  0.00  0.00     0.077 C 
ATOM      8  C7  UNL d   1       4.264   5.968  -3.681  0.00  0.00    -0.001 A 
ENDROOT
TORSDOF 0
ENDMDL
