MODEL 1
REMARK minimizedAffinity 1.04307914
REMARK minimizedRMSD -1
REMARK  0 active torsions:
REMARK  status: ('A' for Active; 'I' for Inactive)
ROOT
ATOM      1  C   UNL d   1       5.285   1.312   5.569  0.00  0.00     0.077 C 
ATOM      2  C1  UNL d   1       4.867   2.446   4.682  0.00  0.00    -0.074 A 
ATOM      3  C2  UNL d   1       3.753   2.331   3.844  0.00  0.00    -0.005 A 
ATOM      4  C3  UNL d   1       3.371   3.397   3.031  0.00  0.00     0.006 A 
ATOM      5  C4  UNL d   1       4.097   4.589   3.047  0.00  0.00    -0.005 A 
ATOM      6  C5  UNL d   1       5.214   4.723   3.878  0.00  0.00    -0.074 A 
ATOM      7  C6  UNL d   1       6.000   6.000   3.915  0.00  0.00     0.077 C 
ATOM      8  C7  UNL d   1       5.587   3.649   4.698  0.00  0.00    -0.001 A 
ENDROOT
TORSDOF 0
ENDMDL
