MODEL 1
REMARK minimizedAffinity -4.53363037
REMARK minimizedRMSD -1
REMARK  0 active torsions:
REMARK  status: ('A' for Active; 'I' for Inactive)
ROOT
ATOM      1  C   UNL d   1       5.424  -0.181   4.893  0.00  0.00     0.077 C 
ATOM      2  C1  UNL d   1       5.125   1.256   4.589  0.00  0.00    -0.074 A 
ATOM      3  C2  UNL d   1       4.626   2.111   5.577  0.00  0.00    -0.005 A 
ATOM      4  C3  UNL d   1       4.361   3.449   5.281  0.00  0.00     0.006 A 
ATOM      5  C4  UNL d   1       4.594   3.944   3.997  0.00  0.00    -0.005 A 
ATOM      6  C5  UNL d   1       5.094   3.104   2.997  0.00  0.00    -0.074 A 
ATOM      7  C6  UNL d   1       5.359   3.623   1.615  0.00  0.00     0.077 C 
ATOM      8  C7  UNL d   1       5.364   1.763   3.304  0.00  0.00    -0.001 A 
ENDROOT
TORSDOF 0
ENDMDL
