MODEL 1
REMARK minimizedAffinity -1.82607579
REMARK minimizedRMSD -1
REMARK  0 active torsions:
REMARK  status: ('A' for Active; 'I' for Inactive)
ROOT
ATOM      1  C   UNL d   1       6.000   1.009   5.703  0.00  0.00     0.077 C 
ATOM      2  C1  UNL d   1       5.594   2.220   4.918  0.00  0.00    -0.074 A 
ATOM      3  C2  UNL d   1       4.834   2.099   3.750  0.00  0.00    -0.005 A 
ATOM      4  C3  UNL d   1       4.456   3.236   3.036  0.00  0.00     0.006 A 
ATOM      5  C4  UNL d   1       4.834   4.503   3.481  0.00  0.00    -0.005 A 
ATOM      6  C5  UNL d   1       5.593   4.644   4.647  0.00  0.00    -0.074 A 
ATOM      7  C6  UNL d   1       6.000   6.000   5.144  0.00  0.00     0.077 C 
ATOM      8  C7  UNL d   1       5.963   3.498   5.363  0.00  0.00    -0.001 A 
ENDROOT
TORSDOF 0
ENDMDL
