MODEL 1
REMARK minimizedAffinity -0.335808724
REMARK minimizedRMSD -1
REMARK  0 active torsions:
REMARK  status: ('A' for Active; 'I' for Inactive)
ROOT
ATOM      1  C   UNL d   1       5.470  -2.265   2.994  0.00  0.00     0.077 C 
ATOM      2  C1  UNL d   1       5.569  -1.032   3.842  0.00  0.00    -0.074 A 
ATOM      3  C2  UNL d   1       5.751  -1.124   5.226  0.00  0.00    -0.005 A 
ATOM      4  C3  UNL d   1       5.851   0.032   6.000  0.00  0.00     0.006 A 
ATOM      5  C4  UNL d   1       5.770   1.289   5.400  0.00  0.00    -0.005 A 
ATOM      6  C5  UNL d   1       5.589   1.401   4.017  0.00  0.00    -0.074 A 
ATOM      7  C6  UNL d   1       5.510   2.744   3.355  0.00  0.00     0.077 C 
ATOM      8  C7  UNL d   1       5.497   0.235   3.245  0.00  0.00    -0.001 A 
ENDROOT
TORSDOF 0
ENDMDL
