MODEL 1
REMARK minimizedAffinity -4.34721041
REMARK minimizedRMSD -1
REMARK  0 active torsions:
REMARK  status: ('A' for Active; 'I' for Inactive)
ROOT
ATOM      1  C   UNL d   1       5.954   2.941   1.972  0.00  0.00     0.077 C 
ATOM      2  C1  UNL d   1       5.819   1.811   2.949  0.00  0.00    -0.074 A 
ATOM      3  C2  UNL d   1       6.000   2.020   4.320  0.00  0.00    -0.005 A 
ATOM      4  C3  UNL d   1       5.861   0.961   5.217  0.00  0.00     0.006 A 
ATOM      5  C4  UNL d   1       5.541  -0.316   4.754  0.00  0.00    -0.005 A 
ATOM      6  C5  UNL d   1       5.355  -0.544   3.386  0.00  0.00    -0.074 A 
ATOM      7  C6  UNL d   1       5.001  -1.907   2.872  0.00  0.00     0.077 C 
ATOM      8  C7  UNL d   1       5.490   0.527   2.492  0.00  0.00    -0.001 A 
ENDROOT
TORSDOF 0
ENDMDL
