MODEL 1
REMARK minimizedAffinity -1.50823414
REMARK minimizedRMSD -1
REMARK  0 active torsions:
REMARK  status: ('A' for Active; 'I' for Inactive)
ROOT
ATOM      1  C   UNL d   1       3.673   4.366  -0.161  0.00  0.00     0.077 C 
ATOM      2  C1  UNL d   1       4.334   4.533   1.175  0.00  0.00    -0.074 A 
ATOM      3  C2  UNL d   1       4.607   5.805   1.688  0.00  0.00    -0.005 A 
ATOM      4  C3  UNL d   1       5.213   5.945   2.936  0.00  0.00     0.006 A 
ATOM      5  C4  UNL d   1       5.553   4.816   3.683  0.00  0.00    -0.005 A 
ATOM      6  C5  UNL d   1       5.287   3.536   3.186  0.00  0.00    -0.074 A 
ATOM      7  C6  UNL d   1       5.636   2.312   3.980  0.00  0.00     0.077 C 
ATOM      8  C7  UNL d   1       4.671   3.404   1.934  0.00  0.00    -0.001 A 
ENDROOT
TORSDOF 0
ENDMDL
