MODEL 1
REMARK minimizedAffinity 7.14277649
REMARK minimizedRMSD -1
REMARK  0 active torsions:
REMARK  status: ('A' for Active; 'I' for Inactive)
ROOT
ATOM      1  N1  IND d   1      -0.987  -1.963   0.529  0.00  0.00    -0.196 N 
ATOM      2  C2  IND d   1      -1.477  -1.359   1.654  0.00  0.00     0.054 A 
ATOM      3  C3  IND d   1      -1.183  -0.040   1.645  0.00  0.00    -0.031 A 
ATOM      4  C4  IND d   1       0.005   1.359  -0.160  0.00  0.00     0.051 A 
ATOM      5  C5  IND d   1       0.666   1.244  -1.351  0.00  0.00    -0.031 A 
ATOM      6  C6  IND d   1       0.809   0.029  -1.991  0.00  0.00     0.015 A 
ATOM      7  C7  IND d   1       0.286  -1.118  -1.466  0.00  0.00    -0.016 A 
ATOM      8  C8  IND d   1      -0.379  -1.006  -0.253  0.00  0.00    -0.047 A 
ATOM      9  C9  IND d   1      -0.491   0.217   0.421  0.00  0.00    -0.096 A 
ATOM     10  HN1 IND d   1      -1.048  -2.800   0.342  0.00  0.00     0.298 HD
ENDROOT
TORSDOF 0
ENDMDL
