MODEL 1
REMARK minimizedAffinity 1.44594169
REMARK minimizedRMSD -1
REMARK  0 active torsions:
REMARK  status: ('A' for Active; 'I' for Inactive)
ROOT
ATOM      1  N1  IND d   1      -1.238  -0.226  -0.110  0.00  0.00    -0.196 N 
ATOM      2  C2  IND d   1      -1.114   0.074   1.218  0.00  0.00     0.054 A 
ATOM      3  C3  IND d   1       0.074   0.672   1.457  0.00  0.00    -0.031 A 
ATOM      4  C4  IND d   1       1.925   1.350  -0.198  0.00  0.00     0.051 A 
ATOM      5  C5  IND d   1       2.283   1.252  -1.514  0.00  0.00    -0.031 A 
ATOM      6  C6  IND d   1       1.467   0.647  -2.448  0.00  0.00     0.015 A 
ATOM      7  C7  IND d   1       0.254   0.124  -2.102  0.00  0.00    -0.016 A 
ATOM      8  C8  IND d   1      -0.110   0.215  -0.765  0.00  0.00    -0.047 A 
ATOM      9  C9  IND d   1       0.732   0.791   0.195  0.00  0.00    -0.096 A 
ATOM     10  HN1 IND d   1      -1.907  -0.624  -0.474  0.00  0.00     0.298 HD
ENDROOT
TORSDOF 0
ENDMDL
