MODEL 1
REMARK minimizedAffinity -2.0921216
REMARK minimizedRMSD -1
REMARK  0 active torsions:
REMARK  status: ('A' for Active; 'I' for Inactive)
ROOT
ATOM      1  N1  IND d   1       0.588  -0.218  -1.623  0.00  0.00    -0.196 N 
ATOM      2  C2  IND d   1       0.433   1.134  -1.749  0.00  0.00     0.054 A 
ATOM      3  C3  IND d   1      -0.354   1.612  -0.759  0.00  0.00    -0.031 A 
ATOM      4  C4  IND d   1      -1.412   0.369   1.232  0.00  0.00     0.051 A 
ATOM      5  C5  IND d   1      -1.582  -0.883   1.753  0.00  0.00    -0.031 A 
ATOM      6  C6  IND d   1      -1.024  -1.999   1.165  0.00  0.00     0.015 A 
ATOM      7  C7  IND d   1      -0.262  -1.904   0.035  0.00  0.00    -0.016 A 
ATOM      8  C8  IND d   1      -0.093  -0.635  -0.501  0.00  0.00    -0.047 A 
ATOM      9  C9  IND d   1      -0.692   0.497   0.067  0.00  0.00    -0.096 A 
ATOM     10  HN1 IND d   1       1.036  -0.724  -2.156  0.00  0.00     0.298 HD
ENDROOT
TORSDOF 0
ENDMDL
