MODEL 1
REMARK minimizedAffinity 7.38504791
REMARK minimizedRMSD -1
REMARK  0 active torsions:
REMARK  status: ('A' for Active; 'I' for Inactive)
ROOT
ATOM      1  N1  IND d   1       4.217   1.655  -0.922  0.00  0.00    -0.196 N 
ATOM      2  C2  IND d   1       3.423   0.619  -1.328  0.00  0.00     0.054 A 
ATOM      3  C3  IND d   1       2.251   0.634  -0.655  0.00  0.00    -0.031 A 
ATOM      4  C4  IND d   1       1.383   2.324   1.082  0.00  0.00     0.051 A 
ATOM      5  C5  IND d   1       1.765   3.422   1.801  0.00  0.00    -0.031 A 
ATOM      6  C6  IND d   1       3.008   3.999   1.645  0.00  0.00     0.015 A 
ATOM      7  C7  IND d   1       3.915   3.506   0.751  0.00  0.00    -0.016 A 
ATOM      8  C8  IND d   1       3.533   2.388   0.023  0.00  0.00    -0.047 A 
ATOM      9  C9  IND d   1       2.289   1.771   0.208  0.00  0.00    -0.096 A 
ATOM     10  HN1 IND d   1       5.011   1.821  -1.209  0.00  0.00     0.298 HD
ENDROOT
TORSDOF 0
ENDMDL
