MODEL 1
REMARK minimizedAffinity 6.71241379
REMARK minimizedRMSD -1
REMARK  0 active torsions:
REMARK  status: ('A' for Active; 'I' for Inactive)
ROOT
ATOM      1  N1  IND d   1      -0.289   1.482   0.672  0.00  0.00    -0.196 N 
ATOM      2  C2  IND d   1       0.137   1.092  -0.567  0.00  0.00     0.054 A 
ATOM      3  C3  IND d   1      -0.163  -0.209  -0.779  0.00  0.00    -0.031 A 
ATOM      4  C4  IND d   1      -1.440  -1.861   0.727  0.00  0.00     0.051 A 
ATOM      5  C5  IND d   1      -1.996  -1.976   1.970  0.00  0.00    -0.031 A 
ATOM      6  C6  IND d   1      -2.014  -0.923   2.861  0.00  0.00     0.015 A 
ATOM      7  C7  IND d   1      -1.485   0.294   2.536  0.00  0.00    -0.016 A 
ATOM      8  C8  IND d   1      -0.913   0.413   1.278  0.00  0.00    -0.047 A 
ATOM      9  C9  IND d   1      -0.854  -0.665   0.385  0.00  0.00    -0.096 A 
ATOM     10  HN1 IND d   1      -0.185   2.263   1.016  0.00  0.00     0.298 HD
ENDROOT
TORSDOF 0
ENDMDL
