MODEL 1
REMARK minimizedAffinity -0.323117167
REMARK minimizedRMSD -1
REMARK  0 active torsions:
REMARK  status: ('A' for Active; 'I' for Inactive)
ROOT
ATOM      1  N1  IND d   1       0.444  -1.244  -2.140  0.00  0.00    -0.196 N 
ATOM      2  C2  IND d   1       0.910   0.041  -2.110  0.00  0.00     0.054 A 
ATOM      3  C3  IND d   1       0.623   0.617  -0.921  0.00  0.00    -0.031 A 
ATOM      4  C4  IND d   1      -0.512  -0.396   1.156  0.00  0.00     0.051 A 
ATOM      5  C5  IND d   1      -1.143  -1.526   1.596  0.00  0.00    -0.031 A 
ATOM      6  C6  IND d   1      -1.278  -2.643   0.797  0.00  0.00     0.015 A 
ATOM      7  C7  IND d   1      -0.774  -2.676  -0.473  0.00  0.00    -0.016 A 
ATOM      8  C8  IND d   1      -0.139  -1.528  -0.924  0.00  0.00    -0.047 A 
ATOM      9  C9  IND d   1      -0.036  -0.376  -0.134  0.00  0.00    -0.096 A 
ATOM     10  HN1 IND d   1       0.505  -1.784  -2.806  0.00  0.00     0.298 HD
ENDROOT
TORSDOF 0
ENDMDL
