MODEL 1
REMARK minimizedAffinity 4.43248034
REMARK minimizedRMSD -1
REMARK  0 active torsions:
REMARK  status: ('A' for Active; 'I' for Inactive)
ROOT
ATOM      1  N1  IND d   1       2.444   3.056   0.626  0.00  0.00    -0.196 N 
ATOM      2  C2  IND d   1       1.527   3.681   1.424  0.00  0.00     0.054 A 
ATOM      3  C3  IND d   1       0.301   3.138   1.247  0.00  0.00    -0.031 A 
ATOM      4  C4  IND d   1      -0.409   1.149  -0.225  0.00  0.00     0.051 A 
ATOM      5  C5  IND d   1       0.070   0.278  -1.163  0.00  0.00    -0.031 A 
ATOM      6  C6  IND d   1       1.392   0.286  -1.558  0.00  0.00     0.015 A 
ATOM      7  C7  IND d   1       2.291   1.163  -1.020  0.00  0.00    -0.016 A 
ATOM      8  C8  IND d   1       1.807   2.054  -0.072  0.00  0.00    -0.047 A 
ATOM      9  C9  IND d   1       0.457   2.078   0.302  0.00  0.00    -0.096 A 
ATOM     10  HN1 IND d   1       3.278   3.255   0.570  0.00  0.00     0.298 HD
ENDROOT
TORSDOF 0
ENDMDL
