MODEL 1
REMARK minimizedAffinity 2.93313766
REMARK minimizedRMSD -1
REMARK  0 active torsions:
REMARK  status: ('A' for Active; 'I' for Inactive)
ROOT
ATOM      1  N1  IND d   1       0.011  -1.305  -1.757  0.00  0.00    -0.196 N 
ATOM      2  C2  IND d   1       0.348   0.020  -1.741  0.00  0.00     0.054 A 
ATOM      3  C3  IND d   1       0.047   0.567  -0.542  0.00  0.00    -0.031 A 
ATOM      4  C4  IND d   1      -0.912  -0.548   1.571  0.00  0.00     0.051 A 
ATOM      5  C5  IND d   1      -1.414  -1.734   2.029  0.00  0.00    -0.031 A 
ATOM      6  C6  IND d   1      -1.465  -2.861   1.234  0.00  0.00     0.015 A 
ATOM      7  C7  IND d   1      -1.003  -2.847  -0.051  0.00  0.00    -0.016 A 
ATOM      8  C8  IND d   1      -0.500  -1.643  -0.523  0.00  0.00    -0.047 A 
ATOM      9  C9  IND d   1      -0.485  -0.485   0.265  0.00  0.00    -0.096 A 
ATOM     10  HN1 IND d   1       0.102  -1.838  -2.426  0.00  0.00     0.298 HD
ENDROOT
TORSDOF 0
ENDMDL
