MODEL 1
REMARK minimizedAffinity -5.48386383
REMARK minimizedRMSD -1
REMARK  0 active torsions:
REMARK  status: ('A' for Active; 'I' for Inactive)
ROOT
ATOM      1  N1  IND d   1       0.761   0.593  -1.241  0.00  0.00    -0.196 N 
ATOM      2  C2  IND d   1       1.387  -0.370  -1.981  0.00  0.00     0.054 A 
ATOM      3  C3  IND d   1       1.059  -1.601  -1.528  0.00  0.00    -0.031 A 
ATOM      4  C4  IND d   1      -0.568  -2.271   0.352  0.00  0.00     0.051 A 
ATOM      5  C5  IND d   1      -1.351  -1.740   1.338  0.00  0.00    -0.031 A 
ATOM      6  C6  IND d   1      -1.475  -0.378   1.518  0.00  0.00     0.015 A 
ATOM      7  C7  IND d   1      -0.826   0.509   0.706  0.00  0.00    -0.016 A 
ATOM      8  C8  IND d   1      -0.024  -0.025  -0.292  0.00  0.00    -0.047 A 
ATOM      9  C9  IND d   1       0.139  -1.407  -0.452  0.00  0.00    -0.096 A 
ATOM     10  HN1 IND d   1       0.843   1.442  -1.349  0.00  0.00     0.298 HD
ENDROOT
TORSDOF 0
ENDMDL
