MODEL 1
REMARK minimizedAffinity 1.09182596
REMARK minimizedRMSD -1
REMARK  0 active torsions:
REMARK  status: ('A' for Active; 'I' for Inactive)
ROOT
ATOM      1  N1  IND d   1       4.041  -3.383   2.392  0.00  0.00    -0.196 N 
ATOM      2  C2  IND d   1       5.097  -2.997   1.615  0.00  0.00     0.054 A 
ATOM      3  C3  IND d   1       5.999  -2.313   2.354  0.00  0.00    -0.031 A 
ATOM      4  C4  IND d   1       5.994  -1.798   4.877  0.00  0.00     0.051 A 
ATOM      5  C5  IND d   1       5.222  -1.915   5.998  0.00  0.00    -0.031 A 
ATOM      6  C6  IND d   1       3.993  -2.542   5.975  0.00  0.00     0.015 A 
ATOM      7  C7  IND d   1       3.493  -3.088   4.827  0.00  0.00    -0.016 A 
ATOM      8  C8  IND d   1       4.272  -2.965   3.685  0.00  0.00    -0.047 A 
ATOM      9  C9  IND d   1       5.500  -2.293   3.693  0.00  0.00    -0.096 A 
ATOM     10  HN1 IND d   1       3.349  -3.814   2.120  0.00  0.00     0.298 HD
ENDROOT
TORSDOF 0
ENDMDL
