MODEL 1
REMARK minimizedAffinity -1.535671
REMARK minimizedRMSD -1
REMARK  0 active torsions:
REMARK  status: ('A' for Active; 'I' for Inactive)
ROOT
ATOM      1  N1  IND d   1       0.218  -2.826   0.898  0.00  0.00    -0.196 N 
ATOM      2  C2  IND d   1       1.517  -2.763   0.475  0.00  0.00     0.054 A 
ATOM      3  C3  IND d   1       1.741  -1.604  -0.184  0.00  0.00    -0.031 A 
ATOM      4  C4  IND d   1       0.151   0.378  -0.596  0.00  0.00     0.051 A 
ATOM      5  C5  IND d   1      -1.148   0.769  -0.429  0.00  0.00    -0.031 A 
ATOM      6  C6  IND d   1      -2.076  -0.033   0.203  0.00  0.00     0.015 A 
ATOM      7  C7  IND d   1      -1.735  -1.257   0.705  0.00  0.00    -0.016 A 
ATOM      8  C8  IND d   1      -0.419  -1.661   0.532  0.00  0.00    -0.047 A 
ATOM      9  C9  IND d   1       0.517  -0.869  -0.147  0.00  0.00    -0.096 A 
ATOM     10  HN1 IND d   1      -0.140  -3.483   1.322  0.00  0.00     0.298 HD
ENDROOT
TORSDOF 0
ENDMDL
