MODEL 1
REMARK minimizedAffinity 0.0639337525
REMARK minimizedRMSD -1
REMARK  0 active torsions:
REMARK  status: ('A' for Active; 'I' for Inactive)
ROOT
ATOM      1  N1  IND d   1      -0.753  -3.016  -1.548  0.00  0.00    -0.196 N 
ATOM      2  C2  IND d   1      -1.339  -3.596  -0.457  0.00  0.00     0.054 A 
ATOM      3  C3  IND d   1      -1.353  -2.733   0.583  0.00  0.00    -0.031 A 
ATOM      4  C4  IND d   1      -0.561  -0.286   0.690  0.00  0.00     0.051 A 
ATOM      5  C5  IND d   1       0.077   0.673  -0.046  0.00  0.00    -0.031 A 
ATOM      6  C6  IND d   1       0.477   0.447  -1.348  0.00  0.00     0.015 A 
ATOM      7  C7  IND d   1       0.242  -0.747  -1.968  0.00  0.00    -0.016 A 
ATOM      8  C8  IND d   1      -0.400  -1.725  -1.221  0.00  0.00    -0.047 A 
ATOM      9  C9  IND d   1      -0.770  -1.517   0.113  0.00  0.00    -0.096 A 
ATOM     10  HN1 IND d   1      -0.627  -3.394  -2.310  0.00  0.00     0.298 HD
ENDROOT
TORSDOF 0
ENDMDL
