MODEL 1
REMARK minimizedAffinity 1.99385762
REMARK minimizedRMSD -1
REMARK  0 active torsions:
REMARK  status: ('A' for Active; 'I' for Inactive)
ROOT
ATOM      1  N1  IND d   1       0.341   3.649   0.853  0.00  0.00    -0.196 N 
ATOM      2  C2  IND d   1       1.257   3.775   1.861  0.00  0.00     0.054 A 
ATOM      3  C3  IND d   1       1.584   2.560   2.353  0.00  0.00    -0.031 A 
ATOM      4  C4  IND d   1       0.818   0.224   1.588  0.00  0.00     0.051 A 
ATOM      5  C5  IND d   1      -0.042  -0.399   0.728  0.00  0.00    -0.031 A 
ATOM      6  C6  IND d   1      -0.832   0.309  -0.154  0.00  0.00     0.015 A 
ATOM      7  C7  IND d   1      -0.783   1.673  -0.217  0.00  0.00    -0.016 A 
ATOM      8  C8  IND d   1       0.084   2.310   0.660  0.00  0.00    -0.047 A 
ATOM      9  C9  IND d   1       0.857   1.598   1.587  0.00  0.00    -0.096 A 
ATOM     10  HN1 IND d   1      -0.014   4.298   0.414  0.00  0.00     0.298 HD
ENDROOT
TORSDOF 0
ENDMDL
