MODEL 1
REMARK minimizedAffinity 1.2601459
REMARK minimizedRMSD -1
REMARK  0 active torsions:
REMARK  status: ('A' for Active; 'I' for Inactive)
ROOT
ATOM      1  N1  IND d   1       0.355  -0.185  -1.009  0.00  0.00    -0.196 N 
ATOM      2  C2  IND d   1       1.642  -0.501  -1.345  0.00  0.00     0.054 A 
ATOM      3  C3  IND d   1       1.928  -1.767  -0.969  0.00  0.00    -0.031 A 
ATOM      4  C4  IND d   1       0.405  -3.535   0.119  0.00  0.00     0.051 A 
ATOM      5  C5  IND d   1      -0.843  -3.702   0.649  0.00  0.00    -0.031 A 
ATOM      6  C6  IND d   1      -1.777  -2.685   0.650  0.00  0.00     0.015 A 
ATOM      7  C7  IND d   1      -1.498  -1.462   0.109  0.00  0.00    -0.016 A 
ATOM      8  C8  IND d   1      -0.228  -1.286  -0.423  0.00  0.00    -0.047 A 
ATOM      9  C9  IND d   1       0.737  -2.301  -0.389  0.00  0.00    -0.096 A 
ATOM     10  HN1 IND d   1      -0.026   0.575  -1.141  0.00  0.00     0.298 HD
ENDROOT
TORSDOF 0
ENDMDL
