MODEL 1
REMARK minimizedAffinity 9.39146709
REMARK minimizedRMSD -1
REMARK  0 active torsions:
REMARK  status: ('A' for Active; 'I' for Inactive)
ROOT
ATOM      1  N1  IND d   1      -3.651  -1.589   1.590  0.00  0.00    -0.196 N 
ATOM      2  C2  IND d   1      -3.289  -2.852   1.211  0.00  0.00     0.054 A 
ATOM      3  C3  IND d   1      -1.968  -2.897   0.927  0.00  0.00    -0.031 A 
ATOM      4  C4  IND d   1      -0.190  -1.045   1.116  0.00  0.00     0.051 A 
ATOM      5  C5  IND d   1      -0.047   0.287   1.385  0.00  0.00    -0.031 A 
ATOM      6  C6  IND d   1      -1.119   1.078   1.746  0.00  0.00     0.015 A 
ATOM      7  C7  IND d   1      -2.378   0.560   1.863  0.00  0.00    -0.016 A 
ATOM      8  C8  IND d   1      -2.528  -0.791   1.584  0.00  0.00    -0.047 A 
ATOM      9  C9  IND d   1      -1.452  -1.589   1.176  0.00  0.00    -0.096 A 
ATOM     10  HN1 IND d   1      -4.446  -1.336   1.798  0.00  0.00     0.298 HD
ENDROOT
TORSDOF 0
ENDMDL
