MODEL 1
REMARK minimizedAffinity -4.83290768
REMARK minimizedRMSD -1
REMARK  0 active torsions:
REMARK  status: ('A' for Active; 'I' for Inactive)
ROOT
ATOM      1  N1  IND d   1      -0.039  -0.592  -2.167  0.00  0.00    -0.196 N 
ATOM      2  C2  IND d   1      -0.117   0.510  -1.361  0.00  0.00     0.054 A 
ATOM      3  C3  IND d   1      -0.225   0.138  -0.066  0.00  0.00    -0.031 A 
ATOM      4  C4  IND d   1      -0.191  -2.220   0.968  0.00  0.00     0.051 A 
ATOM      5  C5  IND d   1      -0.172  -3.544   0.630  0.00  0.00    -0.031 A 
ATOM      6  C6  IND d   1      -0.105  -3.960  -0.684  0.00  0.00     0.015 A 
ATOM      7  C7  IND d   1      -0.041  -3.063  -1.713  0.00  0.00    -0.016 A 
ATOM      8  C8  IND d   1      -0.066  -1.718  -1.374  0.00  0.00    -0.047 A 
ATOM      9  C9  IND d   1      -0.178  -1.290  -0.045  0.00  0.00    -0.096 A 
ATOM     10  HN1 IND d   1       0.018  -0.583  -3.025  0.00  0.00     0.298 HD
ENDROOT
TORSDOF 0
ENDMDL
