MODEL 1
REMARK minimizedAffinity -6.45528603
REMARK minimizedRMSD -1
REMARK  0 active torsions:
REMARK  status: ('A' for Active; 'I' for Inactive)
ROOT
ATOM      1  N1  IND d   1       0.487   0.470  -2.034  0.00  0.00    -0.196 N 
ATOM      2  C2  IND d   1       0.032   1.168  -0.951  0.00  0.00     0.054 A 
ATOM      3  C3  IND d   1      -0.151   0.338   0.101  0.00  0.00    -0.031 A 
ATOM      4  C4  IND d   1       0.330  -2.183   0.297  0.00  0.00     0.051 A 
ATOM      5  C5  IND d   1       0.720  -3.266  -0.440  0.00  0.00    -0.031 A 
ATOM      6  C6  IND d   1       1.062  -3.156  -1.772  0.00  0.00     0.015 A 
ATOM      7  C7  IND d   1       1.037  -1.952  -2.417  0.00  0.00    -0.016 A 
ATOM      8  C8  IND d   1       0.635  -0.852  -1.674  0.00  0.00    -0.047 A 
ATOM      9  C9  IND d   1       0.246  -0.964  -0.333  0.00  0.00    -0.096 A 
ATOM     10  HN1 IND d   1       0.653   0.800  -2.811  0.00  0.00     0.298 HD
ENDROOT
TORSDOF 0
ENDMDL
