MODEL 1
REMARK minimizedAffinity -5.06270266
REMARK minimizedRMSD -1
REMARK  0 active torsions:
REMARK  status: ('A' for Active; 'I' for Inactive)
ROOT
ATOM      1  N1  IND d   1       2.344   2.315   0.758  0.00  0.00    -0.196 N 
ATOM      2  C2  IND d   1       1.898   3.601   0.635  0.00  0.00     0.054 A 
ATOM      3  C3  IND d   1       0.830   3.651  -0.193  0.00  0.00    -0.031 A 
ATOM      4  C4  IND d   1      -0.414   1.733  -1.375  0.00  0.00     0.051 A 
ATOM      5  C5  IND d   1      -0.356   0.385  -1.595  0.00  0.00    -0.031 A 
ATOM      6  C6  IND d   1       0.623  -0.405  -1.028  0.00  0.00     0.015 A 
ATOM      7  C7  IND d   1       1.579   0.125  -0.207  0.00  0.00    -0.016 A 
ATOM      8  C8  IND d   1       1.527   1.494   0.013  0.00  0.00    -0.047 A 
ATOM      9  C9  IND d   1       0.561   2.307  -0.594  0.00  0.00    -0.096 A 
ATOM     10  HN1 IND d   1       3.021   2.061   1.224  0.00  0.00     0.298 HD
ENDROOT
TORSDOF 0
ENDMDL
