MODEL 1
REMARK minimizedAffinity -2.68707538
REMARK minimizedRMSD -1
REMARK  0 active torsions:
REMARK  status: ('A' for Active; 'I' for Inactive)
ROOT
ATOM      1  C   UNL d   1       1.221  -1.675   2.565  0.00  0.00     0.172 C 
ATOM      2  N   UNL d   1       2.594  -1.363   2.885  0.00  0.00    -0.070 N 
ATOM      3  C1  UNL d   1       3.589  -1.117   1.977  0.00  0.00    -0.004 A 
ATOM      4  C2  UNL d   1       4.747  -0.861   2.679  0.00  0.00    -0.047 A 
ATOM      5  C3  UNL d   1       4.437  -0.956   4.057  0.00  0.00    -0.047 A 
ATOM      6  C4  UNL d   1       3.098  -1.268   4.156  0.00  0.00    -0.004 A 
ENDROOT
TORSDOF 0
ENDMDL
