MODEL 1
REMARK minimizedAffinity -0.380649328
REMARK minimizedRMSD -1
REMARK  0 active torsions:
REMARK  status: ('A' for Active; 'I' for Inactive)
ROOT
ATOM      1  C   UNL d   1       2.824  -0.146  -0.585  0.00  0.00     0.172 C 
ATOM      2  N   UNL d   1       2.418  -0.699   0.685  0.00  0.00    -0.070 N 
ATOM      3  C1  UNL d   1       3.103  -1.645   1.400  0.00  0.00    -0.004 A 
ATOM      4  C2  UNL d   1       2.389  -1.904   2.550  0.00  0.00    -0.047 A 
ATOM      5  C3  UNL d   1       1.234  -1.087   2.525  0.00  0.00    -0.047 A 
ATOM      6  C4  UNL d   1       1.277  -0.351   1.359  0.00  0.00    -0.004 A 
ENDROOT
TORSDOF 0
ENDMDL
