MODEL 1
REMARK minimizedAffinity -2.90558434
REMARK minimizedRMSD -1
REMARK  0 active torsions:
REMARK  status: ('A' for Active; 'I' for Inactive)
ROOT
ATOM      1  C   UNL d   1      -0.547  -5.706  -5.624  0.00  0.00     0.172 C 
ATOM      2  N   UNL d   1      -1.756  -5.818  -4.842  0.00  0.00    -0.070 N 
ATOM      3  C1  UNL d   1      -1.821  -5.853  -3.475  0.00  0.00    -0.004 A 
ATOM      4  C2  UNL d   1      -3.148  -5.965  -3.119  0.00  0.00    -0.047 A 
ATOM      5  C3  UNL d   1      -3.906  -5.999  -4.314  0.00  0.00    -0.047 A 
ATOM      6  C4  UNL d   1      -3.019  -5.906  -5.365  0.00  0.00    -0.004 A 
ENDROOT
TORSDOF 0
ENDMDL
