MODEL 1
REMARK minimizedAffinity 2.96058345
REMARK minimizedRMSD -1
REMARK  0 active torsions:
REMARK  status: ('A' for Active; 'I' for Inactive)
ROOT
ATOM      1  C   UNL d   1       3.659  -1.251   1.377  0.00  0.00     0.172 C 
ATOM      2  N   UNL d   1       2.440  -0.797   0.750  0.00  0.00    -0.070 N 
ATOM      3  C1  UNL d   1       2.357   0.125  -0.259  0.00  0.00    -0.004 A 
ATOM      4  C2  UNL d   1       1.025   0.282  -0.578  0.00  0.00    -0.047 A 
ATOM      5  C3  UNL d   1       0.283  -0.575   0.269  0.00  0.00    -0.047 A 
ATOM      6  C4  UNL d   1       1.184  -1.231   1.081  0.00  0.00    -0.004 A 
ENDROOT
TORSDOF 0
ENDMDL
