MODEL 1
REMARK minimizedAffinity -1.42945039
REMARK minimizedRMSD -1
REMARK  0 active torsions:
REMARK  status: ('A' for Active; 'I' for Inactive)
ROOT
ATOM      1  C   UNL d   1      -1.104  -5.999  -5.970  0.00  0.00     0.172 C 
ATOM      2  N   UNL d   1       0.169  -5.738  -5.339  0.00  0.00    -0.070 N 
ATOM      3  C1  UNL d   1       0.471  -5.975  -4.025  0.00  0.00    -0.004 A 
ATOM      4  C2  UNL d   1       1.780  -5.594  -3.818  0.00  0.00    -0.047 A 
ATOM      5  C3  UNL d   1       2.280  -5.111  -5.051  0.00  0.00    -0.047 A 
ATOM      6  C4  UNL d   1       1.262  -5.212  -5.975  0.00  0.00    -0.004 A 
ENDROOT
TORSDOF 0
ENDMDL
