MODEL 1
REMARK minimizedAffinity -1.7421571
REMARK minimizedRMSD -1
REMARK  0 active torsions:
REMARK  status: ('A' for Active; 'I' for Inactive)
ROOT
ATOM      1  C   UNL d   1      -0.647  -5.985  -6.000  0.00  0.00     0.172 C 
ATOM      2  N   UNL d   1       0.643  -5.882  -5.359  0.00  0.00    -0.070 N 
ATOM      3  C1  UNL d   1       1.844  -5.734  -6.000  0.00  0.00    -0.004 A 
ATOM      4  C2  UNL d   1       2.831  -5.674  -5.040  0.00  0.00    -0.047 A 
ATOM      5  C3  UNL d   1       2.201  -5.792  -3.778  0.00  0.00    -0.047 A 
ATOM      6  C4  UNL d   1       0.847  -5.920  -4.005  0.00  0.00    -0.004 A 
ENDROOT
TORSDOF 0
ENDMDL
