MODEL 1
REMARK minimizedAffinity -0.883393466
REMARK minimizedRMSD -1
REMARK  0 active torsions:
REMARK  status: ('A' for Active; 'I' for Inactive)
ROOT
ATOM      1  C   UNL d   1       0.755  -0.387   0.577  0.00  0.00     0.172 C 
ATOM      2  N   UNL d   1       1.880  -0.698   1.427  0.00  0.00    -0.070 N 
ATOM      3  C1  UNL d   1       3.190  -0.754   1.030  0.00  0.00    -0.004 A 
ATOM      4  C2  UNL d   1       3.951  -1.079   2.132  0.00  0.00    -0.047 A 
ATOM      5  C3  UNL d   1       3.069  -1.224   3.229  0.00  0.00    -0.047 A 
ATOM      6  C4  UNL d   1       1.793  -0.982   2.764  0.00  0.00    -0.004 A 
ENDROOT
TORSDOF 0
ENDMDL
