MODEL 1
REMARK minimizedAffinity 3.08842993
REMARK minimizedRMSD -1
REMARK  0 active torsions:
REMARK  status: ('A' for Active; 'I' for Inactive)
ROOT
ATOM      1  C   UNL d   1      -2.634  -5.342  -4.410  0.00  0.00     0.172 C 
ATOM      2  N   UNL d   1      -1.252  -5.409  -4.825  0.00  0.00    -0.070 N 
ATOM      3  C1  UNL d   1      -0.791  -6.000  -5.970  0.00  0.00    -0.004 A 
ATOM      4  C2  UNL d   1       0.579  -5.850  -6.000  0.00  0.00    -0.047 A 
ATOM      5  C3  UNL d   1       0.953  -5.146  -4.831  0.00  0.00    -0.047 A 
ATOM      6  C4  UNL d   1      -0.200  -4.885  -4.121  0.00  0.00    -0.004 A 
ENDROOT
TORSDOF 0
ENDMDL
