MODEL 1
REMARK minimizedAffinity -0.316918015
REMARK minimizedRMSD -1
REMARK  0 active torsions:
REMARK  status: ('A' for Active; 'I' for Inactive)
ROOT
ATOM      1  C   UNL d   1      -1.554  -4.894  -4.850  0.00  0.00     0.172 C 
ATOM      2  N   UNL d   1      -0.148  -5.109  -5.100  0.00  0.00    -0.070 N 
ATOM      3  C1  UNL d   1       0.376  -5.999  -5.999  0.00  0.00    -0.004 A 
ATOM      4  C2  UNL d   1       1.749  -5.901  -5.938  0.00  0.00    -0.047 A 
ATOM      5  C3  UNL d   1       2.062  -4.919  -4.969  0.00  0.00    -0.047 A 
ATOM      6  C4  UNL d   1       0.869  -4.444  -4.466  0.00  0.00    -0.004 A 
ENDROOT
TORSDOF 0
ENDMDL
