MODEL 1
REMARK minimizedAffinity 4.22099447
REMARK minimizedRMSD -1
REMARK  0 active torsions:
REMARK  status: ('A' for Active; 'I' for Inactive)
ROOT
ATOM      1  C   UNL d   1      -1.454  -3.142   0.413  0.00  0.00     0.172 C 
ATOM      2  N   UNL d   1      -0.530  -2.036   0.321  0.00  0.00    -0.070 N 
ATOM      3  C1  UNL d   1      -0.798  -0.741   0.676  0.00  0.00    -0.004 A 
ATOM      4  C2  UNL d   1       0.336   0.005   0.440  0.00  0.00    -0.047 A 
ATOM      5  C3  UNL d   1       1.320  -0.873  -0.076  0.00  0.00    -0.047 A 
ATOM      6  C4  UNL d   1       0.757  -2.130  -0.139  0.00  0.00    -0.004 A 
ENDROOT
TORSDOF 0
ENDMDL
