MODEL 1
REMARK minimizedAffinity 6.9921751
REMARK minimizedRMSD -1
REMARK  0 active torsions:
REMARK  status: ('A' for Active; 'I' for Inactive)
ROOT
ATOM      1  C   UNL d   1       3.195  -1.209   1.071  0.00  0.00     0.172 C 
ATOM      2  N   UNL d   1       2.028  -0.742   0.360  0.00  0.00    -0.070 N 
ATOM      3  C1  UNL d   1       1.859  -0.763  -0.999  0.00  0.00    -0.004 A 
ATOM      4  C2  UNL d   1       0.617  -0.234  -1.278  0.00  0.00    -0.047 A 
ATOM      5  C3  UNL d   1       0.020   0.118  -0.044  0.00  0.00    -0.047 A 
ATOM      6  C4  UNL d   1       0.915  -0.208   0.953  0.00  0.00    -0.004 A 
ENDROOT
TORSDOF 0
ENDMDL
