MODEL 1
REMARK minimizedAffinity 3.09989285
REMARK minimizedRMSD -1
REMARK  0 active torsions:
REMARK  status: ('A' for Active; 'I' for Inactive)
ROOT
ATOM      1  C   UNL d   1      -3.915   1.625  -2.888  0.00  0.00     0.172 C 
ATOM      2  N   UNL d   1      -4.036   0.522  -1.963  0.00  0.00    -0.070 N 
ATOM      3  C1  UNL d   1      -3.770   0.574  -0.621  0.00  0.00    -0.004 A 
ATOM      4  C2  UNL d   1      -4.006  -0.678  -0.095  0.00  0.00    -0.047 A 
ATOM      5  C3  UNL d   1      -4.427  -1.511  -1.158  0.00  0.00    -0.047 A 
ATOM      6  C4  UNL d   1      -4.437  -0.742  -2.303  0.00  0.00    -0.004 A 
ENDROOT
TORSDOF 0
ENDMDL
