MODEL 1
REMARK minimizedAffinity -1.31567001
REMARK minimizedRMSD -1
REMARK  0 active torsions:
REMARK  status: ('A' for Active; 'I' for Inactive)
ROOT
ATOM      1  C   UNL d   1      -3.490   0.767  -3.103  0.00  0.00     0.172 C 
ATOM      2  N   UNL d   1      -2.553   1.793  -3.496  0.00  0.00    -0.070 N 
ATOM      3  C1  UNL d   1      -2.879   2.993  -4.069  0.00  0.00    -0.004 A 
ATOM      4  C2  UNL d   1      -1.708   3.686  -4.291  0.00  0.00    -0.047 A 
ATOM      5  C3  UNL d   1      -0.642   2.873  -3.837  0.00  0.00    -0.047 A 
ATOM      6  C4  UNL d   1      -1.194   1.707  -3.350  0.00  0.00    -0.004 A 
ENDROOT
TORSDOF 0
ENDMDL
