MODEL 1
REMARK minimizedAffinity -2.79336381
REMARK minimizedRMSD -1
REMARK  0 active torsions:
REMARK  status: ('A' for Active; 'I' for Inactive)
ROOT
ATOM      1  C   UNL d   1      -4.059  -6.000  -1.241  0.00  0.00     0.172 C 
ATOM      2  N   UNL d   1      -3.673  -5.569   0.082  0.00  0.00    -0.070 N 
ATOM      3  C1  UNL d   1      -2.677  -4.674   0.371  0.00  0.00    -0.004 A 
ATOM      4  C2  UNL d   1      -2.623  -4.531   1.741  0.00  0.00    -0.047 A 
ATOM      5  C3  UNL d   1      -3.620  -5.369   2.294  0.00  0.00    -0.047 A 
ATOM      6  C4  UNL d   1      -4.255  -6.000   1.245  0.00  0.00    -0.004 A 
ENDROOT
TORSDOF 0
ENDMDL
