MODEL 1
REMARK minimizedAffinity -2.10275459
REMARK minimizedRMSD -1
REMARK  0 active torsions:
REMARK  status: ('A' for Active; 'I' for Inactive)
ROOT
ATOM      1  C   UNL d   1      -0.697  -5.998  -2.430  0.00  0.00     0.172 C 
ATOM      2  N   UNL d   1      -0.699  -5.992  -3.874  0.00  0.00    -0.070 N 
ATOM      3  C1  UNL d   1       0.412  -5.978  -4.674  0.00  0.00    -0.004 A 
ATOM      4  C2  UNL d   1      -0.012  -5.977  -5.985  0.00  0.00    -0.047 A 
ATOM      5  C3  UNL d   1      -1.427  -5.991  -5.973  0.00  0.00    -0.047 A 
ATOM      6  C4  UNL d   1      -1.826  -6.000  -4.653  0.00  0.00    -0.004 A 
ENDROOT
TORSDOF 0
ENDMDL
