MODEL 1
REMARK minimizedAffinity -3.17236233
REMARK minimizedRMSD -1
REMARK  0 active torsions:
REMARK  status: ('A' for Active; 'I' for Inactive)
ROOT
ATOM      1  C   UNL d   1      -2.127   1.693   0.204  0.00  0.00     0.124 A 
ATOM      2  C1  UNL d   1      -0.924   2.208  -0.261  0.00  0.00     0.062 A 
ATOM      3  C2  UNL d   1       0.241   1.451  -0.175  0.00  0.00     0.162 A 
ATOM      4  C3  UNL d   1       0.209   0.170   0.377  0.00  0.00    -0.034 A 
ATOM      5  C4  UNL d   1      -1.004  -0.340   0.843  0.00  0.00     0.162 A 
ATOM      6  C5  UNL d   1      -2.166   0.420   0.755  0.00  0.00     0.062 A 
ATOM      7  F   UNL d   1      -3.326  -0.079   1.204  0.00  0.00    -0.097 F 
ATOM      8  F1  UNL d   1      -1.070  -1.568   1.379  0.00  0.00    -0.096 F 
ATOM      9  I   UNL d   1       1.949  -0.964   0.507  0.00  0.00    -0.060 I 
ATOM     10  F2  UNL d   1       1.388   1.974  -0.632  0.00  0.00    -0.096 F 
ATOM     11  F3  UNL d   1      -0.884   3.438  -0.793  0.00  0.00    -0.097 F 
ATOM     12  F4  UNL d   1      -3.246   2.424   0.121  0.00  0.00    -0.092 F 
ENDROOT
TORSDOF 0
ENDMDL
