MODEL 1
REMARK minimizedAffinity -0.0197431799
REMARK minimizedRMSD -1
REMARK  0 active torsions:
REMARK  status: ('A' for Active; 'I' for Inactive)
ROOT
ATOM      1  C   UNL d   1       1.330  -1.406  -0.476  0.00  0.00     0.124 A 
ATOM      2  C1  UNL d   1       1.722  -0.618   0.598  0.00  0.00     0.062 A 
ATOM      3  C2  UNL d   1       0.851   0.332   1.124  0.00  0.00     0.162 A 
ATOM      4  C3  UNL d   1      -0.422   0.498   0.577  0.00  0.00    -0.034 A 
ATOM      5  C4  UNL d   1      -0.808  -0.297  -0.503  0.00  0.00     0.162 A 
ATOM      6  C5  UNL d   1       0.066  -1.244  -1.025  0.00  0.00     0.062 A 
ATOM      7  F   UNL d   1      -0.314  -2.005  -2.062  0.00  0.00    -0.097 F 
ATOM      8  F1  UNL d   1      -2.025  -0.163  -1.052  0.00  0.00    -0.096 F 
ATOM      9  I   UNL d   1      -1.728   1.917   1.361  0.00  0.00    -0.060 I 
ATOM     10  F2  UNL d   1       1.256   1.079   2.161  0.00  0.00    -0.096 F 
ATOM     11  F3  UNL d   1       2.943  -0.771   1.129  0.00  0.00    -0.097 F 
ATOM     12  F4  UNL d   1       2.171  -2.318  -0.981  0.00  0.00    -0.092 F 
ENDROOT
TORSDOF 0
ENDMDL
