MODEL 1
REMARK minimizedAffinity 0.484296769
REMARK minimizedRMSD -1
REMARK  0 active torsions:
REMARK  status: ('A' for Active; 'I' for Inactive)
ROOT
ATOM      1  C   UNL d   1       1.539  -1.804  -0.759  0.00  0.00     0.124 A 
ATOM      2  C1  UNL d   1       0.267  -1.697  -1.305  0.00  0.00     0.062 A 
ATOM      3  C2  UNL d   1      -0.531  -0.596  -1.011  0.00  0.00     0.162 A 
ATOM      4  C3  UNL d   1      -0.060   0.409  -0.165  0.00  0.00    -0.034 A 
ATOM      5  C4  UNL d   1       1.219   0.294   0.381  0.00  0.00     0.162 A 
ATOM      6  C5  UNL d   1       2.013  -0.809   0.084  0.00  0.00     0.062 A 
ATOM      7  F   UNL d   1       3.241  -0.910   0.613  0.00  0.00    -0.097 F 
ATOM      8  F1  UNL d   1       1.703   1.242   1.198  0.00  0.00    -0.096 F 
ATOM      9  I   UNL d   1      -1.251   2.057   0.277  0.00  0.00    -0.060 I 
ATOM     10  F2  UNL d   1      -1.756  -0.519  -1.553  0.00  0.00    -0.096 F 
ATOM     11  F3  UNL d   1      -0.194  -2.658  -2.119  0.00  0.00    -0.097 F 
ATOM     12  F4  UNL d   1       2.304  -2.865  -1.043  0.00  0.00    -0.092 F 
ENDROOT
TORSDOF 0
ENDMDL
