MODEL 1
REMARK minimizedAffinity 1.923329
REMARK minimizedRMSD -1
REMARK  0 active torsions:
REMARK  status: ('A' for Active; 'I' for Inactive)
ROOT
ATOM      1  C   UNL d   1       2.605  -0.173  -1.048  0.00  0.00     0.124 A 
ATOM      2  C1  UNL d   1       1.722  -1.241  -1.131  0.00  0.00     0.062 A 
ATOM      3  C2  UNL d   1       0.372  -1.057  -0.847  0.00  0.00     0.162 A 
ATOM      4  C3  UNL d   1      -0.105   0.201  -0.479  0.00  0.00    -0.034 A 
ATOM      5  C4  UNL d   1       0.789   1.271  -0.397  0.00  0.00     0.162 A 
ATOM      6  C5  UNL d   1       2.137   1.081  -0.681  0.00  0.00     0.062 A 
ATOM      7  F   UNL d   1       2.989   2.114  -0.600  0.00  0.00    -0.097 F 
ATOM      8  F1  UNL d   1       0.364   2.494  -0.046  0.00  0.00    -0.096 F 
ATOM      9  I   UNL d   1      -2.123   0.481  -0.055  0.00  0.00    -0.060 I 
ATOM     10  F2  UNL d   1      -0.459  -2.107  -0.936  0.00  0.00    -0.096 F 
ATOM     11  F3  UNL d   1       2.171  -2.454  -1.484  0.00  0.00    -0.097 F 
ATOM     12  F4  UNL d   1       3.903  -0.353  -1.320  0.00  0.00    -0.092 F 
ENDROOT
TORSDOF 0
ENDMDL
