MODEL 1
REMARK minimizedAffinity -4.02417707
REMARK minimizedRMSD -1
REMARK  2 active torsions:
REMARK  status: ('A' for Active; 'I' for Inactive)
REMARK    1  A    between atoms: C2'_3  and  C1'_4 
REMARK    2  A    between atoms: C1'_4  and  C1_5 
ROOT
ATOM      1  C1  I4B d   1       1.567  -0.287   0.768  0.00  0.00    -0.075 A 
ATOM      2  C2  I4B d   1       0.889  -1.161   1.580  0.00  0.00     0.003 A 
ATOM      3  C3  I4B d   1       1.599  -2.032   2.441  0.00  0.00     0.002 A 
ATOM      4  C4  I4B d   1       2.979  -2.031   2.421  0.00  0.00    -0.004 A 
ATOM      5  C5  I4B d   1       3.665  -1.128   1.614  0.00  0.00     0.002 A 
ATOM      6  C6  I4B d   1       2.955  -0.242   0.791  0.00  0.00     0.003 A 
ENDROOT
BRANCH   1   7
ATOM      7  C1' I4B d   1       0.786   0.596  -0.153  0.00  0.00     0.060 C 
BRANCH   7   8
ATOM      8  C2' I4B d   1      -0.679   0.472   0.212  0.00  0.00    -0.013 C 
ATOM      9  C4' I4B d   1      -1.230   1.782   0.711  0.00  0.00     0.013 C 
ATOM     10  C3' I4B d   1      -1.421   0.000  -1.003  0.00  0.00     0.013 C 
ENDBRANCH   7   8
ENDBRANCH   1   7
TORSDOF 2
ENDMDL
