MODEL 1
REMARK minimizedAffinity -1.56782579
REMARK minimizedRMSD -1
REMARK  2 active torsions:
REMARK  status: ('A' for Active; 'I' for Inactive)
REMARK    1  A    between atoms: C2'_3  and  C1'_4 
REMARK    2  A    between atoms: C1'_4  and  C1_5 
ROOT
ATOM      1  C1  I4B d   1      -0.887   1.222   0.651  0.00  0.00    -0.075 A 
ATOM      2  C2  I4B d   1      -0.216   2.382   0.947  0.00  0.00     0.003 A 
ATOM      3  C3  I4B d   1      -0.879   3.437   1.619  0.00  0.00     0.002 A 
ATOM      4  C4  I4B d   1      -2.218   3.311   1.929  0.00  0.00    -0.004 A 
ATOM      5  C5  I4B d   1      -2.890   2.125   1.649  0.00  0.00     0.002 A 
ATOM      6  C6  I4B d   1      -2.218   1.069   1.017  0.00  0.00     0.003 A 
ENDROOT
BRANCH   1   7
ATOM      7  C1' I4B d   1      -0.166   0.140  -0.088  0.00  0.00     0.060 C 
BRANCH   7   8
ATOM      8  C2' I4B d   1       0.176  -0.954   0.902  0.00  0.00    -0.013 C 
ATOM      9  C4' I4B d   1      -0.784  -2.109   0.791  0.00  0.00     0.013 C 
ATOM     10  C3' I4B d   1       1.585  -1.395   0.637  0.00  0.00     0.013 C 
ENDBRANCH   7   8
ENDBRANCH   1   7
TORSDOF 2
ENDMDL
