MODEL 1
REMARK minimizedAffinity -1.62376904
REMARK minimizedRMSD -1
REMARK  2 active torsions:
REMARK  status: ('A' for Active; 'I' for Inactive)
REMARK    1  A    between atoms: C2'_3  and  C1'_4 
REMARK    2  A    between atoms: C1'_4  and  C1_5 
ROOT
ATOM      1  C1  I4B d   1      -1.387  -0.293  -1.626  0.00  0.00    -0.075 A 
ATOM      2  C2  I4B d   1      -1.263   0.589  -2.670  0.00  0.00     0.003 A 
ATOM      3  C3  I4B d   1      -1.979   0.375  -3.873  0.00  0.00     0.002 A 
ATOM      4  C4  I4B d   1      -2.763  -0.753  -4.006  0.00  0.00    -0.004 A 
ATOM      5  C5  I4B d   1      -2.905  -1.634  -2.938  0.00  0.00     0.002 A 
ATOM      6  C6  I4B d   1      -2.223  -1.397  -1.736  0.00  0.00     0.003 A 
ENDROOT
BRANCH   1   7
ATOM      7  C1' I4B d   1      -0.591  -0.054  -0.382  0.00  0.00     0.060 C 
BRANCH   7   8
ATOM      8  C2' I4B d   1       0.010  -1.377   0.049  0.00  0.00    -0.013 C 
ATOM      9  C4' I4B d   1       1.437  -1.207   0.496  0.00  0.00     0.013 C 
ATOM     10  C3' I4B d   1      -0.841  -1.934   1.151  0.00  0.00     0.013 C 
ENDBRANCH   7   8
ENDBRANCH   1   7
TORSDOF 2
ENDMDL
