MODEL 1
REMARK minimizedAffinity -1.60704935
REMARK minimizedRMSD -1
REMARK  2 active torsions:
REMARK  status: ('A' for Active; 'I' for Inactive)
REMARK    1  A    between atoms: C2'_3  and  C1'_4 
REMARK    2  A    between atoms: C1'_4  and  C1_5 
ROOT
ATOM      1  C1  I4B d   1       1.839   0.392   1.515  0.00  0.00    -0.075 A 
ATOM      2  C2  I4B d   1       1.393  -0.867   1.832  0.00  0.00     0.003 A 
ATOM      3  C3  I4B d   1       0.223  -1.383   1.223  0.00  0.00     0.002 A 
ATOM      4  C4  I4B d   1      -0.491  -0.592   0.346  0.00  0.00    -0.004 A 
ATOM      5  C5  I4B d   1      -0.024   0.675   0.008  0.00  0.00     0.002 A 
ATOM      6  C6  I4B d   1       1.155   1.166   0.587  0.00  0.00     0.003 A 
ENDROOT
BRANCH   1   7
ATOM      7  C1' I4B d   1       3.060   0.918   2.202  0.00  0.00     0.060 C 
BRANCH   7   8
ATOM      8  C2' I4B d   1       2.606   1.767   3.372  0.00  0.00    -0.013 C 
ATOM      9  C4' I4B d   1       2.420   0.933   4.612  0.00  0.00     0.013 C 
ATOM     10  C3' I4B d   1       3.632   2.839   3.590  0.00  0.00     0.013 C 
ENDBRANCH   7   8
ENDBRANCH   1   7
TORSDOF 2
ENDMDL
