MODEL 1
REMARK minimizedAffinity -0.0108362632
REMARK minimizedRMSD -1
REMARK  2 active torsions:
REMARK  status: ('A' for Active; 'I' for Inactive)
REMARK    1  A    between atoms: C2'_3  and  C1'_4 
REMARK    2  A    between atoms: C1'_4  and  C1_5 
ROOT
ATOM      1  C1  I4B d   1       0.361   1.453   0.349  0.00  0.00    -0.075 A 
ATOM      2  C2  I4B d   1       1.681   1.110   0.503  0.00  0.00     0.003 A 
ATOM      3  C3  I4B d   1       2.081  -0.245   0.403  0.00  0.00     0.002 A 
ATOM      4  C4  I4B d   1       1.128  -1.222   0.199  0.00  0.00    -0.004 A 
ATOM      5  C5  I4B d   1      -0.207  -0.869   0.020  0.00  0.00     0.002 A 
ATOM      6  C6  I4B d   1      -0.592   0.478   0.084  0.00  0.00     0.003 A 
ENDROOT
BRANCH   1   7
ATOM      7  C1' I4B d   1      -0.032   2.890   0.494  0.00  0.00     0.060 C 
BRANCH   7   8
ATOM      8  C2' I4B d   1      -1.141   2.968   1.523  0.00  0.00    -0.013 C 
ATOM      9  C4' I4B d   1      -1.147   4.305   2.217  0.00  0.00     0.013 C 
ATOM     10  C3' I4B d   1      -2.443   2.717   0.821  0.00  0.00     0.013 C 
ENDBRANCH   7   8
ENDBRANCH   1   7
TORSDOF 2
ENDMDL
