MODEL 1
REMARK minimizedAffinity 1.27253211
REMARK minimizedRMSD -1
REMARK  2 active torsions:
REMARK  status: ('A' for Active; 'I' for Inactive)
REMARK    1  A    between atoms: C2'_3  and  C1'_4 
REMARK    2  A    between atoms: C1'_4  and  C1_5 
ROOT
ATOM      1  C1  I4B d   1      -0.544   1.119   0.900  0.00  0.00    -0.075 A 
ATOM      2  C2  I4B d   1      -0.685  -0.233   0.708  0.00  0.00     0.003 A 
ATOM      3  C3  I4B d   1       0.451  -1.078   0.734  0.00  0.00     0.002 A 
ATOM      4  C4  I4B d   1       1.705  -0.527   0.903  0.00  0.00    -0.004 A 
ATOM      5  C5  I4B d   1       1.843   0.841   1.120  0.00  0.00     0.002 A 
ATOM      6  C6  I4B d   1       0.710   1.668   1.131  0.00  0.00     0.003 A 
ENDROOT
BRANCH   1   7
ATOM      7  C1' I4B d   1      -1.761   1.986   0.834  0.00  0.00     0.060 C 
BRANCH   7   8
ATOM      8  C2' I4B d   1      -1.877   2.729   2.149  0.00  0.00    -0.013 C 
ATOM      9  C4' I4B d   1      -1.475   4.173   1.997  0.00  0.00     0.013 C 
ATOM     10  C3' I4B d   1      -3.293   2.609   2.626  0.00  0.00     0.013 C 
ENDBRANCH   7   8
ENDBRANCH   1   7
TORSDOF 2
ENDMDL
