MODEL 1
REMARK minimizedAffinity -3.32536483
REMARK minimizedRMSD -1
REMARK  2 active torsions:
REMARK  status: ('A' for Active; 'I' for Inactive)
REMARK    1  A    between atoms: C2'_3  and  C1'_4 
REMARK    2  A    between atoms: C1'_4  and  C1_5 
ROOT
ATOM      1  C1  I4B d   1      -0.730   1.345   0.501  0.00  0.00    -0.075 A 
ATOM      2  C2  I4B d   1      -1.005   0.009   0.349  0.00  0.00     0.003 A 
ATOM      3  C3  I4B d   1       0.051  -0.926   0.219  0.00  0.00     0.002 A 
ATOM      4  C4  I4B d   1       1.356  -0.479   0.196  0.00  0.00    -0.004 A 
ATOM      5  C5  I4B d   1       1.634   0.874   0.373  0.00  0.00     0.002 A 
ATOM      6  C6  I4B d   1       0.585   1.790   0.539  0.00  0.00     0.003 A 
ENDROOT
BRANCH   1   7
ATOM      7  C1' I4B d   1      -1.869   2.308   0.602  0.00  0.00     0.060 C 
BRANCH   7   8
ATOM      8  C2' I4B d   1      -1.748   3.037   1.925  0.00  0.00    -0.013 C 
ATOM      9  C4' I4B d   1      -1.414   4.491   1.718  0.00  0.00     0.013 C 
ATOM     10  C3' I4B d   1      -3.046   2.879   2.660  0.00  0.00     0.013 C 
ENDBRANCH   7   8
ENDBRANCH   1   7
TORSDOF 2
ENDMDL
