MODEL 1
REMARK minimizedAffinity 0.0574576408
REMARK minimizedRMSD -1
REMARK  2 active torsions:
REMARK  status: ('A' for Active; 'I' for Inactive)
REMARK    1  A    between atoms: C2'_3  and  C1'_4 
REMARK    2  A    between atoms: C1'_4  and  C1_5 
ROOT
ATOM      1  C1  I4B d   1      -1.927   0.139  -0.522  0.00  0.00    -0.075 A 
ATOM      2  C2  I4B d   1      -2.548   1.108   0.226  0.00  0.00     0.003 A 
ATOM      3  C3  I4B d   1      -3.427   2.030  -0.392  0.00  0.00     0.002 A 
ATOM      4  C4  I4B d   1      -3.616   1.979  -1.758  0.00  0.00    -0.004 A 
ATOM      5  C5  I4B d   1      -3.004   0.982  -2.511  0.00  0.00     0.002 A 
ATOM      6  C6  I4B d   1      -2.163   0.048  -1.888  0.00  0.00     0.003 A 
ENDROOT
BRANCH   1   7
ATOM      7  C1' I4B d   1      -0.979  -0.798   0.157  0.00  0.00     0.060 C 
BRANCH   7   8
ATOM      8  C2' I4B d   1       0.428  -0.426  -0.265  0.00  0.00    -0.013 C 
ATOM      9  C4' I4B d   1       0.790   0.958   0.207  0.00  0.00     0.013 C 
ATOM     10  C3' I4B d   1       1.367  -1.452   0.296  0.00  0.00     0.013 C 
ENDBRANCH   7   8
ENDBRANCH   1   7
TORSDOF 2
ENDMDL
