MODEL 1
REMARK minimizedAffinity -2.56182027
REMARK minimizedRMSD -1
REMARK  2 active torsions:
REMARK  status: ('A' for Active; 'I' for Inactive)
REMARK    1  A    between atoms: C2'_3  and  C1'_4 
REMARK    2  A    between atoms: C1'_4  and  C1_5 
ROOT
ATOM      1  C1  I4B d   1      -0.384   0.948   0.375  0.00  0.00    -0.075 A 
ATOM      2  C2  I4B d   1       0.920   1.374   0.363  0.00  0.00     0.003 A 
ATOM      3  C3  I4B d   1       1.977   0.436   0.450  0.00  0.00     0.002 A 
ATOM      4  C4  I4B d   1       1.685  -0.905   0.597  0.00  0.00    -0.004 A 
ATOM      5  C5  I4B d   1       0.362  -1.337   0.585  0.00  0.00     0.002 A 
ATOM      6  C6  I4B d   1      -0.679  -0.406   0.461  0.00  0.00     0.003 A 
ENDROOT
BRANCH   1   7
ATOM      7  C1' I4B d   1      -1.476   1.969   0.315  0.00  0.00     0.060 C 
BRANCH   7   8
ATOM      8  C2' I4B d   1      -1.461   2.746   1.615  0.00  0.00    -0.013 C 
ATOM      9  C4' I4B d   1      -1.167   4.204   1.377  0.00  0.00     0.013 C 
ATOM     10  C3' I4B d   1      -2.794   2.564   2.279  0.00  0.00     0.013 C 
ENDBRANCH   7   8
ENDBRANCH   1   7
TORSDOF 2
ENDMDL
