MODEL 1
REMARK minimizedAffinity -2.98260999
REMARK minimizedRMSD -1
REMARK  2 active torsions:
REMARK  status: ('A' for Active; 'I' for Inactive)
REMARK    1  A    between atoms: C2'_3  and  C1'_4 
REMARK    2  A    between atoms: C1'_4  and  C1_5 
ROOT
ATOM      1  C1  I4B d   1      -0.925  -0.385  -0.773  0.00  0.00    -0.075 A 
ATOM      2  C2  I4B d   1       0.294   0.090  -1.191  0.00  0.00     0.003 A 
ATOM      3  C3  I4B d   1       1.490  -0.456  -0.664  0.00  0.00     0.002 A 
ATOM      4  C4  I4B d   1       1.421  -1.432   0.309  0.00  0.00    -0.004 A 
ATOM      5  C5  I4B d   1       0.185  -1.928   0.714  0.00  0.00     0.002 A 
ATOM      6  C6  I4B d   1      -0.995  -1.411   0.161  0.00  0.00     0.003 A 
ENDROOT
BRANCH   1   7
ATOM      7  C1' I4B d   1      -2.168   0.236  -1.326  0.00  0.00     0.060 C 
BRANCH   7   8
ATOM      8  C2' I4B d   1      -2.728  -0.698  -2.380  0.00  0.00    -0.013 C 
ATOM      9  C4' I4B d   1      -3.871  -1.513  -1.834  0.00  0.00     0.013 C 
ATOM     10  C3' I4B d   1      -3.164   0.132  -3.549  0.00  0.00     0.013 C 
ENDBRANCH   7   8
ENDBRANCH   1   7
TORSDOF 2
ENDMDL
