MODEL 1
REMARK minimizedAffinity -3.23289275
REMARK minimizedRMSD -1
REMARK  0 active torsions:
REMARK  status: ('A' for Active; 'I' for Inactive)
ROOT
ATOM      1  O1  BZF d   1      -2.084   1.376   1.867  0.00  0.00    -0.204 OA
ATOM      2  C2  BZF d   1      -2.542   2.216   0.870  0.00  0.00     0.174 A 
ATOM      3  C3  BZF d   1      -1.833   2.043  -0.264  0.00  0.00    -0.012 A 
ATOM      4  C3A BZF d   1      -0.933   0.967   0.015  0.00  0.00    -0.107 A 
ATOM      5  C4  BZF d   1       0.018   0.322  -0.724  0.00  0.00     0.055 A 
ATOM      6  C5  BZF d   1       0.774  -0.639  -0.132  0.00  0.00    -0.016 A 
ATOM      7  C6  BZF d   1       0.611  -0.977   1.196  0.00  0.00     0.022 A 
ATOM      8  C7  BZF d   1      -0.323  -0.369   1.967  0.00  0.00     0.029 A 
ATOM      9  C7A BZF d   1      -1.111   0.580   1.363  0.00  0.00     0.058 A 
ENDROOT
TORSDOF 0
ENDMDL
