MODEL 1
REMARK minimizedAffinity -5.83309412
REMARK minimizedRMSD -1
REMARK  0 active torsions:
REMARK  status: ('A' for Active; 'I' for Inactive)
ROOT
ATOM      1  O1  BZF d   1       1.218   1.075  -1.456  0.00  0.00    -0.204 OA
ATOM      2  C2  BZF d   1       1.080   2.342  -1.988  0.00  0.00     0.174 A 
ATOM      3  C3  BZF d   1       0.024   2.978  -1.441  0.00  0.00    -0.012 A 
ATOM      4  C3A BZF d   1      -0.478   2.084  -0.443  0.00  0.00    -0.107 A 
ATOM      5  C4  BZF d   1      -1.508   2.157   0.450  0.00  0.00     0.055 A 
ATOM      6  C5  BZF d   1      -1.778   1.083   1.237  0.00  0.00    -0.016 A 
ATOM      7  C6  BZF d   1      -1.042  -0.081   1.154  0.00  0.00     0.022 A 
ATOM      8  C7  BZF d   1      -0.007  -0.199   0.287  0.00  0.00     0.029 A 
ATOM      9  C7A BZF d   1       0.289   0.897  -0.487  0.00  0.00     0.058 A 
ENDROOT
TORSDOF 0
ENDMDL
