MODEL 1
REMARK minimizedAffinity -2.21926332
REMARK minimizedRMSD -1
REMARK  0 active torsions:
REMARK  status: ('A' for Active; 'I' for Inactive)
ROOT
ATOM      1  O1  BZF d   1       0.543   1.266  -1.381  0.00  0.00    -0.204 OA
ATOM      2  C2  BZF d   1       0.644  -0.104  -1.233  0.00  0.00     0.174 A 
ATOM      3  C3  BZF d   1       0.009  -0.512  -0.115  0.00  0.00    -0.012 A 
ATOM      4  C3A BZF d   1      -0.599   0.666   0.423  0.00  0.00    -0.107 A 
ATOM      5  C4  BZF d   1      -1.380   0.902   1.519  0.00  0.00     0.055 A 
ATOM      6  C5  BZF d   1      -1.749   2.179   1.804  0.00  0.00    -0.016 A 
ATOM      7  C6  BZF d   1      -1.353   3.241   1.018  0.00  0.00     0.022 A 
ATOM      8  C7  BZF d   1      -0.583   3.056  -0.082  0.00  0.00     0.029 A 
ATOM      9  C7A BZF d   1      -0.236   1.763  -0.390  0.00  0.00     0.058 A 
ENDROOT
TORSDOF 0
ENDMDL
