MODEL 1
REMARK minimizedAffinity -4.36936378
REMARK minimizedRMSD -1
REMARK  0 active torsions:
REMARK  status: ('A' for Active; 'I' for Inactive)
ROOT
ATOM      1  O1  BZF d   1      -0.040   0.337  -1.436  0.00  0.00    -0.204 OA
ATOM      2  C2  BZF d   1       0.643  -0.854  -1.280  0.00  0.00     0.174 A 
ATOM      3  C3  BZF d   1       0.609  -1.260   0.006  0.00  0.00    -0.012 A 
ATOM      4  C3A BZF d   1      -0.220  -0.308   0.679  0.00  0.00    -0.107 A 
ATOM      5  C4  BZF d   1      -0.645  -0.181   1.971  0.00  0.00     0.055 A 
ATOM      6  C5  BZF d   1      -1.387   0.903   2.318  0.00  0.00    -0.016 A 
ATOM      7  C6  BZF d   1      -1.718   1.880   1.403  0.00  0.00     0.022 A 
ATOM      8  C7  BZF d   1      -1.324   1.795   0.109  0.00  0.00     0.029 A 
ATOM      9  C7A BZF d   1      -0.601   0.684  -0.253  0.00  0.00     0.058 A 
ENDROOT
TORSDOF 0
ENDMDL
