MODEL 1
REMARK minimizedAffinity -0.679420233
REMARK minimizedRMSD -1
REMARK  0 active torsions:
REMARK  status: ('A' for Active; 'I' for Inactive)
ROOT
ATOM      1  O1  BZF d   1      -0.944   2.151   0.053  0.00  0.00    -0.204 OA
ATOM      2  C2  BZF d   1      -0.467   2.743  -1.101  0.00  0.00     0.174 A 
ATOM      3  C3  BZF d   1       0.383   1.917  -1.746  0.00  0.00    -0.012 A 
ATOM      4  C3A BZF d   1       0.368   0.700  -0.994  0.00  0.00    -0.107 A 
ATOM      5  C4  BZF d   1       0.998  -0.503  -1.143  0.00  0.00     0.055 A 
ATOM      6  C5  BZF d   1       0.826  -1.460  -0.194  0.00  0.00    -0.016 A 
ATOM      7  C6  BZF d   1       0.037  -1.247   0.918  0.00  0.00     0.022 A 
ATOM      8  C7  BZF d   1      -0.612  -0.072   1.106  0.00  0.00     0.029 A 
ATOM      9  C7A BZF d   1      -0.466   0.886   0.132  0.00  0.00     0.058 A 
ENDROOT
TORSDOF 0
ENDMDL
