MODEL 1
REMARK minimizedAffinity -4.89910603
REMARK minimizedRMSD -1
REMARK  0 active torsions:
REMARK  status: ('A' for Active; 'I' for Inactive)
ROOT
ATOM      1  O1  BZF d   1      -1.556   2.739   0.453  0.00  0.00    -0.204 OA
ATOM      2  C2  BZF d   1      -2.274   2.448   1.597  0.00  0.00     0.174 A 
ATOM      3  C3  BZF d   1      -1.955   1.223   2.063  0.00  0.00    -0.012 A 
ATOM      4  C3A BZF d   1      -0.910   0.754   1.205  0.00  0.00    -0.107 A 
ATOM      5  C4  BZF d   1      -0.169  -0.392   1.168  0.00  0.00     0.055 A 
ATOM      6  C5  BZF d   1       0.722  -0.571   0.158  0.00  0.00    -0.016 A 
ATOM      7  C6  BZF d   1       0.893   0.372  -0.834  0.00  0.00     0.022 A 
ATOM      8  C7  BZF d   1       0.184   1.528  -0.837  0.00  0.00     0.029 A 
ATOM      9  C7A BZF d   1      -0.693   1.726   0.201  0.00  0.00     0.058 A 
ENDROOT
TORSDOF 0
ENDMDL
