MODEL 1
REMARK minimizedAffinity -5.40662622
REMARK minimizedRMSD -1
REMARK  0 active torsions:
REMARK  status: ('A' for Active; 'I' for Inactive)
ROOT
ATOM      1  O1  BZF d   1      -1.478   0.007   1.565  0.00  0.00    -0.204 OA
ATOM      2  C2  BZF d   1      -2.231   1.154   1.729  0.00  0.00     0.174 A 
ATOM      3  C3  BZF d   1      -1.774   2.144   0.934  0.00  0.00    -0.012 A 
ATOM      4  C3A BZF d   1      -0.725   1.552   0.162  0.00  0.00    -0.107 A 
ATOM      5  C4  BZF d   1       0.103   2.027  -0.815  0.00  0.00     0.055 A 
ATOM      6  C5  BZF d   1       1.070   1.212  -1.314  0.00  0.00    -0.016 A 
ATOM      7  C6  BZF d   1       1.240  -0.078  -0.856  0.00  0.00     0.022 A 
ATOM      8  C7  BZF d   1       0.439  -0.595   0.108  0.00  0.00     0.029 A 
ATOM      9  C7A BZF d   1      -0.560   0.215   0.591  0.00  0.00     0.058 A 
ENDROOT
TORSDOF 0
ENDMDL
