MODEL 1
REMARK minimizedAffinity -1.82458282
REMARK minimizedRMSD -1
REMARK  0 active torsions:
REMARK  status: ('A' for Active; 'I' for Inactive)
ROOT
ATOM      1  O1  BZF d   1      -0.412  -0.463  -0.746  0.00  0.00    -0.204 OA
ATOM      2  C2  BZF d   1       0.811  -0.932  -0.307  0.00  0.00     0.174 A 
ATOM      3  C3  BZF d   1       1.201  -0.281   0.807  0.00  0.00    -0.012 A 
ATOM      4  C3A BZF d   1       0.114   0.589   1.135  0.00  0.00    -0.107 A 
ATOM      5  C4  BZF d   1      -0.103   1.481   2.146  0.00  0.00     0.055 A 
ATOM      6  C5  BZF d   1      -1.239   2.227   2.137  0.00  0.00    -0.016 A 
ATOM      7  C6  BZF d   1      -2.176   2.110   1.132  0.00  0.00     0.022 A 
ATOM      8  C7  BZF d   1      -2.008   1.235   0.111  0.00  0.00     0.029 A 
ATOM      9  C7A BZF d   1      -0.876   0.457   0.134  0.00  0.00     0.058 A 
ENDROOT
TORSDOF 0
ENDMDL
