MODEL 1
REMARK minimizedAffinity -4.3689909
REMARK minimizedRMSD -1
REMARK  0 active torsions:
REMARK  status: ('A' for Active; 'I' for Inactive)
ROOT
ATOM      1  O1  BZF d   1      -1.019  -0.168   0.302  0.00  0.00    -0.204 OA
ATOM      2  C2  BZF d   1      -0.051  -1.125   0.539  0.00  0.00     0.174 A 
ATOM      3  C3  BZF d   1       1.122  -0.769  -0.024  0.00  0.00    -0.012 A 
ATOM      4  C3A BZF d   1       0.895   0.532  -0.575  0.00  0.00    -0.107 A 
ATOM      5  C4  BZF d   1       1.687   1.417  -1.248  0.00  0.00     0.055 A 
ATOM      6  C5  BZF d   1       1.141   2.571  -1.713  0.00  0.00    -0.016 A 
ATOM      7  C6  BZF d   1      -0.193   2.870  -1.527  0.00  0.00     0.022 A 
ATOM      8  C7  BZF d   1      -1.017   2.025  -0.861  0.00  0.00     0.029 A 
ATOM      9  C7A BZF d   1      -0.460   0.873  -0.361  0.00  0.00     0.058 A 
ENDROOT
TORSDOF 0
ENDMDL
