MODEL 1
REMARK minimizedAffinity -2.12757325
REMARK minimizedRMSD -1
REMARK  0 active torsions:
REMARK  status: ('A' for Active; 'I' for Inactive)
ROOT
ATOM      1  O1  BZF d   1       0.630   0.486  -0.749  0.00  0.00    -0.204 OA
ATOM      2  C2  BZF d   1       0.714  -0.742  -0.123  0.00  0.00     0.174 A 
ATOM      3  C3  BZF d   1       0.045  -0.730   1.048  0.00  0.00    -0.012 A 
ATOM      4  C3A BZF d   1      -0.568   0.561   1.117  0.00  0.00    -0.107 A 
ATOM      5  C4  BZF d   1      -1.377   1.169   2.035  0.00  0.00     0.055 A 
ATOM      6  C5  BZF d   1      -1.743   2.462   1.838  0.00  0.00    -0.016 A 
ATOM      7  C6  BZF d   1      -1.316   3.179   0.740  0.00  0.00     0.022 A 
ATOM      8  C7  BZF d   1      -0.517   2.618  -0.200  0.00  0.00     0.029 A 
ATOM      9  C7A BZF d   1      -0.172   1.300  -0.021  0.00  0.00     0.058 A 
ENDROOT
TORSDOF 0
ENDMDL
