MODEL 1
REMARK minimizedAffinity -3.25924969
REMARK minimizedRMSD -1
REMARK  0 active torsions:
REMARK  status: ('A' for Active; 'I' for Inactive)
ROOT
ATOM      1  O1  BZF d   1      -1.918   2.985   1.131  0.00  0.00    -0.204 OA
ATOM      2  C2  BZF d   1      -1.086   3.529   0.172  0.00  0.00     0.174 A 
ATOM      3  C3  BZF d   1      -0.152   2.635  -0.213  0.00  0.00    -0.012 A 
ATOM      4  C3A BZF d   1      -0.474   1.429   0.486  0.00  0.00    -0.107 A 
ATOM      5  C4  BZF d   1       0.078   0.181   0.509  0.00  0.00     0.055 A 
ATOM      6  C5  BZF d   1      -0.431  -0.752   1.355  0.00  0.00    -0.016 A 
ATOM      7  C6  BZF d   1      -1.488  -0.469   2.196  0.00  0.00     0.022 A 
ATOM      8  C7  BZF d   1      -2.072   0.753   2.206  0.00  0.00     0.029 A 
ATOM      9  C7A BZF d   1      -1.581   1.688   1.328  0.00  0.00     0.058 A 
ENDROOT
TORSDOF 0
ENDMDL
