MODEL 1
REMARK minimizedAffinity -1.76645446
REMARK minimizedRMSD -1
REMARK  0 active torsions:
REMARK  status: ('A' for Active; 'I' for Inactive)
ROOT
ATOM      1  O1  BZF d   1      -0.354  -0.368  -1.612  0.00  0.00    -0.204 OA
ATOM      2  C2  BZF d   1       0.136  -0.032  -0.365  0.00  0.00     0.174 A 
ATOM      3  C3  BZF d   1       0.911  -1.020   0.127  0.00  0.00    -0.012 A 
ATOM      4  C3A BZF d   1       0.980  -1.998  -0.915  0.00  0.00    -0.107 A 
ATOM      5  C4  BZF d   1       1.615  -3.202  -1.033  0.00  0.00     0.055 A 
ATOM      6  C5  BZF d   1       1.420  -3.945  -2.154  0.00  0.00    -0.016 A 
ATOM      7  C6  BZF d   1       0.593  -3.518  -3.173  0.00  0.00     0.022 A 
ATOM      8  C7  BZF d   1      -0.054  -2.329  -3.104  0.00  0.00     0.029 A 
ATOM      9  C7A BZF d   1       0.168  -1.561  -1.987  0.00  0.00     0.058 A 
ENDROOT
TORSDOF 0
ENDMDL
