MODEL 1
REMARK minimizedAffinity -3.95243311
REMARK minimizedRMSD -1
REMARK  0 active torsions:
REMARK  status: ('A' for Active; 'I' for Inactive)
ROOT
ATOM      1  O1  BZF d   1       0.860  -1.506   0.367  0.00  0.00    -0.204 OA
ATOM      2  C2  BZF d   1       1.118  -1.402  -0.986  0.00  0.00     0.174 A 
ATOM      3  C3  BZF d   1       0.432  -0.375  -1.527  0.00  0.00    -0.012 A 
ATOM      4  C3A BZF d   1      -0.230   0.256  -0.426  0.00  0.00    -0.107 A 
ATOM      5  C4  BZF d   1      -1.051   1.342  -0.322  0.00  0.00     0.055 A 
ATOM      6  C5  BZF d   1      -1.588   1.651   0.887  0.00  0.00    -0.016 A 
ATOM      7  C6  BZF d   1      -1.331   0.893   2.011  0.00  0.00     0.022 A 
ATOM      8  C7  BZF d   1      -0.519  -0.191   1.958  0.00  0.00     0.029 A 
ATOM      9  C7A BZF d   1       0.052  -0.486   0.744  0.00  0.00     0.058 A 
ENDROOT
TORSDOF 0
ENDMDL
