MODEL 1
REMARK minimizedAffinity -2.55165625
REMARK minimizedRMSD -1
REMARK  0 active torsions:
REMARK  status: ('A' for Active; 'I' for Inactive)
ROOT
ATOM      1  O1  BZF d   1      -1.548   1.934  -0.116  0.00  0.00    -0.204 OA
ATOM      2  C2  BZF d   1      -2.059   1.984   1.166  0.00  0.00     0.174 A 
ATOM      3  C3  BZF d   1      -1.596   0.956   1.906  0.00  0.00    -0.012 A 
ATOM      4  C3A BZF d   1      -0.671   0.268   1.058  0.00  0.00    -0.107 A 
ATOM      5  C4  BZF d   1       0.124  -0.828   1.231  0.00  0.00     0.055 A 
ATOM      6  C5  BZF d   1       0.855  -1.286   0.181  0.00  0.00    -0.016 A 
ATOM      7  C6  BZF d   1       0.811  -0.675  -1.056  0.00  0.00     0.022 A 
ATOM      8  C7  BZF d   1       0.041   0.418  -1.274  0.00  0.00     0.029 A 
ATOM      9  C7A BZF d   1      -0.674   0.903  -0.206  0.00  0.00     0.058 A 
ENDROOT
TORSDOF 0
ENDMDL
