MODEL 1
REMARK minimizedAffinity -3.97751665
REMARK minimizedRMSD -1
REMARK  0 active torsions:
REMARK  status: ('A' for Active; 'I' for Inactive)
ROOT
ATOM      1  O1  BZF d   1      -1.573  -0.935   0.594  0.00  0.00    -0.204 OA
ATOM      2  C2  BZF d   1      -0.768  -0.289   1.512  0.00  0.00     0.174 A 
ATOM      3  C3  BZF d   1       0.526  -0.343   1.135  0.00  0.00    -0.012 A 
ATOM      4  C3A BZF d   1       0.519  -0.988  -0.142  0.00  0.00    -0.107 A 
ATOM      5  C4  BZF d   1       1.501  -1.317  -1.033  0.00  0.00     0.055 A 
ATOM      6  C5  BZF d   1       1.170  -2.007  -2.155  0.00  0.00    -0.016 A 
ATOM      7  C6  BZF d   1      -0.130  -2.389  -2.416  0.00  0.00     0.022 A 
ATOM      8  C7  BZF d   1      -1.139  -2.081  -1.565  0.00  0.00     0.029 A 
ATOM      9  C7A BZF d   1      -0.812  -1.354  -0.446  0.00  0.00     0.058 A 
ENDROOT
TORSDOF 0
ENDMDL
