MODEL 1
REMARK minimizedAffinity -4.97548294
REMARK minimizedRMSD -1
REMARK  0 active torsions:
REMARK  status: ('A' for Active; 'I' for Inactive)
ROOT
ATOM      1  O1  BZF d   1       1.230  -0.554   0.479  0.00  0.00    -0.204 OA
ATOM      2  C2  BZF d   1       1.813  -0.298  -0.747  0.00  0.00     0.174 A 
ATOM      3  C3  BZF d   1       1.131   0.657  -1.412  0.00  0.00    -0.012 A 
ATOM      4  C3A BZF d   1       0.109   1.087  -0.508  0.00  0.00    -0.107 A 
ATOM      5  C4  BZF d   1      -0.880   2.026  -0.587  0.00  0.00     0.055 A 
ATOM      6  C5  BZF d   1      -1.759   2.147   0.443  0.00  0.00    -0.016 A 
ATOM      7  C6  BZF d   1      -1.682   1.344   1.562  0.00  0.00     0.022 A 
ATOM      8  C7  BZF d   1      -0.715   0.402   1.687  0.00  0.00     0.029 A 
ATOM      9  C7A BZF d   1       0.194   0.299   0.663  0.00  0.00     0.058 A 
ENDROOT
TORSDOF 0
ENDMDL
