MODEL 1
REMARK minimizedAffinity -2.98999715
REMARK minimizedRMSD -1
REMARK  0 active torsions:
REMARK  status: ('A' for Active; 'I' for Inactive)
ROOT
ATOM      1  O1  BZF d   1      -0.268  -1.275   0.142  0.00  0.00    -0.204 OA
ATOM      2  C2  BZF d   1       0.567  -0.697  -0.795  0.00  0.00     0.174 A 
ATOM      3  C3  BZF d   1       0.618   0.641  -0.629  0.00  0.00    -0.012 A 
ATOM      4  C3A BZF d   1      -0.166   0.905   0.538  0.00  0.00    -0.107 A 
ATOM      5  C4  BZF d   1      -0.482   2.047   1.218  0.00  0.00     0.055 A 
ATOM      6  C5  BZF d   1      -1.330   1.972   2.277  0.00  0.00    -0.016 A 
ATOM      7  C6  BZF d   1      -1.885   0.774   2.680  0.00  0.00     0.022 A 
ATOM      8  C7  BZF d   1      -1.598  -0.385   2.039  0.00  0.00     0.029 A 
ATOM      9  C7A BZF d   1      -0.715  -0.317   0.989  0.00  0.00     0.058 A 
ENDROOT
TORSDOF 0
ENDMDL
