MODEL 1
REMARK minimizedAffinity -3.11562777
REMARK minimizedRMSD -1
REMARK  0 active torsions:
REMARK  status: ('A' for Active; 'I' for Inactive)
ROOT
ATOM      1  C1  BNZ d   1      -0.529  -1.328   0.642  0.00  0.00     0.000 A 
ATOM      2  C2  BNZ d   1      -0.493   0.008   0.939  0.00  0.00     0.000 A 
ATOM      3  C3  BNZ d   1       0.306   0.862   0.231  0.00  0.00     0.000 A 
ATOM      4  C4  BNZ d   1       1.096   0.372  -0.746  0.00  0.00     0.000 A 
ATOM      5  C5  BNZ d   1       1.078  -0.974  -1.051  0.00  0.00     0.000 A 
ATOM      6  C6  BNZ d   1       0.244  -1.824  -0.362  0.00  0.00     0.000 A 
ENDROOT
TORSDOF 0
ENDMDL
