MODEL 1
REMARK minimizedAffinity -4.46013546
REMARK minimizedRMSD -1
REMARK  0 active torsions:
REMARK  status: ('A' for Active; 'I' for Inactive)
ROOT
ATOM      1  C1  BNZ d   1       1.629   0.320  -1.614  0.00  0.00     0.000 A 
ATOM      2  C2  BNZ d   1       0.630   0.664  -0.742  0.00  0.00     0.000 A 
ATOM      3  C3  BNZ d   1      -0.068  -0.296  -0.063  0.00  0.00     0.000 A 
ATOM      4  C4  BNZ d   1       0.206  -1.597  -0.286  0.00  0.00     0.000 A 
ATOM      5  C5  BNZ d   1       1.204  -1.960  -1.168  0.00  0.00     0.000 A 
ATOM      6  C6  BNZ d   1       1.931  -0.991  -1.821  0.00  0.00     0.000 A 
ENDROOT
TORSDOF 0
ENDMDL
