MODEL 1
REMARK minimizedAffinity -3.50015235
REMARK minimizedRMSD -1
REMARK  0 active torsions:
REMARK  status: ('A' for Active; 'I' for Inactive)
ROOT
ATOM      1  C1  BNZ d   1      -0.152   0.157   0.772  0.00  0.00     0.000 A 
ATOM      2  C2  BNZ d   1      -0.255  -1.205   0.676  0.00  0.00     0.000 A 
ATOM      3  C3  BNZ d   1       0.528  -1.906  -0.198  0.00  0.00     0.000 A 
ATOM      4  C4  BNZ d   1       1.383  -1.242  -1.002  0.00  0.00     0.000 A 
ATOM      5  C5  BNZ d   1       1.492   0.132  -0.923  0.00  0.00     0.000 A 
ATOM      6  C6  BNZ d   1       0.730   0.831  -0.015  0.00  0.00     0.000 A 
ENDROOT
TORSDOF 0
ENDMDL
