MODEL 1
REMARK minimizedAffinity -2.42890739
REMARK minimizedRMSD -1
REMARK  0 active torsions:
REMARK  status: ('A' for Active; 'I' for Inactive)
ROOT
ATOM      1  C1  BNZ d   1       0.298   1.885   0.305  0.00  0.00     0.000 A 
ATOM      2  C2  BNZ d   1       1.239   2.288  -0.604  0.00  0.00     0.000 A 
ATOM      3  C3  BNZ d   1       1.975   1.372  -1.303  0.00  0.00     0.000 A 
ATOM      4  C4  BNZ d   1       1.797   0.056  -1.062  0.00  0.00     0.000 A 
ATOM      5  C5  BNZ d   1       0.859  -0.366  -0.141  0.00  0.00     0.000 A 
ATOM      6  C6  BNZ d   1       0.093   0.558   0.531  0.00  0.00     0.000 A 
ENDROOT
TORSDOF 0
ENDMDL
