MODEL 1
REMARK minimizedAffinity -1.58855605
REMARK minimizedRMSD -1
REMARK  0 active torsions:
REMARK  status: ('A' for Active; 'I' for Inactive)
ROOT
ATOM      1  C1  BNZ d   1      -2.834   1.893  -5.539  0.00  0.00     0.000 A 
ATOM      2  C2  BNZ d   1      -3.852   2.712  -5.948  0.00  0.00     0.000 A 
ATOM      3  C3  BNZ d   1      -3.700   4.071  -5.949  0.00  0.00     0.000 A 
ATOM      4  C4  BNZ d   1      -2.547   4.609  -5.503  0.00  0.00     0.000 A 
ATOM      5  C5  BNZ d   1      -1.514   3.797  -5.078  0.00  0.00     0.000 A 
ATOM      6  C6  BNZ d   1      -1.657   2.429  -5.116  0.00  0.00     0.000 A 
ENDROOT
TORSDOF 0
ENDMDL
