MODEL 1
REMARK minimizedAffinity -1.10386372
REMARK minimizedRMSD -1
REMARK  0 active torsions:
REMARK  status: ('A' for Active; 'I' for Inactive)
ROOT
ATOM      1  C1  BNZ d   1       1.631   3.041  -1.861  0.00  0.00     0.000 A 
ATOM      2  C2  BNZ d   1       2.158   2.032  -2.622  0.00  0.00     0.000 A 
ATOM      3  C3  BNZ d   1       2.175   0.745  -2.163  0.00  0.00     0.000 A 
ATOM      4  C4  BNZ d   1       1.702   0.474  -0.930  0.00  0.00     0.000 A 
ATOM      5  C5  BNZ d   1       1.176   1.482  -0.146  0.00  0.00     0.000 A 
ATOM      6  C6  BNZ d   1       1.125   2.771  -0.627  0.00  0.00     0.000 A 
ENDROOT
TORSDOF 0
ENDMDL
