MODEL 1
REMARK minimizedAffinity 0.496254206
REMARK minimizedRMSD -1
REMARK  0 active torsions:
REMARK  status: ('A' for Active; 'I' for Inactive)
ROOT
ATOM      1  C1  BNZ d   1       2.537   0.356  -2.014  0.00  0.00     0.000 A 
ATOM      2  C2  BNZ d   1       2.359   1.495  -2.754  0.00  0.00     0.000 A 
ATOM      3  C3  BNZ d   1       1.560   2.506  -2.299  0.00  0.00     0.000 A 
ATOM      4  C4  BNZ d   1       0.910   2.362  -1.126  0.00  0.00     0.000 A 
ATOM      5  C5  BNZ d   1       1.072   1.216  -0.374  0.00  0.00     0.000 A 
ATOM      6  C6  BNZ d   1       1.907   0.216  -0.816  0.00  0.00     0.000 A 
ENDROOT
TORSDOF 0
ENDMDL
