MODEL 1
REMARK minimizedAffinity 3.09412766
REMARK minimizedRMSD -1
REMARK  0 active torsions:
REMARK  status: ('A' for Active; 'I' for Inactive)
ROOT
ATOM      1  C1  BNZ d   1      -4.440   2.585  -6.000  0.00  0.00     0.000 A 
ATOM      2  C2  BNZ d   1      -5.524   3.422  -6.000  0.00  0.00     0.000 A 
ATOM      3  C3  BNZ d   1      -5.360   4.779  -5.982  0.00  0.00     0.000 A 
ATOM      4  C4  BNZ d   1      -4.116   5.296  -5.924  0.00  0.00     0.000 A 
ATOM      5  C5  BNZ d   1      -3.013   4.465  -5.914  0.00  0.00     0.000 A 
ATOM      6  C6  BNZ d   1      -3.181   3.100  -5.971  0.00  0.00     0.000 A 
ENDROOT
TORSDOF 0
ENDMDL
