MODEL 1
REMARK minimizedAffinity -3.98363256
REMARK minimizedRMSD -1
REMARK  0 active torsions:
REMARK  status: ('A' for Active; 'I' for Inactive)
ROOT
ATOM      1  C1  BNZ d   1      -1.095  -1.539   0.529  0.00  0.00     0.000 A 
ATOM      2  C2  BNZ d   1       0.071  -0.824   0.459  0.00  0.00     0.000 A 
ATOM      3  C3  BNZ d   1       0.071   0.475   0.035  0.00  0.00     0.000 A 
ATOM      4  C4  BNZ d   1      -1.087   1.045  -0.356  0.00  0.00     0.000 A 
ATOM      5  C5  BNZ d   1      -2.270   0.335  -0.299  0.00  0.00     0.000 A 
ATOM      6  C6  BNZ d   1      -2.271  -0.961   0.165  0.00  0.00     0.000 A 
ENDROOT
TORSDOF 0
ENDMDL
