MODEL 1
REMARK minimizedAffinity -3.22080207
REMARK minimizedRMSD -1
REMARK  0 active torsions:
REMARK  status: ('A' for Active; 'I' for Inactive)
ROOT
ATOM      1  C1  BNZ d   1      -3.441   3.050  -5.997  0.00  0.00     0.000 A 
ATOM      2  C2  BNZ d   1      -3.650   4.403  -5.972  0.00  0.00     0.000 A 
ATOM      3  C3  BNZ d   1      -4.916   4.915  -5.932  0.00  0.00     0.000 A 
ATOM      4  C4  BNZ d   1      -5.972   4.076  -5.958  0.00  0.00     0.000 A 
ATOM      5  C5  BNZ d   1      -5.778   2.710  -5.993  0.00  0.00     0.000 A 
ATOM      6  C6  BNZ d   1      -4.501   2.197  -5.994  0.00  0.00     0.000 A 
ENDROOT
TORSDOF 0
ENDMDL
