MODEL 1
REMARK minimizedAffinity -3.27128744
REMARK minimizedRMSD -1
REMARK  0 active torsions:
REMARK  status: ('A' for Active; 'I' for Inactive)
ROOT
ATOM      1  C1  BNZ d   1      -4.599   3.939  -5.995  0.00  0.00     0.000 A 
ATOM      2  C2  BNZ d   1      -3.668   3.024  -5.580  0.00  0.00     0.000 A 
ATOM      3  C3  BNZ d   1      -2.432   3.426  -5.158  0.00  0.00     0.000 A 
ATOM      4  C4  BNZ d   1      -2.114   4.737  -5.188  0.00  0.00     0.000 A 
ATOM      5  C5  BNZ d   1      -3.039   5.670  -5.612  0.00  0.00     0.000 A 
ATOM      6  C6  BNZ d   1      -4.296   5.265  -6.000  0.00  0.00     0.000 A 
ENDROOT
TORSDOF 0
ENDMDL
