MODEL 1
REMARK minimizedAffinity 2.41606975
REMARK minimizedRMSD -1
REMARK  0 active torsions:
REMARK  status: ('A' for Active; 'I' for Inactive)
ROOT
ATOM      1  C1  BNZ d   1       4.701  -3.409  -2.400  0.00  0.00     0.000 A 
ATOM      2  C2  BNZ d   1       5.078  -4.027  -3.562  0.00  0.00     0.000 A 
ATOM      3  C3  BNZ d   1       4.985  -3.379  -4.762  0.00  0.00     0.000 A 
ATOM      4  C4  BNZ d   1       4.477  -2.130  -4.803  0.00  0.00     0.000 A 
ATOM      5  C5  BNZ d   1       4.084  -1.497  -3.640  0.00  0.00     0.000 A 
ATOM      6  C6  BNZ d   1       4.216  -2.138  -2.430  0.00  0.00     0.000 A 
ENDROOT
TORSDOF 0
ENDMDL
