MODEL 1
REMARK minimizedAffinity -2.87618208
REMARK minimizedRMSD -1
REMARK  0 active torsions:
REMARK  status: ('A' for Active; 'I' for Inactive)
ROOT
ATOM      1  C1  BNZ d   1      -4.397  -4.782  -6.000  0.00  0.00     0.000 A 
ATOM      2  C2  BNZ d   1      -4.950  -3.742  -5.302  0.00  0.00     0.000 A 
ATOM      3  C3  BNZ d   1      -4.163  -2.872  -4.602  0.00  0.00     0.000 A 
ATOM      4  C4  BNZ d   1      -2.829  -3.066  -4.567  0.00  0.00     0.000 A 
ATOM      5  C5  BNZ d   1      -2.257  -4.116  -5.257  0.00  0.00     0.000 A 
ATOM      6  C6  BNZ d   1      -3.049  -4.967  -5.993  0.00  0.00     0.000 A 
ENDROOT
TORSDOF 0
ENDMDL
