MODEL 1
REMARK minimizedAffinity -2.31990576
REMARK minimizedRMSD -1
REMARK  0 active torsions:
REMARK  status: ('A' for Active; 'I' for Inactive)
ROOT
ATOM      1  N1  IND d   1       4.984  -2.266  -0.592  0.00  0.00    -0.196 N 
ATOM      2  C2  IND d   1       6.000  -1.490  -1.076  0.00  0.00     0.054 A 
ATOM      3  C3  IND d   1       5.502  -0.457  -1.792  0.00  0.00    -0.031 A 
ATOM      4  C4  IND d   1       3.052   0.211  -2.214  0.00  0.00     0.051 A 
ATOM      5  C5  IND d   1       1.769  -0.212  -2.005  0.00  0.00    -0.031 A 
ATOM      6  C6  IND d   1       1.486  -1.363  -1.298  0.00  0.00     0.015 A 
ATOM      7  C7  IND d   1       2.480  -2.131  -0.761  0.00  0.00    -0.016 A 
ATOM      8  C8  IND d   1       3.784  -1.709  -0.977  0.00  0.00    -0.047 A 
ATOM      9  C9  IND d   1       4.079  -0.565  -1.730  0.00  0.00    -0.096 A 
ATOM     10  HN1 IND d   1       5.078  -2.982  -0.126  0.00  0.00     0.298 HD
ENDROOT
TORSDOF 0
ENDMDL
