MODEL 1
REMARK minimizedAffinity 7.4206481
REMARK minimizedRMSD -1
REMARK  0 active torsions:
REMARK  status: ('A' for Active; 'I' for Inactive)
ROOT
ATOM      1  N1  IND d   1      -3.597   1.614  -5.953  0.00  0.00    -0.196 N 
ATOM      2  C2  IND d   1      -2.282   1.242  -5.962  0.00  0.00     0.054 A 
ATOM      3  C3  IND d   1      -1.484   2.333  -6.000  0.00  0.00    -0.031 A 
ATOM      4  C4  IND d   1      -2.121   4.827  -5.951  0.00  0.00     0.051 A 
ATOM      5  C5  IND d   1      -3.201   5.664  -5.980  0.00  0.00    -0.031 A 
ATOM      6  C6  IND d   1      -4.495   5.184  -5.999  0.00  0.00     0.015 A 
ATOM      7  C7  IND d   1      -4.758   3.843  -5.979  0.00  0.00    -0.016 A 
ATOM      8  C8  IND d   1      -3.663   2.991  -5.956  0.00  0.00    -0.047 A 
ATOM      9  C9  IND d   1      -2.347   3.471  -5.980  0.00  0.00    -0.096 A 
ATOM     10  HN1 IND d   1      -4.270   1.079  -5.948  0.00  0.00     0.298 HD
ENDROOT
TORSDOF 0
ENDMDL
