MODEL 1
REMARK minimizedAffinity 8.55677319
REMARK minimizedRMSD -1
REMARK  0 active torsions:
REMARK  status: ('A' for Active; 'I' for Inactive)
ROOT
ATOM      1  N1  IND d   1       1.512   3.831  -1.496  0.00  0.00    -0.196 N 
ATOM      2  C2  IND d   1       1.476   4.321  -0.220  0.00  0.00     0.054 A 
ATOM      3  C3  IND d   1       1.738   3.337   0.669  0.00  0.00    -0.031 A 
ATOM      4  C4  IND d   1       2.354   0.873   0.247  0.00  0.00     0.051 A 
ATOM      5  C5  IND d   1       2.476  -0.051  -0.753  0.00  0.00    -0.031 A 
ATOM      6  C6  IND d   1       2.282   0.279  -2.078  0.00  0.00     0.015 A 
ATOM      7  C7  IND d   1       1.968   1.554  -2.456  0.00  0.00    -0.016 A 
ATOM      8  C8  IND d   1       1.836   2.493  -1.443  0.00  0.00    -0.047 A 
ATOM      9  C9  IND d   1       1.990   2.155  -0.093  0.00  0.00    -0.096 A 
ATOM     10  HN1 IND d   1       1.358   4.283  -2.212  0.00  0.00     0.298 HD
ENDROOT
TORSDOF 0
ENDMDL
