MODEL 1
REMARK minimizedAffinity 13.18046
REMARK minimizedRMSD -1
REMARK  0 active torsions:
REMARK  status: ('A' for Active; 'I' for Inactive)
ROOT
ATOM      1  N1  IND d   1      -5.014  -0.673   3.145  0.00  0.00    -0.196 N 
ATOM      2  C2  IND d   1      -5.308  -1.665   4.038  0.00  0.00     0.054 A 
ATOM      3  C3  IND d   1      -4.759  -1.391   5.243  0.00  0.00    -0.031 A 
ATOM      4  C4  IND d   1      -3.426   0.677   6.000  0.00  0.00     0.051 A 
ATOM      5  C5  IND d   1      -2.872   1.834   5.528  0.00  0.00    -0.031 A 
ATOM      6  C6  IND d   1      -3.010   2.224   4.211  0.00  0.00     0.015 A 
ATOM      7  C7  IND d   1      -3.718   1.473   3.316  0.00  0.00    -0.016 A 
ATOM      8  C8  IND d   1      -4.275   0.294   3.790  0.00  0.00    -0.047 A 
ATOM      9  C9  IND d   1      -4.103  -0.128   5.115  0.00  0.00    -0.096 A 
ATOM     10  HN1 IND d   1      -5.250  -0.657   2.318  0.00  0.00     0.298 HD
ENDROOT
TORSDOF 0
ENDMDL
