MODEL 1
REMARK minimizedAffinity 21.8510227
REMARK minimizedRMSD -1
REMARK  0 active torsions:
REMARK  status: ('A' for Active; 'I' for Inactive)
ROOT
ATOM      1  N1  IND d   1      -4.114   1.850   2.921  0.00  0.00    -0.196 N 
ATOM      2  C2  IND d   1      -3.123   2.287   3.755  0.00  0.00     0.054 A 
ATOM      3  C3  IND d   1      -3.011   1.466   4.823  0.00  0.00    -0.031 A 
ATOM      4  C4  IND d   1      -4.281  -0.708   5.356  0.00  0.00     0.051 A 
ATOM      5  C5  IND d   1      -5.307  -1.493   4.909  0.00  0.00    -0.031 A 
ATOM      6  C6  IND d   1      -6.000  -1.200   3.753  0.00  0.00     0.015 A 
ATOM      7  C7  IND d   1      -5.684  -0.111   2.990  0.00  0.00    -0.016 A 
ATOM      8  C8  IND d   1      -4.647   0.692   3.444  0.00  0.00    -0.047 A 
ATOM      9  C9  IND d   1      -3.968   0.423   4.639  0.00  0.00    -0.096 A 
ATOM     10  HN1 IND d   1      -4.363   2.233   2.193  0.00  0.00     0.298 HD
ENDROOT
TORSDOF 0
ENDMDL
