MODEL 1
REMARK minimizedAffinity 15.0476866
REMARK minimizedRMSD -1
REMARK  0 active torsions:
REMARK  status: ('A' for Active; 'I' for Inactive)
ROOT
ATOM      1  N1  IND d   1       0.114  -3.426  -4.070  0.00  0.00    -0.196 N 
ATOM      2  C2  IND d   1      -0.731  -4.422  -3.670  0.00  0.00     0.054 A 
ATOM      3  C3  IND d   1      -0.921  -4.369  -2.332  0.00  0.00    -0.031 A 
ATOM      4  C4  IND d   1      -0.025  -2.668  -0.620  0.00  0.00     0.051 A 
ATOM      5  C5  IND d   1       0.817  -1.598  -0.504  0.00  0.00    -0.031 A 
ATOM      6  C6  IND d   1       1.479  -1.070  -1.594  0.00  0.00     0.015 A 
ATOM      7  C7  IND d   1       1.314  -1.587  -2.847  0.00  0.00    -0.016 A 
ATOM      8  C8  IND d   1       0.465  -2.679  -2.967  0.00  0.00    -0.047 A 
ATOM      9  C9  IND d   1      -0.176  -3.246  -1.858  0.00  0.00    -0.096 A 
ATOM     10  HN1 IND d   1       0.382  -3.288  -4.876  0.00  0.00     0.298 HD
ENDROOT
TORSDOF 0
ENDMDL
