MODEL 1
REMARK minimizedAffinity 10.5881777
REMARK minimizedRMSD -1
REMARK  0 active torsions:
REMARK  status: ('A' for Active; 'I' for Inactive)
ROOT
ATOM      1  N1  IND d   1      -2.596  -4.138  -1.210  0.00  0.00    -0.196 N 
ATOM      2  C2  IND d   1      -2.363  -3.765  -2.504  0.00  0.00     0.054 A 
ATOM      3  C3  IND d   1      -1.462  -2.758  -2.548  0.00  0.00    -0.031 A 
ATOM      4  C4  IND d   1      -0.169  -1.635  -0.626  0.00  0.00     0.051 A 
ATOM      5  C5  IND d   1      -0.071  -1.611   0.737  0.00  0.00    -0.031 A 
ATOM      6  C6  IND d   1      -0.823  -2.447   1.537  0.00  0.00     0.015 A 
ATOM      7  C7  IND d   1      -1.697  -3.350   1.000  0.00  0.00    -0.016 A 
ATOM      8  C8  IND d   1      -1.804  -3.372  -0.383  0.00  0.00    -0.047 A 
ATOM      9  C9  IND d   1      -1.074  -2.497  -1.198  0.00  0.00    -0.096 A 
ATOM     10  HN1 IND d   1      -3.146  -4.748  -0.955  0.00  0.00     0.298 HD
ENDROOT
TORSDOF 0
ENDMDL
