MODEL 1
REMARK minimizedAffinity 19.6628571
REMARK minimizedRMSD -1
REMARK  0 active torsions:
REMARK  status: ('A' for Active; 'I' for Inactive)
ROOT
ATOM      1  N1  IND d   1       1.119   3.730  -1.446  0.00  0.00    -0.196 N 
ATOM      2  C2  IND d   1       1.582   4.298  -0.292  0.00  0.00     0.054 A 
ATOM      3  C3  IND d   1       2.338   3.415   0.397  0.00  0.00    -0.031 A 
ATOM      4  C4  IND d   1       3.032   1.016  -0.231  0.00  0.00     0.051 A 
ATOM      5  C5  IND d   1       2.826   0.047  -1.172  0.00  0.00    -0.031 A 
ATOM      6  C6  IND d   1       2.027   0.261  -2.276  0.00  0.00     0.015 A 
ATOM      7  C7  IND d   1       1.410   1.462  -2.487  0.00  0.00    -0.016 A 
ATOM      8  C8  IND d   1       1.611   2.446  -1.530  0.00  0.00    -0.047 A 
ATOM      9  C9  IND d   1       2.387   2.221  -0.385  0.00  0.00    -0.096 A 
ATOM     10  HN1 IND d   1       0.607   4.111  -2.022  0.00  0.00     0.298 HD
ENDROOT
TORSDOF 0
ENDMDL
