MODEL 1
REMARK minimizedAffinity 24.1591969
REMARK minimizedRMSD -1
REMARK  0 active torsions:
REMARK  status: ('A' for Active; 'I' for Inactive)
ROOT
ATOM      1  N1  IND d   1      -1.560   0.880   2.175  0.00  0.00    -0.196 N 
ATOM      2  C2  IND d   1      -0.256   0.504   2.335  0.00  0.00     0.054 A 
ATOM      3  C3  IND d   1       0.125   0.664   3.623  0.00  0.00    -0.031 A 
ATOM      4  C4  IND d   1      -1.257   1.432   5.654  0.00  0.00     0.051 A 
ATOM      5  C5  IND d   1      -2.487   1.919   5.998  0.00  0.00    -0.031 A 
ATOM      6  C6  IND d   1      -3.492   2.085   5.067  0.00  0.00     0.015 A 
ATOM      7  C7  IND d   1      -3.307   1.759   3.753  0.00  0.00    -0.016 A 
ATOM      8  C8  IND d   1      -2.057   1.271   3.399  0.00  0.00    -0.047 A 
ATOM      9  C9  IND d   1      -1.020   1.140   4.332  0.00  0.00    -0.096 A 
ATOM     10  HN1 IND d   1      -1.997   0.875   1.434  0.00  0.00     0.298 HD
ENDROOT
TORSDOF 0
ENDMDL
