MODEL 1
REMARK minimizedAffinity 6.54559946
REMARK minimizedRMSD -1
REMARK  0 active torsions:
REMARK  status: ('A' for Active; 'I' for Inactive)
ROOT
ATOM      1  N1  IND d   1      -1.624  -4.396  -1.212  0.00  0.00    -0.196 N 
ATOM      2  C2  IND d   1      -1.328  -3.943  -2.467  0.00  0.00     0.054 A 
ATOM      3  C3  IND d   1      -0.680  -2.759  -2.399  0.00  0.00    -0.031 A 
ATOM      4  C4  IND d   1       0.088  -1.431  -0.332  0.00  0.00     0.051 A 
ATOM      5  C5  IND d   1       0.015  -1.425   1.033  0.00  0.00    -0.031 A 
ATOM      6  C6  IND d   1      -0.619  -2.431   1.733  0.00  0.00     0.015 A 
ATOM      7  C7  IND d   1      -1.196  -3.490   1.093  0.00  0.00    -0.016 A 
ATOM      8  C8  IND d   1      -1.130  -3.496  -0.293  0.00  0.00    -0.047 A 
ATOM      9  C9  IND d   1      -0.525  -2.457  -1.012  0.00  0.00    -0.096 A 
ATOM     10  HN1 IND d   1      -2.048  -5.121  -1.027  0.00  0.00     0.298 HD
ENDROOT
TORSDOF 0
ENDMDL
