MODEL 1
REMARK minimizedAffinity 12.4233742
REMARK minimizedRMSD -1
REMARK  0 active torsions:
REMARK  status: ('A' for Active; 'I' for Inactive)
ROOT
ATOM      1  N1  IND d   1       0.914   5.457  -0.990  0.00  0.00    -0.196 N 
ATOM      2  C2  IND d   1       1.190   6.000   0.234  0.00  0.00     0.054 A 
ATOM      3  C3  IND d   1       1.648   5.048   1.078  0.00  0.00    -0.031 A 
ATOM      4  C4  IND d   1       2.120   2.557   0.632  0.00  0.00     0.051 A 
ATOM      5  C5  IND d   1       1.990   1.590  -0.326  0.00  0.00    -0.031 A 
ATOM      6  C6  IND d   1       1.487   1.869  -1.580  0.00  0.00     0.015 A 
ATOM      7  C7  IND d   1       1.104   3.134  -1.929  0.00  0.00    -0.016 A 
ATOM      8  C8  IND d   1       1.228   4.116  -0.957  0.00  0.00    -0.047 A 
ATOM      9  C9  IND d   1       1.698   3.830   0.332  0.00  0.00    -0.096 A 
ATOM     10  HN1 IND d   1       0.597   5.882  -1.667  0.00  0.00     0.298 HD
ENDROOT
TORSDOF 0
ENDMDL
