MODEL 1
REMARK minimizedAffinity 14.9686337
REMARK minimizedRMSD -1
REMARK  0 active torsions:
REMARK  status: ('A' for Active; 'I' for Inactive)
ROOT
ATOM      1  N1  IND d   1       1.920   2.074   5.311  0.00  0.00    -0.196 N 
ATOM      2  C2  IND d   1       0.762   1.839   5.999  0.00  0.00     0.054 A 
ATOM      3  C3  IND d   1      -0.153   1.253   5.193  0.00  0.00    -0.031 A 
ATOM      4  C4  IND d   1       0.072   0.497   2.743  0.00  0.00     0.051 A 
ATOM      5  C5  IND d   1       0.930   0.531   1.679  0.00  0.00    -0.031 A 
ATOM      6  C6  IND d   1       2.188   1.090   1.775  0.00  0.00     0.015 A 
ATOM      7  C7  IND d   1       2.641   1.628   2.946  0.00  0.00    -0.016 A 
ATOM      8  C8  IND d   1       1.770   1.602   4.026  0.00  0.00    -0.047 A 
ATOM      9  C9  IND d   1       0.477   1.074   3.923  0.00  0.00    -0.096 A 
ATOM     10  HN1 IND d   1       2.623   2.453   5.629  0.00  0.00     0.298 HD
ENDROOT
TORSDOF 0
ENDMDL
