MODEL 1
REMARK minimizedAffinity 22.275116
REMARK minimizedRMSD -1
REMARK  0 active torsions:
REMARK  status: ('A' for Active; 'I' for Inactive)
ROOT
ATOM      1  N1  IND d   1       1.162  -1.743   0.378  0.00  0.00    -0.196 N 
ATOM      2  C2  IND d   1      -0.040  -1.952  -0.239  0.00  0.00     0.054 A 
ATOM      3  C3  IND d   1      -0.175  -1.124  -1.299  0.00  0.00    -0.031 A 
ATOM      4  C4  IND d   1       1.493   0.584  -2.263  0.00  0.00     0.051 A 
ATOM      5  C5  IND d   1       2.711   1.156  -2.020  0.00  0.00    -0.031 A 
ATOM      6  C6  IND d   1       3.491   0.781  -0.945  0.00  0.00     0.015 A 
ATOM      7  C7  IND d   1       3.086  -0.192  -0.076  0.00  0.00    -0.016 A 
ATOM      8  C8  IND d   1       1.847  -0.770  -0.315  0.00  0.00    -0.047 A 
ATOM      9  C9  IND d   1       1.032  -0.364  -1.380  0.00  0.00    -0.096 A 
ATOM     10  HN1 IND d   1       1.442  -2.151   1.081  0.00  0.00     0.298 HD
ENDROOT
TORSDOF 0
ENDMDL
