MODEL 1
REMARK minimizedAffinity -2.94239831
REMARK minimizedRMSD -1
REMARK  0 active torsions:
REMARK  status: ('A' for Active; 'I' for Inactive)
ROOT
ATOM      1  N1  IND d   1      -0.526  -1.586   1.678  0.00  0.00    -0.196 N 
ATOM      2  C2  IND d   1      -1.426  -0.677   2.160  0.00  0.00     0.054 A 
ATOM      3  C3  IND d   1      -1.367   0.469   1.444  0.00  0.00    -0.031 A 
ATOM      4  C4  IND d   1       0.059   1.034  -0.624  0.00  0.00     0.051 A 
ATOM      5  C5  IND d   1       1.057   0.535  -1.413  0.00  0.00    -0.031 A 
ATOM      6  C6  IND d   1       1.588  -0.722  -1.209  0.00  0.00     0.015 A 
ATOM      7  C7  IND d   1       1.130  -1.536  -0.212  0.00  0.00    -0.016 A 
ATOM      8  C8  IND d   1       0.121  -1.030   0.595  0.00  0.00    -0.047 A 
ATOM      9  C9  IND d   1      -0.392   0.261   0.421  0.00  0.00    -0.096 A 
ATOM     10  HN1 IND d   1      -0.387  -2.372   1.997  0.00  0.00     0.298 HD
ENDROOT
TORSDOF 0
ENDMDL
