MODEL 1
REMARK minimizedAffinity -3.63188291
REMARK minimizedRMSD -1
REMARK  0 active torsions:
REMARK  status: ('A' for Active; 'I' for Inactive)
ROOT
ATOM      1  N1  IND d   1       2.581   1.841  -1.887  0.00  0.00    -0.196 N 
ATOM      2  C2  IND d   1       2.288   2.545  -0.752  0.00  0.00     0.054 A 
ATOM      3  C3  IND d   1       1.300   1.933  -0.061  0.00  0.00    -0.031 A 
ATOM      4  C4  IND d   1       0.090  -0.285  -0.556  0.00  0.00     0.051 A 
ATOM      5  C5  IND d   1      -0.012  -1.269  -1.498  0.00  0.00    -0.031 A 
ATOM      6  C6  IND d   1       0.763  -1.269  -2.639  0.00  0.00     0.015 A 
ATOM      7  C7  IND d   1       1.681  -0.285  -2.877  0.00  0.00    -0.016 A 
ATOM      8  C8  IND d   1       1.782   0.720  -1.926  0.00  0.00    -0.047 A 
ATOM      9  C9  IND d   1       0.968   0.748  -0.786  0.00  0.00    -0.096 A 
ATOM     10  HN1 IND d   1       3.166   2.062  -2.477  0.00  0.00     0.298 HD
ENDROOT
TORSDOF 0
ENDMDL
