MODEL 1
REMARK minimizedAffinity -1.29250157
REMARK minimizedRMSD -1
REMARK  0 active torsions:
REMARK  status: ('A' for Active; 'I' for Inactive)
ROOT
ATOM      1  N1  IND d   1      -0.296  -2.361   0.363  0.00  0.00    -0.196 N 
ATOM      2  C2  IND d   1       0.076  -2.876  -0.847  0.00  0.00     0.054 A 
ATOM      3  C3  IND d   1       0.604  -1.907  -1.629  0.00  0.00    -0.031 A 
ATOM      4  C4  IND d   1       1.046   0.571  -1.089  0.00  0.00     0.051 A 
ATOM      5  C5  IND d   1       0.842   1.515  -0.122  0.00  0.00    -0.031 A 
ATOM      6  C6  IND d   1       0.238   1.210   1.080  0.00  0.00     0.015 A 
ATOM      7  C7  IND d   1      -0.175  -0.060   1.367  0.00  0.00    -0.016 A 
ATOM      8  C8  IND d   1       0.024  -1.021   0.386  0.00  0.00    -0.047 A 
ATOM      9  C9  IND d   1       0.597  -0.708  -0.853  0.00  0.00    -0.096 A 
ATOM     10  HN1 IND d   1      -0.668  -2.799   1.002  0.00  0.00     0.298 HD
ENDROOT
TORSDOF 0
ENDMDL
