MODEL 1
REMARK minimizedAffinity 1.3135674
REMARK minimizedRMSD -1
REMARK  0 active torsions:
REMARK  status: ('A' for Active; 'I' for Inactive)
ROOT
ATOM      1  N1  IND d   1      -3.794   4.897  -5.285  0.00  0.00    -0.196 N 
ATOM      2  C2  IND d   1      -4.920   5.622  -5.562  0.00  0.00     0.054 A 
ATOM      3  C3  IND d   1      -5.934   4.799  -5.913  0.00  0.00    -0.031 A 
ATOM      4  C4  IND d   1      -5.999   2.227  -6.000  0.00  0.00     0.051 A 
ATOM      5  C5  IND d   1      -5.202   1.125  -5.866  0.00  0.00    -0.031 A 
ATOM      6  C6  IND d   1      -3.870   1.225  -5.523  0.00  0.00     0.015 A 
ATOM      7  C7  IND d   1      -3.284   2.437  -5.287  0.00  0.00    -0.016 A 
ATOM      8  C8  IND d   1      -4.088   3.559  -5.429  0.00  0.00    -0.047 A 
ATOM      9  C9  IND d   1      -5.430   3.466  -5.819  0.00  0.00    -0.096 A 
ATOM     10  HN1 IND d   1      -3.031   5.222  -5.058  0.00  0.00     0.298 HD
ENDROOT
TORSDOF 0
ENDMDL
