MODEL 1
REMARK minimizedAffinity -2.43655777
REMARK minimizedRMSD -1
REMARK  0 active torsions:
REMARK  status: ('A' for Active; 'I' for Inactive)
ROOT
ATOM      1  N1  IND d   1       0.659  -1.932  -0.638  0.00  0.00    -0.196 N 
ATOM      2  C2  IND d   1       0.701  -3.295  -0.733  0.00  0.00     0.054 A 
ATOM      3  C3  IND d   1       1.336  -3.668  -1.867  0.00  0.00    -0.031 A 
ATOM      4  C4  IND d   1       2.475  -2.212  -3.658  0.00  0.00     0.051 A 
ATOM      5  C5  IND d   1       2.667  -0.910  -4.025  0.00  0.00    -0.031 A 
ATOM      6  C6  IND d   1       2.192   0.140  -3.265  0.00  0.00     0.015 A 
ATOM      7  C7  IND d   1       1.515  -0.075  -2.099  0.00  0.00    -0.016 A 
ATOM      8  C8  IND d   1       1.311  -1.396  -1.726  0.00  0.00    -0.047 A 
ATOM      9  C9  IND d   1       1.754  -2.466  -2.516  0.00  0.00    -0.096 A 
ATOM     10  HN1 IND d   1       0.287  -1.485  -0.005  0.00  0.00     0.298 HD
ENDROOT
TORSDOF 0
ENDMDL
