MODEL 1
REMARK minimizedAffinity -6.87540531
REMARK minimizedRMSD -1
REMARK  0 active torsions:
REMARK  status: ('A' for Active; 'I' for Inactive)
ROOT
ATOM      1  N1  IND d   1       0.003  -1.337   0.419  0.00  0.00    -0.196 N 
ATOM      2  C2  IND d   1      -0.200  -0.028   0.755  0.00  0.00     0.054 A 
ATOM      3  C3  IND d   1       0.383   0.787  -0.152  0.00  0.00    -0.031 A 
ATOM      4  C4  IND d   1       1.635   0.188  -2.321  0.00  0.00     0.051 A 
ATOM      5  C5  IND d   1       2.106  -0.879  -3.033  0.00  0.00    -0.031 A 
ATOM      6  C6  IND d   1       1.893  -2.180  -2.625  0.00  0.00     0.015 A 
ATOM      7  C7  IND d   1       1.188  -2.463  -1.489  0.00  0.00    -0.016 A 
ATOM      8  C8  IND d   1       0.715  -1.382  -0.759  0.00  0.00    -0.047 A 
ATOM      9  C9  IND d   1       0.965  -0.059  -1.146  0.00  0.00    -0.096 A 
ATOM     10  HN1 IND d   1      -0.268  -2.018   0.869  0.00  0.00     0.298 HD
ENDROOT
TORSDOF 0
ENDMDL
