MODEL 1
REMARK minimizedAffinity 17.5880413
REMARK minimizedRMSD -1
REMARK  1 active torsions:
REMARK  status: ('A' for Active; 'I' for Inactive)
REMARK    1  A    between atoms: C1_2  and  C2_3 
ROOT
ATOM      1  C2  UNL d   1       3.471   3.978   0.681  0.00  0.00    -0.081 A 
ATOM      2  C3  UNL d   1       2.945   3.211   1.727  0.00  0.00     0.006 A 
ATOM      3  C4  UNL d   1       2.320   1.990   1.466  0.00  0.00     0.002 A 
ATOM      4  C5  UNL d   1       2.217   1.512   0.155  0.00  0.00    -0.080 A 
ATOM      5  C6  UNL d   1       1.575   0.188  -0.137  0.00  0.00     0.076 C 
ATOM      6  C7  UNL d   1       2.727   2.286  -0.893  0.00  0.00     0.002 A 
ATOM      7  C8  UNL d   1       3.352   3.508  -0.632  0.00  0.00     0.006 A 
ENDROOT
BRANCH   1   8
ATOM      8  C1  UNL d   1       4.204   5.264   0.966  0.00  0.00     0.054 C 
ATOM      9  C   UNL d   1       4.570   5.990  -0.321  0.00  0.00     0.018 C 
ENDBRANCH   1   8
TORSDOF 1
ENDMDL
