MODEL 1
REMARK minimizedAffinity 2.35842443
REMARK minimizedRMSD -1
REMARK  1 active torsions:
REMARK  status: ('A' for Active; 'I' for Inactive)
REMARK    1  A    between atoms: C1_2  and  C2_3 
ROOT
ATOM      1  C2  UNL d   1       0.809  -1.321  -0.545  0.00  0.00    -0.081 A 
ATOM      2  C3  UNL d   1       0.691   0.064  -0.383  0.00  0.00     0.006 A 
ATOM      3  C4  UNL d   1       1.816   0.887  -0.471  0.00  0.00     0.002 A 
ATOM      4  C5  UNL d   1       3.077   0.339  -0.731  0.00  0.00    -0.080 A 
ATOM      5  C6  UNL d   1       4.289   1.213  -0.859  0.00  0.00     0.076 C 
ATOM      6  C7  UNL d   1       3.198  -1.047  -0.876  0.00  0.00     0.002 A 
ATOM      7  C8  UNL d   1       2.073  -1.870  -0.787  0.00  0.00     0.006 A 
ENDROOT
BRANCH   1   8
ATOM      8  C1  UNL d   1      -0.412  -2.204  -0.514  0.00  0.00     0.054 C 
ATOM      9  C   UNL d   1      -1.328  -1.922  -1.697  0.00  0.00     0.018 C 
ENDBRANCH   1   8
TORSDOF 1
ENDMDL
