MODEL 1
REMARK minimizedAffinity 7.02226734
REMARK minimizedRMSD -1
REMARK  1 active torsions:
REMARK  status: ('A' for Active; 'I' for Inactive)
REMARK    1  A    between atoms: C1_2  and  C2_3 
ROOT
ATOM      1  C2  UNL d   1       1.783   0.853   0.217  0.00  0.00    -0.081 A 
ATOM      2  C3  UNL d   1       2.919   0.945  -0.597  0.00  0.00     0.006 A 
ATOM      3  C4  UNL d   1       3.338  -0.151  -1.354  0.00  0.00     0.002 A 
ATOM      4  C5  UNL d   1       2.626  -1.354  -1.316  0.00  0.00    -0.080 A 
ATOM      5  C6  UNL d   1       3.049  -2.529  -2.147  0.00  0.00     0.076 C 
ATOM      6  C7  UNL d   1       1.502  -1.453  -0.489  0.00  0.00     0.002 A 
ATOM      7  C8  UNL d   1       1.082  -0.357   0.269  0.00  0.00     0.006 A 
ENDROOT
BRANCH   1   8
ATOM      8  C1  UNL d   1       1.291   2.053   0.985  0.00  0.00     0.054 C 
ATOM      9  C   UNL d   1       1.347   1.810   2.487  0.00  0.00     0.018 C 
ENDBRANCH   1   8
TORSDOF 1
ENDMDL
