MODEL 1
REMARK minimizedAffinity 1.85927224
REMARK minimizedRMSD -1
REMARK  1 active torsions:
REMARK  status: ('A' for Active; 'I' for Inactive)
REMARK    1  A    between atoms: C1_2  and  C2_3 
ROOT
ATOM      1  C2  UNL d   1       2.535  -0.591  -1.000  0.00  0.00    -0.081 A 
ATOM      2  C3  UNL d   1       2.706  -1.980  -1.059  0.00  0.00     0.006 A 
ATOM      3  C4  UNL d   1       1.634  -2.836  -0.795  0.00  0.00     0.002 A 
ATOM      4  C5  UNL d   1       0.374  -2.319  -0.477  0.00  0.00    -0.080 A 
ATOM      5  C6  UNL d   1      -0.792  -3.228  -0.221  0.00  0.00     0.076 C 
ATOM      6  C7  UNL d   1       0.208  -0.932  -0.401  0.00  0.00     0.002 A 
ATOM      7  C8  UNL d   1       1.279  -0.075  -0.664  0.00  0.00     0.006 A 
ENDROOT
BRANCH   1   8
ATOM      8  C1  UNL d   1       3.672   0.336  -1.347  0.00  0.00     0.054 C 
ATOM      9  C   UNL d   1       3.485   1.704  -0.708  0.00  0.00     0.018 C 
ENDBRANCH   1   8
TORSDOF 1
ENDMDL
