MODEL 1
REMARK minimizedAffinity 1.28535354
REMARK minimizedRMSD -1
REMARK  1 active torsions:
REMARK  status: ('A' for Active; 'I' for Inactive)
REMARK    1  A    between atoms: C1_2  and  C2_3 
ROOT
ATOM      1  C2  UNL d   1       0.763  -1.850  -0.806  0.00  0.00    -0.081 A 
ATOM      2  C3  UNL d   1       0.725  -0.470  -0.567  0.00  0.00     0.006 A 
ATOM      3  C4  UNL d   1       1.877   0.306  -0.715  0.00  0.00     0.002 A 
ATOM      4  C5  UNL d   1       3.083  -0.281  -1.113  0.00  0.00    -0.080 A 
ATOM      5  C6  UNL d   1       4.319   0.546  -1.305  0.00  0.00     0.076 C 
ATOM      6  C7  UNL d   1       3.125  -1.662  -1.335  0.00  0.00     0.002 A 
ATOM      7  C8  UNL d   1       1.974  -2.439  -1.186  0.00  0.00     0.006 A 
ENDROOT
BRANCH   1   8
ATOM      8  C1  UNL d   1      -0.492  -2.679  -0.710  0.00  0.00     0.054 C 
ATOM      9  C   UNL d   1      -1.178  -2.803  -2.063  0.00  0.00     0.018 C 
ENDBRANCH   1   8
TORSDOF 1
ENDMDL
