MODEL 1
REMARK minimizedAffinity -1.60183036
REMARK minimizedRMSD -1
REMARK  1 active torsions:
REMARK  status: ('A' for Active; 'I' for Inactive)
REMARK    1  A    between atoms: C1_2  and  C2_3 
ROOT
ATOM      1  C2  UNL d   1      -1.341  -0.138  -1.914  0.00  0.00    -0.081 A 
ATOM      2  C3  UNL d   1      -1.283  -1.495  -2.256  0.00  0.00     0.006 A 
ATOM      3  C4  UNL d   1      -0.353  -2.340  -1.646  0.00  0.00     0.002 A 
ATOM      4  C5  UNL d   1       0.527  -1.846  -0.678  0.00  0.00    -0.080 A 
ATOM      5  C6  UNL d   1       1.509  -2.749   0.008  0.00  0.00     0.076 C 
ATOM      6  C7  UNL d   1       0.481  -0.487  -0.348  0.00  0.00     0.002 A 
ATOM      7  C8  UNL d   1      -0.447   0.359  -0.958  0.00  0.00     0.006 A 
ENDROOT
BRANCH   1   8
ATOM      8  C1  UNL d   1      -2.385   0.762  -2.523  0.00  0.00     0.054 C 
ATOM      9  C   UNL d   1      -3.788   0.222  -2.286  0.00  0.00     0.018 C 
ENDBRANCH   1   8
TORSDOF 1
ENDMDL
