MODEL 1
REMARK minimizedAffinity 9.5486784
REMARK minimizedRMSD -1
REMARK  1 active torsions:
REMARK  status: ('A' for Active; 'I' for Inactive)
REMARK    1  A    between atoms: C1_2  and  C2_3 
ROOT
ATOM      1  C2  UNL d   1      -0.700  -3.016  -0.633  0.00  0.00    -0.081 A 
ATOM      2  C3  UNL d   1       0.590  -3.154  -0.106  0.00  0.00     0.006 A 
ATOM      3  C4  UNL d   1       1.502  -2.098  -0.179  0.00  0.00     0.002 A 
ATOM      4  C5  UNL d   1       1.137  -0.884  -0.771  0.00  0.00    -0.080 A 
ATOM      5  C6  UNL d   1       2.095   0.267  -0.828  0.00  0.00     0.076 C 
ATOM      6  C7  UNL d   1      -0.146  -0.752  -1.312  0.00  0.00     0.002 A 
ATOM      7  C8  UNL d   1      -1.058  -1.808  -1.241  0.00  0.00     0.006 A 
ENDROOT
BRANCH   1   8
ATOM      8  C1  UNL d   1      -1.706  -4.130  -0.499  0.00  0.00     0.054 C 
ATOM      9  C   UNL d   1      -1.072  -5.380   0.094  0.00  0.00     0.018 C 
ENDBRANCH   1   8
TORSDOF 1
ENDMDL
