MODEL 1
REMARK minimizedAffinity 5.4996624
REMARK minimizedRMSD -1
REMARK  1 active torsions:
REMARK  status: ('A' for Active; 'I' for Inactive)
REMARK    1  A    between atoms: C1_2  and  C2_3 
ROOT
ATOM      1  C2  UNL d   1       4.791   3.556   0.961  0.00  0.00    -0.081 A 
ATOM      2  C3  UNL d   1       4.124   2.651   1.794  0.00  0.00     0.006 A 
ATOM      3  C4  UNL d   1       3.423   1.572   1.251  0.00  0.00     0.002 A 
ATOM      4  C5  UNL d   1       3.385   1.375  -0.134  0.00  0.00    -0.080 A 
ATOM      5  C6  UNL d   1       2.662   0.203  -0.728  0.00  0.00     0.076 C 
ATOM      6  C7  UNL d   1       4.037   2.289  -0.968  0.00  0.00     0.002 A 
ATOM      7  C8  UNL d   1       4.737   3.369  -0.425  0.00  0.00     0.006 A 
ENDROOT
BRANCH   1   8
ATOM      8  C1  UNL d   1       5.601   4.684   1.547  0.00  0.00     0.054 C 
ATOM      9  C   UNL d   1       4.770   5.521   2.509  0.00  0.00     0.018 C 
ENDBRANCH   1   8
TORSDOF 1
ENDMDL
