MODEL 1
REMARK minimizedAffinity -2.28247881
REMARK minimizedRMSD -1
REMARK  0 active torsions:
REMARK  status: ('A' for Active; 'I' for Inactive)
ROOT
ATOM      1  C4' PXY d   1       5.972  -1.012   5.866  0.00  0.00     0.077 C 
ATOM      2  C1' PXY d   1       6.000   3.528   2.288  0.00  0.00     0.077 C 
ATOM      3  C1  PXY d   1       5.987   2.330   3.217  0.00  0.00    -0.082 A 
ATOM      4  C2  PXY d   1       5.976   2.518   4.526  0.00  0.00     0.003 A 
ATOM      5  C3  PXY d   1       5.997   1.446   5.381  0.00  0.00     0.003 A 
ATOM      6  C4  PXY d   1       5.976   0.168   4.890  0.00  0.00    -0.082 A 
ATOM      7  C5  PXY d   1       5.976  -0.032   3.555  0.00  0.00     0.003 A 
ATOM      8  C6  PXY d   1       5.997   1.070   2.704  0.00  0.00     0.003 A 
ENDROOT
TORSDOF 0
ENDMDL
