MODEL 1
REMARK minimizedAffinity 1.0311172
REMARK minimizedRMSD -1
REMARK  0 active torsions:
REMARK  status: ('A' for Active; 'I' for Inactive)
ROOT
ATOM      1  C4' PXY d   1       3.858   2.151   0.736  0.00  0.00     0.077 C 
ATOM      2  C1' PXY d   1       4.735   2.674  -4.954  0.00  0.00     0.077 C 
ATOM      3  C1  PXY d   1       4.510   2.549  -3.460  0.00  0.00    -0.082 A 
ATOM      4  C2  PXY d   1       4.410   1.349  -2.912  0.00  0.00     0.003 A 
ATOM      5  C3  PXY d   1       4.175   1.218  -1.567  0.00  0.00     0.003 A 
ATOM      6  C4  PXY d   1       4.094   2.326  -0.767  0.00  0.00    -0.082 A 
ATOM      7  C5  PXY d   1       4.206   3.553  -1.317  0.00  0.00     0.003 A 
ATOM      8  C6  PXY d   1       4.404   3.666  -2.690  0.00  0.00     0.003 A 
ENDROOT
TORSDOF 0
ENDMDL
