MODEL 1
REMARK minimizedAffinity -3.33303332
REMARK minimizedRMSD -1
REMARK  0 active torsions:
REMARK  status: ('A' for Active; 'I' for Inactive)
ROOT
ATOM      1  C4' PXY d   1       5.990  -1.381   5.124  0.00  0.00     0.077 C 
ATOM      2  C1' PXY d   1       5.985   3.995   3.000  0.00  0.00     0.077 C 
ATOM      3  C1  PXY d   1       5.981   2.581   3.546  0.00  0.00    -0.082 A 
ATOM      4  C2  PXY d   1       5.969   2.385   4.854  0.00  0.00     0.003 A 
ATOM      5  C3  PXY d   1       5.997   1.113   5.365  0.00  0.00     0.003 A 
ATOM      6  C4  PXY d   1       5.985   0.030   4.528  0.00  0.00    -0.082 A 
ATOM      7  C5  PXY d   1       5.987   0.221   3.192  0.00  0.00     0.003 A 
ATOM      8  C6  PXY d   1       6.000   1.520   2.693  0.00  0.00     0.003 A 
ENDROOT
TORSDOF 0
ENDMDL
