MODEL 1
REMARK minimizedAffinity -2.85798883
REMARK minimizedRMSD -1
REMARK  0 active torsions:
REMARK  status: ('A' for Active; 'I' for Inactive)
ROOT
ATOM      1  C4' PXY d   1       5.991  -1.538   5.648  0.00  0.00     0.077 C 
ATOM      2  C1' PXY d   1       5.705   3.857   3.593  0.00  0.00     0.077 C 
ATOM      3  C1  PXY d   1       5.786   2.447   4.143  0.00  0.00    -0.082 A 
ATOM      4  C2  PXY d   1       5.775   1.419   3.310  0.00  0.00     0.003 A 
ATOM      5  C3  PXY d   1       5.815   0.135   3.792  0.00  0.00     0.003 A 
ATOM      6  C4  PXY d   1       5.921  -0.096   5.137  0.00  0.00    -0.082 A 
ATOM      7  C5  PXY d   1       5.943   0.948   5.993  0.00  0.00     0.003 A 
ATOM      8  C6  PXY d   1       5.860   2.241   5.486  0.00  0.00     0.003 A 
ENDROOT
TORSDOF 0
ENDMDL
