MODEL 1
REMARK minimizedAffinity -3.57699656
REMARK minimizedRMSD -1
REMARK  0 active torsions:
REMARK  status: ('A' for Active; 'I' for Inactive)
ROOT
ATOM      1  C4' PXY d   1       6.000   4.619   4.523  0.00  0.00     0.077 C 
ATOM      2  C1' PXY d   1       5.498  -1.116   5.047  0.00  0.00     0.077 C 
ATOM      3  C1  PXY d   1       5.633   0.386   4.897  0.00  0.00    -0.082 A 
ATOM      4  C2  PXY d   1       5.881   1.131   5.963  0.00  0.00     0.003 A 
ATOM      5  C3  PXY d   1       5.974   2.494   5.850  0.00  0.00     0.003 A 
ATOM      6  C4  PXY d   1       5.865   3.097   4.626  0.00  0.00    -0.082 A 
ATOM      7  C5  PXY d   1       5.623   2.344   3.532  0.00  0.00     0.003 A 
ATOM      8  C6  PXY d   1       5.491   0.966   3.674  0.00  0.00     0.003 A 
ENDROOT
TORSDOF 0
ENDMDL
