MODEL 1
REMARK minimizedAffinity 5.68868351
REMARK minimizedRMSD -1
REMARK  0 active torsions:
REMARK  status: ('A' for Active; 'I' for Inactive)
ROOT
ATOM      1  C4' PXY d   1       5.968   0.630   2.007  0.00  0.00     0.077 C 
ATOM      2  C1' PXY d   1       6.000   5.977   4.203  0.00  0.00     0.077 C 
ATOM      3  C1  PXY d   1       5.997   4.570   3.638  0.00  0.00    -0.082 A 
ATOM      4  C2  PXY d   1       6.000   4.392   2.327  0.00  0.00     0.003 A 
ATOM      5  C3  PXY d   1       5.965   3.127   1.799  0.00  0.00     0.003 A 
ATOM      6  C4  PXY d   1       5.980   2.033   2.622  0.00  0.00    -0.082 A 
ATOM      7  C5  PXY d   1       5.988   2.206   3.960  0.00  0.00     0.003 A 
ATOM      8  C6  PXY d   1       5.982   3.499   4.477  0.00  0.00     0.003 A 
ENDROOT
TORSDOF 0
ENDMDL
