MODEL 1
REMARK minimizedAffinity -2.12954473
REMARK minimizedRMSD -1
REMARK  0 active torsions:
REMARK  status: ('A' for Active; 'I' for Inactive)
ROOT
ATOM      1  C4' PXY d   1       5.993   4.897   3.344  0.00  0.00     0.077 C 
ATOM      2  C1' PXY d   1       5.286  -0.746   4.376  0.00  0.00     0.077 C 
ATOM      3  C1  PXY d   1       5.479   0.731   4.095  0.00  0.00    -0.082 A 
ATOM      4  C2  PXY d   1       5.314   1.609   5.071  0.00  0.00     0.003 A 
ATOM      5  C3  PXY d   1       5.453   2.951   4.827  0.00  0.00     0.003 A 
ATOM      6  C4  PXY d   1       5.818   3.395   3.584  0.00  0.00    -0.082 A 
ATOM      7  C5  PXY d   1       5.999   2.505   2.586  0.00  0.00     0.003 A 
ATOM      8  C6  PXY d   1       5.812   1.150   2.844  0.00  0.00     0.003 A 
ENDROOT
TORSDOF 0
ENDMDL
