MODEL 1
REMARK minimizedAffinity -4.15692139
REMARK minimizedRMSD -1
REMARK  0 active torsions:
REMARK  status: ('A' for Active; 'I' for Inactive)
ROOT
ATOM      1  C4' PXY d   1       5.727   3.917   3.501  0.00  0.00     0.077 C 
ATOM      2  C1' PXY d   1       5.264  -1.781   4.359  0.00  0.00     0.077 C 
ATOM      3  C1  PXY d   1       5.383  -0.285   4.147  0.00  0.00    -0.082 A 
ATOM      4  C2  PXY d   1       5.188   0.222   2.940  0.00  0.00     0.003 A 
ATOM      5  C3  PXY d   1       5.323   1.570   2.724  0.00  0.00     0.003 A 
ATOM      6  C4  PXY d   1       5.608   2.413   3.764  0.00  0.00    -0.082 A 
ATOM      7  C5  PXY d   1       5.798   1.905   5.000  0.00  0.00     0.003 A 
ATOM      8  C6  PXY d   1       5.697   0.530   5.191  0.00  0.00     0.003 A 
ENDROOT
TORSDOF 0
ENDMDL
