MODEL 1
REMARK minimizedAffinity 11.0079355
REMARK minimizedRMSD -1
REMARK  0 active torsions:
REMARK  status: ('A' for Active; 'I' for Inactive)
ROOT
ATOM      1  C4' PXY d   1       5.737   0.834   1.994  0.00  0.00     0.077 C 
ATOM      2  C1' PXY d   1       5.995   5.997   4.581  0.00  0.00     0.077 C 
ATOM      3  C1  PXY d   1       5.923   4.649   3.892  0.00  0.00    -0.082 A 
ATOM      4  C2  PXY d   1       5.797   3.549   4.617  0.00  0.00     0.003 A 
ATOM      5  C3  PXY d   1       5.763   2.320   4.012  0.00  0.00     0.003 A 
ATOM      6  C4  PXY d   1       5.804   2.218   2.647  0.00  0.00    -0.082 A 
ATOM      7  C5  PXY d   1       5.922   3.336   1.899  0.00  0.00     0.003 A 
ATOM      8  C6  PXY d   1       5.997   4.572   2.535  0.00  0.00     0.003 A 
ENDROOT
TORSDOF 0
ENDMDL
