MODEL 1
REMARK minimizedAffinity -1.44488108
REMARK minimizedRMSD -1
REMARK  0 active torsions:
REMARK  status: ('A' for Active; 'I' for Inactive)
ROOT
ATOM      1  C4' PXY d   1       5.983   3.564   2.568  0.00  0.00     0.077 C 
ATOM      2  C1' PXY d   1       5.994  -1.335   5.636  0.00  0.00     0.077 C 
ATOM      3  C1  PXY d   1       5.997  -0.056   4.821  0.00  0.00    -0.082 A 
ATOM      4  C2  PXY d   1       5.997   1.113   5.440  0.00  0.00     0.003 A 
ATOM      5  C3  PXY d   1       5.967   2.279   4.718  0.00  0.00     0.003 A 
ATOM      6  C4  PXY d   1       5.990   2.248   3.350  0.00  0.00    -0.082 A 
ATOM      7  C5  PXY d   1       6.000   1.058   2.712  0.00  0.00     0.003 A 
ATOM      8  C6  PXY d   1       5.989  -0.114   3.462  0.00  0.00     0.003 A 
ENDROOT
TORSDOF 0
ENDMDL
