MODEL 1
REMARK minimizedAffinity -2.77615666
REMARK minimizedRMSD -1
REMARK  0 active torsions:
REMARK  status: ('A' for Active; 'I' for Inactive)
ROOT
ATOM      1  C4' PXY d   1       5.968   3.874   2.993  0.00  0.00     0.077 C 
ATOM      2  C1' PXY d   1       5.998  -1.599   4.853  0.00  0.00     0.077 C 
ATOM      3  C1  PXY d   1       5.985  -0.160   4.376  0.00  0.00    -0.082 A 
ATOM      4  C2  PXY d   1       5.968   0.099   3.079  0.00  0.00     0.003 A 
ATOM      5  C3  PXY d   1       5.988   1.395   2.630  0.00  0.00     0.003 A 
ATOM      6  C4  PXY d   1       5.972   2.436   3.519  0.00  0.00    -0.082 A 
ATOM      7  C5  PXY d   1       5.979   2.179   4.845  0.00  0.00     0.003 A 
ATOM      8  C6  PXY d   1       6.000   0.857   5.279  0.00  0.00     0.003 A 
ENDROOT
TORSDOF 0
ENDMDL
