MODEL 1
REMARK minimizedAffinity -0.574220479
REMARK minimizedRMSD -1
REMARK  0 active torsions:
REMARK  status: ('A' for Active; 'I' for Inactive)
ROOT
ATOM      1  C4' PXY d   1       5.991  -2.252   4.483  0.00  0.00     0.077 C 
ATOM      2  C1' PXY d   1       5.987   3.400   3.268  0.00  0.00     0.077 C 
ATOM      3  C1  PXY d   1       5.993   1.920   3.598  0.00  0.00    -0.082 A 
ATOM      4  C2  PXY d   1       6.000   1.031   2.618  0.00  0.00     0.003 A 
ATOM      5  C3  PXY d   1       5.973  -0.311   2.899  0.00  0.00     0.003 A 
ATOM      6  C4  PXY d   1       5.994  -0.748   4.196  0.00  0.00    -0.082 A 
ATOM      7  C5  PXY d   1       5.998   0.153   5.201  0.00  0.00     0.003 A 
ATOM      8  C6  PXY d   1       5.983   1.511   4.896  0.00  0.00     0.003 A 
ENDROOT
TORSDOF 0
ENDMDL
