MODEL 1
REMARK minimizedAffinity -1.67349803
REMARK minimizedRMSD -1
REMARK  0 active torsions:
REMARK  status: ('A' for Active; 'I' for Inactive)
ROOT
ATOM      1  C4' PXY d   1       5.994   1.838   3.211  0.00  0.00     0.077 C 
ATOM      2  C1' PXY d   1       5.984  -3.482   5.470  0.00  0.00     0.077 C 
ATOM      3  C1  PXY d   1       5.981  -2.082   4.889  0.00  0.00    -0.082 A 
ATOM      4  C2  PXY d   1       5.970  -1.919   3.576  0.00  0.00     0.003 A 
ATOM      5  C3  PXY d   1       6.000  -0.661   3.033  0.00  0.00     0.003 A 
ATOM      6  C4  PXY d   1       5.987   0.443   3.842  0.00  0.00    -0.082 A 
ATOM      7  C5  PXY d   1       5.988   0.286   5.183  0.00  0.00     0.003 A 
ATOM      8  C6  PXY d   1       5.999  -1.001   5.714  0.00  0.00     0.003 A 
ENDROOT
TORSDOF 0
ENDMDL
