MODEL 1
REMARK minimizedAffinity -4.15948582
REMARK minimizedRMSD -1
REMARK  0 active torsions:
REMARK  status: ('A' for Active; 'I' for Inactive)
ROOT
ATOM      1  C4' PXY d   1       5.998   3.031   3.426  0.00  0.00     0.077 C 
ATOM      2  C1' PXY d   1       5.624  -2.208   5.839  0.00  0.00     0.077 C 
ATOM      3  C1  PXY d   1       5.715  -0.829   5.216  0.00  0.00    -0.082 A 
ATOM      4  C2  PXY d   1       5.883  -0.712   3.909  0.00  0.00     0.003 A 
ATOM      5  C3  PXY d   1       6.000   0.527   3.333  0.00  0.00     0.003 A 
ATOM      6  C4  PXY d   1       5.891   1.659   4.097  0.00  0.00    -0.082 A 
ATOM      7  C5  PXY d   1       5.709   1.547   5.430  0.00  0.00     0.003 A 
ATOM      8  C6  PXY d   1       5.634   0.280   6.000  0.00  0.00     0.003 A 
ENDROOT
TORSDOF 0
ENDMDL
