MODEL 1
REMARK minimizedAffinity -0.727151394
REMARK minimizedRMSD -1
REMARK  0 active torsions:
REMARK  status: ('A' for Active; 'I' for Inactive)
ROOT
ATOM      1  C4' PXY d   1       5.978  -1.573   4.926  0.00  0.00     0.077 C 
ATOM      2  C1' PXY d   1       5.999   3.800   2.793  0.00  0.00     0.077 C 
ATOM      3  C1  PXY d   1       5.999   2.395   3.363  0.00  0.00    -0.082 A 
ATOM      4  C2  PXY d   1       5.998   1.356   2.544  0.00  0.00     0.003 A 
ATOM      5  C3  PXY d   1       5.966   0.079   3.043  0.00  0.00     0.003 A 
ATOM      6  C4  PXY d   1       5.988  -0.137   4.395  0.00  0.00    -0.082 A 
ATOM      7  C5  PXY d   1       5.999   0.918   5.237  0.00  0.00     0.003 A 
ATOM      8  C6  PXY d   1       5.990   2.206   4.711  0.00  0.00     0.003 A 
ENDROOT
TORSDOF 0
ENDMDL
