MODEL 1
REMARK minimizedAffinity 1.21038353
REMARK minimizedRMSD -1
REMARK  0 active torsions:
REMARK  status: ('A' for Active; 'I' for Inactive)
ROOT
ATOM      1  C4' PXY d   1       5.971   0.207   3.509  0.00  0.00     0.077 C 
ATOM      2  C1' PXY d   1       6.000   5.985   3.327  0.00  0.00     0.077 C 
ATOM      3  C1  PXY d   1       5.987   4.469   3.363  0.00  0.00    -0.082 A 
ATOM      4  C2  PXY d   1       5.979   3.843   4.528  0.00  0.00     0.003 A 
ATOM      5  C3  PXY d   1       6.000   2.473   4.579  0.00  0.00     0.003 A 
ATOM      6  C4  PXY d   1       5.975   1.736   3.425  0.00  0.00    -0.082 A 
ATOM      7  C5  PXY d   1       5.972   2.368   2.232  0.00  0.00     0.003 A 
ATOM      8  C6  PXY d   1       5.993   3.760   2.202  0.00  0.00     0.003 A 
ENDROOT
TORSDOF 0
ENDMDL
