MODEL 1
REMARK minimizedAffinity -2.95129085
REMARK minimizedRMSD -1
REMARK  0 active torsions:
REMARK  status: ('A' for Active; 'I' for Inactive)
ROOT
ATOM      1  C4' PXY d   1       5.986   3.500   3.800  0.00  0.00     0.077 C 
ATOM      2  C1' PXY d   1       5.989  -2.124   5.139  0.00  0.00     0.077 C 
ATOM      3  C1  PXY d   1       5.993  -0.652   4.776  0.00  0.00    -0.082 A 
ATOM      4  C2  PXY d   1       5.996   0.259   5.737  0.00  0.00     0.003 A 
ATOM      5  C3  PXY d   1       5.968   1.594   5.426  0.00  0.00     0.003 A 
ATOM      6  C4  PXY d   1       5.991   2.002   4.120  0.00  0.00    -0.082 A 
ATOM      7  C5  PXY d   1       6.000   1.080   3.134  0.00  0.00     0.003 A 
ATOM      8  C6  PXY d   1       5.987  -0.271   3.470  0.00  0.00     0.003 A 
ENDROOT
TORSDOF 0
ENDMDL
