MODEL 1
REMARK minimizedAffinity -1.5311166
REMARK minimizedRMSD -1
REMARK  0 active torsions:
REMARK  status: ('A' for Active; 'I' for Inactive)
ROOT
ATOM      1  C4' PXY d   1       5.965  -1.747   4.947  0.00  0.00     0.077 C 
ATOM      2  C1' PXY d   1       6.000   4.014   4.484  0.00  0.00     0.077 C 
ATOM      3  C1  PXY d   1       5.996   2.504   4.618  0.00  0.00    -0.082 A 
ATOM      4  C2  PXY d   1       5.996   1.752   3.529  0.00  0.00     0.003 A 
ATOM      5  C3  PXY d   1       5.961   0.385   3.632  0.00  0.00     0.003 A 
ATOM      6  C4  PXY d   1       5.978  -0.219   4.860  0.00  0.00    -0.082 A 
ATOM      7  C5  PXY d   1       5.989   0.542   5.975  0.00  0.00     0.003 A 
ATOM      8  C6  PXY d   1       5.983   1.928   5.850  0.00  0.00     0.003 A 
ENDROOT
TORSDOF 0
ENDMDL
