MODEL 1
REMARK minimizedAffinity -1.88766003
REMARK minimizedRMSD -1
REMARK  0 active torsions:
REMARK  status: ('A' for Active; 'I' for Inactive)
ROOT
ATOM      1  C4' PXY d   1       5.825   6.000   0.510  0.00  0.00     0.077 C 
ATOM      2  C1' PXY d   1       5.921   2.738   5.281  0.00  0.00     0.077 C 
ATOM      3  C1  PXY d   1       5.902   3.584   4.023  0.00  0.00    -0.082 A 
ATOM      4  C2  PXY d   1       5.782   4.898   4.121  0.00  0.00     0.003 A 
ATOM      5  C3  PXY d   1       5.731   5.675   2.992  0.00  0.00     0.003 A 
ATOM      6  C4  PXY d   1       5.858   5.107   1.753  0.00  0.00    -0.082 A 
ATOM      7  C5  PXY d   1       5.992   3.768   1.646  0.00  0.00     0.003 A 
ATOM      8  C6  PXY d   1       6.000   2.993   2.802  0.00  0.00     0.003 A 
ENDROOT
TORSDOF 0
ENDMDL
