MODEL 1
REMARK minimizedAffinity -3.8901701
REMARK minimizedRMSD -1
REMARK  0 active torsions:
REMARK  status: ('A' for Active; 'I' for Inactive)
ROOT
ATOM      1  C   UNL d   1      -1.029  -0.831   0.798  0.00  0.00     0.023 A 
ATOM      2  C1  UNL d   1       0.051  -0.110   0.289  0.00  0.00     0.003 A 
ATOM      3  C2  UNL d   1      -0.134   0.763  -0.786  0.00  0.00     0.048 A 
ATOM      4  C3  UNL d   1      -1.402   0.911  -1.345  0.00  0.00     0.023 A 
ATOM      5  C4  UNL d   1      -2.487   0.192  -0.839  0.00  0.00     0.048 A 
ATOM      6  C5  UNL d   1      -2.296  -0.680   0.235  0.00  0.00     0.003 A 
ATOM      7  I   UNL d   1      -1.681   2.210  -2.944  0.00  0.00    -0.146 I 
ENDROOT
TORSDOF 0
ENDMDL
