MODEL 1
REMARK minimizedAffinity -0.65615356
REMARK minimizedRMSD -1
REMARK  0 active torsions:
REMARK  status: ('A' for Active; 'I' for Inactive)
ROOT
ATOM      1  C   UNL d   1       0.612  -0.402   0.869  0.00  0.00     0.023 A 
ATOM      2  C1  UNL d   1      -0.711   0.040   0.900  0.00  0.00     0.003 A 
ATOM      3  C2  UNL d   1      -1.183   0.905  -0.089  0.00  0.00     0.048 A 
ATOM      4  C3  UNL d   1      -0.327   1.324  -1.107  0.00  0.00     0.023 A 
ATOM      5  C4  UNL d   1       0.997   0.884  -1.143  0.00  0.00     0.048 A 
ATOM      6  C5  UNL d   1       1.465   0.019  -0.151  0.00  0.00     0.003 A 
ATOM      7  I   UNL d   1      -1.027   2.612  -2.581  0.00  0.00    -0.146 I 
ENDROOT
TORSDOF 0
ENDMDL
