MODEL 1
REMARK minimizedAffinity 0.467342347
REMARK minimizedRMSD -1
REMARK  0 active torsions:
REMARK  status: ('A' for Active; 'I' for Inactive)
ROOT
ATOM      1  C   UNL d   1       0.889  -0.345   0.784  0.00  0.00     0.023 A 
ATOM      2  C1  UNL d   1      -0.448   0.046   0.851  0.00  0.00     0.003 A 
ATOM      3  C2  UNL d   1      -1.007   0.804  -0.180  0.00  0.00     0.048 A 
ATOM      4  C3  UNL d   1      -0.224   1.167  -1.275  0.00  0.00     0.023 A 
ATOM      5  C4  UNL d   1       1.115   0.777  -1.346  0.00  0.00     0.048 A 
ATOM      6  C5  UNL d   1       1.670   0.020  -0.313  0.00  0.00     0.003 A 
ATOM      7  I   UNL d   1      -1.054   2.295  -2.810  0.00  0.00    -0.146 I 
ENDROOT
TORSDOF 0
ENDMDL
