MODEL 1
REMARK minimizedAffinity -0.760930598
REMARK minimizedRMSD -1
REMARK  0 active torsions:
REMARK  status: ('A' for Active; 'I' for Inactive)
ROOT
ATOM      1  C   UNL d   1       0.602  -0.850   1.082  0.00  0.00     0.023 A 
ATOM      2  C1  UNL d   1       1.518  -0.296   0.187  0.00  0.00     0.003 A 
ATOM      3  C2  UNL d   1       1.096   0.649  -0.750  0.00  0.00     0.048 A 
ATOM      4  C3  UNL d   1      -0.243   1.038  -0.784  0.00  0.00     0.023 A 
ATOM      5  C4  UNL d   1      -1.162   0.488   0.110  0.00  0.00     0.048 A 
ATOM      6  C5  UNL d   1      -0.736  -0.458   1.044  0.00  0.00     0.003 A 
ATOM      7  I   UNL d   1      -0.874   2.446  -2.177  0.00  0.00    -0.146 I 
ENDROOT
TORSDOF 0
ENDMDL
