MODEL 1
REMARK minimizedAffinity 0.791635156
REMARK minimizedRMSD -1
REMARK  0 active torsions:
REMARK  status: ('A' for Active; 'I' for Inactive)
ROOT
ATOM      1  C   UNL d   1      -2.475   1.682  -2.449  0.00  0.00     0.023 A 
ATOM      2  C1  UNL d   1      -2.556   0.508  -1.699  0.00  0.00     0.003 A 
ATOM      3  C2  UNL d   1      -1.464   0.087  -0.938  0.00  0.00     0.048 A 
ATOM      4  C3  UNL d   1      -0.293   0.845  -0.930  0.00  0.00     0.023 A 
ATOM      5  C4  UNL d   1      -0.208   2.020  -1.678  0.00  0.00     0.048 A 
ATOM      6  C5  UNL d   1      -1.302   2.437  -2.438  0.00  0.00     0.003 A 
ATOM      7  I   UNL d   1       1.334   0.221   0.203  0.00  0.00    -0.146 I 
ENDROOT
TORSDOF 0
ENDMDL
