MODEL 1
REMARK minimizedAffinity -2.05835056
REMARK minimizedRMSD -1
REMARK  0 active torsions:
REMARK  status: ('A' for Active; 'I' for Inactive)
ROOT
ATOM      1  C   UNL d   1       0.181  -0.389   1.066  0.00  0.00     0.023 A 
ATOM      2  C1  UNL d   1       1.066   0.329   0.262  0.00  0.00     0.003 A 
ATOM      3  C2  UNL d   1       0.583   1.084  -0.809  0.00  0.00     0.048 A 
ATOM      4  C3  UNL d   1      -0.787   1.118  -1.069  0.00  0.00     0.023 A 
ATOM      5  C4  UNL d   1      -1.676   0.402  -0.266  0.00  0.00     0.048 A 
ATOM      6  C5  UNL d   1      -1.189  -0.353   0.803  0.00  0.00     0.003 A 
ATOM      7  I   UNL d   1      -1.508   2.241  -2.662  0.00  0.00    -0.146 I 
ENDROOT
TORSDOF 0
ENDMDL
