MODEL 1
REMARK minimizedAffinity -2.51125455
REMARK minimizedRMSD -1
REMARK  0 active torsions:
REMARK  status: ('A' for Active; 'I' for Inactive)
ROOT
ATOM      1  C   UNL d   1       2.471  -0.447  -0.648  0.00  0.00     0.023 A 
ATOM      2  C1  UNL d   1       1.542   0.577  -0.834  0.00  0.00     0.003 A 
ATOM      3  C2  UNL d   1       0.388   0.626  -0.050  0.00  0.00     0.048 A 
ATOM      4  C3  UNL d   1       0.169  -0.352   0.920  0.00  0.00     0.023 A 
ATOM      5  C4  UNL d   1       1.096  -1.378   1.111  0.00  0.00     0.048 A 
ATOM      6  C5  UNL d   1       2.248  -1.423   0.324  0.00  0.00     0.003 A 
ATOM      7  I   UNL d   1      -1.548  -0.281   2.089  0.00  0.00    -0.146 I 
ENDROOT
TORSDOF 0
ENDMDL
