MODEL 1
REMARK minimizedAffinity -2.38729548
REMARK minimizedRMSD -1
REMARK  0 active torsions:
REMARK  status: ('A' for Active; 'I' for Inactive)
ROOT
ATOM      1  C   UNL d   1       1.629  -1.208   0.563  0.00  0.00     0.023 A 
ATOM      2  C1  UNL d   1       2.267  -0.212  -0.177  0.00  0.00     0.003 A 
ATOM      3  C2  UNL d   1       1.514   0.730  -0.880  0.00  0.00     0.048 A 
ATOM      4  C3  UNL d   1       0.121   0.671  -0.838  0.00  0.00     0.023 A 
ATOM      5  C4  UNL d   1      -0.523  -0.322  -0.098  0.00  0.00     0.048 A 
ATOM      6  C5  UNL d   1       0.235  -1.262   0.603  0.00  0.00     0.003 A 
ATOM      7  I   UNL d   1      -1.003   2.072  -1.883  0.00  0.00    -0.146 I 
ENDROOT
TORSDOF 0
ENDMDL
