MODEL 1
REMARK minimizedAffinity -5.23896027
REMARK minimizedRMSD -1
REMARK  0 active torsions:
REMARK  status: ('A' for Active; 'I' for Inactive)
ROOT
ATOM      1  C   UNL d   1       1.055  -3.096   1.896  0.00  0.00     0.023 A 
ATOM      2  C1  UNL d   1       1.647  -2.402   0.841  0.00  0.00     0.003 A 
ATOM      3  C2  UNL d   1       0.936  -1.400   0.177  0.00  0.00     0.048 A 
ATOM      4  C3  UNL d   1      -0.365  -1.096   0.575  0.00  0.00     0.023 A 
ATOM      5  C4  UNL d   1      -0.961  -1.787   1.631  0.00  0.00     0.048 A 
ATOM      6  C5  UNL d   1      -0.247  -2.789   2.291  0.00  0.00     0.003 A 
ATOM      7  I   UNL d   1      -1.425   0.395  -0.411  0.00  0.00    -0.146 I 
ENDROOT
TORSDOF 0
ENDMDL
