MODEL 1
REMARK minimizedAffinity -3.95940995
REMARK minimizedRMSD -1
REMARK  0 active torsions:
REMARK  status: ('A' for Active; 'I' for Inactive)
ROOT
ATOM      1  C   UNL d   1      -1.769  -0.454   0.887  0.00  0.00     0.023 A 
ATOM      2  C1  UNL d   1      -0.741   0.415   0.521  0.00  0.00     0.003 A 
ATOM      3  C2  UNL d   1      -0.752   1.021  -0.737  0.00  0.00     0.048 A 
ATOM      4  C3  UNL d   1      -1.795   0.754  -1.624  0.00  0.00     0.023 A 
ATOM      5  C4  UNL d   1      -2.826  -0.114  -1.261  0.00  0.00     0.048 A 
ATOM      6  C5  UNL d   1      -2.810  -0.718  -0.003  0.00  0.00     0.003 A 
ATOM      7  I   UNL d   1      -1.814   1.655  -3.497  0.00  0.00    -0.146 I 
ENDROOT
TORSDOF 0
ENDMDL
