MODEL 1
REMARK minimizedAffinity 1.10156405
REMARK minimizedRMSD -1
REMARK  0 active torsions:
REMARK  status: ('A' for Active; 'I' for Inactive)
ROOT
ATOM      1  C   UNL d   1      -1.522  -1.224   3.304  0.00  0.00     0.023 A 
ATOM      2  C1  UNL d   1      -2.221  -0.611   2.264  0.00  0.00     0.003 A 
ATOM      3  C2  UNL d   1      -1.540  -0.171   1.127  0.00  0.00     0.048 A 
ATOM      4  C3  UNL d   1      -0.160  -0.347   1.037  0.00  0.00     0.023 A 
ATOM      5  C4  UNL d   1       0.544  -0.961   2.075  0.00  0.00     0.048 A 
ATOM      6  C5  UNL d   1      -0.141  -1.398   3.210  0.00  0.00     0.003 A 
ATOM      7  I   UNL d   1       0.856   0.307  -0.654  0.00  0.00    -0.146 I 
ENDROOT
TORSDOF 0
ENDMDL
