MODEL 1
REMARK minimizedAffinity -2.4462471
REMARK minimizedRMSD -1
REMARK  0 active torsions:
REMARK  status: ('A' for Active; 'I' for Inactive)
ROOT
ATOM      1  C   UNL d   1      -0.235  -0.404   1.230  0.00  0.00     0.023 A 
ATOM      2  C1  UNL d   1      -1.596  -0.396   0.927  0.00  0.00     0.003 A 
ATOM      3  C2  UNL d   1      -2.057   0.271  -0.210  0.00  0.00     0.048 A 
ATOM      4  C3  UNL d   1      -1.149   0.928  -1.040  0.00  0.00     0.023 A 
ATOM      5  C4  UNL d   1       0.214   0.922  -0.742  0.00  0.00     0.048 A 
ATOM      6  C5  UNL d   1       0.670   0.254   0.396  0.00  0.00     0.003 A 
ATOM      7  I   UNL d   1      -1.831   1.922  -2.734  0.00  0.00    -0.146 I 
ENDROOT
TORSDOF 0
ENDMDL
