MODEL 1
REMARK minimizedAffinity -5.07656717
REMARK minimizedRMSD -1
REMARK  0 active torsions:
REMARK  status: ('A' for Active; 'I' for Inactive)
ROOT
ATOM      1  C   UNL d   1      -1.110   0.982   0.306  0.00  0.00     0.023 A 
ATOM      2  C1  UNL d   1       0.157   0.717  -0.214  0.00  0.00     0.003 A 
ATOM      3  C2  UNL d   1       0.883  -0.385   0.242  0.00  0.00     0.048 A 
ATOM      4  C3  UNL d   1       0.337  -1.218   1.217  0.00  0.00     0.023 A 
ATOM      5  C4  UNL d   1      -0.931  -0.958   1.740  0.00  0.00     0.048 A 
ATOM      6  C5  UNL d   1      -1.654   0.146   1.282  0.00  0.00     0.003 A 
ATOM      7  I   UNL d   1       1.416  -2.859   1.897  0.00  0.00    -0.146 I 
ENDROOT
TORSDOF 0
ENDMDL
