MODEL 1
REMARK minimizedAffinity 6.46300459
REMARK minimizedRMSD -1
REMARK  0 active torsions:
REMARK  status: ('A' for Active; 'I' for Inactive)
ROOT
ATOM      1  C1  DEN d   1      -2.206   1.049  -0.160  0.00  0.00     0.130 A 
ATOM      2  C2  DEN d   1      -1.891  -0.058   0.739  0.00  0.00    -0.031 A 
ATOM      3  C3  DEN d   1      -1.832  -1.295  -0.064  0.00  0.00     0.027 A 
ATOM      4  C4  DEN d   1      -2.191  -1.603  -2.600  0.00  0.00     0.027 A 
ATOM      5  C5  DEN d   1      -2.492  -0.956  -3.777  0.00  0.00    -0.003 A 
ATOM      6  C6  DEN d   1      -2.750   0.389  -3.826  0.00  0.00     0.001 A 
ATOM      7  C7  DEN d   1      -2.667   1.138  -2.682  0.00  0.00     0.017 A 
ATOM      8  C8  DEN d   1      -2.372   0.491  -1.490  0.00  0.00    -0.094 A 
ATOM      9  C9  DEN d   1      -2.102  -0.867  -1.463  0.00  0.00    -0.072 A 
ENDROOT
TORSDOF 0
ENDMDL
