MODEL 1
REMARK minimizedAffinity 17.8006306
REMARK minimizedRMSD -1
REMARK  0 active torsions:
REMARK  status: ('A' for Active; 'I' for Inactive)
ROOT
ATOM      1  C1  DEN d   1       2.190   5.998  -0.114  0.00  0.00     0.130 A 
ATOM      2  C2  DEN d   1       3.116   4.915  -0.433  0.00  0.00    -0.031 A 
ATOM      3  C3  DEN d   1       2.449   3.636  -0.116  0.00  0.00     0.027 A 
ATOM      4  C4  DEN d   1       0.083   3.229   0.825  0.00  0.00     0.027 A 
ATOM      5  C5  DEN d   1      -1.071   3.840   1.264  0.00  0.00    -0.003 A 
ATOM      6  C6  DEN d   1      -1.205   5.202   1.306  0.00  0.00     0.001 A 
ATOM      7  C7  DEN d   1      -0.184   5.999   0.859  0.00  0.00     0.017 A 
ATOM      8  C8  DEN d   1       0.985   5.390   0.422  0.00  0.00    -0.094 A 
ATOM      9  C9  DEN d   1       1.097   4.011   0.376  0.00  0.00    -0.072 A 
ENDROOT
TORSDOF 0
ENDMDL
