MODEL 1
REMARK minimizedAffinity 13.2425737
REMARK minimizedRMSD -1
REMARK  0 active torsions:
REMARK  status: ('A' for Active; 'I' for Inactive)
ROOT
ATOM      1  C1  DEN d   1      -2.124  -0.802  -2.618  0.00  0.00     0.130 A 
ATOM      2  C2  DEN d   1      -2.542   0.498  -3.136  0.00  0.00    -0.031 A 
ATOM      3  C3  DEN d   1      -2.559   1.454  -2.011  0.00  0.00     0.027 A 
ATOM      4  C4  DEN d   1      -1.977   1.052   0.469  0.00  0.00     0.027 A 
ATOM      5  C5  DEN d   1      -1.580   0.108   1.390  0.00  0.00    -0.003 A 
ATOM      6  C6  DEN d   1      -1.371  -1.202   1.049  0.00  0.00     0.001 A 
ATOM      7  C7  DEN d   1      -1.515  -1.595  -0.255  0.00  0.00     0.017 A 
ATOM      8  C8  DEN d   1      -1.922  -0.651  -1.188  0.00  0.00    -0.094 A 
ATOM      9  C9  DEN d   1      -2.116   0.671  -0.826  0.00  0.00    -0.072 A 
ENDROOT
TORSDOF 0
ENDMDL
