MODEL 1
REMARK minimizedAffinity 6.04572678
REMARK minimizedRMSD -1
REMARK  0 active torsions:
REMARK  status: ('A' for Active; 'I' for Inactive)
ROOT
ATOM      1  C1  DEN d   1      -3.072   3.149  -1.801  0.00  0.00     0.130 A 
ATOM      2  C2  DEN d   1      -3.588   3.874  -2.958  0.00  0.00    -0.031 A 
ATOM      3  C3  DEN d   1      -3.447   3.003  -4.143  0.00  0.00     0.027 A 
ATOM      4  C4  DEN d   1      -2.490   0.613  -4.294  0.00  0.00     0.027 A 
ATOM      5  C5  DEN d   1      -1.919  -0.415  -3.578  0.00  0.00    -0.003 A 
ATOM      6  C6  DEN d   1      -1.662  -0.315  -2.236  0.00  0.00     0.001 A 
ATOM      7  C7  DEN d   1      -2.020   0.821  -1.559  0.00  0.00     0.017 A 
ATOM      8  C8  DEN d   1      -2.590   1.864  -2.276  0.00  0.00    -0.094 A 
ATOM      9  C9  DEN d   1      -2.852   1.740  -3.630  0.00  0.00    -0.072 A 
ENDROOT
TORSDOF 0
ENDMDL
