MODEL 1
REMARK minimizedAffinity 7.52405024
REMARK minimizedRMSD -1
REMARK  0 active torsions:
REMARK  status: ('A' for Active; 'I' for Inactive)
ROOT
ATOM      1  C1  DEN d   1      -2.733   1.435  -1.594  0.00  0.00     0.130 A 
ATOM      2  C2  DEN d   1      -3.161   2.477  -2.524  0.00  0.00    -0.031 A 
ATOM      3  C3  DEN d   1      -2.768   2.063  -3.886  0.00  0.00     0.027 A 
ATOM      4  C4  DEN d   1      -1.551  -0.082  -4.643  0.00  0.00     0.027 A 
ATOM      5  C5  DEN d   1      -0.977  -1.257  -4.213  0.00  0.00    -0.003 A 
ATOM      6  C6  DEN d   1      -0.918  -1.599  -2.888  0.00  0.00     0.001 A 
ATOM      7  C7  DEN d   1      -1.482  -0.777  -1.949  0.00  0.00     0.017 A 
ATOM      8  C8  DEN d   1      -2.057   0.413  -2.374  0.00  0.00    -0.094 A 
ATOM      9  C9  DEN d   1      -2.117   0.735  -3.719  0.00  0.00    -0.072 A 
ENDROOT
TORSDOF 0
ENDMDL
