MODEL 1
REMARK minimizedAffinity -3.56596518
REMARK minimizedRMSD -1
REMARK  1 active torsions:
REMARK  status: ('A' for Active; 'I' for Inactive)
REMARK    1  A    between atoms: C1_2  and  C2_3 
ROOT
ATOM      1  C2  UNL d   1       1.805   2.086   0.535  0.00  0.00    -0.077 A 
ATOM      2  C3  UNL d   1       1.146   2.385  -0.666  0.00  0.00     0.002 A 
ATOM      3  C4  UNL d   1       0.277   1.458  -1.244  0.00  0.00     0.002 A 
ATOM      4  C5  UNL d   1       0.055   0.229  -0.627  0.00  0.00    -0.004 A 
ATOM      5  C6  UNL d   1       0.707  -0.078   0.567  0.00  0.00     0.002 A 
ATOM      6  C7  UNL d   1       1.577   0.846   1.146  0.00  0.00     0.002 A 
ENDROOT
BRANCH   1   7
ATOM      7  C1  UNL d   1       2.704   3.104   1.186  0.00  0.00     0.055 C 
ATOM      8  C   UNL d   1       2.173   4.517   0.992  0.00  0.00     0.019 C 
ENDBRANCH   1   7
TORSDOF 1
ENDMDL
