MODEL 1
REMARK minimizedAffinity -3.94840598
REMARK minimizedRMSD -1
REMARK  1 active torsions:
REMARK  status: ('A' for Active; 'I' for Inactive)
REMARK    1  A    between atoms: C1_2  and  C2_3 
ROOT
ATOM      1  C2  UNL d   1      -0.189   0.268   0.190  0.00  0.00    -0.077 A 
ATOM      2  C3  UNL d   1      -1.108  -0.236   1.121  0.00  0.00     0.002 A 
ATOM      3  C4  UNL d   1      -1.170  -1.606   1.382  0.00  0.00     0.002 A 
ATOM      4  C5  UNL d   1      -0.313  -2.483   0.720  0.00  0.00    -0.004 A 
ATOM      5  C6  UNL d   1       0.604  -1.992  -0.209  0.00  0.00     0.002 A 
ATOM      6  C7  UNL d   1       0.666  -0.623  -0.472  0.00  0.00     0.002 A 
ENDROOT
BRANCH   1   7
ATOM      7  C1  UNL d   1      -0.086   1.750  -0.057  0.00  0.00     0.055 C 
ATOM      8  C   UNL d   1       1.357   2.225   0.016  0.00  0.00     0.019 C 
ENDBRANCH   1   7
TORSDOF 1
ENDMDL
