MODEL 1
REMARK minimizedAffinity -6.04018593
REMARK minimizedRMSD -1
REMARK  1 active torsions:
REMARK  status: ('A' for Active; 'I' for Inactive)
REMARK    1  A    between atoms: C1_2  and  C2_3 
ROOT
ATOM      1  C2  UNL d   1       0.008  -0.512  -0.305  0.00  0.00    -0.077 A 
ATOM      2  C3  UNL d   1       0.467  -1.084  -1.499  0.00  0.00     0.002 A 
ATOM      3  C4  UNL d   1       0.639  -2.466  -1.600  0.00  0.00     0.002 A 
ATOM      4  C5  UNL d   1       0.351  -3.287  -0.512  0.00  0.00    -0.004 A 
ATOM      5  C6  UNL d   1      -0.104  -2.727   0.681  0.00  0.00     0.002 A 
ATOM      6  C7  UNL d   1      -0.276  -1.346   0.784  0.00  0.00     0.002 A 
ENDROOT
BRANCH   1   7
ATOM      7  C1  UNL d   1      -0.225   0.973  -0.209  0.00  0.00     0.055 C 
ATOM      8  C   UNL d   1       1.017   1.698   0.290  0.00  0.00     0.019 C 
ENDBRANCH   1   7
TORSDOF 1
ENDMDL
