MODEL 1
REMARK minimizedAffinity -3.88379002
REMARK minimizedRMSD -1
REMARK  1 active torsions:
REMARK  status: ('A' for Active; 'I' for Inactive)
REMARK    1  A    between atoms: C1_2  and  C2_3 
ROOT
ATOM      1  C2  UNL d   1      -0.038  -0.074   0.202  0.00  0.00    -0.077 A 
ATOM      2  C3  UNL d   1      -0.854  -0.821   1.063  0.00  0.00     0.002 A 
ATOM      3  C4  UNL d   1      -0.896  -2.213   0.966  0.00  0.00     0.002 A 
ATOM      4  C5  UNL d   1      -0.121  -2.870   0.013  0.00  0.00    -0.004 A 
ATOM      5  C6  UNL d   1       0.693  -2.136  -0.849  0.00  0.00     0.002 A 
ATOM      6  C7  UNL d   1       0.735  -0.745  -0.754  0.00  0.00     0.002 A 
ENDROOT
BRANCH   1   7
ATOM      7  C1  UNL d   1       0.046   1.424   0.338  0.00  0.00     0.055 C 
ATOM      8  C   UNL d   1       1.492   1.891   0.429  0.00  0.00     0.019 C 
ENDBRANCH   1   7
TORSDOF 1
ENDMDL
