MODEL 1
REMARK minimizedAffinity -4.60894394
REMARK minimizedRMSD -1
REMARK  1 active torsions:
REMARK  status: ('A' for Active; 'I' for Inactive)
REMARK    1  A    between atoms: C1_2  and  C2_3 
ROOT
ATOM      1  C2  UNL d   1       0.286  -0.353  -0.745  0.00  0.00    -0.077 A 
ATOM      2  C3  UNL d   1       0.647  -1.701  -0.602  0.00  0.00     0.002 A 
ATOM      3  C4  UNL d   1       0.150  -2.456   0.462  0.00  0.00     0.002 A 
ATOM      4  C5  UNL d   1      -0.714  -1.874   1.388  0.00  0.00    -0.004 A 
ATOM      5  C6  UNL d   1      -1.077  -0.535   1.256  0.00  0.00     0.002 A 
ATOM      6  C7  UNL d   1      -0.580   0.222   0.194  0.00  0.00     0.002 A 
ENDROOT
BRANCH   1   7
ATOM      7  C1  UNL d   1       0.783   0.450  -1.919  0.00  0.00     0.055 C 
ATOM      8  C   UNL d   1       1.128  -0.449  -3.097  0.00  0.00     0.019 C 
ENDBRANCH   1   7
TORSDOF 1
ENDMDL
