MODEL 1
REMARK minimizedAffinity -3.31835961
REMARK minimizedRMSD -1
REMARK  1 active torsions:
REMARK  status: ('A' for Active; 'I' for Inactive)
REMARK    1  A    between atoms: C1_2  and  C2_3 
ROOT
ATOM      1  C2  UNL d   1      -0.150   0.952  -0.018  0.00  0.00    -0.077 A 
ATOM      2  C3  UNL d   1      -0.404  -0.224   0.702  0.00  0.00     0.002 A 
ATOM      3  C4  UNL d   1      -0.249  -1.471   0.094  0.00  0.00     0.002 A 
ATOM      4  C5  UNL d   1       0.164  -1.555  -1.234  0.00  0.00    -0.004 A 
ATOM      5  C6  UNL d   1       0.416  -0.391  -1.959  0.00  0.00     0.002 A 
ATOM      6  C7  UNL d   1       0.261   0.857  -1.353  0.00  0.00     0.002 A 
ENDROOT
BRANCH   1   7
ATOM      7  C1  UNL d   1      -0.269   2.297   0.650  0.00  0.00     0.055 C 
ATOM      8  C   UNL d   1       1.086   2.981   0.762  0.00  0.00     0.019 C 
ENDBRANCH   1   7
TORSDOF 1
ENDMDL
