MODEL 1
REMARK minimizedAffinity -1.65759718
REMARK minimizedRMSD -1
REMARK  1 active torsions:
REMARK  status: ('A' for Active; 'I' for Inactive)
REMARK    1  A    between atoms: C1_2  and  C2_3 
ROOT
ATOM      1  C2  UNL d   1      -0.015   0.670   0.342  0.00  0.00    -0.077 A 
ATOM      2  C3  UNL d   1       0.507   0.412  -0.933  0.00  0.00     0.002 A 
ATOM      3  C4  UNL d   1       0.730  -0.901  -1.353  0.00  0.00     0.002 A 
ATOM      4  C5  UNL d   1       0.431  -1.965  -0.505  0.00  0.00    -0.004 A 
ATOM      5  C6  UNL d   1      -0.086  -1.719   0.767  0.00  0.00     0.002 A 
ATOM      6  C7  UNL d   1      -0.309  -0.407   1.188  0.00  0.00     0.002 A 
ENDROOT
BRANCH   1   7
ATOM      7  C1  UNL d   1      -0.302   2.083   0.778  0.00  0.00     0.055 C 
ATOM      8  C   UNL d   1       0.963   2.930   0.781  0.00  0.00     0.019 C 
ENDBRANCH   1   7
TORSDOF 1
ENDMDL
