MODEL 1
REMARK minimizedAffinity -4.48518991
REMARK minimizedRMSD -1
REMARK  1 active torsions:
REMARK  status: ('A' for Active; 'I' for Inactive)
REMARK    1  A    between atoms: C1_2  and  C2_3 
ROOT
ATOM      1  C2  UNL d   1      -0.360   0.170   0.322  0.00  0.00    -0.077 A 
ATOM      2  C3  UNL d   1       0.602  -0.575  -0.375  0.00  0.00     0.002 A 
ATOM      3  C4  UNL d   1       0.591  -1.970  -0.320  0.00  0.00     0.002 A 
ATOM      4  C5  UNL d   1      -0.381  -2.632   0.427  0.00  0.00    -0.004 A 
ATOM      5  C6  UNL d   1      -1.340  -1.900   1.126  0.00  0.00     0.002 A 
ATOM      6  C7  UNL d   1      -1.330  -0.506   1.073  0.00  0.00     0.002 A 
ENDROOT
BRANCH   1   7
ATOM      7  C1  UNL d   1      -0.380   1.673   0.224  0.00  0.00     0.055 C 
ATOM      8  C   UNL d   1       1.028   2.249   0.260  0.00  0.00     0.019 C 
ENDBRANCH   1   7
TORSDOF 1
ENDMDL
