MODEL 1
REMARK minimizedAffinity -5.82390594
REMARK minimizedRMSD -1
REMARK  1 active torsions:
REMARK  status: ('A' for Active; 'I' for Inactive)
REMARK    1  A    between atoms: C1_2  and  C2_3 
ROOT
ATOM      1  C2  UNL d   1       0.435   4.166   2.359  0.00  0.00    -0.077 A 
ATOM      2  C3  UNL d   1       1.672   4.542   1.819  0.00  0.00     0.002 A 
ATOM      3  C4  UNL d   1       2.154   3.928   0.661  0.00  0.00     0.002 A 
ATOM      4  C5  UNL d   1       1.402   2.938   0.031  0.00  0.00    -0.004 A 
ATOM      5  C6  UNL d   1       0.171   2.556   0.562  0.00  0.00     0.002 A 
ATOM      6  C7  UNL d   1      -0.311   3.168   1.720  0.00  0.00     0.002 A 
ENDROOT
BRANCH   1   7
ATOM      7  C1  UNL d   1      -0.109   4.862   3.579  0.00  0.00     0.055 C 
ATOM      8  C   UNL d   1      -1.357   5.668   3.248  0.00  0.00     0.019 C 
ENDBRANCH   1   7
TORSDOF 1
ENDMDL
