MODEL 1
REMARK minimizedAffinity -4.75828218
REMARK minimizedRMSD -1
REMARK  1 active torsions:
REMARK  status: ('A' for Active; 'I' for Inactive)
REMARK    1  A    between atoms: C1_2  and  C2_3 
ROOT
ATOM      1  C2  UNL d   1       1.299   2.031   0.155  0.00  0.00    -0.077 A 
ATOM      2  C3  UNL d   1       0.966   1.600  -1.137  0.00  0.00     0.002 A 
ATOM      3  C4  UNL d   1       0.321   0.377  -1.329  0.00  0.00     0.002 A 
ATOM      4  C5  UNL d   1       0.000  -0.423  -0.234  0.00  0.00    -0.004 A 
ATOM      5  C6  UNL d   1       0.329  -0.004   1.054  0.00  0.00     0.002 A 
ATOM      6  C7  UNL d   1       0.975   1.217   1.248  0.00  0.00     0.002 A 
ENDROOT
BRANCH   1   7
ATOM      7  C1  UNL d   1       1.951   3.372   0.368  0.00  0.00     0.055 C 
ATOM      8  C   UNL d   1       1.695   3.894   1.775  0.00  0.00     0.019 C 
ENDBRANCH   1   7
TORSDOF 1
ENDMDL
