MODEL 1
REMARK minimizedAffinity -2.88222694
REMARK minimizedRMSD -1
REMARK  1 active torsions:
REMARK  status: ('A' for Active; 'I' for Inactive)
REMARK    1  A    between atoms: C1_2  and  C2_3 
ROOT
ATOM      1  C2  UNL d   1      -0.483  -1.236   0.763  0.00  0.00    -0.077 A 
ATOM      2  C3  UNL d   1      -1.228  -0.123   0.351  0.00  0.00     0.002 A 
ATOM      3  C4  UNL d   1      -0.622   1.131   0.241  0.00  0.00     0.002 A 
ATOM      4  C5  UNL d   1       0.731   1.281   0.535  0.00  0.00    -0.004 A 
ATOM      5  C6  UNL d   1       1.480   0.179   0.947  0.00  0.00     0.002 A 
ATOM      6  C7  UNL d   1       0.876  -1.074   1.059  0.00  0.00     0.002 A 
ENDROOT
BRANCH   1   7
ATOM      7  C1  UNL d   1      -1.122  -2.598   0.835  0.00  0.00     0.055 C 
ATOM      8  C   UNL d   1      -0.323  -3.628   0.050  0.00  0.00     0.019 C 
ENDBRANCH   1   7
TORSDOF 1
ENDMDL
