MODEL 1
REMARK minimizedAffinity -1.97634602
REMARK minimizedRMSD -1
REMARK  0 active torsions:
REMARK  status: ('A' for Active; 'I' for Inactive)
ROOT
ATOM      1  C   UNL d   1      -0.347   2.964   1.518  0.00  0.00     0.172 C 
ATOM      2  N   UNL d   1      -0.125   1.551   1.316  0.00  0.00    -0.070 N 
ATOM      3  C1  UNL d   1      -0.450   0.557   2.200  0.00  0.00    -0.004 A 
ATOM      4  C2  UNL d   1      -0.079  -0.645   1.638  0.00  0.00    -0.047 A 
ATOM      5  C3  UNL d   1       0.489  -0.365   0.373  0.00  0.00    -0.047 A 
ATOM      6  C4  UNL d   1       0.448   1.003   0.199  0.00  0.00    -0.004 A 
ENDROOT
TORSDOF 0
ENDMDL
