MODEL 1
REMARK minimizedAffinity -1.41592455
REMARK minimizedRMSD -1
REMARK  0 active torsions:
REMARK  status: ('A' for Active; 'I' for Inactive)
ROOT
ATOM      1  C   UNL d   1      -1.064   1.890   2.143  0.00  0.00     0.172 C 
ATOM      2  N   UNL d   1      -0.539   0.774   1.391  0.00  0.00    -0.070 N 
ATOM      3  C1  UNL d   1      -0.766  -0.549   1.663  0.00  0.00    -0.004 A 
ATOM      4  C2  UNL d   1      -0.094  -1.296   0.720  0.00  0.00    -0.047 A 
ATOM      5  C3  UNL d   1       0.560  -0.390  -0.149  0.00  0.00    -0.047 A 
ATOM      6  C4  UNL d   1       0.268   0.884   0.290  0.00  0.00    -0.004 A 
ENDROOT
TORSDOF 0
ENDMDL
