MODEL 1
REMARK minimizedAffinity -2.89277244
REMARK minimizedRMSD -1
REMARK  0 active torsions:
REMARK  status: ('A' for Active; 'I' for Inactive)
ROOT
ATOM      1  C   UNL d   1       1.643  -0.733  -0.606  0.00  0.00     0.172 C 
ATOM      2  N   UNL d   1       0.511  -0.451   0.244  0.00  0.00    -0.070 N 
ATOM      3  C1  UNL d   1       0.561  -0.242   1.597  0.00  0.00    -0.004 A 
ATOM      4  C2  UNL d   1      -0.724  -0.005   2.035  0.00  0.00    -0.047 A 
ATOM      5  C3  UNL d   1      -1.576  -0.073   0.907  0.00  0.00    -0.047 A 
ATOM      6  C4  UNL d   1      -0.785  -0.350  -0.188  0.00  0.00    -0.004 A 
ENDROOT
TORSDOF 0
ENDMDL
