MODEL 1
REMARK minimizedAffinity -2.00562167
REMARK minimizedRMSD -1
REMARK  0 active torsions:
REMARK  status: ('A' for Active; 'I' for Inactive)
ROOT
ATOM      1  C   UNL d   1       0.740  -2.045  -2.172  0.00  0.00     0.172 C 
ATOM      2  N   UNL d   1       0.288  -1.298  -1.022  0.00  0.00    -0.070 N 
ATOM      3  C1  UNL d   1       0.702  -0.040  -0.674  0.00  0.00    -0.004 A 
ATOM      4  C2  UNL d   1       0.039   0.318   0.479  0.00  0.00    -0.047 A 
ATOM      5  C3  UNL d   1      -0.802  -0.762   0.837  0.00  0.00    -0.047 A 
ATOM      6  C4  UNL d   1      -0.628  -1.749  -0.109  0.00  0.00    -0.004 A 
ENDROOT
TORSDOF 0
ENDMDL
