MODEL 1
REMARK minimizedAffinity -0.288264394
REMARK minimizedRMSD -1
REMARK  0 active torsions:
REMARK  status: ('A' for Active; 'I' for Inactive)
ROOT
ATOM      1  C   UNL d   1       1.127  -0.700  -0.745  0.00  0.00     0.172 C 
ATOM      2  N   UNL d   1       1.144  -1.999  -1.376  0.00  0.00    -0.070 N 
ATOM      3  C1  UNL d   1       0.882  -2.249  -2.696  0.00  0.00    -0.004 A 
ATOM      4  C2  UNL d   1       1.000  -3.606  -2.901  0.00  0.00    -0.047 A 
ATOM      5  C3  UNL d   1       1.344  -4.193  -1.660  0.00  0.00    -0.047 A 
ATOM      6  C4  UNL d   1       1.426  -3.176  -0.733  0.00  0.00    -0.004 A 
ENDROOT
TORSDOF 0
ENDMDL
