MODEL 1
REMARK minimizedAffinity -0.405088454
REMARK minimizedRMSD -1
REMARK  0 active torsions:
REMARK  status: ('A' for Active; 'I' for Inactive)
ROOT
ATOM      1  C   UNL d   1       0.564  -1.716  -1.165  0.00  0.00     0.172 C 
ATOM      2  N   UNL d   1      -0.004  -0.907  -0.112  0.00  0.00    -0.070 N 
ATOM      3  C1  UNL d   1      -1.186  -1.153   0.534  0.00  0.00    -0.004 A 
ATOM      4  C2  UNL d   1      -1.372  -0.156   1.467  0.00  0.00    -0.047 A 
ATOM      5  C3  UNL d   1      -0.264   0.720   1.378  0.00  0.00    -0.047 A 
ATOM      6  C4  UNL d   1       0.568   0.231   0.392  0.00  0.00    -0.004 A 
ENDROOT
TORSDOF 0
ENDMDL
