MODEL 1
REMARK minimizedAffinity -1.98581636
REMARK minimizedRMSD -1
REMARK  0 active torsions:
REMARK  status: ('A' for Active; 'I' for Inactive)
ROOT
ATOM      1  C   UNL d   1       1.078  -0.626  -0.534  0.00  0.00     0.172 C 
ATOM      2  N   UNL d   1       0.227   0.046   0.420  0.00  0.00    -0.070 N 
ATOM      3  C1  UNL d   1      -0.317  -0.521   1.542  0.00  0.00    -0.004 A 
ATOM      4  C2  UNL d   1      -1.062   0.445   2.184  0.00  0.00    -0.047 A 
ATOM      5  C3  UNL d   1      -0.962   1.633   1.421  0.00  0.00    -0.047 A 
ATOM      6  C4  UNL d   1      -0.159   1.357   0.335  0.00  0.00    -0.004 A 
ENDROOT
TORSDOF 0
ENDMDL
