MODEL 1
REMARK minimizedAffinity -0.936430931
REMARK minimizedRMSD -1
REMARK  0 active torsions:
REMARK  status: ('A' for Active; 'I' for Inactive)
ROOT
ATOM      1  C   UNL d   1       0.387  -0.665   2.478  0.00  0.00     0.172 C 
ATOM      2  N   UNL d   1       0.398  -0.112   1.145  0.00  0.00    -0.070 N 
ATOM      3  C1  UNL d   1      -0.645   0.537   0.541  0.00  0.00    -0.004 A 
ATOM      4  C2  UNL d   1      -0.237   0.910  -0.722  0.00  0.00    -0.047 A 
ATOM      5  C3  UNL d   1       1.098   0.469  -0.882  0.00  0.00    -0.047 A 
ATOM      6  C4  UNL d   1       1.466  -0.161   0.288  0.00  0.00    -0.004 A 
ENDROOT
TORSDOF 0
ENDMDL
