MODEL 1
REMARK minimizedAffinity -0.507664025
REMARK minimizedRMSD -1
REMARK  0 active torsions:
REMARK  status: ('A' for Active; 'I' for Inactive)
ROOT
ATOM      1  C   UNL d   1      -1.688   1.737   1.819  0.00  0.00     0.172 C 
ATOM      2  N   UNL d   1      -0.797   0.735   1.282  0.00  0.00    -0.070 N 
ATOM      3  C1  UNL d   1       0.177   0.954   0.345  0.00  0.00    -0.004 A 
ATOM      4  C2  UNL d   1       0.805  -0.249   0.100  0.00  0.00    -0.047 A 
ATOM      5  C3  UNL d   1       0.186  -1.224   0.918  0.00  0.00    -0.047 A 
ATOM      6  C4  UNL d   1      -0.802  -0.587   1.639  0.00  0.00    -0.004 A 
ENDROOT
TORSDOF 0
ENDMDL
