MODEL 1
REMARK minimizedAffinity -2.78226757
REMARK minimizedRMSD -1
REMARK  0 active torsions:
REMARK  status: ('A' for Active; 'I' for Inactive)
ROOT
ATOM      1  C   UNL d   1       0.001  -0.145  -0.123  0.00  0.00     0.172 C 
ATOM      2  N   UNL d   1      -0.550   0.945   0.647  0.00  0.00    -0.070 N 
ATOM      3  C1  UNL d   1      -1.251   0.821   1.817  0.00  0.00    -0.004 A 
ATOM      4  C2  UNL d   1      -1.602   2.087   2.234  0.00  0.00    -0.047 A 
ATOM      5  C3  UNL d   1      -1.095   3.003   1.281  0.00  0.00    -0.047 A 
ATOM      6  C4  UNL d   1      -0.449   2.269   0.310  0.00  0.00    -0.004 A 
ENDROOT
TORSDOF 0
ENDMDL
