MODEL 1
REMARK minimizedAffinity -2.7007885
REMARK minimizedRMSD -1
REMARK  0 active torsions:
REMARK  status: ('A' for Active; 'I' for Inactive)
ROOT
ATOM      1  C   UNL d   1      -0.283  -0.207  -0.253  0.00  0.00     0.172 C 
ATOM      2  N   UNL d   1      -0.470   1.199   0.018  0.00  0.00    -0.070 N 
ATOM      3  C1  UNL d   1       0.094   2.229  -0.685  0.00  0.00    -0.004 A 
ATOM      4  C2  UNL d   1      -0.330   3.411  -0.116  0.00  0.00    -0.047 A 
ATOM      5  C3  UNL d   1      -1.178   3.079   0.967  0.00  0.00    -0.047 A 
ATOM      6  C4  UNL d   1      -1.247   1.703   1.027  0.00  0.00    -0.004 A 
ENDROOT
TORSDOF 0
ENDMDL
