MODEL 1
REMARK minimizedAffinity -1.68003666
REMARK minimizedRMSD -1
REMARK  0 active torsions:
REMARK  status: ('A' for Active; 'I' for Inactive)
ROOT
ATOM      1  C   UNL d   1      -0.275  -0.012   0.475  0.00  0.00     0.172 C 
ATOM      2  N   UNL d   1      -0.459   1.374   0.836  0.00  0.00    -0.070 N 
ATOM      3  C1  UNL d   1      -0.091   2.452   0.075  0.00  0.00    -0.004 A 
ATOM      4  C2  UNL d   1      -0.436   3.593   0.766  0.00  0.00    -0.047 A 
ATOM      5  C3  UNL d   1      -1.030   3.187   1.985  0.00  0.00    -0.047 A 
ATOM      6  C4  UNL d   1      -1.031   1.809   2.002  0.00  0.00    -0.004 A 
ENDROOT
TORSDOF 0
ENDMDL
