MODEL 1
REMARK minimizedAffinity -3.14759946
REMARK minimizedRMSD -1
REMARK  0 active torsions:
REMARK  status: ('A' for Active; 'I' for Inactive)
ROOT
ATOM      1  C   UNL d   1      -0.093   3.661  -0.752  0.00  0.00     0.172 C 
ATOM      2  N   UNL d   1      -0.504   2.592   0.127  0.00  0.00    -0.070 N 
ATOM      3  C1  UNL d   1      -0.300   1.256  -0.092  0.00  0.00    -0.004 A 
ATOM      4  C2  UNL d   1      -0.835   0.566   0.974  0.00  0.00    -0.047 A 
ATOM      5  C3  UNL d   1      -1.381   1.521   1.865  0.00  0.00    -0.047 A 
ATOM      6  C4  UNL d   1      -1.162   2.767   1.316  0.00  0.00    -0.004 A 
ENDROOT
TORSDOF 0
ENDMDL
