MODEL 1
REMARK minimizedAffinity -1.64803815
REMARK minimizedRMSD -1
REMARK  0 active torsions:
REMARK  status: ('A' for Active; 'I' for Inactive)
ROOT
ATOM      1  C   UNL d   1      -1.037   2.138   2.010  0.00  0.00     0.172 C 
ATOM      2  N   UNL d   1      -0.441   0.993   1.362  0.00  0.00    -0.070 N 
ATOM      3  C1  UNL d   1       0.615   1.029   0.492  0.00  0.00    -0.004 A 
ATOM      4  C2  UNL d   1       0.882  -0.265   0.098  0.00  0.00    -0.047 A 
ATOM      5  C3  UNL d   1      -0.047  -1.107   0.754  0.00  0.00    -0.047 A 
ATOM      6  C4  UNL d   1      -0.854  -0.302   1.530  0.00  0.00    -0.004 A 
ENDROOT
TORSDOF 0
ENDMDL
