MODEL 1
REMARK minimizedAffinity -2.04379034
REMARK minimizedRMSD -1
REMARK  0 active torsions:
REMARK  status: ('A' for Active; 'I' for Inactive)
ROOT
ATOM      1  C   UNL d   1       1.421   1.650  -1.025  0.00  0.00     0.172 C 
ATOM      2  N   UNL d   1       0.857   0.569  -0.251  0.00  0.00    -0.070 N 
ATOM      3  C1  UNL d   1       0.499  -0.660  -0.737  0.00  0.00    -0.004 A 
ATOM      4  C2  UNL d   1       0.005  -1.402   0.314  0.00  0.00    -0.047 A 
ATOM      5  C3  UNL d   1       0.067  -0.591   1.471  0.00  0.00    -0.047 A 
ATOM      6  C4  UNL d   1       0.598   0.624   1.094  0.00  0.00    -0.004 A 
ENDROOT
TORSDOF 0
ENDMDL
