MODEL 1
REMARK minimizedAffinity -3.28546691
REMARK minimizedRMSD -1
REMARK  0 active torsions:
REMARK  status: ('A' for Active; 'I' for Inactive)
ROOT
ATOM      1  C   UNL d   1       0.911  -1.130  -0.373  0.00  0.00     0.172 C 
ATOM      2  N   UNL d   1       0.229  -0.235   0.532  0.00  0.00    -0.070 N 
ATOM      3  C1  UNL d   1       0.300   1.133   0.506  0.00  0.00    -0.004 A 
ATOM      4  C2  UNL d   1      -0.490   1.616   1.526  0.00  0.00    -0.047 A 
ATOM      5  C3  UNL d   1      -1.055   0.500   2.189  0.00  0.00    -0.047 A 
ATOM      6  C4  UNL d   1      -0.593  -0.633   1.553  0.00  0.00    -0.004 A 
ENDROOT
TORSDOF 0
ENDMDL
