MODEL 1
REMARK minimizedAffinity -3.10111833
REMARK minimizedRMSD -1
REMARK  0 active torsions:
REMARK  status: ('A' for Active; 'I' for Inactive)
ROOT
ATOM      1  C   UNL d   1      -0.661   2.775   1.457  0.00  0.00     0.172 C 
ATOM      2  N   UNL d   1      -0.484   1.439   0.939  0.00  0.00    -0.070 N 
ATOM      3  C1  UNL d   1       0.352   1.085  -0.087  0.00  0.00    -0.004 A 
ATOM      4  C2  UNL d   1       0.233  -0.275  -0.277  0.00  0.00    -0.047 A 
ATOM      5  C3  UNL d   1      -0.707  -0.754   0.666  0.00  0.00    -0.047 A 
ATOM      6  C4  UNL d   1      -1.135   0.328   1.406  0.00  0.00    -0.004 A 
ENDROOT
TORSDOF 0
ENDMDL
