MODEL 1
REMARK minimizedAffinity 10.9627123
REMARK minimizedRMSD -1
REMARK  0 active torsions:
REMARK  status: ('A' for Active; 'I' for Inactive)
ROOT
ATOM      1  C   UNL d   1      -2.416   0.381  -0.344  0.00  0.00     0.124 A 
ATOM      2  C1  UNL d   1      -1.980   0.223  -1.653  0.00  0.00     0.062 A 
ATOM      3  C2  UNL d   1      -2.899   0.188  -2.697  0.00  0.00     0.162 A 
ATOM      4  C3  UNL d   1      -4.264   0.312  -2.438  0.00  0.00    -0.034 A 
ATOM      5  C4  UNL d   1      -4.695   0.470  -1.120  0.00  0.00     0.162 A 
ATOM      6  C5  UNL d   1      -3.772   0.505  -0.079  0.00  0.00     0.062 A 
ATOM      7  F   UNL d   1      -4.195   0.658   1.184  0.00  0.00    -0.097 F 
ATOM      8  F1  UNL d   1      -6.000   0.593  -0.835  0.00  0.00    -0.096 F 
ATOM      9  I   UNL d   1      -5.642   0.260  -3.997  0.00  0.00    -0.060 I 
ATOM     10  F2  UNL d   1      -2.450   0.034  -3.952  0.00  0.00    -0.096 F 
ATOM     11  F3  UNL d   1      -0.670   0.103  -1.912  0.00  0.00    -0.097 F 
ATOM     12  F4  UNL d   1      -1.529   0.414   0.659  0.00  0.00    -0.092 F 
ENDROOT
TORSDOF 0
ENDMDL
