MODEL 1
REMARK minimizedAffinity 18.3013706
REMARK minimizedRMSD -1
REMARK  0 active torsions:
REMARK  status: ('A' for Active; 'I' for Inactive)
ROOT
ATOM      1  C   UNL d   1      -2.528   0.477  -0.219  0.00  0.00     0.124 A 
ATOM      2  C1  UNL d   1      -3.914   0.503  -0.165  0.00  0.00     0.062 A 
ATOM      3  C2  UNL d   1      -4.661   0.512  -1.340  0.00  0.00     0.162 A 
ATOM      4  C3  UNL d   1      -4.022   0.493  -2.580  0.00  0.00    -0.034 A 
ATOM      5  C4  UNL d   1      -2.627   0.468  -2.626  0.00  0.00     0.162 A 
ATOM      6  C5  UNL d   1      -1.885   0.459  -1.449  0.00  0.00     0.062 A 
ATOM      7  F   UNL d   1      -0.546   0.434  -1.504  0.00  0.00    -0.097 F 
ATOM      8  F1  UNL d   1      -1.981   0.449  -3.801  0.00  0.00    -0.096 F 
ATOM      9  I   UNL d   1      -5.135   0.505  -4.338  0.00  0.00    -0.060 I 
ATOM     10  F2  UNL d   1      -5.999   0.537  -1.257  0.00  0.00    -0.096 F 
ATOM     11  F3  UNL d   1      -4.537   0.522   1.022  0.00  0.00    -0.097 F 
ATOM     12  F4  UNL d   1      -1.812   0.470   0.912  0.00  0.00    -0.092 F 
ENDROOT
TORSDOF 0
ENDMDL
