MODEL 1
REMARK minimizedAffinity 15.0928354
REMARK minimizedRMSD -1
REMARK  0 active torsions:
REMARK  status: ('A' for Active; 'I' for Inactive)
ROOT
ATOM      1  C   UNL d   1       2.449  -2.717  -0.911  0.00  0.00     0.124 A 
ATOM      2  C1  UNL d   1       2.451  -2.088   0.327  0.00  0.00     0.062 A 
ATOM      3  C2  UNL d   1       2.934  -0.789   0.451  0.00  0.00     0.162 A 
ATOM      4  C3  UNL d   1       3.418  -0.108  -0.666  0.00  0.00    -0.034 A 
ATOM      5  C4  UNL d   1       3.414  -0.747  -1.907  0.00  0.00     0.162 A 
ATOM      6  C5  UNL d   1       2.930  -2.046  -2.026  0.00  0.00     0.062 A 
ATOM      7  F   UNL d   1       2.929  -2.651  -3.223  0.00  0.00    -0.097 F 
ATOM      8  F1  UNL d   1       3.872  -0.121  -3.001  0.00  0.00    -0.096 F 
ATOM      9  I   UNL d   1       4.142   1.835  -0.484  0.00  0.00    -0.060 I 
ATOM     10  F2  UNL d   1       2.924  -0.207   1.660  0.00  0.00    -0.096 F 
ATOM     11  F3  UNL d   1       1.987  -2.735   1.406  0.00  0.00    -0.097 F 
ATOM     12  F4  UNL d   1       1.984  -3.967  -1.028  0.00  0.00    -0.092 F 
ENDROOT
TORSDOF 0
ENDMDL
