MODEL 1
REMARK minimizedAffinity 16.4970722
REMARK minimizedRMSD -1
REMARK  0 active torsions:
REMARK  status: ('A' for Active; 'I' for Inactive)
ROOT
ATOM      1  C   UNL d   1       4.259   1.305  -0.748  0.00  0.00     0.124 A 
ATOM      2  C1  UNL d   1       3.360   0.736   0.144  0.00  0.00     0.062 A 
ATOM      3  C2  UNL d   1       3.331   1.154   1.471  0.00  0.00     0.162 A 
ATOM      4  C3  UNL d   1       4.204   2.148   1.915  0.00  0.00    -0.034 A 
ATOM      5  C4  UNL d   1       5.106   2.714   1.013  0.00  0.00     0.162 A 
ATOM      6  C5  UNL d   1       5.131   2.293  -0.312  0.00  0.00     0.062 A 
ATOM      7  F   UNL d   1       6.000   2.844  -1.172  0.00  0.00    -0.097 F 
ATOM      8  F1  UNL d   1       5.959   3.672   1.407  0.00  0.00    -0.096 F 
ATOM      9  I   UNL d   1       4.164   2.775   3.899  0.00  0.00    -0.060 I 
ATOM     10  F2  UNL d   1       2.452   0.587   2.311  0.00  0.00    -0.096 F 
ATOM     11  F3  UNL d   1       2.518  -0.220  -0.274  0.00  0.00    -0.097 F 
ATOM     12  F4  UNL d   1       4.286   0.900  -2.024  0.00  0.00    -0.092 F 
ENDROOT
TORSDOF 0
ENDMDL
