MODEL 1
REMARK minimizedAffinity 15.5991344
REMARK minimizedRMSD -1
REMARK  0 active torsions:
REMARK  status: ('A' for Active; 'I' for Inactive)
ROOT
ATOM      1  C   UNL d   1      -2.659  -0.160  -4.617  0.00  0.00     0.124 A 
ATOM      2  C1  UNL d   1      -2.252  -0.608  -3.368  0.00  0.00     0.062 A 
ATOM      3  C2  UNL d   1      -3.108  -0.507  -2.275  0.00  0.00     0.162 A 
ATOM      4  C3  UNL d   1      -4.381   0.043  -2.426  0.00  0.00    -0.034 A 
ATOM      5  C4  UNL d   1      -4.783   0.492  -3.685  0.00  0.00     0.162 A 
ATOM      6  C5  UNL d   1      -3.924   0.389  -4.774  0.00  0.00     0.062 A 
ATOM      7  F   UNL d   1      -4.319   0.822  -5.980  0.00  0.00    -0.097 F 
ATOM      8  F1  UNL d   1      -6.000   1.026  -3.866  0.00  0.00    -0.096 F 
ATOM      9  I   UNL d   1      -5.663   0.196  -0.794  0.00  0.00    -0.060 I 
ATOM     10  F2  UNL d   1      -2.688  -0.947  -1.079  0.00  0.00    -0.096 F 
ATOM     11  F3  UNL d   1      -1.030  -1.138  -3.213  0.00  0.00    -0.097 F 
ATOM     12  F4  UNL d   1      -1.833  -0.258  -5.667  0.00  0.00    -0.092 F 
ENDROOT
TORSDOF 0
ENDMDL
