MODEL 1
REMARK minimizedAffinity 5.96224594
REMARK minimizedRMSD -1
REMARK  0 active torsions:
REMARK  status: ('A' for Active; 'I' for Inactive)
ROOT
ATOM      1  C   UNL d   1       3.235  -0.194  -0.758  0.00  0.00     0.124 A 
ATOM      2  C1  UNL d   1       3.381   0.655   0.331  0.00  0.00     0.062 A 
ATOM      3  C2  UNL d   1       4.170   1.797   0.228  0.00  0.00     0.162 A 
ATOM      4  C3  UNL d   1       4.819   2.098  -0.970  0.00  0.00    -0.034 A 
ATOM      5  C4  UNL d   1       4.668   1.240  -2.060  0.00  0.00     0.162 A 
ATOM      6  C5  UNL d   1       3.878   0.100  -1.952  0.00  0.00     0.062 A 
ATOM      7  F   UNL d   1       3.738  -0.719  -3.005  0.00  0.00    -0.097 F 
ATOM      8  F1  UNL d   1       5.278   1.499  -3.227  0.00  0.00    -0.096 F 
ATOM      9  I   UNL d   1       6.000   3.804  -1.128  0.00  0.00    -0.060 I 
ATOM     10  F2  UNL d   1       4.294   2.598   1.296  0.00  0.00    -0.096 F 
ATOM     11  F3  UNL d   1       2.761   0.373   1.486  0.00  0.00    -0.097 F 
ATOM     12  F4  UNL d   1       2.476  -1.292  -0.656  0.00  0.00    -0.092 F 
ENDROOT
TORSDOF 0
ENDMDL
