MODEL 1
REMARK minimizedAffinity 7.20766354
REMARK minimizedRMSD -1
REMARK  0 active torsions:
REMARK  status: ('A' for Active; 'I' for Inactive)
ROOT
ATOM      1  C   UNL d   1       3.304  -0.647  -1.848  0.00  0.00     0.124 A 
ATOM      2  C1  UNL d   1       4.111   0.410  -2.244  0.00  0.00     0.062 A 
ATOM      3  C2  UNL d   1       4.666   1.262  -1.293  0.00  0.00     0.162 A 
ATOM      4  C3  UNL d   1       4.416   1.060   0.064  0.00  0.00    -0.034 A 
ATOM      5  C4  UNL d   1       3.602  -0.005   0.455  0.00  0.00     0.162 A 
ATOM      6  C5  UNL d   1       3.050  -0.853  -0.499  0.00  0.00     0.062 A 
ATOM      7  F   UNL d   1       2.270  -1.874  -0.114  0.00  0.00    -0.097 F 
ATOM      8  F1  UNL d   1       3.341  -0.228   1.752  0.00  0.00    -0.096 F 
ATOM      9  I   UNL d   1       5.244   2.332   1.489  0.00  0.00    -0.060 I 
ATOM     10  F2  UNL d   1       5.443   2.275  -1.705  0.00  0.00    -0.096 F 
ATOM     11  F3  UNL d   1       4.357   0.612  -3.547  0.00  0.00    -0.097 F 
ATOM     12  F4  UNL d   1       2.770  -1.464  -2.765  0.00  0.00    -0.092 F 
ENDROOT
TORSDOF 0
ENDMDL
