MODEL 1
REMARK minimizedAffinity 9.20159626
REMARK minimizedRMSD -1
REMARK  0 active torsions:
REMARK  status: ('A' for Active; 'I' for Inactive)
ROOT
ATOM      1  C   UNL d   1       3.899   2.278   0.818  0.00  0.00     0.124 A 
ATOM      2  C1  UNL d   1       2.729   2.049   0.108  0.00  0.00     0.062 A 
ATOM      3  C2  UNL d   1       2.524   0.828  -0.529  0.00  0.00     0.162 A 
ATOM      4  C3  UNL d   1       3.493  -0.174  -0.457  0.00  0.00    -0.034 A 
ATOM      5  C4  UNL d   1       4.667   0.065   0.258  0.00  0.00     0.162 A 
ATOM      6  C5  UNL d   1       4.867   1.287   0.893  0.00  0.00     0.062 A 
ATOM      7  F   UNL d   1       5.998   1.507   1.578  0.00  0.00    -0.097 F 
ATOM      8  F1  UNL d   1       5.619  -0.876   0.347  0.00  0.00    -0.096 F 
ATOM      9  I   UNL d   1       3.191  -2.001  -1.408  0.00  0.00    -0.060 I 
ATOM     10  F2  UNL d   1       1.384   0.633  -1.208  0.00  0.00    -0.096 F 
ATOM     11  F3  UNL d   1       1.792   3.005   0.034  0.00  0.00    -0.097 F 
ATOM     12  F4  UNL d   1       4.093   3.454   1.429  0.00  0.00    -0.092 F 
ENDROOT
TORSDOF 0
ENDMDL
