MODEL 1
REMARK minimizedAffinity 24.4665356
REMARK minimizedRMSD -1
REMARK  0 active torsions:
REMARK  status: ('A' for Active; 'I' for Inactive)
ROOT
ATOM      1  C   UNL d   1      -3.852  -0.966  -1.068  0.00  0.00     0.124 A 
ATOM      2  C1  UNL d   1      -4.940  -0.710  -0.245  0.00  0.00     0.062 A 
ATOM      3  C2  UNL d   1      -4.935   0.398   0.597  0.00  0.00     0.162 A 
ATOM      4  C3  UNL d   1      -3.838   1.260   0.620  0.00  0.00    -0.034 A 
ATOM      5  C4  UNL d   1      -2.747   0.995  -0.210  0.00  0.00     0.162 A 
ATOM      6  C5  UNL d   1      -2.757  -0.114  -1.050  0.00  0.00     0.062 A 
ATOM      7  F   UNL d   1      -1.705  -0.360  -1.844  0.00  0.00    -0.097 F 
ATOM      8  F1  UNL d   1      -1.676   1.803  -0.214  0.00  0.00    -0.096 F 
ATOM      9  I   UNL d   1      -3.827   2.918   1.877  0.00  0.00    -0.060 I 
ATOM     10  F2  UNL d   1      -6.000   0.622   1.381  0.00  0.00    -0.096 F 
ATOM     11  F3  UNL d   1      -5.999  -1.532  -0.260  0.00  0.00    -0.097 F 
ATOM     12  F4  UNL d   1      -3.859  -2.034  -1.876  0.00  0.00    -0.092 F 
ENDROOT
TORSDOF 0
ENDMDL
