MODEL 1
REMARK minimizedAffinity -3.87498188
REMARK minimizedRMSD -1
REMARK  0 active torsions:
REMARK  status: ('A' for Active; 'I' for Inactive)
ROOT
ATOM      1  C4' PXY d   1       4.132   0.737  -0.935  0.00  0.00     0.077 C 
ATOM      2  C1' PXY d   1      -0.399  -2.349   0.899  0.00  0.00     0.077 C 
ATOM      3  C1  PXY d   1       0.797  -1.551   0.420  0.00  0.00    -0.082 A 
ATOM      4  C2  PXY d   1       0.799  -0.234   0.550  0.00  0.00     0.003 A 
ATOM      5  C3  PXY d   1       1.859   0.507   0.093  0.00  0.00     0.003 A 
ATOM      6  C4  PXY d   1       2.950  -0.111  -0.456  0.00  0.00    -0.082 A 
ATOM      7  C5  PXY d   1       2.960  -1.455  -0.583  0.00  0.00     0.003 A 
ATOM      8  C6  PXY d   1       1.857  -2.185  -0.150  0.00  0.00     0.003 A 
ENDROOT
TORSDOF 0
ENDMDL
