MODEL 1
REMARK minimizedAffinity 2.19193387
REMARK minimizedRMSD -1
REMARK  0 active torsions:
REMARK  status: ('A' for Active; 'I' for Inactive)
ROOT
ATOM      1  C4' PXY d   1      -1.852   0.845  -5.998  0.00  0.00     0.077 C 
ATOM      2  C1' PXY d   1      -0.532  -3.642  -2.600  0.00  0.00     0.077 C 
ATOM      3  C1  PXY d   1      -0.872  -2.471  -3.501  0.00  0.00    -0.082 A 
ATOM      4  C2  PXY d   1      -1.095  -1.280  -2.970  0.00  0.00     0.003 A 
ATOM      5  C3  PXY d   1      -1.435  -0.217  -3.767  0.00  0.00     0.003 A 
ATOM      6  C4  PXY d   1      -1.496  -0.363  -5.127  0.00  0.00    -0.082 A 
ATOM      7  C5  PXY d   1      -1.259  -1.573  -5.678  0.00  0.00     0.003 A 
ATOM      8  C6  PXY d   1      -0.956  -2.648  -4.848  0.00  0.00     0.003 A 
ENDROOT
TORSDOF 0
ENDMDL
