MODEL 1
REMARK minimizedAffinity -3.22686481
REMARK minimizedRMSD -1
REMARK  0 active torsions:
REMARK  status: ('A' for Active; 'I' for Inactive)
ROOT
ATOM      1  C4' PXY d   1      -1.315   0.524  -2.072  0.00  0.00     0.077 C 
ATOM      2  C1' PXY d   1       2.926  -0.956   1.565  0.00  0.00     0.077 C 
ATOM      3  C1  PXY d   1       1.811  -0.558   0.619  0.00  0.00    -0.082 A 
ATOM      4  C2  PXY d   1       1.286  -1.463  -0.191  0.00  0.00     0.003 A 
ATOM      5  C3  PXY d   1       0.298  -1.113  -1.076  0.00  0.00     0.003 A 
ATOM      6  C4  PXY d   1      -0.194   0.165  -1.094  0.00  0.00    -0.082 A 
ATOM      7  C5  PXY d   1       0.329   1.091  -0.263  0.00  0.00     0.003 A 
ATOM      8  C6  PXY d   1       1.359   0.725   0.598  0.00  0.00     0.003 A 
ENDROOT
TORSDOF 0
ENDMDL
