MODEL 1
REMARK minimizedAffinity -0.422393113
REMARK minimizedRMSD -1
REMARK  0 active torsions:
REMARK  status: ('A' for Active; 'I' for Inactive)
ROOT
ATOM      1  C4' PXY d   1       2.920   2.173   1.657  0.00  0.00     0.077 C 
ATOM      2  C1' PXY d   1      -1.320  -0.558  -1.168  0.00  0.00     0.077 C 
ATOM      3  C1  PXY d   1      -0.208   0.149  -0.417  0.00  0.00    -0.082 A 
ATOM      4  C2  PXY d   1      -0.014   1.445  -0.604  0.00  0.00     0.003 A 
ATOM      5  C3  PXY d   1       1.007   2.093   0.041  0.00  0.00     0.003 A 
ATOM      6  C4  PXY d   1       1.804   1.420   0.928  0.00  0.00    -0.082 A 
ATOM      7  C5  PXY d   1       1.605   0.101   1.133  0.00  0.00     0.003 A 
ATOM      8  C6  PXY d   1       0.590  -0.548   0.436  0.00  0.00     0.003 A 
ENDROOT
TORSDOF 0
ENDMDL
