MODEL 1
REMARK minimizedAffinity -3.69349718
REMARK minimizedRMSD -1
REMARK  0 active torsions:
REMARK  status: ('A' for Active; 'I' for Inactive)
ROOT
ATOM      1  C4' PXY d   1       3.881  -1.423   1.312  0.00  0.00     0.077 C 
ATOM      2  C1' PXY d   1      -1.074   0.814  -0.653  0.00  0.00     0.077 C 
ATOM      3  C1  PXY d   1       0.222   0.215  -0.142  0.00  0.00    -0.082 A 
ATOM      4  C2  PXY d   1       0.894   0.832   0.816  0.00  0.00     0.003 A 
ATOM      5  C3  PXY d   1       2.083   0.322   1.269  0.00  0.00     0.003 A 
ATOM      6  C4  PXY d   1       2.563  -0.860   0.772  0.00  0.00    -0.082 A 
ATOM      7  C5  PXY d   1       1.878  -1.501  -0.199  0.00  0.00     0.003 A 
ATOM      8  C6  PXY d   1       0.693  -0.945  -0.673  0.00  0.00     0.003 A 
ENDROOT
TORSDOF 0
ENDMDL
