MODEL 1
REMARK minimizedAffinity -4.30323839
REMARK minimizedRMSD -1
REMARK  0 active torsions:
REMARK  status: ('A' for Active; 'I' for Inactive)
ROOT
ATOM      1  C4' PXY d   1      -1.064   0.376  -1.584  0.00  0.00     0.077 C 
ATOM      2  C1' PXY d   1       3.743  -1.147   1.243  0.00  0.00     0.077 C 
ATOM      3  C1  PXY d   1       2.480  -0.738   0.510  0.00  0.00    -0.082 A 
ATOM      4  C2  PXY d   1       1.863  -1.613  -0.267  0.00  0.00     0.003 A 
ATOM      5  C3  PXY d   1       0.737  -1.251  -0.962  0.00  0.00     0.003 A 
ATOM      6  C4  PXY d   1       0.209   0.004  -0.818  0.00  0.00    -0.082 A 
ATOM      7  C5  PXY d   1       0.827   0.899  -0.019  0.00  0.00     0.003 A 
ATOM      8  C6  PXY d   1       1.991   0.524   0.645  0.00  0.00     0.003 A 
ENDROOT
TORSDOF 0
ENDMDL
