MODEL 1
REMARK minimizedAffinity 1.90091872
REMARK minimizedRMSD -1
REMARK  0 active torsions:
REMARK  status: ('A' for Active; 'I' for Inactive)
ROOT
ATOM      1  C4' PXY d   1      -1.626  -0.633  -3.798  0.00  0.00     0.077 C 
ATOM      2  C1' PXY d   1      -3.902   0.574   1.377  0.00  0.00     0.077 C 
ATOM      3  C1  PXY d   1      -3.294   0.262   0.024  0.00  0.00    -0.082 A 
ATOM      4  C2  PXY d   1      -4.075   0.178  -1.041  0.00  0.00     0.003 A 
ATOM      5  C3  PXY d   1      -3.546  -0.135  -2.267  0.00  0.00     0.003 A 
ATOM      6  C4  PXY d   1      -2.196  -0.311  -2.414  0.00  0.00    -0.082 A 
ATOM      7  C5  PXY d   1      -1.391  -0.216  -1.334  0.00  0.00     0.003 A 
ATOM      8  C6  PXY d   1      -1.953   0.062  -0.092  0.00  0.00     0.003 A 
ENDROOT
TORSDOF 0
ENDMDL
