MODEL 1
REMARK minimizedAffinity -2.75178933
REMARK minimizedRMSD -1
REMARK  0 active torsions:
REMARK  status: ('A' for Active; 'I' for Inactive)
ROOT
ATOM      1  C4' PXY d   1      -0.871  -0.460  -0.602  0.00  0.00     0.077 C 
ATOM      2  C1' PXY d   1       4.706  -0.672   0.903  0.00  0.00     0.077 C 
ATOM      3  C1  PXY d   1       3.246  -0.623   0.497  0.00  0.00    -0.082 A 
ATOM      4  C2  PXY d   1       2.464   0.327   0.983  0.00  0.00     0.003 A 
ATOM      5  C3  PXY d   1       1.134   0.367   0.652  0.00  0.00     0.003 A 
ATOM      6  C4  PXY d   1       0.611  -0.543  -0.227  0.00  0.00    -0.082 A 
ATOM      7  C5  PXY d   1       1.405  -1.509  -0.736  0.00  0.00     0.003 A 
ATOM      8  C6  PXY d   1       2.743  -1.557  -0.355  0.00  0.00     0.003 A 
ENDROOT
TORSDOF 0
ENDMDL
