MODEL 1
REMARK minimizedAffinity -5.30371332
REMARK minimizedRMSD -1
REMARK  0 active torsions:
REMARK  status: ('A' for Active; 'I' for Inactive)
ROOT
ATOM      1  C4' PXY d   1       2.644  -1.498   1.412  0.00  0.00     0.077 C 
ATOM      2  C1' PXY d   1      -0.963  -1.067  -3.084  0.00  0.00     0.077 C 
ATOM      3  C1  PXY d   1      -0.014  -1.167  -1.906  0.00  0.00    -0.082 A 
ATOM      4  C2  PXY d   1       0.511  -2.339  -1.587  0.00  0.00     0.003 A 
ATOM      5  C3  PXY d   1       1.346  -2.454  -0.506  0.00  0.00     0.003 A 
ATOM      6  C4  PXY d   1       1.688  -1.348   0.225  0.00  0.00    -0.082 A 
ATOM      7  C5  PXY d   1       1.165  -0.147  -0.101  0.00  0.00     0.003 A 
ATOM      8  C6  PXY d   1       0.287  -0.059  -1.177  0.00  0.00     0.003 A 
ENDROOT
TORSDOF 0
ENDMDL
