MODEL 1
REMARK minimizedAffinity -0.492444605
REMARK minimizedRMSD -1
REMARK  0 active torsions:
REMARK  status: ('A' for Active; 'I' for Inactive)
ROOT
ATOM      1  C4' PXY d   1      -0.087  -1.485  -2.697  0.00  0.00     0.077 C 
ATOM      2  C1' PXY d   1       3.098  -0.102   1.925  0.00  0.00     0.077 C 
ATOM      3  C1  PXY d   1       2.252  -0.461   0.719  0.00  0.00    -0.082 A 
ATOM      4  C2  PXY d   1       2.699  -1.350  -0.153  0.00  0.00     0.003 A 
ATOM      5  C3  PXY d   1       1.961  -1.663  -1.265  0.00  0.00     0.003 A 
ATOM      6  C4  PXY d   1       0.729  -1.099  -1.460  0.00  0.00    -0.082 A 
ATOM      7  C5  PXY d   1       0.261  -0.199  -0.570  0.00  0.00     0.003 A 
ATOM      8  C6  PXY d   1       1.043   0.136   0.532  0.00  0.00     0.003 A 
ENDROOT
TORSDOF 0
ENDMDL
