MODEL 1
REMARK minimizedAffinity -1.50142026
REMARK minimizedRMSD -1
REMARK  0 active torsions:
REMARK  status: ('A' for Active; 'I' for Inactive)
ROOT
ATOM      1  C4' PXY d   1       2.874  -2.729  -2.476  0.00  0.00     0.077 C 
ATOM      2  C1' PXY d   1       0.833   0.578   1.803  0.00  0.00     0.077 C 
ATOM      3  C1  PXY d   1       1.357  -0.296   0.681  0.00  0.00    -0.082 A 
ATOM      4  C2  PXY d   1       2.662  -0.445   0.523  0.00  0.00     0.003 A 
ATOM      5  C3  PXY d   1       3.154  -1.206  -0.506  0.00  0.00     0.003 A 
ATOM      6  C4  PXY d   1       2.300  -1.864  -1.351  0.00  0.00    -0.082 A 
ATOM      7  C5  PXY d   1       0.967  -1.725  -1.190  0.00  0.00     0.003 A 
ATOM      8  C6  PXY d   1       0.488  -0.915  -0.164  0.00  0.00     0.003 A 
ENDROOT
TORSDOF 0
ENDMDL
