MODEL 1
REMARK minimizedAffinity -1.3604486
REMARK minimizedRMSD -1
REMARK  0 active torsions:
REMARK  status: ('A' for Active; 'I' for Inactive)
ROOT
ATOM      1  C4' PXY d   1      -1.716  -0.355  -2.126  0.00  0.00     0.077 C 
ATOM      2  C1' PXY d   1       2.520   0.058   1.786  0.00  0.00     0.077 C 
ATOM      3  C1  PXY d   1       1.415  -0.061   0.755  0.00  0.00    -0.082 A 
ATOM      4  C2  PXY d   1       0.722   1.013   0.412  0.00  0.00     0.003 A 
ATOM      5  C3  PXY d   1      -0.302   0.917  -0.495  0.00  0.00     0.003 A 
ATOM      6  C4  PXY d   1      -0.585  -0.280  -1.096  0.00  0.00    -0.082 A 
ATOM      7  C5  PXY d   1       0.124  -1.378  -0.759  0.00  0.00     0.003 A 
ATOM      8  C6  PXY d   1       1.132  -1.268   0.194  0.00  0.00     0.003 A 
ENDROOT
TORSDOF 0
ENDMDL
