MODEL 1
REMARK minimizedAffinity -1.78846884
REMARK minimizedRMSD -1
REMARK  0 active torsions:
REMARK  status: ('A' for Active; 'I' for Inactive)
ROOT
ATOM      1  C4' PXY d   1       2.628  -1.079   0.053  0.00  0.00     0.077 C 
ATOM      2  C1' PXY d   1      -2.312   1.851   0.704  0.00  0.00     0.077 C 
ATOM      3  C1  PXY d   1      -1.011   1.093   0.526  0.00  0.00    -0.082 A 
ATOM      4  C2  PXY d   1      -1.008  -0.228   0.609  0.00  0.00     0.003 A 
ATOM      5  C3  PXY d   1       0.164  -0.928   0.483  0.00  0.00     0.003 A 
ATOM      6  C4  PXY d   1       1.337  -0.273   0.216  0.00  0.00    -0.082 A 
ATOM      7  C5  PXY d   1       1.340   1.074   0.120  0.00  0.00     0.003 A 
ATOM      8  C6  PXY d   1       0.146   1.768   0.292  0.00  0.00     0.003 A 
ENDROOT
TORSDOF 0
ENDMDL
