MODEL 1
REMARK minimizedAffinity 20.3818283
REMARK minimizedRMSD -1
REMARK  1 active torsions:
REMARK  status: ('A' for Active; 'I' for Inactive)
REMARK    1  A    between atoms: C1_2  and  C2_3 
ROOT
ATOM      1  C2  UNL d   1       2.534   0.392   1.563  0.00  0.00    -0.076 A 
ATOM      2  C3  UNL d   1       2.043  -0.187   2.746  0.00  0.00     0.004 A 
ATOM      3  C4  UNL d   1       1.604   0.607   3.804  0.00  0.00    -0.003 A 
ATOM      4  C5  UNL d   1       1.649   1.992   3.697  0.00  0.00     0.000 A 
ATOM      5  C6  UNL d   1       2.117   2.584   2.524  0.00  0.00     0.000 A 
ATOM      6  C7  UNL d   1       2.548   1.798   1.441  0.00  0.00    -0.073 A 
ATOM      7  C8  UNL d   1       3.048   2.489   0.202  0.00  0.00     0.078 C 
ENDROOT
BRANCH   1   8
ATOM      8  C1  UNL d   1       3.022  -0.518   0.458  0.00  0.00     0.053 C 
ATOM      9  C   UNL d   1       3.982  -1.584   0.964  0.00  0.00     0.018 C 
ENDBRANCH   1   8
TORSDOF 1
ENDMDL
