MODEL 1
REMARK minimizedAffinity 16.9746552
REMARK minimizedRMSD -1
REMARK  1 active torsions:
REMARK  status: ('A' for Active; 'I' for Inactive)
REMARK    1  A    between atoms: C1_2  and  C2_3 
ROOT
ATOM      1  C2  UNL d   1       4.328  -0.675  -4.143  0.00  0.00    -0.076 A 
ATOM      2  C3  UNL d   1       4.154  -2.070  -4.123  0.00  0.00     0.004 A 
ATOM      3  C4  UNL d   1       4.821  -2.889  -5.032  0.00  0.00    -0.003 A 
ATOM      4  C5  UNL d   1       5.674  -2.327  -5.976  0.00  0.00     0.000 A 
ATOM      5  C6  UNL d   1       5.872  -0.947  -5.999  0.00  0.00     0.000 A 
ATOM      6  C7  UNL d   1       5.220  -0.108  -5.079  0.00  0.00    -0.073 A 
ATOM      7  C8  UNL d   1       5.465   1.374  -5.152  0.00  0.00     0.078 C 
ENDROOT
BRANCH   1   8
ATOM      8  C1  UNL d   1       3.557   0.165  -3.150  0.00  0.00     0.053 C 
ATOM      9  C   UNL d   1       4.081   0.015  -1.730  0.00  0.00     0.018 C 
ENDBRANCH   1   8
TORSDOF 1
ENDMDL
