MODEL 1
REMARK minimizedAffinity 4.72888565
REMARK minimizedRMSD -1
REMARK  1 active torsions:
REMARK  status: ('A' for Active; 'I' for Inactive)
REMARK    1  A    between atoms: C1_2  and  C2_3 
ROOT
ATOM      1  C2  UNL d   1       3.729  -1.328  -4.662  0.00  0.00    -0.076 A 
ATOM      2  C3  UNL d   1       2.758  -0.312  -4.617  0.00  0.00     0.004 A 
ATOM      3  C4  UNL d   1       2.972   0.914  -5.245  0.00  0.00    -0.003 A 
ATOM      4  C5  UNL d   1       4.161   1.144  -5.929  0.00  0.00     0.000 A 
ATOM      5  C6  UNL d   1       5.128   0.141  -5.998  0.00  0.00     0.000 A 
ATOM      6  C7  UNL d   1       4.920  -1.106  -5.385  0.00  0.00    -0.073 A 
ATOM      7  C8  UNL d   1       6.000  -2.149  -5.487  0.00  0.00     0.078 C 
ENDROOT
BRANCH   1   8
ATOM      8  C1  UNL d   1       3.452  -2.627  -3.940  0.00  0.00     0.053 C 
ATOM      9  C   UNL d   1       2.028  -2.708  -3.413  0.00  0.00     0.018 C 
ENDBRANCH   1   8
TORSDOF 1
ENDMDL
