MODEL 1
REMARK minimizedAffinity 13.8444977
REMARK minimizedRMSD -1
REMARK  1 active torsions:
REMARK  status: ('A' for Active; 'I' for Inactive)
REMARK    1  A    between atoms: C1_2  and  C2_3 
ROOT
ATOM      1  C2  UNL d   1       1.288  -3.372   0.757  0.00  0.00    -0.076 A 
ATOM      2  C3  UNL d   1       0.915  -2.024   0.617  0.00  0.00     0.004 A 
ATOM      3  C4  UNL d   1       1.104  -1.115   1.657  0.00  0.00    -0.003 A 
ATOM      4  C5  UNL d   1       1.670  -1.540   2.854  0.00  0.00     0.000 A 
ATOM      5  C6  UNL d   1       2.062  -2.869   3.004  0.00  0.00     0.000 A 
ATOM      6  C7  UNL d   1       1.894  -3.795   1.960  0.00  0.00    -0.073 A 
ATOM      7  C8  UNL d   1       2.330  -5.217   2.179  0.00  0.00     0.078 C 
ENDROOT
BRANCH   1   8
ATOM      8  C1  UNL d   1       1.034  -4.318  -0.395  0.00  0.00     0.053 C 
ATOM      9  C   UNL d   1       1.359  -3.694  -1.743  0.00  0.00     0.018 C 
ENDBRANCH   1   8
TORSDOF 1
ENDMDL
