MODEL 1
REMARK minimizedAffinity 13.2369137
REMARK minimizedRMSD -1
REMARK  1 active torsions:
REMARK  status: ('A' for Active; 'I' for Inactive)
REMARK    1  A    between atoms: C1_2  and  C2_3 
ROOT
ATOM      1  C2  UNL d   1       2.470   1.468   0.481  0.00  0.00    -0.076 A 
ATOM      2  C3  UNL d   1       1.682   1.714   1.618  0.00  0.00     0.004 A 
ATOM      3  C4  UNL d   1       1.271   0.671   2.446  0.00  0.00    -0.003 A 
ATOM      4  C5  UNL d   1       1.643  -0.636   2.150  0.00  0.00     0.000 A 
ATOM      5  C6  UNL d   1       2.440  -0.897   1.036  0.00  0.00     0.000 A 
ATOM      6  C7  UNL d   1       2.876   0.146   0.200  0.00  0.00    -0.073 A 
ATOM      7  C8  UNL d   1       3.728  -0.193  -0.992  0.00  0.00     0.078 C 
ENDROOT
BRANCH   1   8
ATOM      8  C1  UNL d   1       2.863   2.636  -0.395  0.00  0.00     0.053 C 
ATOM      9  C   UNL d   1       1.784   3.707  -0.457  0.00  0.00     0.018 C 
ENDBRANCH   1   8
TORSDOF 1
ENDMDL
