MODEL 1
REMARK minimizedAffinity 7.26488066
REMARK minimizedRMSD -1
REMARK  1 active torsions:
REMARK  status: ('A' for Active; 'I' for Inactive)
REMARK    1  A    between atoms: C1_2  and  C2_3 
ROOT
ATOM      1  C2  UNL d   1       2.164  -1.277   2.242  0.00  0.00    -0.076 A 
ATOM      2  C3  UNL d   1       1.033  -1.135   1.420  0.00  0.00     0.004 A 
ATOM      3  C4  UNL d   1       0.379  -2.252   0.901  0.00  0.00    -0.003 A 
ATOM      4  C5  UNL d   1       0.845  -3.528   1.198  0.00  0.00     0.000 A 
ATOM      5  C6  UNL d   1       1.955  -3.687   2.027  0.00  0.00     0.000 A 
ATOM      6  C7  UNL d   1       2.616  -2.573   2.571  0.00  0.00    -0.073 A 
ATOM      7  C8  UNL d   1       3.812  -2.803   3.454  0.00  0.00     0.078 C 
ENDROOT
BRANCH   1   8
ATOM      8  C1  UNL d   1       2.849  -0.029   2.753  0.00  0.00     0.053 C 
ATOM      9  C   UNL d   1       1.860   1.034   3.206  0.00  0.00     0.018 C 
ENDBRANCH   1   8
TORSDOF 1
ENDMDL
