MODEL 1
REMARK minimizedAffinity 4.95509815
REMARK minimizedRMSD -1
REMARK  1 active torsions:
REMARK  status: ('A' for Active; 'I' for Inactive)
REMARK    1  A    between atoms: C1_2  and  C2_3 
ROOT
ATOM      1  C2  UNL d   1       5.000   5.621  -3.711  0.00  0.00    -0.076 A 
ATOM      2  C3  UNL d   1       5.471   5.377  -2.409  0.00  0.00     0.004 A 
ATOM      3  C4  UNL d   1       4.593   5.053  -1.377  0.00  0.00    -0.003 A 
ATOM      4  C5  UNL d   1       3.228   4.968  -1.630  0.00  0.00     0.000 A 
ATOM      5  C6  UNL d   1       2.745   5.190  -2.919  0.00  0.00     0.000 A 
ATOM      6  C7  UNL d   1       3.619   5.500  -3.974  0.00  0.00    -0.073 A 
ATOM      7  C8  UNL d   1       3.042   5.735  -5.344  0.00  0.00     0.078 C 
ENDROOT
BRANCH   1   8
ATOM      8  C1  UNL d   1       5.997   5.994  -4.784  0.00  0.00     0.053 C 
ATOM      9  C   UNL d   1       5.927   5.072  -5.992  0.00  0.00     0.018 C 
ENDBRANCH   1   8
TORSDOF 1
ENDMDL
