MODEL 1
REMARK minimizedAffinity 9.69505978
REMARK minimizedRMSD -1
REMARK  1 active torsions:
REMARK  status: ('A' for Active; 'I' for Inactive)
REMARK    1  A    between atoms: C1_2  and  C2_3 
ROOT
ATOM      1  C2  UNL d   1      -5.214   3.130  -1.505  0.00  0.00    -0.076 A 
ATOM      2  C3  UNL d   1      -5.999   3.003  -2.664  0.00  0.00     0.004 A 
ATOM      3  C4  UNL d   1      -5.576   2.217  -3.734  0.00  0.00    -0.003 A 
ATOM      4  C5  UNL d   1      -4.362   1.544  -3.663  0.00  0.00     0.000 A 
ATOM      5  C6  UNL d   1      -3.578   1.644  -2.514  0.00  0.00     0.000 A 
ATOM      6  C7  UNL d   1      -3.997   2.420  -1.419  0.00  0.00    -0.073 A 
ATOM      7  C8  UNL d   1      -3.110   2.497  -0.207  0.00  0.00     0.078 C 
ENDROOT
BRANCH   1   8
ATOM      8  C1  UNL d   1      -5.711   4.018  -0.387  0.00  0.00     0.053 C 
ATOM      9  C   UNL d   1      -5.742   5.487  -0.780  0.00  0.00     0.018 C 
ENDBRANCH   1   8
TORSDOF 1
ENDMDL
