MODEL 1
REMARK minimizedAffinity 8.44829559
REMARK minimizedRMSD -1
REMARK  0 active torsions:
REMARK  status: ('A' for Active; 'I' for Inactive)
ROOT
ATOM      1  C   UNL d   1       3.724  -5.765  -1.494  0.00  0.00     0.077 C 
ATOM      2  C1  UNL d   1       4.238  -4.691  -2.407  0.00  0.00    -0.074 A 
ATOM      3  C2  UNL d   1       5.532  -4.181  -2.260  0.00  0.00    -0.005 A 
ATOM      4  C3  UNL d   1       6.000  -3.190  -3.122  0.00  0.00     0.006 A 
ATOM      5  C4  UNL d   1       5.179  -2.698  -4.139  0.00  0.00    -0.005 A 
ATOM      6  C5  UNL d   1       3.883  -3.197  -4.301  0.00  0.00    -0.074 A 
ATOM      7  C6  UNL d   1       2.991  -2.687  -5.395  0.00  0.00     0.077 C 
ATOM      8  C7  UNL d   1       3.423  -4.198  -3.435  0.00  0.00    -0.001 A 
ENDROOT
TORSDOF 0
ENDMDL
