MODEL 1
REMARK minimizedAffinity 5.62655973
REMARK minimizedRMSD -1
REMARK  0 active torsions:
REMARK  status: ('A' for Active; 'I' for Inactive)
ROOT
ATOM      1  C   UNL d   1       0.451   1.937  -1.767  0.00  0.00     0.077 C 
ATOM      2  C1  UNL d   1      -0.118   2.421  -0.467  0.00  0.00    -0.074 A 
ATOM      3  C2  UNL d   1      -0.308   3.787  -0.230  0.00  0.00    -0.005 A 
ATOM      4  C3  UNL d   1      -0.846   4.222   0.981  0.00  0.00     0.006 A 
ATOM      5  C4  UNL d   1      -1.199   3.298   1.966  0.00  0.00    -0.005 A 
ATOM      6  C5  UNL d   1      -1.017   1.929   1.746  0.00  0.00    -0.074 A 
ATOM      7  C6  UNL d   1      -1.400   0.922   2.790  0.00  0.00     0.077 C 
ATOM      8  C7  UNL d   1      -0.482   1.499   0.524  0.00  0.00    -0.001 A 
ENDROOT
TORSDOF 0
ENDMDL
