MODEL 1
REMARK minimizedAffinity 1.4154458
REMARK minimizedRMSD -1
REMARK  0 active torsions:
REMARK  status: ('A' for Active; 'I' for Inactive)
ROOT
ATOM      1  C   UNL d   1       1.471   1.481  -4.539  0.00  0.00     0.077 C 
ATOM      2  C1  UNL d   1       0.475   1.071  -3.495  0.00  0.00    -0.074 A 
ATOM      3  C2  UNL d   1      -0.418   0.019  -3.727  0.00  0.00    -0.005 A 
ATOM      4  C3  UNL d   1      -1.332  -0.357  -2.743  0.00  0.00     0.006 A 
ATOM      5  C4  UNL d   1      -1.363   0.314  -1.520  0.00  0.00    -0.005 A 
ATOM      6  C5  UNL d   1      -0.478   1.368  -1.270  0.00  0.00    -0.074 A 
ATOM      7  C6  UNL d   1      -0.492   2.093   0.043  0.00  0.00     0.077 C 
ATOM      8  C7  UNL d   1       0.442   1.735  -2.261  0.00  0.00    -0.001 A 
ENDROOT
TORSDOF 0
ENDMDL
