MODEL 1
REMARK minimizedAffinity 4.31673288
REMARK minimizedRMSD -1
REMARK  0 active torsions:
REMARK  status: ('A' for Active; 'I' for Inactive)
ROOT
ATOM      1  C   UNL d   1      -1.811  -0.352  -4.046  0.00  0.00     0.077 C 
ATOM      2  C1  UNL d   1      -0.947   0.445  -3.115  0.00  0.00    -0.074 A 
ATOM      3  C2  UNL d   1       0.362   0.789  -3.466  0.00  0.00    -0.005 A 
ATOM      4  C3  UNL d   1       1.151   1.539  -2.594  0.00  0.00     0.006 A 
ATOM      5  C4  UNL d   1       0.639   1.952  -1.363  0.00  0.00    -0.005 A 
ATOM      6  C5  UNL d   1      -0.668   1.618  -0.995  0.00  0.00    -0.074 A 
ATOM      7  C6  UNL d   1      -1.237   2.063   0.320  0.00  0.00     0.077 C 
ATOM      8  C7  UNL d   1      -1.457   0.871  -1.880  0.00  0.00    -0.001 A 
ENDROOT
TORSDOF 0
ENDMDL
