MODEL 1
REMARK minimizedAffinity 12.7107735
REMARK minimizedRMSD -1
REMARK  0 active torsions:
REMARK  status: ('A' for Active; 'I' for Inactive)
ROOT
ATOM      1  C   UNL d   1       0.197  -3.351  -6.000  0.00  0.00     0.077 C 
ATOM      2  C1  UNL d   1       1.211  -3.544  -4.912  0.00  0.00    -0.074 A 
ATOM      3  C2  UNL d   1       2.563  -3.740  -5.215  0.00  0.00    -0.005 A 
ATOM      4  C3  UNL d   1       3.496  -3.908  -4.191  0.00  0.00     0.006 A 
ATOM      5  C4  UNL d   1       3.088  -3.882  -2.857  0.00  0.00    -0.005 A 
ATOM      6  C5  UNL d   1       1.741  -3.685  -2.535  0.00  0.00    -0.074 A 
ATOM      7  C6  UNL d   1       1.287  -3.644  -1.106  0.00  0.00     0.077 C 
ATOM      8  C7  UNL d   1       0.811  -3.510  -3.569  0.00  0.00    -0.001 A 
ENDROOT
TORSDOF 0
ENDMDL
