MODEL 1
REMARK minimizedAffinity 5.86441183
REMARK minimizedRMSD -1
REMARK  0 active torsions:
REMARK  status: ('A' for Active; 'I' for Inactive)
ROOT
ATOM      1  C   UNL d   1       0.587   1.203   4.117  0.00  0.00     0.077 C 
ATOM      2  C1  UNL d   1      -0.317   1.686   3.022  0.00  0.00    -0.074 A 
ATOM      3  C2  UNL d   1      -1.702   1.511   3.104  0.00  0.00    -0.005 A 
ATOM      4  C3  UNL d   1      -2.531   1.974   2.082  0.00  0.00     0.006 A 
ATOM      5  C4  UNL d   1      -1.984   2.617   0.971  0.00  0.00    -0.005 A 
ATOM      6  C5  UNL d   1      -0.602   2.802   0.872  0.00  0.00    -0.074 A 
ATOM      7  C6  UNL d   1       0.001   3.499  -0.311  0.00  0.00     0.077 C 
ATOM      8  C7  UNL d   1       0.224   2.340   1.906  0.00  0.00    -0.001 A 
ENDROOT
TORSDOF 0
ENDMDL
