MODEL 1
REMARK minimizedAffinity 8.738554
REMARK minimizedRMSD -1
REMARK  0 active torsions:
REMARK  status: ('A' for Active; 'I' for Inactive)
ROOT
ATOM      1  C   UNL d   1       2.954  -2.363   0.753  0.00  0.00     0.077 C 
ATOM      2  C1  UNL d   1       2.618  -3.390  -0.287  0.00  0.00    -0.074 A 
ATOM      3  C2  UNL d   1       1.304  -3.552  -0.738  0.00  0.00    -0.005 A 
ATOM      4  C3  UNL d   1       1.008  -4.505  -1.713  0.00  0.00     0.006 A 
ATOM      5  C4  UNL d   1       2.021  -5.304  -2.245  0.00  0.00    -0.005 A 
ATOM      6  C5  UNL d   1       3.340  -5.156  -1.806  0.00  0.00    -0.074 A 
ATOM      7  C6  UNL d   1       4.442  -6.000  -2.374  0.00  0.00     0.077 C 
ATOM      8  C7  UNL d   1       3.631  -4.191  -0.831  0.00  0.00    -0.001 A 
ENDROOT
TORSDOF 0
ENDMDL
