MODEL 1
REMARK minimizedAffinity 6.14657736
REMARK minimizedRMSD -1
REMARK  0 active torsions:
REMARK  status: ('A' for Active; 'I' for Inactive)
ROOT
ATOM      1  C   UNL d   1      -1.126   3.721  -3.529  0.00  0.00     0.077 C 
ATOM      2  C1  UNL d   1      -0.930   4.001  -2.068  0.00  0.00    -0.074 A 
ATOM      3  C2  UNL d   1      -1.185   5.271  -1.540  0.00  0.00    -0.005 A 
ATOM      4  C3  UNL d   1      -1.007   5.514  -0.178  0.00  0.00     0.006 A 
ATOM      5  C4  UNL d   1      -0.574   4.492   0.668  0.00  0.00    -0.005 A 
ATOM      6  C5  UNL d   1      -0.315   3.216   0.157  0.00  0.00    -0.074 A 
ATOM      7  C6  UNL d   1       0.141   2.104   1.054  0.00  0.00     0.077 C 
ATOM      8  C7  UNL d   1      -0.503   2.977  -1.211  0.00  0.00    -0.001 A 
ENDROOT
TORSDOF 0
ENDMDL
