MODEL 1
REMARK minimizedAffinity 4.37408972
REMARK minimizedRMSD -1
REMARK  0 active torsions:
REMARK  status: ('A' for Active; 'I' for Inactive)
ROOT
ATOM      1  C   UNL d   1      -0.014   2.011   0.759  0.00  0.00     0.077 C 
ATOM      2  C1  UNL d   1      -0.376   3.404   0.337  0.00  0.00    -0.074 A 
ATOM      3  C2  UNL d   1       0.371   4.078  -0.634  0.00  0.00    -0.005 A 
ATOM      4  C3  UNL d   1       0.017   5.370  -1.023  0.00  0.00     0.006 A 
ATOM      5  C4  UNL d   1      -1.086   6.000  -0.445  0.00  0.00    -0.005 A 
ATOM      6  C5  UNL d   1      -1.846   5.341   0.527  0.00  0.00    -0.074 A 
ATOM      7  C6  UNL d   1      -3.040   6.000   1.151  0.00  0.00     0.077 C 
ATOM      8  C7  UNL d   1      -1.487   4.041   0.908  0.00  0.00    -0.001 A 
ENDROOT
TORSDOF 0
ENDMDL
