MODEL 1
REMARK minimizedAffinity 13.6083784
REMARK minimizedRMSD -1
REMARK  0 active torsions:
REMARK  status: ('A' for Active; 'I' for Inactive)
ROOT
ATOM      1  C   UNL d   1      -0.014   1.500   1.637  0.00  0.00     0.077 C 
ATOM      2  C1  UNL d   1      -0.214   1.969   0.227  0.00  0.00    -0.074 A 
ATOM      3  C2  UNL d   1       0.663   2.888  -0.356  0.00  0.00    -0.005 A 
ATOM      4  C3  UNL d   1       0.469   3.308  -1.672  0.00  0.00     0.006 A 
ATOM      5  C4  UNL d   1      -0.602   2.814  -2.417  0.00  0.00    -0.005 A 
ATOM      6  C5  UNL d   1      -1.490   1.893  -1.851  0.00  0.00    -0.074 A 
ATOM      7  C6  UNL d   1      -2.641   1.344  -2.640  0.00  0.00     0.077 C 
ATOM      8  C7  UNL d   1      -1.284   1.471  -0.530  0.00  0.00    -0.001 A 
ENDROOT
TORSDOF 0
ENDMDL
