MODEL 1
REMARK minimizedAffinity 15.3555031
REMARK minimizedRMSD -1
REMARK  0 active torsions:
REMARK  status: ('A' for Active; 'I' for Inactive)
ROOT
ATOM      1  C   UNL d   1       2.253  -2.974   0.750  0.00  0.00     0.077 C 
ATOM      2  C1  UNL d   1       2.153  -3.868  -0.450  0.00  0.00    -0.074 A 
ATOM      3  C2  UNL d   1       0.928  -4.072  -1.094  0.00  0.00    -0.005 A 
ATOM      4  C3  UNL d   1       0.852  -4.899  -2.215  0.00  0.00     0.006 A 
ATOM      5  C4  UNL d   1       1.998  -5.530  -2.701  0.00  0.00    -0.005 A 
ATOM      6  C5  UNL d   1       3.231  -5.337  -2.071  0.00  0.00    -0.074 A 
ATOM      7  C6  UNL d   1       4.474  -6.000  -2.587  0.00  0.00     0.077 C 
ATOM      8  C7  UNL d   1       3.301  -4.499  -0.950  0.00  0.00    -0.001 A 
ENDROOT
TORSDOF 0
ENDMDL
