MODEL 1
REMARK minimizedAffinity 3.90415311
REMARK minimizedRMSD -1
REMARK  0 active torsions:
REMARK  status: ('A' for Active; 'I' for Inactive)
ROOT
ATOM      1  C   UNL d   1      -0.085   2.048   0.964  0.00  0.00     0.077 C 
ATOM      2  C1  UNL d   1      -0.406   2.506  -0.427  0.00  0.00    -0.074 A 
ATOM      3  C2  UNL d   1       0.328   3.530  -1.035  0.00  0.00    -0.005 A 
ATOM      4  C3  UNL d   1       0.024   3.938  -2.333  0.00  0.00     0.006 A 
ATOM      5  C4  UNL d   1      -1.015   3.328  -3.037  0.00  0.00    -0.005 A 
ATOM      6  C5  UNL d   1      -1.760   2.302  -2.446  0.00  0.00    -0.074 A 
ATOM      7  C6  UNL d   1      -2.874   1.629  -3.191  0.00  0.00     0.077 C 
ATOM      8  C7  UNL d   1      -1.443   1.893  -1.143  0.00  0.00    -0.001 A 
ENDROOT
TORSDOF 0
ENDMDL
