MODEL 1
REMARK minimizedAffinity 4.96320963
REMARK minimizedRMSD -1
REMARK  0 active torsions:
REMARK  status: ('A' for Active; 'I' for Inactive)
ROOT
ATOM      1  C   UNL d   1       0.736   3.393  -1.326  0.00  0.00     0.077 C 
ATOM      2  C1  UNL d   1      -0.064   2.993  -0.121  0.00  0.00    -0.074 A 
ATOM      3  C2  UNL d   1      -1.462   2.991  -0.154  0.00  0.00    -0.005 A 
ATOM      4  C3  UNL d   1      -2.191   2.608   0.971  0.00  0.00     0.006 A 
ATOM      5  C4  UNL d   1      -1.532   2.222   2.138  0.00  0.00    -0.005 A 
ATOM      6  C5  UNL d   1      -0.134   2.216   2.190  0.00  0.00    -0.074 A 
ATOM      7  C6  UNL d   1       0.591   1.796   3.433  0.00  0.00     0.077 C 
ATOM      8  C7  UNL d   1       0.592   2.597   1.053  0.00  0.00    -0.001 A 
ENDROOT
TORSDOF 0
ENDMDL
