MODEL 1
REMARK minimizedAffinity 15.1029387
REMARK minimizedRMSD -1
REMARK  0 active torsions:
REMARK  status: ('A' for Active; 'I' for Inactive)
ROOT
ATOM      1  C   UNL d   1      -2.755   2.705  -0.020  0.00  0.00     0.077 C 
ATOM      2  C1  UNL d   1      -3.777   3.803  -0.015  0.00  0.00    -0.074 A 
ATOM      3  C2  UNL d   1      -4.350   4.257  -1.207  0.00  0.00    -0.005 A 
ATOM      4  C3  UNL d   1      -5.307   5.272  -1.186  0.00  0.00     0.006 A 
ATOM      5  C4  UNL d   1      -5.698   5.843   0.025  0.00  0.00    -0.005 A 
ATOM      6  C5  UNL d   1      -5.136   5.402   1.228  0.00  0.00    -0.074 A 
ATOM      7  C6  UNL d   1      -5.553   5.999   2.539  0.00  0.00     0.077 C 
ATOM      8  C7  UNL d   1      -4.181   4.377   1.199  0.00  0.00    -0.001 A 
ENDROOT
TORSDOF 0
ENDMDL
