MODEL 1
REMARK minimizedAffinity 15.9030809
REMARK minimizedRMSD -1
REMARK  0 active torsions:
REMARK  status: ('A' for Active; 'I' for Inactive)
ROOT
ATOM      1  C   UNL d   1       2.251  -1.807   1.131  0.00  0.00     0.077 C 
ATOM      2  C1  UNL d   1       3.563  -2.420   1.520  0.00  0.00    -0.074 A 
ATOM      3  C2  UNL d   1       4.666  -1.619   1.833  0.00  0.00    -0.005 A 
ATOM      4  C3  UNL d   1       5.877  -2.204   2.202  0.00  0.00     0.006 A 
ATOM      5  C4  UNL d   1       5.998  -3.593   2.263  0.00  0.00    -0.005 A 
ATOM      6  C5  UNL d   1       4.905  -4.410   1.955  0.00  0.00    -0.074 A 
ATOM      7  C6  UNL d   1       5.015  -5.904   2.024  0.00  0.00     0.077 C 
ATOM      8  C7  UNL d   1       3.689  -3.815   1.591  0.00  0.00    -0.001 A 
ENDROOT
TORSDOF 0
ENDMDL
