MODEL 1
REMARK minimizedAffinity 14.2732716
REMARK minimizedRMSD -1
REMARK  0 active torsions:
REMARK  status: ('A' for Active; 'I' for Inactive)
ROOT
ATOM      1  C   UNL d   1       1.842   5.107  -1.404  0.00  0.00     0.077 C 
ATOM      2  C1  UNL d   1       0.676   4.170  -1.516  0.00  0.00    -0.074 A 
ATOM      3  C2  UNL d   1      -0.218   4.259  -2.588  0.00  0.00    -0.005 A 
ATOM      4  C3  UNL d   1      -1.292   3.375  -2.684  0.00  0.00     0.006 A 
ATOM      5  C4  UNL d   1      -1.483   2.393  -1.710  0.00  0.00    -0.005 A 
ATOM      6  C5  UNL d   1      -0.599   2.288  -0.632  0.00  0.00    -0.074 A 
ATOM      7  C6  UNL d   1      -0.784   1.233   0.418  0.00  0.00     0.077 C 
ATOM      8  C7  UNL d   1       0.482   3.176  -0.546  0.00  0.00    -0.001 A 
ENDROOT
TORSDOF 0
ENDMDL
