MODEL 1
REMARK minimizedAffinity -4.79378366
REMARK minimizedRMSD -1
REMARK  0 active torsions:
REMARK  status: ('A' for Active; 'I' for Inactive)
ROOT
ATOM      1  C   UNL d   1       0.372   4.072  -0.006  0.00  0.00     0.077 C 
ATOM      2  C1  UNL d   1      -0.243   3.083   0.939  0.00  0.00    -0.074 A 
ATOM      3  C2  UNL d   1      -1.020   2.022   0.463  0.00  0.00    -0.005 A 
ATOM      4  C3  UNL d   1      -1.578   1.104   1.354  0.00  0.00     0.006 A 
ATOM      5  C4  UNL d   1      -1.365   1.239   2.726  0.00  0.00    -0.005 A 
ATOM      6  C5  UNL d   1      -0.591   2.293   3.220  0.00  0.00    -0.074 A 
ATOM      7  C6  UNL d   1      -0.345   2.447   4.692  0.00  0.00     0.077 C 
ATOM      8  C7  UNL d   1      -0.028   3.207   2.319  0.00  0.00    -0.001 A 
ENDROOT
TORSDOF 0
ENDMDL
