MODEL 1
REMARK minimizedAffinity 8.34153271
REMARK minimizedRMSD -1
REMARK  0 active torsions:
REMARK  status: ('A' for Active; 'I' for Inactive)
ROOT
ATOM      1  C   UNL d   1      -0.422   1.353   1.108  0.00  0.00     0.077 C 
ATOM      2  C1  UNL d   1      -0.203   2.317  -0.020  0.00  0.00    -0.074 A 
ATOM      3  C2  UNL d   1       0.852   3.235   0.015  0.00  0.00    -0.005 A 
ATOM      4  C3  UNL d   1       1.049   4.120  -1.045  0.00  0.00     0.006 A 
ATOM      5  C4  UNL d   1       0.196   4.096  -2.149  0.00  0.00    -0.005 A 
ATOM      6  C5  UNL d   1      -0.863   3.184  -2.202  0.00  0.00    -0.074 A 
ATOM      7  C6  UNL d   1      -1.784   3.138  -3.385  0.00  0.00     0.077 C 
ATOM      8  C7  UNL d   1      -1.051   2.294  -1.136  0.00  0.00    -0.001 A 
ENDROOT
TORSDOF 0
ENDMDL
