MODEL 1
REMARK minimizedAffinity -1.31098056
REMARK minimizedRMSD -1
REMARK  0 active torsions:
REMARK  status: ('A' for Active; 'I' for Inactive)
ROOT
ATOM      1  C1  BNZ d   1       2.493  -0.734   0.249  0.00  0.00     0.000 A 
ATOM      2  C2  BNZ d   1       2.042   0.556   0.152  0.00  0.00     0.000 A 
ATOM      3  C3  BNZ d   1       0.707   0.823   0.026  0.00  0.00     0.000 A 
ATOM      4  C4  BNZ d   1      -0.170  -0.199  -0.043  0.00  0.00     0.000 A 
ATOM      5  C5  BNZ d   1       0.270  -1.505   0.044  0.00  0.00     0.000 A 
ATOM      6  C6  BNZ d   1       1.610  -1.769   0.210  0.00  0.00     0.000 A 
ENDROOT
TORSDOF 0
ENDMDL
