MODEL 1
REMARK minimizedAffinity -3.7626276
REMARK minimizedRMSD -1
REMARK  0 active torsions:
REMARK  status: ('A' for Active; 'I' for Inactive)
ROOT
ATOM      1  C1  BNZ d   1       0.477  -1.062  -0.083  0.00  0.00     0.000 A 
ATOM      2  C2  BNZ d   1       1.701  -1.349   0.459  0.00  0.00     0.000 A 
ATOM      3  C3  BNZ d   1       2.527  -0.349   0.891  0.00  0.00     0.000 A 
ATOM      4  C4  BNZ d   1       2.146   0.936   0.744  0.00  0.00     0.000 A 
ATOM      5  C5  BNZ d   1       0.918   1.242   0.190  0.00  0.00     0.000 A 
ATOM      6  C6  BNZ d   1       0.073   0.232  -0.208  0.00  0.00     0.000 A 
ENDROOT
TORSDOF 0
ENDMDL
