MODEL 1
REMARK minimizedAffinity -3.46447039
REMARK minimizedRMSD -1
REMARK  0 active torsions:
REMARK  status: ('A' for Active; 'I' for Inactive)
ROOT
ATOM      1  C1  BNZ d   1       0.082   0.116  -0.024  0.00  0.00     0.000 A 
ATOM      2  C2  BNZ d   1       0.828  -0.999  -0.297  0.00  0.00     0.000 A 
ATOM      3  C3  BNZ d   1       0.710  -2.125   0.470  0.00  0.00     0.000 A 
ATOM      4  C4  BNZ d   1      -0.122  -2.119   1.531  0.00  0.00     0.000 A 
ATOM      5  C5  BNZ d   1      -0.873  -0.999   1.825  0.00  0.00     0.000 A 
ATOM      6  C6  BNZ d   1      -0.781   0.119   1.028  0.00  0.00     0.000 A 
ENDROOT
TORSDOF 0
ENDMDL
