MODEL 1
REMARK minimizedAffinity -4.3376565
REMARK minimizedRMSD -1
REMARK  0 active torsions:
REMARK  status: ('A' for Active; 'I' for Inactive)
ROOT
ATOM      1  C1  BNZ d   1       2.074   0.627   0.991  0.00  0.00     0.000 A 
ATOM      2  C2  BNZ d   1       1.353  -0.509   0.733  0.00  0.00     0.000 A 
ATOM      3  C3  BNZ d   1       0.186  -0.451   0.025  0.00  0.00     0.000 A 
ATOM      4  C4  BNZ d   1      -0.280   0.745  -0.389  0.00  0.00     0.000 A 
ATOM      5  C5  BNZ d   1       0.430   1.900  -0.128  0.00  0.00     0.000 A 
ATOM      6  C6  BNZ d   1       1.625   1.834   0.551  0.00  0.00     0.000 A 
ENDROOT
TORSDOF 0
ENDMDL
