MODEL 1
REMARK minimizedAffinity -2.05418086
REMARK minimizedRMSD -1
REMARK  0 active torsions:
REMARK  status: ('A' for Active; 'I' for Inactive)
ROOT
ATOM      1  C1  BNZ d   1      -2.975   0.428   1.685  0.00  0.00     0.000 A 
ATOM      2  C2  BNZ d   1      -3.505  -0.375   0.711  0.00  0.00     0.000 A 
ATOM      3  C3  BNZ d   1      -4.817  -0.260   0.346  0.00  0.00     0.000 A 
ATOM      4  C4  BNZ d   1      -5.607   0.629   0.982  0.00  0.00     0.000 A 
ATOM      5  C5  BNZ d   1      -5.090   1.440   1.973  0.00  0.00     0.000 A 
ATOM      6  C6  BNZ d   1      -3.759   1.348   2.311  0.00  0.00     0.000 A 
ENDROOT
TORSDOF 0
ENDMDL
