MODEL 1
REMARK minimizedAffinity -1.90472901
REMARK minimizedRMSD -1
REMARK  0 active torsions:
REMARK  status: ('A' for Active; 'I' for Inactive)
ROOT
ATOM      1  C1  BNZ d   1       1.807   1.955   0.629  0.00  0.00     0.000 A 
ATOM      2  C2  BNZ d   1       0.572   1.813   0.055  0.00  0.00     0.000 A 
ATOM      3  C3  BNZ d   1      -0.121   0.640   0.166  0.00  0.00     0.000 A 
ATOM      4  C4  BNZ d   1       0.438  -0.401   0.815  0.00  0.00     0.000 A 
ATOM      5  C5  BNZ d   1       1.687  -0.278   1.391  0.00  0.00     0.000 A 
ATOM      6  C6  BNZ d   1       2.365   0.917   1.310  0.00  0.00     0.000 A 
ENDROOT
TORSDOF 0
ENDMDL
