MODEL 1
REMARK minimizedAffinity -3.37406325
REMARK minimizedRMSD -1
REMARK  0 active torsions:
REMARK  status: ('A' for Active; 'I' for Inactive)
ROOT
ATOM      1  C1  BNZ d   1       1.302  -0.083   1.304  0.00  0.00     0.000 A 
ATOM      2  C2  BNZ d   1       2.522  -0.668   1.519  0.00  0.00     0.000 A 
ATOM      3  C3  BNZ d   1       3.040  -1.558   0.619  0.00  0.00     0.000 A 
ATOM      4  C4  BNZ d   1       2.321  -1.891  -0.472  0.00  0.00     0.000 A 
ATOM      5  C5  BNZ d   1       1.086  -1.318  -0.698  0.00  0.00     0.000 A 
ATOM      6  C6  BNZ d   1       0.585  -0.393   0.189  0.00  0.00     0.000 A 
ENDROOT
TORSDOF 0
ENDMDL
