MODEL 1
REMARK minimizedAffinity -3.94692516
REMARK minimizedRMSD -1
REMARK  0 active torsions:
REMARK  status: ('A' for Active; 'I' for Inactive)
ROOT
ATOM      1  C1  BNZ d   1      -1.720   2.217   0.236  0.00  0.00     0.000 A 
ATOM      2  C2  BNZ d   1      -0.500   2.642  -0.216  0.00  0.00     0.000 A 
ATOM      3  C3  BNZ d   1       0.594   1.825  -0.150  0.00  0.00     0.000 A 
ATOM      4  C4  BNZ d   1       0.475   0.601   0.403  0.00  0.00     0.000 A 
ATOM      5  C5  BNZ d   1      -0.747   0.162   0.872  0.00  0.00     0.000 A 
ATOM      6  C6  BNZ d   1      -1.854   0.972   0.769  0.00  0.00     0.000 A 
ENDROOT
TORSDOF 0
ENDMDL
