MODEL 1
REMARK minimizedAffinity 1.20235658
REMARK minimizedRMSD -1
REMARK  0 active torsions:
REMARK  status: ('A' for Active; 'I' for Inactive)
ROOT
ATOM      1  C   UNL d   1       1.715   0.914   0.740  0.00  0.00     0.124 A 
ATOM      2  C1  UNL d   1       0.553   1.195   0.036  0.00  0.00     0.062 A 
ATOM      3  C2  UNL d   1      -0.112   0.184  -0.652  0.00  0.00     0.162 A 
ATOM      4  C3  UNL d   1       0.384  -1.120  -0.638  0.00  0.00    -0.034 A 
ATOM      5  C4  UNL d   1       1.554  -1.395   0.071  0.00  0.00     0.162 A 
ATOM      6  C5  UNL d   1       2.215  -0.381   0.757  0.00  0.00     0.062 A 
ATOM      7  F   UNL d   1       3.338  -0.655   1.437  0.00  0.00    -0.097 F 
ATOM      8  F1  UNL d   1       2.059  -2.638   0.106  0.00  0.00    -0.096 F 
ATOM      9  I   UNL d   1      -0.606  -2.635  -1.665  0.00  0.00    -0.060 I 
ATOM     10  F2  UNL d   1      -1.233   0.485  -1.324  0.00  0.00    -0.096 F 
ATOM     11  F3  UNL d   1       0.068   2.446   0.017  0.00  0.00    -0.097 F 
ATOM     12  F4  UNL d   1       2.353   1.889   1.400  0.00  0.00    -0.092 F 
ENDROOT
TORSDOF 0
ENDMDL
