MODEL 1
REMARK minimizedAffinity -3.62282157
REMARK minimizedRMSD -1
REMARK  0 active torsions:
REMARK  status: ('A' for Active; 'I' for Inactive)
ROOT
ATOM      1  C   UNL d   1       2.151  -0.319   0.361  0.00  0.00     0.124 A 
ATOM      2  C1  UNL d   1       1.628   0.967   0.373  0.00  0.00     0.062 A 
ATOM      3  C2  UNL d   1       0.289   1.181   0.059  0.00  0.00     0.162 A 
ATOM      4  C3  UNL d   1      -0.537   0.107  -0.269  0.00  0.00    -0.034 A 
ATOM      5  C4  UNL d   1      -0.004  -1.183  -0.281  0.00  0.00     0.162 A 
ATOM      6  C5  UNL d   1       1.334  -1.392   0.034  0.00  0.00     0.062 A 
ATOM      7  F   UNL d   1       1.838  -2.635   0.022  0.00  0.00    -0.097 F 
ATOM      8  F1  UNL d   1      -0.771  -2.239  -0.592  0.00  0.00    -0.096 F 
ATOM      9  I   UNL d   1      -2.540   0.423  -0.740  0.00  0.00    -0.060 I 
ATOM     10  F2  UNL d   1      -0.189   2.434   0.079  0.00  0.00    -0.096 F 
ATOM     11  F3  UNL d   1       2.415   2.006   0.687  0.00  0.00    -0.097 F 
ATOM     12  F4  UNL d   1       3.440  -0.522   0.662  0.00  0.00    -0.092 F 
ENDROOT
TORSDOF 0
ENDMDL
