MODEL 1
REMARK minimizedAffinity -2.40333986
REMARK minimizedRMSD -1
REMARK  0 active torsions:
REMARK  status: ('A' for Active; 'I' for Inactive)
ROOT
ATOM      1  C   UNL d   1       2.534  -0.444   0.316  0.00  0.00     0.124 A 
ATOM      2  C1  UNL d   1       2.105   0.872   0.203  0.00  0.00     0.062 A 
ATOM      3  C2  UNL d   1       0.752   1.156   0.049  0.00  0.00     0.162 A 
ATOM      4  C3  UNL d   1      -0.184   0.123   0.006  0.00  0.00    -0.034 A 
ATOM      5  C4  UNL d   1       0.254  -1.198   0.119  0.00  0.00     0.162 A 
ATOM      6  C5  UNL d   1       1.608  -1.477   0.274  0.00  0.00     0.062 A 
ATOM      7  F   UNL d   1       2.021  -2.748   0.382  0.00  0.00    -0.097 F 
ATOM      8  F1  UNL d   1      -0.618  -2.216   0.082  0.00  0.00    -0.096 F 
ATOM      9  I   UNL d   1      -2.209   0.544  -0.225  0.00  0.00    -0.060 I 
ATOM     10  F2  UNL d   1       0.366   2.436  -0.057  0.00  0.00    -0.096 F 
ATOM     11  F3  UNL d   1       2.998   1.872   0.243  0.00  0.00    -0.097 F 
ATOM     12  F4  UNL d   1       3.837  -0.715   0.464  0.00  0.00    -0.092 F 
ENDROOT
TORSDOF 0
ENDMDL
