MODEL 1
REMARK minimizedAffinity -0.355554998
REMARK minimizedRMSD -1
REMARK  0 active torsions:
REMARK  status: ('A' for Active; 'I' for Inactive)
ROOT
ATOM      1  C   UNL d   1       2.247  -0.362  -0.571  0.00  0.00     0.124 A 
ATOM      2  C1  UNL d   1       1.758   0.921  -0.369  0.00  0.00     0.062 A 
ATOM      3  C2  UNL d   1       0.387   1.139  -0.266  0.00  0.00     0.162 A 
ATOM      4  C3  UNL d   1      -0.505   0.071  -0.365  0.00  0.00    -0.034 A 
ATOM      5  C4  UNL d   1      -0.006  -1.216  -0.569  0.00  0.00     0.162 A 
ATOM      6  C5  UNL d   1       1.365  -1.429  -0.671  0.00  0.00     0.062 A 
ATOM      7  F   UNL d   1       1.836  -2.669  -0.867  0.00  0.00    -0.097 F 
ATOM      8  F1  UNL d   1      -0.835  -2.265  -0.669  0.00  0.00    -0.096 F 
ATOM      9  I   UNL d   1      -2.556   0.394  -0.211  0.00  0.00    -0.060 I 
ATOM     10  F2  UNL d   1      -0.058   2.389  -0.070  0.00  0.00    -0.096 F 
ATOM     11  F3  UNL d   1       2.608   1.953  -0.273  0.00  0.00    -0.097 F 
ATOM     12  F4  UNL d   1       3.566  -0.569  -0.671  0.00  0.00    -0.092 F 
ENDROOT
TORSDOF 0
ENDMDL
