MODEL 1
REMARK minimizedAffinity -3.29200792
REMARK minimizedRMSD -1
REMARK  0 active torsions:
REMARK  status: ('A' for Active; 'I' for Inactive)
ROOT
ATOM      1  C   UNL d   1       2.704  -0.661   0.773  0.00  0.00     0.124 A 
ATOM      2  C1  UNL d   1       2.399   0.693   0.757  0.00  0.00     0.062 A 
ATOM      3  C2  UNL d   1       1.178   1.129   0.251  0.00  0.00     0.162 A 
ATOM      4  C3  UNL d   1       0.251   0.210  -0.242  0.00  0.00    -0.034 A 
ATOM      5  C4  UNL d   1       0.566  -1.150  -0.223  0.00  0.00     0.162 A 
ATOM      6  C5  UNL d   1       1.788  -1.581   0.283  0.00  0.00     0.062 A 
ATOM      7  F   UNL d   1       2.081  -2.890   0.297  0.00  0.00    -0.097 F 
ATOM      8  F1  UNL d   1      -0.301  -2.061  -0.690  0.00  0.00    -0.096 F 
ATOM      9  I   UNL d   1      -1.576   0.858  -0.999  0.00  0.00    -0.060 I 
ATOM     10  F2  UNL d   1       0.909   2.443   0.248  0.00  0.00    -0.096 F 
ATOM     11  F3  UNL d   1       3.283   1.583   1.229  0.00  0.00    -0.097 F 
ATOM     12  F4  UNL d   1       3.880  -1.078   1.259  0.00  0.00    -0.092 F 
ENDROOT
TORSDOF 0
ENDMDL
