MODEL 1
REMARK minimizedAffinity -2.76678848
REMARK minimizedRMSD -1
REMARK  0 active torsions:
REMARK  status: ('A' for Active; 'I' for Inactive)
ROOT
ATOM      1  C   UNL d   1       2.231   0.892   0.621  0.00  0.00     0.124 A 
ATOM      2  C1  UNL d   1       2.457  -0.477   0.633  0.00  0.00     0.062 A 
ATOM      3  C2  UNL d   1       1.656  -1.326  -0.126  0.00  0.00     0.162 A 
ATOM      4  C3  UNL d   1       0.622  -0.807  -0.905  0.00  0.00    -0.034 A 
ATOM      5  C4  UNL d   1       0.400   0.572  -0.912  0.00  0.00     0.162 A 
ATOM      6  C5  UNL d   1       1.203   1.415  -0.151  0.00  0.00     0.062 A 
ATOM      7  F   UNL d   1       0.984   2.738  -0.164  0.00  0.00    -0.097 F 
ATOM      8  F1  UNL d   1      -0.585   1.104  -1.649  0.00  0.00    -0.096 F 
ATOM      9  I   UNL d   1      -0.578  -2.071  -2.042  0.00  0.00    -0.060 I 
ATOM     10  F2  UNL d   1       1.897  -2.645  -0.096  0.00  0.00    -0.096 F 
ATOM     11  F3  UNL d   1       3.449  -0.985   1.379  0.00  0.00    -0.097 F 
ATOM     12  F4  UNL d   1       3.002   1.706   1.353  0.00  0.00    -0.092 F 
ENDROOT
TORSDOF 0
ENDMDL
