MODEL 1
REMARK minimizedAffinity -1.44697475
REMARK minimizedRMSD -1
REMARK  0 active torsions:
REMARK  status: ('A' for Active; 'I' for Inactive)
ROOT
ATOM      1  C   UNL d   1      -2.725   1.056   1.251  0.00  0.00     0.124 A 
ATOM      2  C1  UNL d   1      -1.646   1.712   0.675  0.00  0.00     0.062 A 
ATOM      3  C2  UNL d   1      -0.512   0.998   0.300  0.00  0.00     0.162 A 
ATOM      4  C3  UNL d   1      -0.450  -0.381   0.500  0.00  0.00    -0.034 A 
ATOM      5  C4  UNL d   1      -1.539  -1.034   1.081  0.00  0.00     0.162 A 
ATOM      6  C5  UNL d   1      -2.670  -0.316   1.454  0.00  0.00     0.062 A 
ATOM      7  F   UNL d   1      -3.712  -0.951   2.011  0.00  0.00    -0.097 F 
ATOM      8  F1  UNL d   1      -1.513  -2.359   1.287  0.00  0.00    -0.096 F 
ATOM      9  I   UNL d   1       1.244  -1.452  -0.059  0.00  0.00    -0.060 I 
ATOM     10  F2  UNL d   1       0.516   1.658  -0.255  0.00  0.00    -0.096 F 
ATOM     11  F3  UNL d   1      -1.696   3.038   0.479  0.00  0.00    -0.097 F 
ATOM     12  F4  UNL d   1      -3.815   1.746   1.612  0.00  0.00    -0.092 F 
ENDROOT
TORSDOF 0
ENDMDL
