MODEL 1
REMARK minimizedAffinity 12.1156902
REMARK minimizedRMSD -1
REMARK  0 active torsions:
REMARK  status: ('A' for Active; 'I' for Inactive)
ROOT
ATOM      1  C   UNL d   1      -1.796  -1.424   0.723  0.00  0.00     0.124 A 
ATOM      2  C1  UNL d   1      -0.780  -2.142   1.337  0.00  0.00     0.062 A 
ATOM      3  C2  UNL d   1       0.508  -2.123   0.809  0.00  0.00     0.162 A 
ATOM      4  C3  UNL d   1       0.787  -1.382  -0.339  0.00  0.00    -0.034 A 
ATOM      5  C4  UNL d   1      -0.241  -0.663  -0.952  0.00  0.00     0.162 A 
ATOM      6  C5  UNL d   1      -1.526  -0.686  -0.420  0.00  0.00     0.062 A 
ATOM      7  F   UNL d   1      -2.507   0.009  -1.015  0.00  0.00    -0.097 F 
ATOM      8  F1  UNL d   1      -0.007   0.060  -2.057  0.00  0.00    -0.096 F 
ATOM      9  I   UNL d   1       2.711  -1.351  -1.131  0.00  0.00    -0.060 I 
ATOM     10  F2  UNL d   1       1.471  -2.826   1.424  0.00  0.00    -0.096 F 
ATOM     11  F3  UNL d   1      -1.038  -2.857   2.442  0.00  0.00    -0.097 F 
ATOM     12  F4  UNL d   1      -3.035  -1.445   1.233  0.00  0.00    -0.092 F 
ENDROOT
TORSDOF 0
ENDMDL
