MODEL 1
REMARK minimizedAffinity 12.8376722
REMARK minimizedRMSD -1
REMARK  0 active torsions:
REMARK  status: ('A' for Active; 'I' for Inactive)
ROOT
ATOM      1  C   UNL d   1      -1.099  -4.141  -1.534  0.00  0.00     0.124 A 
ATOM      2  C1  UNL d   1      -1.175  -2.786  -1.823  0.00  0.00     0.062 A 
ATOM      3  C2  UNL d   1      -0.119  -1.940  -1.495  0.00  0.00     0.162 A 
ATOM      4  C3  UNL d   1       1.023  -2.447  -0.875  0.00  0.00    -0.034 A 
ATOM      5  C4  UNL d   1       1.091  -3.811  -0.586  0.00  0.00     0.162 A 
ATOM      6  C5  UNL d   1       0.034  -4.652  -0.916  0.00  0.00     0.062 A 
ATOM      7  F   UNL d   1       0.109  -5.961  -0.636  0.00  0.00    -0.097 F 
ATOM      8  F1  UNL d   1       2.175  -4.331   0.009  0.00  0.00    -0.096 F 
ATOM      9  I   UNL d   1       2.603  -1.185  -0.383  0.00  0.00    -0.060 I 
ATOM     10  F2  UNL d   1      -0.220  -0.634  -1.786  0.00  0.00    -0.096 F 
ATOM     11  F3  UNL d   1      -2.269  -2.289  -2.419  0.00  0.00    -0.097 F 
ATOM     12  F4  UNL d   1      -2.116  -4.953  -1.849  0.00  0.00    -0.092 F 
ENDROOT
TORSDOF 0
ENDMDL
