MODEL 1
REMARK minimizedAffinity -1.55319142
REMARK minimizedRMSD -1
REMARK  0 active torsions:
REMARK  status: ('A' for Active; 'I' for Inactive)
ROOT
ATOM      1  C4' PXY d   1      -0.691   3.364  -2.703  0.00  0.00     0.077 C 
ATOM      2  C1' PXY d   1      -1.280   1.919   2.863  0.00  0.00     0.077 C 
ATOM      3  C1  PXY d   1      -1.136   2.305   1.404  0.00  0.00    -0.082 A 
ATOM      4  C2  PXY d   1      -0.503   1.495   0.572  0.00  0.00     0.003 A 
ATOM      5  C3  PXY d   1      -0.336   1.844  -0.744  0.00  0.00     0.003 A 
ATOM      6  C4  PXY d   1      -0.869   3.010  -1.224  0.00  0.00    -0.082 A 
ATOM      7  C5  PXY d   1      -1.525   3.838  -0.383  0.00  0.00     0.003 A 
ATOM      8  C6  PXY d   1      -1.648   3.484   0.957  0.00  0.00     0.003 A 
ENDROOT
TORSDOF 0
ENDMDL
