MODEL 1
REMARK minimizedAffinity 5.24119902
REMARK minimizedRMSD -1
REMARK  0 active torsions:
REMARK  status: ('A' for Active; 'I' for Inactive)
ROOT
ATOM      1  C4' PXY d   1      -1.070   2.535   0.514  0.00  0.00     0.077 C 
ATOM      2  C1' PXY d   1      -1.412  -0.548  -4.364  0.00  0.00     0.077 C 
ATOM      3  C1  PXY d   1      -1.310   0.263  -3.087  0.00  0.00    -0.082 A 
ATOM      4  C2  PXY d   1      -2.119  -0.005  -2.075  0.00  0.00     0.003 A 
ATOM      5  C3  PXY d   1      -2.061   0.740  -0.925  0.00  0.00     0.003 A 
ATOM      6  C4  PXY d   1      -1.131   1.736  -0.790  0.00  0.00    -0.082 A 
ATOM      7  C5  PXY d   1      -0.295   2.008  -1.815  0.00  0.00     0.003 A 
ATOM      8  C6  PXY d   1      -0.397   1.267  -2.989  0.00  0.00     0.003 A 
ENDROOT
TORSDOF 0
ENDMDL
