MODEL 1
REMARK minimizedAffinity 13.3865328
REMARK minimizedRMSD -1
REMARK  0 active torsions:
REMARK  status: ('A' for Active; 'I' for Inactive)
ROOT
ATOM      1  C4' PXY d   1      -1.473   3.377  -1.156  0.00  0.00     0.077 C 
ATOM      2  C1' PXY d   1      -5.999   3.977  -4.703  0.00  0.00     0.077 C 
ATOM      3  C1  PXY d   1      -4.806   3.830  -3.778  0.00  0.00    -0.082 A 
ATOM      4  C2  PXY d   1      -4.516   2.644  -3.269  0.00  0.00     0.003 A 
ATOM      5  C3  PXY d   1      -3.460   2.500  -2.405  0.00  0.00     0.003 A 
ATOM      6  C4  PXY d   1      -2.662   3.570  -2.102  0.00  0.00    -0.082 A 
ATOM      7  C5  PXY d   1      -2.946   4.782  -2.626  0.00  0.00     0.003 A 
ATOM      8  C6  PXY d   1      -4.046   4.915  -3.468  0.00  0.00     0.003 A 
ENDROOT
TORSDOF 0
ENDMDL
