MODEL 1
REMARK minimizedAffinity 5.34792662
REMARK minimizedRMSD -1
REMARK  0 active torsions:
REMARK  status: ('A' for Active; 'I' for Inactive)
ROOT
ATOM      1  C4' PXY d   1      -0.480   1.444   2.731  0.00  0.00     0.077 C 
ATOM      2  C1' PXY d   1      -0.544   4.515  -2.165  0.00  0.00     0.077 C 
ATOM      3  C1  PXY d   1      -0.527   3.699  -0.888  0.00  0.00    -0.082 A 
ATOM      4  C2  PXY d   1      -0.999   4.224   0.230  0.00  0.00     0.003 A 
ATOM      5  C3  PXY d   1      -0.962   3.512   1.401  0.00  0.00     0.003 A 
ATOM      6  C4  PXY d   1      -0.486   2.228   1.416  0.00  0.00    -0.082 A 
ATOM      7  C5  PXY d   1      -0.012   1.681   0.277  0.00  0.00     0.003 A 
ATOM      8  C6  PXY d   1      -0.021   2.436  -0.893  0.00  0.00     0.003 A 
ENDROOT
TORSDOF 0
ENDMDL
