MODEL 1
REMARK minimizedAffinity 4.52317762
REMARK minimizedRMSD -1
REMARK  0 active torsions:
REMARK  status: ('A' for Active; 'I' for Inactive)
ROOT
ATOM      1  C4' PXY d   1       0.243   2.256   2.291  0.00  0.00     0.077 C 
ATOM      2  C1' PXY d   1      -0.734   1.226  -3.312  0.00  0.00     0.077 C 
ATOM      3  C1  PXY d   1      -0.479   1.484  -1.840  0.00  0.00    -0.082 A 
ATOM      4  C2  PXY d   1      -0.697   2.689  -1.340  0.00  0.00     0.003 A 
ATOM      5  C3  PXY d   1      -0.442   2.948  -0.018  0.00  0.00     0.003 A 
ATOM      6  C4  PXY d   1      -0.009   1.948   0.813  0.00  0.00    -0.082 A 
ATOM      7  C5  PXY d   1       0.205   0.713   0.312  0.00  0.00     0.003 A 
ATOM      8  C6  PXY d   1      -0.021   0.482  -1.042  0.00  0.00     0.003 A 
ENDROOT
TORSDOF 0
ENDMDL
