MODEL 1
REMARK minimizedAffinity 1.75770283
REMARK minimizedRMSD -1
REMARK  0 active torsions:
REMARK  status: ('A' for Active; 'I' for Inactive)
ROOT
ATOM      1  C4' PXY d   1      -0.378   1.127   2.777  0.00  0.00     0.077 C 
ATOM      2  C1' PXY d   1      -0.968   3.186  -2.592  0.00  0.00     0.077 C 
ATOM      3  C1  PXY d   1      -0.810   2.658  -1.180  0.00  0.00    -0.082 A 
ATOM      4  C2  PXY d   1      -0.559   1.373  -0.986  0.00  0.00     0.003 A 
ATOM      5  C3  PXY d   1      -0.445   0.873   0.285  0.00  0.00     0.003 A 
ATOM      6  C4  PXY d   1      -0.536   1.706   1.368  0.00  0.00    -0.082 A 
ATOM      7  C5  PXY d   1      -0.781   3.020   1.178  0.00  0.00     0.003 A 
ATOM      8  C6  PXY d   1      -0.935   3.500  -0.119  0.00  0.00     0.003 A 
ENDROOT
TORSDOF 0
ENDMDL
