MODEL 1
REMARK minimizedAffinity 4.2143507
REMARK minimizedRMSD -1
REMARK  0 active torsions:
REMARK  status: ('A' for Active; 'I' for Inactive)
ROOT
ATOM      1  C4' PXY d   1      -1.136  -0.718  -4.107  0.00  0.00     0.077 C 
ATOM      2  C1' PXY d   1      -0.779   2.109   0.923  0.00  0.00     0.077 C 
ATOM      3  C1  PXY d   1      -0.880   1.358  -0.390  0.00  0.00    -0.082 A 
ATOM      4  C2  PXY d   1       0.026   1.564  -1.332  0.00  0.00     0.003 A 
ATOM      5  C3  PXY d   1      -0.068   0.918  -2.538  0.00  0.00     0.003 A 
ATOM      6  C4  PXY d   1      -1.069   0.011  -2.762  0.00  0.00    -0.082 A 
ATOM      7  C5  PXY d   1      -1.991  -0.213  -1.802  0.00  0.00     0.003 A 
ATOM      8  C6  PXY d   1      -1.902   0.484  -0.600  0.00  0.00     0.003 A 
ENDROOT
TORSDOF 0
ENDMDL
