MODEL 1
REMARK minimizedAffinity -2.13905215
REMARK minimizedRMSD -1
REMARK  0 active torsions:
REMARK  status: ('A' for Active; 'I' for Inactive)
ROOT
ATOM      1  C4' PXY d   1       0.226  -0.756   4.262  0.00  0.00     0.077 C 
ATOM      2  C1' PXY d   1      -0.466   2.574  -0.411  0.00  0.00     0.077 C 
ATOM      3  C1  PXY d   1      -0.291   1.710   0.822  0.00  0.00    -0.082 A 
ATOM      4  C2  PXY d   1       0.690   0.823   0.865  0.00  0.00     0.003 A 
ATOM      5  C3  PXY d   1       0.844   0.011   1.959  0.00  0.00     0.003 A 
ATOM      6  C4  PXY d   1       0.017   0.144   3.042  0.00  0.00    -0.082 A 
ATOM      7  C5  PXY d   1      -0.980   1.054   3.010  0.00  0.00     0.003 A 
ATOM      8  C6  PXY d   1      -1.144   1.840   1.874  0.00  0.00     0.003 A 
ENDROOT
TORSDOF 0
ENDMDL
