MODEL 1
REMARK minimizedAffinity 4.25105143
REMARK minimizedRMSD -1
REMARK  0 active torsions:
REMARK  status: ('A' for Active; 'I' for Inactive)
ROOT
ATOM      1  C4' PXY d   1      -0.079  -1.147   4.892  0.00  0.00     0.077 C 
ATOM      2  C1' PXY d   1      -0.263   2.545   0.447  0.00  0.00     0.077 C 
ATOM      3  C1  PXY d   1      -0.221   1.585   1.620  0.00  0.00    -0.082 A 
ATOM      4  C2  PXY d   1       0.741   0.680   1.691  0.00  0.00     0.003 A 
ATOM      5  C3  PXY d   1       0.775  -0.216   2.728  0.00  0.00     0.003 A 
ATOM      6  C4  PXY d   1      -0.155  -0.151   3.731  0.00  0.00    -0.082 A 
ATOM      7  C5  PXY d   1      -1.134   0.776   3.671  0.00  0.00     0.003 A 
ATOM      8  C6  PXY d   1      -1.175   1.651   2.589  0.00  0.00     0.003 A 
ENDROOT
TORSDOF 0
ENDMDL
