MODEL 1
REMARK minimizedAffinity -1.18200552
REMARK minimizedRMSD -1
REMARK  2 active torsions:
REMARK  status: ('A' for Active; 'I' for Inactive)
REMARK    1  A    between atoms: C2'_3  and  C1'_4 
REMARK    2  A    between atoms: C1'_4  and  C1_5 
ROOT
ATOM      1  C1  I4B d   1       0.265   0.264  -0.270  0.00  0.00    -0.075 A 
ATOM      2  C2  I4B d   1       1.524  -0.114   0.125  0.00  0.00     0.003 A 
ATOM      3  C3  I4B d   1       1.806  -0.333   1.495  0.00  0.00     0.002 A 
ATOM      4  C4  I4B d   1       0.819  -0.116   2.435  0.00  0.00    -0.004 A 
ATOM      5  C5  I4B d   1      -0.463   0.245   2.031  0.00  0.00     0.002 A 
ATOM      6  C6  I4B d   1      -0.746   0.425   0.669  0.00  0.00     0.003 A 
ENDROOT
BRANCH   1   7
ATOM      7  C1' I4B d   1       0.011   0.519  -1.722  0.00  0.00     0.060 C 
BRANCH   7   8
ATOM      8  C2' I4B d   1       0.938  -0.373  -2.522  0.00  0.00    -0.013 C 
ATOM      9  C4' I4B d   1       0.161  -1.348  -3.367  0.00  0.00     0.013 C 
ATOM     10  C3' I4B d   1       1.808   0.505  -3.370  0.00  0.00     0.013 C 
ENDBRANCH   7   8
ENDBRANCH   1   7
TORSDOF 2
ENDMDL
