MODEL 1
REMARK minimizedAffinity -1.25291753
REMARK minimizedRMSD -1
REMARK  2 active torsions:
REMARK  status: ('A' for Active; 'I' for Inactive)
REMARK    1  A    between atoms: C2'_3  and  C1'_4 
REMARK    2  A    between atoms: C1'_4  and  C1_5 
ROOT
ATOM      1  C1  I4B d   1       0.573   0.288  -1.322  0.00  0.00    -0.075 A 
ATOM      2  C2  I4B d   1       1.252  -0.589  -2.131  0.00  0.00     0.003 A 
ATOM      3  C3  I4B d   1       0.678  -1.024  -3.351  0.00  0.00     0.002 A 
ATOM      4  C4  I4B d   1      -0.589  -0.599  -3.695  0.00  0.00    -0.004 A 
ATOM      5  C5  I4B d   1      -1.266   0.307  -2.885  0.00  0.00     0.002 A 
ATOM      6  C6  I4B d   1      -0.677   0.764  -1.697  0.00  0.00     0.003 A 
ENDROOT
BRANCH   1   7
ATOM      7  C1' I4B d   1       1.194   0.702  -0.026  0.00  0.00     0.060 C 
BRANCH   7   8
ATOM      8  C2' I4B d   1       0.586  -0.144   1.074  0.00  0.00    -0.013 C 
ATOM      9  C4' I4B d   1       1.455  -1.332   1.392  0.00  0.00     0.013 C 
ATOM     10  C3' I4B d   1       0.399   0.728   2.279  0.00  0.00     0.013 C 
ENDBRANCH   7   8
ENDBRANCH   1   7
TORSDOF 2
ENDMDL
