MODEL 1
REMARK minimizedAffinity -0.372182727
REMARK minimizedRMSD -1
REMARK  2 active torsions:
REMARK  status: ('A' for Active; 'I' for Inactive)
REMARK    1  A    between atoms: C2'_3  and  C1'_4 
REMARK    2  A    between atoms: C1'_4  and  C1_5 
ROOT
ATOM      1  C1  I4B d   1       0.413   0.043  -0.473  0.00  0.00    -0.075 A 
ATOM      2  C2  I4B d   1      -0.530   0.367   0.472  0.00  0.00     0.003 A 
ATOM      3  C3  I4B d   1      -0.226   0.254   1.850  0.00  0.00     0.002 A 
ATOM      4  C4  I4B d   1       1.007  -0.232   2.237  0.00  0.00    -0.004 A 
ATOM      5  C5  I4B d   1       1.969  -0.538   1.278  0.00  0.00     0.002 A 
ATOM      6  C6  I4B d   1       1.675  -0.388  -0.085  0.00  0.00     0.003 A 
ENDROOT
BRANCH   1   7
ATOM      7  C1' I4B d   1       0.047   0.143  -1.920  0.00  0.00     0.060 C 
BRANCH   7   8
ATOM      8  C2' I4B d   1       0.898  -0.850  -2.686  0.00  0.00    -0.013 C 
ATOM      9  C4' I4B d   1       0.049  -1.918  -3.323  0.00  0.00     0.013 C 
ATOM     10  C3' I4B d   1       1.678  -0.091  -3.717  0.00  0.00     0.013 C 
ENDBRANCH   7   8
ENDBRANCH   1   7
TORSDOF 2
ENDMDL
