MODEL 1
REMARK minimizedAffinity -4.46263313
REMARK minimizedRMSD -1
REMARK  2 active torsions:
REMARK  status: ('A' for Active; 'I' for Inactive)
REMARK    1  A    between atoms: C2'_3  and  C1'_4 
REMARK    2  A    between atoms: C1'_4  and  C1_5 
ROOT
ATOM      1  C1  I4B d   1       1.177  -1.048  -1.043  0.00  0.00    -0.075 A 
ATOM      2  C2  I4B d   1       2.216  -1.611  -1.742  0.00  0.00     0.003 A 
ATOM      3  C3  I4B d   1       2.224  -1.577  -3.157  0.00  0.00     0.002 A 
ATOM      4  C4  I4B d   1       1.157  -1.019  -3.830  0.00  0.00    -0.004 A 
ATOM      5  C5  I4B d   1       0.115  -0.428  -3.120  0.00  0.00     0.002 A 
ATOM      6  C6  I4B d   1       0.131  -0.432  -1.718  0.00  0.00     0.003 A 
ENDROOT
BRANCH   1   7
ATOM      7  C1' I4B d   1       1.184  -1.130   0.450  0.00  0.00     0.060 C 
BRANCH   7   8
ATOM      8  C2' I4B d   1       0.686   0.193   0.993  0.00  0.00    -0.013 C 
ATOM      9  C4' I4B d   1       0.458   0.121   2.480  0.00  0.00     0.013 C 
ATOM     10  C3' I4B d   1       1.699   1.245   0.651  0.00  0.00     0.013 C 
ENDBRANCH   7   8
ENDBRANCH   1   7
TORSDOF 2
ENDMDL
