MODEL 1
REMARK minimizedAffinity 0.723943412
REMARK minimizedRMSD -1
REMARK  2 active torsions:
REMARK  status: ('A' for Active; 'I' for Inactive)
REMARK    1  A    between atoms: C2'_3  and  C1'_4 
REMARK    2  A    between atoms: C1'_4  and  C1_5 
ROOT
ATOM      1  C1  I4B d   1       0.622   0.125  -1.259  0.00  0.00    -0.075 A 
ATOM      2  C2  I4B d   1       1.615  -0.007  -0.320  0.00  0.00     0.003 A 
ATOM      3  C3  I4B d   1       1.298   0.013   1.060  0.00  0.00     0.002 A 
ATOM      4  C4  I4B d   1      -0.009   0.216   1.454  0.00  0.00    -0.004 A 
ATOM      5  C5  I4B d   1      -1.017   0.326   0.501  0.00  0.00     0.002 A 
ATOM      6  C6  I4B d   1      -0.702   0.268  -0.865  0.00  0.00     0.003 A 
ENDROOT
BRANCH   1   7
ATOM      7  C1' I4B d   1       0.996   0.133  -2.707  0.00  0.00     0.060 C 
BRANCH   7   8
ATOM      8  C2' I4B d   1       1.548  -1.235  -3.054  0.00  0.00    -0.013 C 
ATOM      9  C4' I4B d   1       0.731  -1.895  -4.133  0.00  0.00     0.013 C 
ATOM     10  C3' I4B d   1       2.975  -1.063  -3.485  0.00  0.00     0.013 C 
ENDBRANCH   7   8
ENDBRANCH   1   7
TORSDOF 2
ENDMDL
