MODEL 1
REMARK minimizedAffinity -3.74794149
REMARK minimizedRMSD -1
REMARK  2 active torsions:
REMARK  status: ('A' for Active; 'I' for Inactive)
REMARK    1  A    between atoms: C2'_3  and  C1'_4 
REMARK    2  A    between atoms: C1'_4  and  C1_5 
ROOT
ATOM      1  C1  I4B d   1       0.234   0.319  -0.216  0.00  0.00    -0.075 A 
ATOM      2  C2  I4B d   1      -0.846   0.513   0.610  0.00  0.00     0.003 A 
ATOM      3  C3  I4B d   1      -0.701   0.389   2.013  0.00  0.00     0.002 A 
ATOM      4  C4  I4B d   1       0.521   0.023   2.540  0.00  0.00    -0.004 A 
ATOM      5  C5  I4B d   1       1.619  -0.151   1.703  0.00  0.00     0.002 A 
ATOM      6  C6  I4B d   1       1.478   0.010   0.317  0.00  0.00     0.003 A 
ENDROOT
BRANCH   1   7
ATOM      7  C1' I4B d   1       0.038   0.425  -1.695  0.00  0.00     0.060 C 
BRANCH   7   8
ATOM      8  C2' I4B d   1       0.901  -0.629  -2.357  0.00  0.00    -0.013 C 
ATOM      9  C4' I4B d   1       0.068  -1.780  -2.858  0.00  0.00     0.013 C 
ATOM     10  C3' I4B d   1       1.651   0.024  -3.479  0.00  0.00     0.013 C 
ENDBRANCH   7   8
ENDBRANCH   1   7
TORSDOF 2
ENDMDL
