MODEL 1
REMARK minimizedAffinity -2.86646271
REMARK minimizedRMSD -1
REMARK  2 active torsions:
REMARK  status: ('A' for Active; 'I' for Inactive)
REMARK    1  A    between atoms: C2'_3  and  C1'_4 
REMARK    2  A    between atoms: C1'_4  and  C1_5 
ROOT
ATOM      1  C1  I4B d   1       0.863   0.061  -1.070  0.00  0.00    -0.075 A 
ATOM      2  C2  I4B d   1       0.593   0.764  -2.217  0.00  0.00     0.003 A 
ATOM      3  C3  I4B d   1       0.591   0.108  -3.472  0.00  0.00     0.002 A 
ATOM      4  C4  I4B d   1       0.913  -1.233  -3.538  0.00  0.00    -0.004 A 
ATOM      5  C5  I4B d   1       1.164  -1.949  -2.371  0.00  0.00     0.002 A 
ATOM      6  C6  I4B d   1       1.127  -1.302  -1.128  0.00  0.00     0.003 A 
ENDROOT
BRANCH   1   7
ATOM      7  C1' I4B d   1       0.889   0.792   0.235  0.00  0.00     0.060 C 
BRANCH   7   8
ATOM      8  C2' I4B d   1       0.777  -0.231   1.346  0.00  0.00    -0.013 C 
ATOM      9  C4' I4B d   1       2.085  -0.389   2.076  0.00  0.00     0.013 C 
ATOM     10  C3' I4B d   1      -0.312   0.212   2.276  0.00  0.00     0.013 C 
ENDBRANCH   7   8
ENDBRANCH   1   7
TORSDOF 2
ENDMDL
