MODEL 1
REMARK minimizedAffinity -4.882586
REMARK minimizedRMSD -1
REMARK  2 active torsions:
REMARK  status: ('A' for Active; 'I' for Inactive)
REMARK    1  A    between atoms: C2'_3  and  C1'_4 
REMARK    2  A    between atoms: C1'_4  and  C1_5 
ROOT
ATOM      1  C1  I4B d   1       0.441  -0.030  -0.585  0.00  0.00    -0.075 A 
ATOM      2  C2  I4B d   1       0.851  -1.264  -0.148  0.00  0.00     0.003 A 
ATOM      3  C3  I4B d   1       1.129  -1.478   1.224  0.00  0.00     0.002 A 
ATOM      4  C4  I4B d   1       1.033  -0.424   2.109  0.00  0.00    -0.004 A 
ATOM      5  C5  I4B d   1       0.594   0.821   1.668  0.00  0.00     0.002 A 
ATOM      6  C6  I4B d   1       0.284   1.017   0.314  0.00  0.00     0.003 A 
ENDROOT
BRANCH   1   7
ATOM      7  C1' I4B d   1       0.187   0.170  -2.046  0.00  0.00     0.060 C 
BRANCH   7   8
ATOM      8  C2' I4B d   1       0.714  -1.046  -2.781  0.00  0.00    -0.013 C 
ATOM      9  C4' I4B d   1      -0.273  -1.529  -3.811  0.00  0.00     0.013 C 
ATOM     10  C3' I4B d   1       2.020  -0.673  -3.416  0.00  0.00     0.013 C 
ENDBRANCH   7   8
ENDBRANCH   1   7
TORSDOF 2
ENDMDL
