MODEL 1
REMARK minimizedAffinity 14.1562977
REMARK minimizedRMSD -1
REMARK  1 active torsions:
REMARK  status: ('A' for Active; 'I' for Inactive)
REMARK    1  A    between atoms: C1_2  and  C2_3 
ROOT
ATOM      1  C2  UNL d   1       4.331   0.261  -4.491  0.00  0.00    -0.081 A 
ATOM      2  C3  UNL d   1       4.949  -0.437  -3.446  0.00  0.00     0.006 A 
ATOM      3  C4  UNL d   1       4.411  -0.404  -2.157  0.00  0.00     0.002 A 
ATOM      4  C5  UNL d   1       3.244   0.320  -1.894  0.00  0.00    -0.080 A 
ATOM      5  C6  UNL d   1       2.640   0.340  -0.521  0.00  0.00     0.076 C 
ATOM      6  C7  UNL d   1       2.636   1.032  -2.934  0.00  0.00     0.002 A 
ATOM      7  C8  UNL d   1       3.173   0.999  -4.223  0.00  0.00     0.006 A 
ENDROOT
BRANCH   1   8
ATOM      8  C1  UNL d   1       4.871   0.174  -5.896  0.00  0.00     0.054 C 
ATOM      9  C   UNL d   1       5.978  -0.866  -6.000  0.00  0.00     0.018 C 
ENDBRANCH   1   8
TORSDOF 1
ENDMDL
