MODEL 1
REMARK minimizedAffinity 5.89692783
REMARK minimizedRMSD -1
REMARK  1 active torsions:
REMARK  status: ('A' for Active; 'I' for Inactive)
REMARK    1  A    between atoms: C1_2  and  C2_3 
ROOT
ATOM      1  C2  UNL d   1       1.470  -2.310   3.255  0.00  0.00    -0.081 A 
ATOM      2  C3  UNL d   1       1.604  -1.139   2.499  0.00  0.00     0.006 A 
ATOM      3  C4  UNL d   1       0.892  -0.981   1.307  0.00  0.00     0.002 A 
ATOM      4  C5  UNL d   1       0.030  -1.986   0.857  0.00  0.00    -0.080 A 
ATOM      5  C6  UNL d   1      -0.763  -1.816  -0.405  0.00  0.00     0.076 C 
ATOM      6  C7  UNL d   1      -0.090  -3.163   1.604  0.00  0.00     0.002 A 
ATOM      7  C8  UNL d   1       0.621  -3.322   2.795  0.00  0.00     0.006 A 
ENDROOT
BRANCH   1   8
ATOM      8  C1  UNL d   1       2.187  -2.457   4.574  0.00  0.00     0.054 C 
ATOM      9  C   UNL d   1       2.327  -3.920   4.967  0.00  0.00     0.018 C 
ENDBRANCH   1   8
TORSDOF 1
ENDMDL
