MODEL 1
REMARK minimizedAffinity 3.33177376
REMARK minimizedRMSD -1
REMARK  1 active torsions:
REMARK  status: ('A' for Active; 'I' for Inactive)
REMARK    1  A    between atoms: C1_2  and  C2_3 
ROOT
ATOM      1  C2  UNL d   1       1.987  -0.202   2.384  0.00  0.00    -0.081 A 
ATOM      2  C3  UNL d   1       2.267  -0.645   3.683  0.00  0.00     0.006 A 
ATOM      3  C4  UNL d   1       1.762  -1.865   4.139  0.00  0.00     0.002 A 
ATOM      4  C5  UNL d   1       0.977  -2.666   3.303  0.00  0.00    -0.080 A 
ATOM      5  C6  UNL d   1       0.454  -3.991   3.770  0.00  0.00     0.076 C 
ATOM      6  C7  UNL d   1       0.683  -2.216   2.011  0.00  0.00     0.002 A 
ATOM      7  C8  UNL d   1       1.187  -0.996   1.554  0.00  0.00     0.006 A 
ENDROOT
BRANCH   1   8
ATOM      8  C1  UNL d   1       2.584   1.082   1.867  0.00  0.00     0.054 C 
ATOM      9  C   UNL d   1       3.258   0.875   0.518  0.00  0.00     0.018 C 
ENDBRANCH   1   8
TORSDOF 1
ENDMDL
