MODEL 1
REMARK minimizedAffinity 12.4966106
REMARK minimizedRMSD -1
REMARK  1 active torsions:
REMARK  status: ('A' for Active; 'I' for Inactive)
REMARK    1  A    between atoms: C1_2  and  C2_3 
ROOT
ATOM      1  C2  UNL d   1       3.553  -2.711   3.663  0.00  0.00    -0.081 A 
ATOM      2  C3  UNL d   1       2.417  -3.528   3.606  0.00  0.00     0.006 A 
ATOM      3  C4  UNL d   1       1.307  -3.147   2.849  0.00  0.00     0.002 A 
ATOM      4  C5  UNL d   1       1.317  -1.947   2.130  0.00  0.00    -0.080 A 
ATOM      5  C6  UNL d   1       0.144  -1.540   1.289  0.00  0.00     0.076 C 
ATOM      6  C7  UNL d   1       2.445  -1.122   2.200  0.00  0.00     0.002 A 
ATOM      7  C8  UNL d   1       3.554  -1.502   2.958  0.00  0.00     0.006 A 
ENDROOT
BRANCH   1   8
ATOM      8  C1  UNL d   1       4.776  -3.151   4.426  0.00  0.00     0.054 C 
ATOM      9  C   UNL d   1       5.999  -3.213   3.523  0.00  0.00     0.018 C 
ENDBRANCH   1   8
TORSDOF 1
ENDMDL
