MODEL 1
REMARK minimizedAffinity 0.273427814
REMARK minimizedRMSD -1
REMARK  1 active torsions:
REMARK  status: ('A' for Active; 'I' for Inactive)
REMARK    1  A    between atoms: C1_2  and  C2_3 
ROOT
ATOM      1  C2  UNL d   1       1.498  -0.680   1.586  0.00  0.00    -0.081 A 
ATOM      2  C3  UNL d   1       1.915  -0.686   2.923  0.00  0.00     0.006 A 
ATOM      3  C4  UNL d   1       2.507   0.448   3.485  0.00  0.00     0.002 A 
ATOM      4  C5  UNL d   1       2.684   1.608   2.722  0.00  0.00    -0.080 A 
ATOM      5  C6  UNL d   1       3.290   2.842   3.322  0.00  0.00     0.076 C 
ATOM      6  C7  UNL d   1       2.283   1.607   1.382  0.00  0.00     0.002 A 
ATOM      7  C8  UNL d   1       1.692   0.474   0.820  0.00  0.00     0.006 A 
ENDROOT
BRANCH   1   8
ATOM      8  C1  UNL d   1       0.801  -1.879   0.996  0.00  0.00     0.054 C 
ATOM      9  C   UNL d   1      -0.463  -1.474   0.252  0.00  0.00     0.018 C 
ENDBRANCH   1   8
TORSDOF 1
ENDMDL
