MODEL 1
REMARK minimizedAffinity 1.35482132
REMARK minimizedRMSD -1
REMARK  1 active torsions:
REMARK  status: ('A' for Active; 'I' for Inactive)
REMARK    1  A    between atoms: C1_2  and  C2_3 
ROOT
ATOM      1  C2  UNL d   1       1.123  -0.983   1.361  0.00  0.00    -0.081 A 
ATOM      2  C3  UNL d   1       1.508  -0.921   2.706  0.00  0.00     0.006 A 
ATOM      3  C4  UNL d   1       2.101   0.234   3.220  0.00  0.00     0.002 A 
ATOM      4  C5  UNL d   1       2.312   1.349   2.402  0.00  0.00    -0.080 A 
ATOM      5  C6  UNL d   1       2.919   2.606   2.949  0.00  0.00     0.076 C 
ATOM      6  C7  UNL d   1       1.943   1.281   1.054  0.00  0.00     0.002 A 
ATOM      7  C8  UNL d   1       1.351   0.126   0.539  0.00  0.00     0.006 A 
ENDROOT
BRANCH   1   8
ATOM      8  C1  UNL d   1       0.424  -2.204   0.819  0.00  0.00     0.054 C 
ATOM      9  C   UNL d   1      -0.782  -1.821  -0.027  0.00  0.00     0.018 C 
ENDBRANCH   1   8
TORSDOF 1
ENDMDL
