MODEL 1
REMARK minimizedAffinity 2.56123686
REMARK minimizedRMSD -1
REMARK  1 active torsions:
REMARK  status: ('A' for Active; 'I' for Inactive)
REMARK    1  A    between atoms: C1_2  and  C2_3 
ROOT
ATOM      1  C2  UNL d   1       1.972  -0.243   2.474  0.00  0.00    -0.081 A 
ATOM      2  C3  UNL d   1       2.630   0.917   2.047  0.00  0.00     0.006 A 
ATOM      3  C4  UNL d   1       2.242   1.559   0.868  0.00  0.00     0.002 A 
ATOM      4  C5  UNL d   1       1.185   1.056   0.102  0.00  0.00    -0.080 A 
ATOM      5  C6  UNL d   1       0.738   1.752  -1.150  0.00  0.00     0.076 C 
ATOM      6  C7  UNL d   1       0.539  -0.112   0.519  0.00  0.00     0.002 A 
ATOM      7  C8  UNL d   1       0.927  -0.755   1.697  0.00  0.00     0.006 A 
ENDROOT
BRANCH   1   8
ATOM      8  C1  UNL d   1       2.346  -0.900   3.778  0.00  0.00     0.054 C 
ATOM      9  C   UNL d   1       1.912  -2.358   3.806  0.00  0.00     0.018 C 
ENDBRANCH   1   8
TORSDOF 1
ENDMDL
