MODEL 1
REMARK minimizedAffinity 0.782485783
REMARK minimizedRMSD -1
REMARK  1 active torsions:
REMARK  status: ('A' for Active; 'I' for Inactive)
REMARK    1  A    between atoms: C1_2  and  C2_3 
ROOT
ATOM      1  C2  UNL d   1       0.206  -1.181   0.599  0.00  0.00    -0.081 A 
ATOM      2  C3  UNL d   1       0.786  -1.684   1.770  0.00  0.00     0.006 A 
ATOM      3  C4  UNL d   1       1.627  -0.882   2.546  0.00  0.00     0.002 A 
ATOM      4  C5  UNL d   1       1.895   0.438   2.168  0.00  0.00    -0.080 A 
ATOM      5  C6  UNL d   1       2.771   1.320   3.007  0.00  0.00     0.076 C 
ATOM      6  C7  UNL d   1       1.329   0.936   0.989  0.00  0.00     0.002 A 
ATOM      7  C8  UNL d   1       0.489   0.134   0.213  0.00  0.00     0.006 A 
ENDROOT
BRANCH   1   8
ATOM      8  C1  UNL d   1      -0.752  -2.023  -0.204  0.00  0.00     0.054 C 
ATOM      9  C   UNL d   1      -0.009  -2.957  -1.149  0.00  0.00     0.018 C 
ENDBRANCH   1   8
TORSDOF 1
ENDMDL
