MODEL 1
REMARK minimizedAffinity -2.14095211
REMARK minimizedRMSD -1
REMARK  1 active torsions:
REMARK  status: ('A' for Active; 'I' for Inactive)
REMARK    1  A    between atoms: C1_2  and  C2_3 
ROOT
ATOM      1  C2  UNL d   1       0.402  -1.389   0.872  0.00  0.00    -0.081 A 
ATOM      2  C3  UNL d   1       1.265  -1.481   1.972  0.00  0.00     0.006 A 
ATOM      3  C4  UNL d   1       2.164  -0.451   2.254  0.00  0.00     0.002 A 
ATOM      4  C5  UNL d   1       2.211   0.692   1.448  0.00  0.00    -0.080 A 
ATOM      5  C6  UNL d   1       3.151   1.819   1.759  0.00  0.00     0.076 C 
ATOM      6  C7  UNL d   1       1.362   0.776   0.340  0.00  0.00     0.002 A 
ATOM      7  C8  UNL d   1       0.463  -0.254   0.056  0.00  0.00     0.006 A 
ENDROOT
BRANCH   1   8
ATOM      8  C1  UNL d   1      -0.613  -2.470   0.602  0.00  0.00     0.054 C 
ATOM      9  C   UNL d   1      -0.342  -3.165  -0.724  0.00  0.00     0.018 C 
ENDBRANCH   1   8
TORSDOF 1
ENDMDL
