MODEL 1
REMARK minimizedAffinity 11.1467571
REMARK minimizedRMSD -1
REMARK  1 active torsions:
REMARK  status: ('A' for Active; 'I' for Inactive)
REMARK    1  A    between atoms: C1_2  and  C2_3 
ROOT
ATOM      1  C2  UNL d   1       4.015  -1.286  -3.788  0.00  0.00    -0.077 A 
ATOM      2  C3  UNL d   1       3.342  -0.386  -4.626  0.00  0.00     0.002 A 
ATOM      3  C4  UNL d   1       3.993   0.178  -5.726  0.00  0.00     0.002 A 
ATOM      4  C5  UNL d   1       5.317  -0.155  -5.999  0.00  0.00    -0.004 A 
ATOM      5  C6  UNL d   1       5.997  -1.048  -5.171  0.00  0.00     0.002 A 
ATOM      6  C7  UNL d   1       5.348  -1.611  -4.071  0.00  0.00     0.002 A 
ENDROOT
BRANCH   1   7
ATOM      7  C1  UNL d   1       3.300  -1.932  -2.631  0.00  0.00     0.055 C 
ATOM      8  C   UNL d   1       2.112  -2.756  -3.105  0.00  0.00     0.019 C 
ENDBRANCH   1   7
TORSDOF 1
ENDMDL
