MODEL 1
REMARK minimizedAffinity 14.2769346
REMARK minimizedRMSD -1
REMARK  1 active torsions:
REMARK  status: ('A' for Active; 'I' for Inactive)
REMARK    1  A    between atoms: C1_2  and  C2_3 
ROOT
ATOM      1  C2  UNL d   1      -4.957  -2.928  -4.550  0.00  0.00    -0.077 A 
ATOM      2  C3  UNL d   1      -4.249  -3.911  -3.845  0.00  0.00     0.002 A 
ATOM      3  C4  UNL d   1      -4.383  -5.259  -4.185  0.00  0.00     0.002 A 
ATOM      4  C5  UNL d   1      -5.221  -5.634  -5.233  0.00  0.00    -0.004 A 
ATOM      5  C6  UNL d   1      -5.931  -4.664  -5.939  0.00  0.00     0.002 A 
ATOM      6  C7  UNL d   1      -5.799  -3.317  -5.600  0.00  0.00     0.002 A 
ENDROOT
BRANCH   1   7
ATOM      7  C1  UNL d   1      -4.776  -1.470  -4.217  0.00  0.00     0.055 C 
ATOM      8  C   UNL d   1      -5.945  -0.940  -3.399  0.00  0.00     0.019 C 
ENDBRANCH   1   7
TORSDOF 1
ENDMDL
