MODEL 1
REMARK minimizedAffinity 5.81824207
REMARK minimizedRMSD -1
REMARK  1 active torsions:
REMARK  status: ('A' for Active; 'I' for Inactive)
REMARK    1  A    between atoms: C1_2  and  C2_3 
ROOT
ATOM      1  C2  UNL d   1      -3.403   2.567  -2.375  0.00  0.00    -0.077 A 
ATOM      2  C3  UNL d   1      -4.070   3.116  -3.480  0.00  0.00     0.002 A 
ATOM      3  C4  UNL d   1      -4.347   2.330  -4.600  0.00  0.00     0.002 A 
ATOM      4  C5  UNL d   1      -3.964   0.990  -4.625  0.00  0.00    -0.004 A 
ATOM      5  C6  UNL d   1      -3.298   0.436  -3.532  0.00  0.00     0.002 A 
ATOM      6  C7  UNL d   1      -3.020   1.221  -2.412  0.00  0.00     0.002 A 
ENDROOT
BRANCH   1   7
ATOM      7  C1  UNL d   1      -3.147   3.401  -1.147  0.00  0.00     0.055 C 
ATOM      8  C   UNL d   1      -2.814   2.528   0.055  0.00  0.00     0.019 C 
ENDBRANCH   1   7
TORSDOF 1
ENDMDL
