MODEL 1
REMARK minimizedAffinity 11.0457287
REMARK minimizedRMSD -1
REMARK  1 active torsions:
REMARK  status: ('A' for Active; 'I' for Inactive)
REMARK    1  A    between atoms: C1_2  and  C2_3 
ROOT
ATOM      1  C2  UNL d   1       5.298  -0.038  -5.433  0.00  0.00    -0.077 A 
ATOM      2  C3  UNL d   1       4.449   0.088  -4.325  0.00  0.00     0.002 A 
ATOM      3  C4  UNL d   1       3.835  -1.038  -3.773  0.00  0.00     0.002 A 
ATOM      4  C5  UNL d   1       4.068  -2.298  -4.320  0.00  0.00    -0.004 A 
ATOM      5  C6  UNL d   1       4.910  -2.434  -5.424  0.00  0.00     0.002 A 
ATOM      6  C7  UNL d   1       5.523  -1.309  -5.977  0.00  0.00     0.002 A 
ENDROOT
BRANCH   1   7
ATOM      7  C1  UNL d   1       5.999   1.170  -5.999  0.00  0.00     0.055 C 
ATOM      8  C   UNL d   1       5.245   2.451  -5.673  0.00  0.00     0.019 C 
ENDBRANCH   1   7
TORSDOF 1
ENDMDL
