MODEL 1
REMARK minimizedAffinity 10.6363907
REMARK minimizedRMSD -1
REMARK  1 active torsions:
REMARK  status: ('A' for Active; 'I' for Inactive)
REMARK    1  A    between atoms: C1_2  and  C2_3 
ROOT
ATOM      1  C2  UNL d   1       1.880  -3.448   2.451  0.00  0.00    -0.077 A 
ATOM      2  C3  UNL d   1       1.444  -3.086   1.169  0.00  0.00     0.002 A 
ATOM      3  C4  UNL d   1       1.061  -1.770   0.899  0.00  0.00     0.002 A 
ATOM      4  C5  UNL d   1       1.115  -0.807   1.904  0.00  0.00    -0.004 A 
ATOM      5  C6  UNL d   1       1.546  -1.158   3.183  0.00  0.00     0.002 A 
ATOM      6  C7  UNL d   1       1.928  -2.472   3.455  0.00  0.00     0.002 A 
ENDROOT
BRANCH   1   7
ATOM      7  C1  UNL d   1       2.341  -4.855   2.732  0.00  0.00     0.055 C 
ATOM      8  C   UNL d   1       2.207  -5.737   1.499  0.00  0.00     0.019 C 
ENDBRANCH   1   7
TORSDOF 1
ENDMDL
