MODEL 1
REMARK minimizedAffinity 7.91808653
REMARK minimizedRMSD -1
REMARK  1 active torsions:
REMARK  status: ('A' for Active; 'I' for Inactive)
REMARK    1  A    between atoms: C1_2  and  C2_3 
ROOT
ATOM      1  C2  UNL d   1       2.157   2.238   0.497  0.00  0.00    -0.077 A 
ATOM      2  C3  UNL d   1       1.019   2.874   1.013  0.00  0.00     0.002 A 
ATOM      3  C4  UNL d   1       0.570   4.075   0.459  0.00  0.00     0.002 A 
ATOM      4  C5  UNL d   1       1.250   4.646  -0.614  0.00  0.00    -0.004 A 
ATOM      5  C6  UNL d   1       2.383   4.022  -1.133  0.00  0.00     0.002 A 
ATOM      6  C7  UNL d   1       2.835   2.822  -0.580  0.00  0.00     0.002 A 
ENDROOT
BRANCH   1   7
ATOM      7  C1  UNL d   1       2.614   0.918   1.061  0.00  0.00     0.055 C 
ATOM      8  C   UNL d   1       1.447   0.124   1.628  0.00  0.00     0.019 C 
ENDBRANCH   1   7
TORSDOF 1
ENDMDL
