MODEL 1
REMARK minimizedAffinity 1.13393426
REMARK minimizedRMSD -1
REMARK  1 active torsions:
REMARK  status: ('A' for Active; 'I' for Inactive)
REMARK    1  A    between atoms: C1_2  and  C2_3 
ROOT
ATOM      1  C2  UNL d   1       3.783  -1.525  -4.515  0.00  0.00    -0.077 A 
ATOM      2  C3  UNL d   1       2.946  -0.418  -4.710  0.00  0.00     0.002 A 
ATOM      3  C4  UNL d   1       3.389   0.682  -5.447  0.00  0.00     0.002 A 
ATOM      4  C5  UNL d   1       4.668   0.683  -5.999  0.00  0.00    -0.004 A 
ATOM      5  C6  UNL d   1       5.509  -0.412  -5.810  0.00  0.00     0.002 A 
ATOM      6  C7  UNL d   1       5.068  -1.512  -5.072  0.00  0.00     0.002 A 
ENDROOT
BRANCH   1   7
ATOM      7  C1  UNL d   1       3.290  -2.733  -3.762  0.00  0.00     0.055 C 
ATOM      8  C   UNL d   1       1.778  -2.701  -3.595  0.00  0.00     0.019 C 
ENDBRANCH   1   7
TORSDOF 1
ENDMDL
