MODEL 1
REMARK minimizedAffinity -0.795285761
REMARK minimizedRMSD -1
REMARK  1 active torsions:
REMARK  status: ('A' for Active; 'I' for Inactive)
REMARK    1  A    between atoms: C1_2  and  C2_3 
ROOT
ATOM      1  C2  UNL d   1       3.572   5.317  -2.970  0.00  0.00    -0.077 A 
ATOM      2  C3  UNL d   1       4.689   5.658  -2.194  0.00  0.00     0.002 A 
ATOM      3  C4  UNL d   1       5.897   5.995  -2.805  0.00  0.00     0.002 A 
ATOM      4  C5  UNL d   1       6.000   5.999  -4.195  0.00  0.00    -0.004 A 
ATOM      5  C6  UNL d   1       4.896   5.659  -4.975  0.00  0.00     0.002 A 
ATOM      6  C7  UNL d   1       3.687   5.321  -4.366  0.00  0.00     0.002 A 
ENDROOT
BRANCH   1   7
ATOM      7  C1  UNL d   1       2.254   5.001  -2.313  0.00  0.00     0.055 C 
ATOM      8  C   UNL d   1       2.354   3.759  -1.439  0.00  0.00     0.019 C 
ENDBRANCH   1   7
TORSDOF 1
ENDMDL
