MODEL 1
REMARK minimizedAffinity 2.45823646
REMARK minimizedRMSD -1
REMARK  1 active torsions:
REMARK  status: ('A' for Active; 'I' for Inactive)
REMARK    1  A    between atoms: C1_2  and  C2_3 
ROOT
ATOM      1  C2  UNL d   1       5.456  -3.688  -4.851  0.00  0.00    -0.077 A 
ATOM      2  C3  UNL d   1       5.998  -2.853  -5.839  0.00  0.00     0.002 A 
ATOM      3  C4  UNL d   1       5.524  -1.550  -6.000  0.00  0.00     0.002 A 
ATOM      4  C5  UNL d   1       4.510  -1.068  -5.175  0.00  0.00    -0.004 A 
ATOM      5  C6  UNL d   1       3.964  -1.891  -4.191  0.00  0.00     0.002 A 
ATOM      6  C7  UNL d   1       4.435  -3.195  -4.029  0.00  0.00     0.002 A 
ENDROOT
BRANCH   1   7
ATOM      7  C1  UNL d   1       6.000  -5.077  -4.643  0.00  0.00     0.055 C 
ATOM      8  C   UNL d   1       5.772  -5.950  -5.869  0.00  0.00     0.019 C 
ENDBRANCH   1   7
TORSDOF 1
ENDMDL
