MODEL 1
REMARK minimizedAffinity -5.82911539
REMARK minimizedRMSD -1
REMARK  1 active torsions:
REMARK  status: ('A' for Active; 'I' for Inactive)
REMARK    1  A    between atoms: C1_2  and  C2_3 
ROOT
ATOM      1  C2  UNL d   1       0.101   0.205  -0.007  0.00  0.00    -0.073 A 
ATOM      2  C3  UNL d   1      -0.012  -0.427   1.236  0.00  0.00    -0.002 A 
ATOM      3  C4  UNL d   1      -0.710   0.186   2.278  0.00  0.00     0.004 A 
ATOM      4  C5  UNL d   1      -1.307   1.431   2.085  0.00  0.00    -0.004 A 
ATOM      5  C6  UNL d   1      -1.215   2.074   0.846  0.00  0.00    -0.075 A 
ATOM      6  C7  UNL d   1      -1.850   3.415   0.624  0.00  0.00     0.076 C 
ATOM      7  C8  UNL d   1      -0.510   1.453  -0.194  0.00  0.00     0.001 A 
ENDROOT
BRANCH   1   8
ATOM      8  C1  UNL d   1       0.848  -0.455  -1.136  0.00  0.00     0.053 C 
ATOM      9  C   UNL d   1       0.498  -1.929  -1.267  0.00  0.00     0.018 C 
ENDBRANCH   1   8
TORSDOF 1
ENDMDL
