MODEL 1
REMARK minimizedAffinity -5.24298191
REMARK minimizedRMSD -1
REMARK  1 active torsions:
REMARK  status: ('A' for Active; 'I' for Inactive)
REMARK    1  A    between atoms: C1_2  and  C2_3 
ROOT
ATOM      1  C2  UNL d   1       0.188  -0.050  -0.089  0.00  0.00    -0.073 A 
ATOM      2  C3  UNL d   1       0.355  -0.852   1.046  0.00  0.00    -0.002 A 
ATOM      3  C4  UNL d   1      -0.363  -0.583   2.212  0.00  0.00     0.004 A 
ATOM      4  C5  UNL d   1      -1.260   0.485   2.253  0.00  0.00    -0.004 A 
ATOM      5  C6  UNL d   1      -1.449   1.291   1.125  0.00  0.00    -0.075 A 
ATOM      6  C7  UNL d   1      -2.408   2.445   1.154  0.00  0.00     0.076 C 
ATOM      7  C8  UNL d   1      -0.722   1.015  -0.041  0.00  0.00     0.001 A 
ENDROOT
BRANCH   1   8
ATOM      8  C1  UNL d   1       0.957  -0.341  -1.351  0.00  0.00     0.053 C 
ATOM      9  C   UNL d   1       0.641  -1.721  -1.907  0.00  0.00     0.018 C 
ENDBRANCH   1   8
TORSDOF 1
ENDMDL
