MODEL 1
REMARK minimizedAffinity -5.62405348
REMARK minimizedRMSD -1
REMARK  1 active torsions:
REMARK  status: ('A' for Active; 'I' for Inactive)
REMARK    1  A    between atoms: C1_2  and  C2_3 
ROOT
ATOM      1  C2  UNL d   1       0.091  -0.153  -0.378  0.00  0.00    -0.073 A 
ATOM      2  C3  UNL d   1       0.597  -0.474   0.886  0.00  0.00    -0.002 A 
ATOM      3  C4  UNL d   1      -0.018   0.017   2.038  0.00  0.00     0.004 A 
ATOM      4  C5  UNL d   1      -1.148   0.828   1.938  0.00  0.00    -0.004 A 
ATOM      5  C6  UNL d   1      -1.676   1.151   0.684  0.00  0.00    -0.075 A 
ATOM      6  C7  UNL d   1      -2.890   2.025   0.560  0.00  0.00     0.076 C 
ATOM      7  C8  UNL d   1      -1.051   0.656  -0.468  0.00  0.00     0.001 A 
ENDROOT
BRANCH   1   8
ATOM      8  C1  UNL d   1       0.749  -0.686  -1.625  0.00  0.00     0.053 C 
ATOM      9  C   UNL d   1       0.853  -2.203  -1.609  0.00  0.00     0.018 C 
ENDBRANCH   1   8
TORSDOF 1
ENDMDL
