MODEL 1
REMARK minimizedAffinity -4.72785711
REMARK minimizedRMSD -1
REMARK  1 active torsions:
REMARK  status: ('A' for Active; 'I' for Inactive)
REMARK    1  A    between atoms: C1_2  and  C2_3 
ROOT
ATOM      1  C2  UNL d   1       0.248  -0.003  -0.015  0.00  0.00    -0.073 A 
ATOM      2  C3  UNL d   1       0.141  -0.888   1.064  0.00  0.00    -0.002 A 
ATOM      3  C4  UNL d   1      -0.791  -0.655   2.077  0.00  0.00     0.004 A 
ATOM      4  C5  UNL d   1      -1.627   0.459   2.019  0.00  0.00    -0.004 A 
ATOM      5  C6  UNL d   1      -1.543   1.348   0.943  0.00  0.00    -0.075 A 
ATOM      6  C7  UNL d   1      -2.435   2.553   0.866  0.00  0.00     0.076 C 
ATOM      7  C8  UNL d   1      -0.604   1.109  -0.069  0.00  0.00     0.001 A 
ENDROOT
BRANCH   1   8
ATOM      8  C1  UNL d   1       1.248  -0.254  -1.114  0.00  0.00     0.053 C 
ATOM      9  C   UNL d   1       1.372  -1.733  -1.445  0.00  0.00     0.018 C 
ENDBRANCH   1   8
TORSDOF 1
ENDMDL
