MODEL 1
REMARK minimizedAffinity -4.79754734
REMARK minimizedRMSD -1
REMARK  1 active torsions:
REMARK  status: ('A' for Active; 'I' for Inactive)
REMARK    1  A    between atoms: C1_2  and  C2_3 
ROOT
ATOM      1  C2  UNL d   1       0.469  -1.576  -1.407  0.00  0.00    -0.073 A 
ATOM      2  C3  UNL d   1       0.062  -1.610  -2.746  0.00  0.00    -0.002 A 
ATOM      3  C4  UNL d   1       0.042  -2.818  -3.446  0.00  0.00     0.004 A 
ATOM      4  C5  UNL d   1       0.420  -4.002  -2.814  0.00  0.00    -0.004 A 
ATOM      5  C6  UNL d   1       0.818  -3.990  -1.473  0.00  0.00    -0.075 A 
ATOM      6  C7  UNL d   1       1.231  -5.255  -0.779  0.00  0.00     0.076 C 
ATOM      7  C8  UNL d   1       0.839  -2.773  -0.778  0.00  0.00     0.001 A 
ENDROOT
BRANCH   1   8
ATOM      8  C1  UNL d   1       0.487  -0.276  -0.645  0.00  0.00     0.053 C 
ATOM      9  C   UNL d   1      -0.462  -0.299   0.543  0.00  0.00     0.018 C 
ENDBRANCH   1   8
TORSDOF 1
ENDMDL
