MODEL 1
REMARK minimizedAffinity -4.77322435
REMARK minimizedRMSD -1
REMARK  1 active torsions:
REMARK  status: ('A' for Active; 'I' for Inactive)
REMARK    1  A    between atoms: C1_2  and  C2_3 
ROOT
ATOM      1  C2  UNL d   1       0.315   0.099  -0.125  0.00  0.00    -0.073 A 
ATOM      2  C3  UNL d   1       0.404  -0.613   1.077  0.00  0.00    -0.002 A 
ATOM      3  C4  UNL d   1      -0.343  -0.218   2.187  0.00  0.00     0.004 A 
ATOM      4  C5  UNL d   1      -1.191   0.886   2.106  0.00  0.00    -0.004 A 
ATOM      5  C6  UNL d   1      -1.303   1.604   0.911  0.00  0.00    -0.075 A 
ATOM      6  C7  UNL d   1      -2.209   2.796   0.808  0.00  0.00     0.076 C 
ATOM      7  C8  UNL d   1      -0.547   1.203  -0.199  0.00  0.00     0.001 A 
ENDROOT
BRANCH   1   8
ATOM      8  C1  UNL d   1       1.115  -0.327  -1.328  0.00  0.00     0.053 C 
ATOM      9  C   UNL d   1       0.893  -1.792  -1.671  0.00  0.00     0.018 C 
ENDBRANCH   1   8
TORSDOF 1
ENDMDL
