MODEL 1
REMARK minimizedAffinity -5.24498653
REMARK minimizedRMSD -1
REMARK  1 active torsions:
REMARK  status: ('A' for Active; 'I' for Inactive)
REMARK    1  A    between atoms: C1_2  and  C2_3 
ROOT
ATOM      1  C2  UNL d   1      -0.802   1.706   0.203  0.00  0.00    -0.073 A 
ATOM      2  C3  UNL d   1      -0.987   1.645   1.589  0.00  0.00    -0.002 A 
ATOM      3  C4  UNL d   1      -0.623   0.500   2.299  0.00  0.00     0.004 A 
ATOM      4  C5  UNL d   1      -0.065  -0.591   1.632  0.00  0.00    -0.004 A 
ATOM      5  C6  UNL d   1       0.138  -0.545   0.249  0.00  0.00    -0.075 A 
ATOM      6  C7  UNL d   1       0.734  -1.711  -0.483  0.00  0.00     0.076 C 
ATOM      7  C8  UNL d   1      -0.233   0.608  -0.457  0.00  0.00     0.001 A 
ENDROOT
BRANCH   1   8
ATOM      8  C1  UNL d   1      -1.188   2.943  -0.567  0.00  0.00     0.053 C 
ATOM      9  C   UNL d   1      -0.078   3.404  -1.498  0.00  0.00     0.018 C 
ENDBRANCH   1   8
TORSDOF 1
ENDMDL
