MODEL 1
REMARK minimizedAffinity -6.1460743
REMARK minimizedRMSD -1
REMARK  1 active torsions:
REMARK  status: ('A' for Active; 'I' for Inactive)
REMARK    1  A    between atoms: C1_2  and  C2_3 
ROOT
ATOM      1  C2  UNL d   1      -0.104   0.672   0.432  0.00  0.00    -0.073 A 
ATOM      2  C3  UNL d   1      -1.172   0.999   1.276  0.00  0.00    -0.002 A 
ATOM      3  C4  UNL d   1      -1.788   2.248   1.182  0.00  0.00     0.004 A 
ATOM      4  C5  UNL d   1      -1.348   3.178   0.241  0.00  0.00    -0.004 A 
ATOM      5  C6  UNL d   1      -0.290   2.866  -0.619  0.00  0.00    -0.075 A 
ATOM      6  C7  UNL d   1       0.197   3.857  -1.635  0.00  0.00     0.076 C 
ATOM      7  C8  UNL d   1       0.325   1.611  -0.517  0.00  0.00     0.001 A 
ENDROOT
BRANCH   1   8
ATOM      8  C1  UNL d   1       0.560  -0.677   0.526  0.00  0.00     0.053 C 
ATOM      9  C   UNL d   1       1.324  -1.025  -0.742  0.00  0.00     0.018 C 
ENDBRANCH   1   8
TORSDOF 1
ENDMDL
