MODEL 1
REMARK minimizedAffinity -4.70570326
REMARK minimizedRMSD -1
REMARK  1 active torsions:
REMARK  status: ('A' for Active; 'I' for Inactive)
REMARK    1  A    between atoms: C1_2  and  C2_3 
ROOT
ATOM      1  C2  UNL d   1       0.055  -0.407  -0.199  0.00  0.00    -0.073 A 
ATOM      2  C3  UNL d   1       0.377  -1.019   1.018  0.00  0.00    -0.002 A 
ATOM      3  C4  UNL d   1      -0.104  -0.497   2.219  0.00  0.00     0.004 A 
ATOM      4  C5  UNL d   1      -0.916   0.637   2.216  0.00  0.00    -0.004 A 
ATOM      5  C6  UNL d   1      -1.259   1.256   1.010  0.00  0.00    -0.075 A 
ATOM      6  C7  UNL d   1      -2.130   2.477   0.989  0.00  0.00     0.076 C 
ATOM      7  C8  UNL d   1      -0.770   0.727  -0.192  0.00  0.00     0.001 A 
ENDROOT
BRANCH   1   8
ATOM      8  C1  UNL d   1       0.567  -0.972  -1.499  0.00  0.00     0.053 C 
ATOM      9  C   UNL d   1       0.625  -2.491  -1.477  0.00  0.00     0.018 C 
ENDBRANCH   1   8
TORSDOF 1
ENDMDL
