MODEL 1
REMARK minimizedAffinity -4.53759384
REMARK minimizedRMSD -1
REMARK  1 active torsions:
REMARK  status: ('A' for Active; 'I' for Inactive)
REMARK    1  A    between atoms: C1_2  and  C2_3 
ROOT
ATOM      1  C2  UNL d   1       0.149   0.947   0.187  0.00  0.00    -0.073 A 
ATOM      2  C3  UNL d   1       0.954   1.592  -0.759  0.00  0.00    -0.002 A 
ATOM      3  C4  UNL d   1       0.715   2.925  -1.097  0.00  0.00     0.004 A 
ATOM      4  C5  UNL d   1      -0.325   3.628  -0.487  0.00  0.00    -0.004 A 
ATOM      5  C6  UNL d   1      -1.132   3.004   0.470  0.00  0.00    -0.075 A 
ATOM      6  C7  UNL d   1      -2.256   3.745   1.133  0.00  0.00     0.076 C 
ATOM      7  C8  UNL d   1      -0.887   1.664   0.801  0.00  0.00     0.001 A 
ENDROOT
BRANCH   1   8
ATOM      8  C1  UNL d   1       0.408  -0.490   0.559  0.00  0.00     0.053 C 
ATOM      9  C   UNL d   1       0.790  -1.332  -0.648  0.00  0.00     0.018 C 
ENDBRANCH   1   8
TORSDOF 1
ENDMDL
