MODEL 1
REMARK minimizedAffinity -4.97710609
REMARK minimizedRMSD -1
REMARK  1 active torsions:
REMARK  status: ('A' for Active; 'I' for Inactive)
REMARK    1  A    between atoms: C1_2  and  C2_3 
ROOT
ATOM      1  C2  UNL d   1      -0.014  -0.075   0.200  0.00  0.00    -0.073 A 
ATOM      2  C3  UNL d   1      -0.025  -1.005   1.245  0.00  0.00    -0.002 A 
ATOM      3  C4  UNL d   1      -0.854  -0.815   2.351  0.00  0.00     0.004 A 
ATOM      4  C5  UNL d   1      -1.686   0.303   2.420  0.00  0.00    -0.004 A 
ATOM      5  C6  UNL d   1      -1.699   1.238   1.380  0.00  0.00    -0.075 A 
ATOM      6  C7  UNL d   1      -2.587   2.446   1.439  0.00  0.00     0.076 C 
ATOM      7  C8  UNL d   1      -0.861   1.041   0.274  0.00  0.00     0.001 A 
ENDROOT
BRANCH   1   8
ATOM      8  C1  UNL d   1       0.875  -0.280  -0.999  0.00  0.00     0.053 C 
ATOM      9  C   UNL d   1       0.584  -1.594  -1.706  0.00  0.00     0.018 C 
ENDBRANCH   1   8
TORSDOF 1
ENDMDL
