MODEL 1
REMARK minimizedAffinity -5.90354252
REMARK minimizedRMSD -1
REMARK  1 active torsions:
REMARK  status: ('A' for Active; 'I' for Inactive)
REMARK    1  A    between atoms: C1_2  and  C2_3 
ROOT
ATOM      1  C2  UNL d   1      -0.994   3.294  -0.724  0.00  0.00    -0.073 A 
ATOM      2  C3  UNL d   1      -1.810   3.929   0.219  0.00  0.00    -0.002 A 
ATOM      3  C4  UNL d   1      -2.442   3.186   1.217  0.00  0.00     0.004 A 
ATOM      4  C5  UNL d   1      -2.259   1.805   1.287  0.00  0.00    -0.004 A 
ATOM      5  C6  UNL d   1      -1.438   1.155   0.361  0.00  0.00    -0.075 A 
ATOM      6  C7  UNL d   1      -1.232  -0.331   0.422  0.00  0.00     0.076 C 
ATOM      7  C8  UNL d   1      -0.809   1.906  -0.640  0.00  0.00     0.001 A 
ENDROOT
BRANCH   1   8
ATOM      8  C1  UNL d   1      -0.304   4.092  -1.800  0.00  0.00     0.053 C 
ATOM      9  C   UNL d   1      -1.275   4.979  -2.563  0.00  0.00     0.018 C 
ENDBRANCH   1   8
TORSDOF 1
ENDMDL
