MODEL 1
REMARK minimizedAffinity 1.21614802
REMARK minimizedRMSD -1
REMARK  0 active torsions:
REMARK  status: ('A' for Active; 'I' for Inactive)
ROOT
ATOM      1  C   UNL d   1      -4.102   2.114   3.411  0.00  0.00     0.078 C 
ATOM      2  C1  UNL d   1      -4.754   3.456   3.561  0.00  0.00    -0.077 A 
ATOM      3  C2  UNL d   1      -4.763   4.120   4.794  0.00  0.00    -0.001 A 
ATOM      4  C3  UNL d   1      -5.382   5.364   4.921  0.00  0.00     0.003 A 
ATOM      5  C4  UNL d   1      -5.997   5.956   3.820  0.00  0.00    -0.005 A 
ATOM      6  C5  UNL d   1      -5.995   5.302   2.589  0.00  0.00     0.003 A 
ATOM      7  C6  UNL d   1      -5.377   4.057   2.460  0.00  0.00    -0.001 A 
ENDROOT
TORSDOF 0
ENDMDL
