MODEL 1
REMARK minimizedAffinity 5.43983412
REMARK minimizedRMSD -1
REMARK  0 active torsions:
REMARK  status: ('A' for Active; 'I' for Inactive)
ROOT
ATOM      1  C   UNL d   1      -4.602  -6.000  -1.129  0.00  0.00     0.078 C 
ATOM      2  C1  UNL d   1      -4.816  -5.378  -2.477  0.00  0.00    -0.077 A 
ATOM      3  C2  UNL d   1      -5.640  -4.257  -2.631  0.00  0.00    -0.001 A 
ATOM      4  C3  UNL d   1      -5.837  -3.694  -3.893  0.00  0.00     0.003 A 
ATOM      5  C4  UNL d   1      -5.215  -4.247  -5.011  0.00  0.00    -0.005 A 
ATOM      6  C5  UNL d   1      -4.395  -5.364  -4.867  0.00  0.00     0.003 A 
ATOM      7  C6  UNL d   1      -4.196  -5.928  -3.606  0.00  0.00    -0.001 A 
ENDROOT
TORSDOF 0
ENDMDL
