MODEL 1
REMARK minimizedAffinity 0.116915077
REMARK minimizedRMSD -1
REMARK  0 active torsions:
REMARK  status: ('A' for Active; 'I' for Inactive)
ROOT
ATOM      1  C   UNL d   1       6.000   3.038   1.106  0.00  0.00     0.078 C 
ATOM      2  C1  UNL d   1       5.418   1.674   0.880  0.00  0.00    -0.077 A 
ATOM      3  C2  UNL d   1       4.288   1.497   0.072  0.00  0.00    -0.001 A 
ATOM      4  C3  UNL d   1       3.752   0.223  -0.122  0.00  0.00     0.003 A 
ATOM      5  C4  UNL d   1       4.338  -0.883   0.490  0.00  0.00    -0.005 A 
ATOM      6  C5  UNL d   1       5.461  -0.716   1.297  0.00  0.00     0.003 A 
ATOM      7  C6  UNL d   1       5.999   0.557   1.492  0.00  0.00    -0.001 A 
ENDROOT
TORSDOF 0
ENDMDL
