MODEL 1
REMARK minimizedAffinity 8.12427616
REMARK minimizedRMSD -1
REMARK  0 active torsions:
REMARK  status: ('A' for Active; 'I' for Inactive)
ROOT
ATOM      1  C   UNL d   1      -5.939  -3.373  -4.358  0.00  0.00     0.078 C 
ATOM      2  C1  UNL d   1      -5.265  -4.224  -3.323  0.00  0.00    -0.077 A 
ATOM      3  C2  UNL d   1      -3.902  -4.074  -3.042  0.00  0.00    -0.001 A 
ATOM      4  C3  UNL d   1      -3.285  -4.879  -2.084  0.00  0.00     0.003 A 
ATOM      5  C4  UNL d   1      -4.025  -5.841  -1.398  0.00  0.00    -0.005 A 
ATOM      6  C5  UNL d   1      -5.381  -6.000  -1.672  0.00  0.00     0.003 A 
ATOM      7  C6  UNL d   1      -6.000  -5.195  -2.631  0.00  0.00    -0.001 A 
ENDROOT
TORSDOF 0
ENDMDL
