MODEL 1
REMARK minimizedAffinity -1.56348276
REMARK minimizedRMSD -1
REMARK  0 active torsions:
REMARK  status: ('A' for Active; 'I' for Inactive)
ROOT
ATOM      1  C   UNL d   1      -4.856  -5.999  -0.761  0.00  0.00     0.078 C 
ATOM      2  C1  UNL d   1      -4.928  -5.495  -2.171  0.00  0.00    -0.077 A 
ATOM      3  C2  UNL d   1      -5.926  -4.595  -2.565  0.00  0.00    -0.001 A 
ATOM      4  C3  UNL d   1      -5.987  -4.141  -3.883  0.00  0.00     0.003 A 
ATOM      5  C4  UNL d   1      -5.054  -4.583  -4.819  0.00  0.00    -0.005 A 
ATOM      6  C5  UNL d   1      -4.059  -5.480  -4.437  0.00  0.00     0.003 A 
ATOM      7  C6  UNL d   1      -3.996  -5.935  -3.119  0.00  0.00    -0.001 A 
ENDROOT
TORSDOF 0
ENDMDL
