MODEL 1
REMARK minimizedAffinity -2.54776525
REMARK minimizedRMSD -1
REMARK  0 active torsions:
REMARK  status: ('A' for Active; 'I' for Inactive)
ROOT
ATOM      1  C   UNL d   1      -2.607  -4.503  -6.000  0.00  0.00     0.078 C 
ATOM      2  C1  UNL d   1      -3.586  -4.827  -4.912  0.00  0.00    -0.077 A 
ATOM      3  C2  UNL d   1      -3.245  -5.699  -3.871  0.00  0.00    -0.001 A 
ATOM      4  C3  UNL d   1      -4.170  -5.999  -2.869  0.00  0.00     0.003 A 
ATOM      5  C4  UNL d   1      -5.443  -5.433  -2.900  0.00  0.00    -0.005 A 
ATOM      6  C5  UNL d   1      -5.792  -4.566  -3.933  0.00  0.00     0.003 A 
ATOM      7  C6  UNL d   1      -4.869  -4.265  -4.935  0.00  0.00    -0.001 A 
ENDROOT
TORSDOF 0
ENDMDL
