MODEL 1
REMARK minimizedAffinity 1.31531811
REMARK minimizedRMSD -1
REMARK  0 active torsions:
REMARK  status: ('A' for Active; 'I' for Inactive)
ROOT
ATOM      1  C   UNL d   1      -0.835  -3.820   2.009  0.00  0.00     0.078 C 
ATOM      2  C1  UNL d   1      -1.320  -3.205   0.730  0.00  0.00    -0.077 A 
ATOM      3  C2  UNL d   1      -2.560  -3.561   0.185  0.00  0.00    -0.001 A 
ATOM      4  C3  UNL d   1      -2.995  -2.989  -1.011  0.00  0.00     0.003 A 
ATOM      5  C4  UNL d   1      -2.197  -2.058  -1.673  0.00  0.00    -0.005 A 
ATOM      6  C5  UNL d   1      -0.961  -1.699  -1.139  0.00  0.00     0.003 A 
ATOM      7  C6  UNL d   1      -0.524  -2.271   0.057  0.00  0.00    -0.001 A 
ENDROOT
TORSDOF 0
ENDMDL
