MODEL 1
REMARK minimizedAffinity -2.20858192
REMARK minimizedRMSD -1
REMARK  0 active torsions:
REMARK  status: ('A' for Active; 'I' for Inactive)
ROOT
ATOM      1  C   UNL d   1      -2.607  -6.000  -2.019  0.00  0.00     0.078 C 
ATOM      2  C1  UNL d   1      -3.659  -5.624  -3.019  0.00  0.00    -0.077 A 
ATOM      3  C2  UNL d   1      -3.314  -5.255  -4.324  0.00  0.00    -0.001 A 
ATOM      4  C3  UNL d   1      -4.303  -4.898  -5.242  0.00  0.00     0.003 A 
ATOM      5  C4  UNL d   1      -5.644  -4.907  -4.864  0.00  0.00    -0.005 A 
ATOM      6  C5  UNL d   1      -5.998  -5.271  -3.567  0.00  0.00     0.003 A 
ATOM      7  C6  UNL d   1      -5.010  -5.628  -2.647  0.00  0.00    -0.001 A 
ENDROOT
TORSDOF 0
ENDMDL
