MODEL 1
REMARK minimizedAffinity 11.1300688
REMARK minimizedRMSD -1
REMARK  0 active torsions:
REMARK  status: ('A' for Active; 'I' for Inactive)
ROOT
ATOM      1  C   UNL d   1       1.036   1.225   1.959  0.00  0.00     0.078 C 
ATOM      2  C1  UNL d   1       2.441   0.871   1.574  0.00  0.00    -0.077 A 
ATOM      3  C2  UNL d   1       3.037  -0.312   2.027  0.00  0.00    -0.001 A 
ATOM      4  C3  UNL d   1       4.350  -0.624   1.668  0.00  0.00     0.003 A 
ATOM      5  C4  UNL d   1       5.077   0.242   0.855  0.00  0.00    -0.005 A 
ATOM      6  C5  UNL d   1       4.493   1.423   0.401  0.00  0.00     0.003 A 
ATOM      7  C6  UNL d   1       3.181   1.737   0.758  0.00  0.00    -0.001 A 
ENDROOT
TORSDOF 0
ENDMDL
