MODEL 1
REMARK minimizedAffinity 2.17235661
REMARK minimizedRMSD -1
REMARK  0 active torsions:
REMARK  status: ('A' for Active; 'I' for Inactive)
ROOT
ATOM      1  C   UNL d   1      -1.531  -2.262  -5.986  0.00  0.00     0.078 C 
ATOM      2  C1  UNL d   1      -0.090  -2.678  -5.983  0.00  0.00    -0.077 A 
ATOM      3  C2  UNL d   1       0.270  -4.031  -5.952  0.00  0.00    -0.001 A 
ATOM      4  C3  UNL d   1       1.615  -4.403  -5.939  0.00  0.00     0.003 A 
ATOM      5  C4  UNL d   1       2.611  -3.429  -5.956  0.00  0.00    -0.005 A 
ATOM      6  C5  UNL d   1       2.262  -2.080  -5.985  0.00  0.00     0.003 A 
ATOM      7  C6  UNL d   1       0.918  -1.706  -5.998  0.00  0.00    -0.001 A 
ENDROOT
TORSDOF 0
ENDMDL
