MODEL 1
REMARK minimizedAffinity 3.59304833
REMARK minimizedRMSD -1
REMARK  0 active torsions:
REMARK  status: ('A' for Active; 'I' for Inactive)
ROOT
ATOM      1  C   UNL d   1       3.066  -4.246  -5.996  0.00  0.00     0.078 C 
ATOM      2  C1  UNL d   1       1.663  -3.716  -5.990  0.00  0.00    -0.077 A 
ATOM      3  C2  UNL d   1       0.564  -4.584  -5.996  0.00  0.00    -0.001 A 
ATOM      4  C3  UNL d   1      -0.736  -4.076  -6.000  0.00  0.00     0.003 A 
ATOM      5  C4  UNL d   1      -0.950  -2.699  -6.000  0.00  0.00    -0.005 A 
ATOM      6  C5  UNL d   1       0.138  -1.828  -5.996  0.00  0.00     0.003 A 
ATOM      7  C6  UNL d   1       1.439  -2.334  -5.992  0.00  0.00    -0.001 A 
ENDROOT
TORSDOF 0
ENDMDL
