MODEL 1
REMARK minimizedAffinity -3.88002253
REMARK minimizedRMSD -1
REMARK  0 active torsions:
REMARK  status: ('A' for Active; 'I' for Inactive)
ROOT
ATOM      1  C   UNL d   1       4.502   2.991   0.715  0.00  0.00     0.078 C 
ATOM      2  C1  UNL d   1       4.864   3.865   1.878  0.00  0.00    -0.077 A 
ATOM      3  C2  UNL d   1       5.678   3.389   2.912  0.00  0.00    -0.001 A 
ATOM      4  C3  UNL d   1       6.000   4.211   3.993  0.00  0.00     0.003 A 
ATOM      5  C4  UNL d   1       5.510   5.514   4.051  0.00  0.00    -0.005 A 
ATOM      6  C5  UNL d   1       4.697   5.997   3.027  0.00  0.00     0.003 A 
ATOM      7  C6  UNL d   1       4.375   5.176   1.945  0.00  0.00    -0.001 A 
ENDROOT
TORSDOF 0
ENDMDL
