MODEL 1
REMARK minimizedAffinity 1.99850142
REMARK minimizedRMSD -1
REMARK  0 active torsions:
REMARK  status: ('A' for Active; 'I' for Inactive)
ROOT
ATOM      1  C   UNL d   1      -2.214  -3.405  -5.147  0.00  0.00     0.078 C 
ATOM      2  C1  UNL d   1      -3.157  -3.865  -4.076  0.00  0.00    -0.077 A 
ATOM      3  C2  UNL d   1      -2.761  -3.898  -2.733  0.00  0.00    -0.001 A 
ATOM      4  C3  UNL d   1      -3.646  -4.338  -1.747  0.00  0.00     0.003 A 
ATOM      5  C4  UNL d   1      -4.932  -4.748  -2.093  0.00  0.00    -0.005 A 
ATOM      6  C5  UNL d   1      -5.334  -4.721  -3.427  0.00  0.00     0.003 A 
ATOM      7  C6  UNL d   1      -4.450  -4.282  -4.414  0.00  0.00    -0.001 A 
ENDROOT
TORSDOF 0
ENDMDL
