MODEL 1
REMARK minimizedAffinity 1.76183152
REMARK minimizedRMSD -1
REMARK  1 active torsions:
REMARK  status: ('A' for Active; 'I' for Inactive)
REMARK    1  A    between atoms: C1_2  and  C2_3 
ROOT
ATOM      1  C2  UNL d   1       2.885  -3.832  -1.880  0.00  0.00    -0.077 A 
ATOM      2  C3  UNL d   1       3.165  -2.734  -1.054  0.00  0.00     0.002 A 
ATOM      3  C4  UNL d   1       3.735  -1.576  -1.588  0.00  0.00     0.002 A 
ATOM      4  C5  UNL d   1       4.024  -1.504  -2.949  0.00  0.00    -0.004 A 
ATOM      5  C6  UNL d   1       3.751  -2.591  -3.778  0.00  0.00     0.002 A 
ATOM      6  C7  UNL d   1       3.183  -3.749  -3.246  0.00  0.00     0.002 A 
ENDROOT
BRANCH   1   7
ATOM      7  C1  UNL d   1       2.225  -5.063  -1.316  0.00  0.00     0.055 C 
ATOM      8  C   UNL d   1       0.812  -4.764  -0.836  0.00  0.00     0.019 C 
ENDBRANCH   1   7
TORSDOF 1
ENDMDL
