MODEL 1
REMARK minimizedAffinity 2.95919609
REMARK minimizedRMSD -1
REMARK  1 active torsions:
REMARK  status: ('A' for Active; 'I' for Inactive)
REMARK    1  A    between atoms: C1_2  and  C2_3 
ROOT
ATOM      1  C2  UNL d   1      -0.375   4.302  -0.625  0.00  0.00    -0.077 A 
ATOM      2  C3  UNL d   1      -0.446   3.299  -1.602  0.00  0.00     0.002 A 
ATOM      3  C4  UNL d   1      -0.394   1.952  -1.236  0.00  0.00     0.002 A 
ATOM      4  C5  UNL d   1      -0.275   1.597   0.106  0.00  0.00    -0.004 A 
ATOM      5  C6  UNL d   1      -0.202   2.587   1.085  0.00  0.00     0.002 A 
ATOM      6  C7  UNL d   1      -0.252   3.933   0.721  0.00  0.00     0.002 A 
ENDROOT
BRANCH   1   7
ATOM      7  C1  UNL d   1      -0.480   5.754  -1.012  0.00  0.00     0.055 C 
ATOM      8  C   UNL d   1      -1.496   5.956  -2.128  0.00  0.00     0.019 C 
ENDBRANCH   1   7
TORSDOF 1
ENDMDL
