MODEL 1
REMARK minimizedAffinity 0.553294539
REMARK minimizedRMSD -1
REMARK  1 active torsions:
REMARK  status: ('A' for Active; 'I' for Inactive)
REMARK    1  A    between atoms: C1_2  and  C2_3 
ROOT
ATOM      1  C2  UNL d   1       4.521  -3.436  -1.682  0.00  0.00    -0.077 A 
ATOM      2  C3  UNL d   1       3.820  -3.690  -2.869  0.00  0.00     0.002 A 
ATOM      3  C4  UNL d   1       3.844  -4.962  -3.445  0.00  0.00     0.002 A 
ATOM      4  C5  UNL d   1       4.563  -5.989  -2.839  0.00  0.00    -0.004 A 
ATOM      5  C6  UNL d   1       5.265  -5.746  -1.659  0.00  0.00     0.002 A 
ATOM      6  C7  UNL d   1       5.244  -4.475  -1.083  0.00  0.00     0.002 A 
ENDROOT
BRANCH   1   7
ATOM      7  C1  UNL d   1       4.456  -2.078  -1.033  0.00  0.00     0.055 C 
ATOM      8  C   UNL d   1       3.131  -1.870  -0.315  0.00  0.00     0.019 C 
ENDBRANCH   1   7
TORSDOF 1
ENDMDL
