MODEL 1
REMARK minimizedAffinity 1.7202642
REMARK minimizedRMSD -1
REMARK  1 active torsions:
REMARK  status: ('A' for Active; 'I' for Inactive)
REMARK    1  A    between atoms: C1_2  and  C2_3 
ROOT
ATOM      1  C2  UNL d   1       4.113  -4.336  -1.483  0.00  0.00    -0.077 A 
ATOM      2  C3  UNL d   1       2.894  -3.830  -1.010  0.00  0.00     0.002 A 
ATOM      3  C4  UNL d   1       2.845  -2.592  -0.366  0.00  0.00     0.002 A 
ATOM      4  C5  UNL d   1       4.011  -1.849  -0.193  0.00  0.00    -0.004 A 
ATOM      5  C6  UNL d   1       5.228  -2.344  -0.658  0.00  0.00     0.002 A 
ATOM      6  C7  UNL d   1       5.279  -3.582  -1.301  0.00  0.00     0.002 A 
ENDROOT
BRANCH   1   7
ATOM      7  C1  UNL d   1       4.160  -5.648  -2.221  0.00  0.00     0.055 C 
ATOM      8  C   UNL d   1       4.271  -5.434  -3.724  0.00  0.00     0.019 C 
ENDBRANCH   1   7
TORSDOF 1
ENDMDL
