MODEL 1
REMARK minimizedAffinity 0.437103242
REMARK minimizedRMSD -1
REMARK  1 active torsions:
REMARK  status: ('A' for Active; 'I' for Inactive)
REMARK    1  A    between atoms: C1_2  and  C2_3 
ROOT
ATOM      1  C2  UNL d   1       3.685  -4.682  -1.003  0.00  0.00    -0.077 A 
ATOM      2  C3  UNL d   1       3.047  -3.577  -0.422  0.00  0.00     0.002 A 
ATOM      3  C4  UNL d   1       3.698  -2.344  -0.348  0.00  0.00     0.002 A 
ATOM      4  C5  UNL d   1       4.988  -2.203  -0.858  0.00  0.00    -0.004 A 
ATOM      5  C6  UNL d   1       5.631  -3.297  -1.436  0.00  0.00     0.002 A 
ATOM      6  C7  UNL d   1       4.982  -4.530  -1.509  0.00  0.00     0.002 A 
ENDROOT
BRANCH   1   7
ATOM      7  C1  UNL d   1       2.966  -6.000  -1.127  0.00  0.00     0.055 C 
ATOM      8  C   UNL d   1       1.509  -5.877  -0.706  0.00  0.00     0.019 C 
ENDBRANCH   1   7
TORSDOF 1
ENDMDL
