MODEL 1
REMARK minimizedAffinity 2.233356
REMARK minimizedRMSD -1
REMARK  1 active torsions:
REMARK  status: ('A' for Active; 'I' for Inactive)
REMARK    1  A    between atoms: C1_2  and  C2_3 
ROOT
ATOM      1  C2  UNL d   1      -1.298   2.788  -1.551  0.00  0.00    -0.077 A 
ATOM      2  C3  UNL d   1      -2.395   2.910  -2.415  0.00  0.00     0.002 A 
ATOM      3  C4  UNL d   1      -3.268   1.837  -2.603  0.00  0.00     0.002 A 
ATOM      4  C5  UNL d   1      -3.055   0.636  -1.929  0.00  0.00    -0.004 A 
ATOM      5  C6  UNL d   1      -1.965   0.505  -1.070  0.00  0.00     0.002 A 
ATOM      6  C7  UNL d   1      -1.091   1.576  -0.881  0.00  0.00     0.002 A 
ENDROOT
BRANCH   1   7
ATOM      7  C1  UNL d   1      -0.383   3.960  -1.309  0.00  0.00     0.055 C 
ATOM      8  C   UNL d   1      -1.070   5.277  -1.642  0.00  0.00     0.019 C 
ENDBRANCH   1   7
TORSDOF 1
ENDMDL
