MODEL 1
REMARK minimizedAffinity -1.51710498
REMARK minimizedRMSD -1
REMARK  1 active torsions:
REMARK  status: ('A' for Active; 'I' for Inactive)
REMARK    1  A    between atoms: C1_2  and  C2_3 
ROOT
ATOM      1  C2  UNL d   1       4.037  -4.223  -2.909  0.00  0.00    -0.077 A 
ATOM      2  C3  UNL d   1       3.677  -2.894  -2.644  0.00  0.00     0.002 A 
ATOM      3  C4  UNL d   1       4.157  -2.246  -1.504  0.00  0.00     0.002 A 
ATOM      4  C5  UNL d   1       5.003  -2.917  -0.623  0.00  0.00    -0.004 A 
ATOM      5  C6  UNL d   1       5.365  -4.239  -0.877  0.00  0.00     0.002 A 
ATOM      6  C7  UNL d   1       4.886  -4.889  -2.015  0.00  0.00     0.002 A 
ENDROOT
BRANCH   1   7
ATOM      7  C1  UNL d   1       3.560  -4.907  -4.163  0.00  0.00     0.055 C 
ATOM      8  C   UNL d   1       4.684  -5.688  -4.829  0.00  0.00     0.019 C 
ENDBRANCH   1   7
TORSDOF 1
ENDMDL
