MODEL 1
REMARK minimizedAffinity -1.23602235
REMARK minimizedRMSD -1
REMARK  1 active torsions:
REMARK  status: ('A' for Active; 'I' for Inactive)
REMARK    1  A    between atoms: C1_2  and  C2_3 
ROOT
ATOM      1  C2  UNL d   1       4.400  -3.369  -1.480  0.00  0.00    -0.077 A 
ATOM      2  C3  UNL d   1       3.536  -3.080  -2.546  0.00  0.00     0.002 A 
ATOM      3  C4  UNL d   1       3.331  -4.015  -3.562  0.00  0.00     0.002 A 
ATOM      4  C5  UNL d   1       3.981  -5.246  -3.520  0.00  0.00    -0.004 A 
ATOM      5  C6  UNL d   1       4.844  -5.542  -2.466  0.00  0.00     0.002 A 
ATOM      6  C7  UNL d   1       5.052  -4.608  -1.450  0.00  0.00     0.002 A 
ENDROOT
BRANCH   1   7
ATOM      7  C1  UNL d   1       4.586  -2.381  -0.358  0.00  0.00     0.055 C 
ATOM      8  C   UNL d   1       3.260  -2.048   0.310  0.00  0.00     0.019 C 
ENDBRANCH   1   7
TORSDOF 1
ENDMDL
