MODEL 1
REMARK minimizedAffinity -4.81794405
REMARK minimizedRMSD -1
REMARK  1 active torsions:
REMARK  status: ('A' for Active; 'I' for Inactive)
REMARK    1  A    between atoms: C1_2  and  C2_3 
ROOT
ATOM      1  C2  UNL d   1       4.234  -2.843  -1.404  0.00  0.00    -0.077 A 
ATOM      2  C3  UNL d   1       3.662  -2.404  -2.606  0.00  0.00     0.002 A 
ATOM      3  C4  UNL d   1       3.351  -3.318  -3.615  0.00  0.00     0.002 A 
ATOM      4  C5  UNL d   1       3.604  -4.675  -3.430  0.00  0.00    -0.004 A 
ATOM      5  C6  UNL d   1       4.175  -5.121  -2.238  0.00  0.00     0.002 A 
ATOM      6  C7  UNL d   1       4.487  -4.209  -1.230  0.00  0.00     0.002 A 
ENDROOT
BRANCH   1   7
ATOM      7  C1  UNL d   1       4.525  -1.865  -0.296  0.00  0.00     0.055 C 
ATOM      8  C   UNL d   1       3.304  -1.648   0.586  0.00  0.00     0.019 C 
ENDBRANCH   1   7
TORSDOF 1
ENDMDL
