MODEL 1
REMARK minimizedAffinity -0.0344384685
REMARK minimizedRMSD -1
REMARK  0 active torsions:
REMARK  status: ('A' for Active; 'I' for Inactive)
ROOT
ATOM      1  C   UNL d   1      -5.920   2.834   5.947  0.00  0.00     0.172 C 
ATOM      2  N   UNL d   1      -5.440   4.074   5.384  0.00  0.00    -0.070 N 
ATOM      3  C1  UNL d   1      -4.571   4.942   5.989  0.00  0.00    -0.004 A 
ATOM      4  C2  UNL d   1      -4.364   6.000   5.130  0.00  0.00    -0.047 A 
ATOM      5  C3  UNL d   1      -5.137   5.760   3.969  0.00  0.00    -0.047 A 
ATOM      6  C4  UNL d   1      -5.793   4.561   4.153  0.00  0.00    -0.004 A 
ENDROOT
TORSDOF 0
ENDMDL
