MODEL 1
REMARK minimizedAffinity 4.90060997
REMARK minimizedRMSD -1
REMARK  0 active torsions:
REMARK  status: ('A' for Active; 'I' for Inactive)
ROOT
ATOM      1  C   UNL d   1       3.637   1.159  -0.805  0.00  0.00     0.172 C 
ATOM      2  N   UNL d   1       3.021  -0.053  -0.318  0.00  0.00    -0.070 N 
ATOM      3  C1  UNL d   1       3.157  -0.566   0.945  0.00  0.00    -0.004 A 
ATOM      4  C2  UNL d   1       2.416  -1.726   1.011  0.00  0.00    -0.047 A 
ATOM      5  C3  UNL d   1       1.814  -1.917  -0.255  0.00  0.00    -0.047 A 
ATOM      6  C4  UNL d   1       2.205  -0.867  -1.059  0.00  0.00    -0.004 A 
ENDROOT
TORSDOF 0
ENDMDL
