MODEL 1
REMARK minimizedAffinity 6.45891619
REMARK minimizedRMSD -1
REMARK  0 active torsions:
REMARK  status: ('A' for Active; 'I' for Inactive)
ROOT
ATOM      1  C   UNL d   1       2.989  -1.894   0.581  0.00  0.00     0.172 C 
ATOM      2  N   UNL d   1       3.225  -0.528   0.175  0.00  0.00    -0.070 N 
ATOM      3  C1  UNL d   1       2.287   0.326  -0.339  0.00  0.00    -0.004 A 
ATOM      4  C2  UNL d   1       2.907   1.529  -0.597  0.00  0.00    -0.047 A 
ATOM      5  C3  UNL d   1       4.265   1.393  -0.225  0.00  0.00    -0.047 A 
ATOM      6  C4  UNL d   1       4.435   0.110   0.250  0.00  0.00    -0.004 A 
ENDROOT
TORSDOF 0
ENDMDL
