MODEL 1
REMARK minimizedAffinity 1.89425135
REMARK minimizedRMSD -1
REMARK  0 active torsions:
REMARK  status: ('A' for Active; 'I' for Inactive)
ROOT
ATOM      1  C   UNL d   1      -5.940   4.488   2.759  0.00  0.00     0.172 C 
ATOM      2  N   UNL d   1      -5.344   5.075   3.936  0.00  0.00    -0.070 N 
ATOM      3  C1  UNL d   1      -4.048   5.504   4.045  0.00  0.00    -0.004 A 
ATOM      4  C2  UNL d   1      -3.874   5.998   5.320  0.00  0.00    -0.047 A 
ATOM      5  C3  UNL d   1      -5.107   5.861   6.000  0.00  0.00    -0.047 A 
ATOM      6  C4  UNL d   1      -6.000   5.287   5.120  0.00  0.00    -0.004 A 
ENDROOT
TORSDOF 0
ENDMDL
