MODEL 1
REMARK minimizedAffinity 3.87473726
REMARK minimizedRMSD -1
REMARK  0 active torsions:
REMARK  status: ('A' for Active; 'I' for Inactive)
ROOT
ATOM      1  C   UNL d   1       4.175   2.539  -2.073  0.00  0.00     0.172 C 
ATOM      2  N   UNL d   1       3.716   1.511  -1.168  0.00  0.00    -0.070 N 
ATOM      3  C1  UNL d   1       2.663   0.665  -1.389  0.00  0.00    -0.004 A 
ATOM      4  C2  UNL d   1       2.550  -0.164  -0.294  0.00  0.00    -0.047 A 
ATOM      5  C3  UNL d   1       3.571   0.197   0.617  0.00  0.00    -0.047 A 
ATOM      6  C4  UNL d   1       4.278   1.237   0.051  0.00  0.00    -0.004 A 
ENDROOT
TORSDOF 0
ENDMDL
