MODEL 1
REMARK minimizedAffinity 5.22345018
REMARK minimizedRMSD -1
REMARK  0 active torsions:
REMARK  status: ('A' for Active; 'I' for Inactive)
ROOT
ATOM      1  C   UNL d   1      -4.924   3.793   2.723  0.00  0.00     0.172 C 
ATOM      2  N   UNL d   1      -4.948   4.482   3.992  0.00  0.00    -0.070 N 
ATOM      3  C1  UNL d   1      -6.000   4.503   4.869  0.00  0.00    -0.004 A 
ATOM      4  C2  UNL d   1      -5.628   5.266   5.955  0.00  0.00    -0.047 A 
ATOM      5  C3  UNL d   1      -4.308   5.719   5.723  0.00  0.00    -0.047 A 
ATOM      6  C4  UNL d   1      -3.912   5.220   4.500  0.00  0.00    -0.004 A 
ENDROOT
TORSDOF 0
ENDMDL
