MODEL 1
REMARK minimizedAffinity 5.61072493
REMARK minimizedRMSD -1
REMARK  0 active torsions:
REMARK  status: ('A' for Active; 'I' for Inactive)
ROOT
ATOM      1  C   UNL d   1      -5.996   0.410  -1.502  0.00  0.00     0.172 C 
ATOM      2  N   UNL d   1      -4.741   0.673  -0.837  0.00  0.00    -0.070 N 
ATOM      3  C1  UNL d   1      -4.582   1.418   0.301  0.00  0.00    -0.004 A 
ATOM      4  C2  UNL d   1      -3.240   1.430   0.614  0.00  0.00    -0.047 A 
ATOM      5  C3  UNL d   1      -2.569   0.666  -0.371  0.00  0.00    -0.047 A 
ATOM      6  C4  UNL d   1      -3.522   0.209  -1.256  0.00  0.00    -0.004 A 
ENDROOT
TORSDOF 0
ENDMDL
