MODEL 1
REMARK minimizedAffinity 8.39725494
REMARK minimizedRMSD -1
REMARK  0 active torsions:
REMARK  status: ('A' for Active; 'I' for Inactive)
ROOT
ATOM      1  C   UNL d   1      -2.141  -0.518  -1.952  0.00  0.00     0.172 C 
ATOM      2  N   UNL d   1      -3.316  -0.003  -1.290  0.00  0.00    -0.070 N 
ATOM      3  C1  UNL d   1      -3.485   0.108   0.064  0.00  0.00    -0.004 A 
ATOM      4  C2  UNL d   1      -4.735   0.642   0.291  0.00  0.00    -0.047 A 
ATOM      5  C3  UNL d   1      -5.339   0.858  -0.971  0.00  0.00    -0.047 A 
ATOM      6  C4  UNL d   1      -4.438   0.450  -1.932  0.00  0.00    -0.004 A 
ENDROOT
TORSDOF 0
ENDMDL
