MODEL 1
REMARK minimizedAffinity -1.07788956
REMARK minimizedRMSD -1
REMARK  0 active torsions:
REMARK  status: ('A' for Active; 'I' for Inactive)
ROOT
ATOM      1  C   UNL d   1       1.559   1.877   4.301  0.00  0.00     0.172 C 
ATOM      2  N   UNL d   1       2.722   2.630   4.709  0.00  0.00    -0.070 N 
ATOM      3  C1  UNL d   1       3.712   3.083   3.879  0.00  0.00    -0.004 A 
ATOM      4  C2  UNL d   1       4.636   3.753   4.651  0.00  0.00    -0.047 A 
ATOM      5  C3  UNL d   1       4.187   3.700   5.991  0.00  0.00    -0.047 A 
ATOM      6  C4  UNL d   1       3.000   2.998   5.999  0.00  0.00    -0.004 A 
ENDROOT
TORSDOF 0
ENDMDL
