MODEL 1
REMARK minimizedAffinity -2.70787716
REMARK minimizedRMSD -1
REMARK  0 active torsions:
REMARK  status: ('A' for Active; 'I' for Inactive)
ROOT
ATOM      1  C   UNL d   1       0.750   3.155  -3.194  0.00  0.00     0.172 C 
ATOM      2  N   UNL d   1       0.477   4.124  -4.229  0.00  0.00    -0.070 N 
ATOM      3  C1  UNL d   1      -0.700   4.804  -4.395  0.00  0.00    -0.004 A 
ATOM      4  C2  UNL d   1      -0.560   5.631  -5.488  0.00  0.00    -0.047 A 
ATOM      5  C3  UNL d   1       0.747   5.441  -5.998  0.00  0.00    -0.047 A 
ATOM      6  C4  UNL d   1       1.366   4.503  -5.199  0.00  0.00    -0.004 A 
ENDROOT
TORSDOF 0
ENDMDL
