MODEL 1
REMARK minimizedAffinity 1.62910795
REMARK minimizedRMSD -1
REMARK  0 active torsions:
REMARK  status: ('A' for Active; 'I' for Inactive)
ROOT
ATOM      1  C   UNL d   1       1.767   3.002  -2.473  0.00  0.00     0.172 C 
ATOM      2  N   UNL d   1       2.055   2.070  -1.409  0.00  0.00    -0.070 N 
ATOM      3  C1  UNL d   1       2.042   2.357  -0.070  0.00  0.00    -0.004 A 
ATOM      4  C2  UNL d   1       2.369   1.206   0.612  0.00  0.00    -0.047 A 
ATOM      5  C3  UNL d   1       2.588   0.191  -0.350  0.00  0.00    -0.047 A 
ATOM      6  C4  UNL d   1       2.387   0.753  -1.592  0.00  0.00    -0.004 A 
ENDROOT
TORSDOF 0
ENDMDL
