MODEL 1
REMARK minimizedAffinity -1.73422372
REMARK minimizedRMSD -1
REMARK  0 active torsions:
REMARK  status: ('A' for Active; 'I' for Inactive)
ROOT
ATOM      1  C   UNL d   1       1.874   3.918  -3.676  0.00  0.00     0.172 C 
ATOM      2  N   UNL d   1       0.945   4.760  -4.391  0.00  0.00    -0.070 N 
ATOM      3  C1  UNL d   1      -0.259   5.204  -3.915  0.00  0.00    -0.004 A 
ATOM      4  C2  UNL d   1      -0.842   5.978  -4.895  0.00  0.00    -0.047 A 
ATOM      5  C3  UNL d   1       0.042   5.998  -6.000  0.00  0.00    -0.047 A 
ATOM      6  C4  UNL d   1       1.140   5.236  -5.661  0.00  0.00    -0.004 A 
ENDROOT
TORSDOF 0
ENDMDL
