MODEL 1
REMARK minimizedAffinity -1.56706417
REMARK minimizedRMSD -1
REMARK  0 active torsions:
REMARK  status: ('A' for Active; 'I' for Inactive)
ROOT
ATOM      1  C   UNL d   1      -5.529  -5.999   2.029  0.00  0.00     0.172 C 
ATOM      2  N   UNL d   1      -4.439  -5.343   1.348  0.00  0.00    -0.070 N 
ATOM      3  C1  UNL d   1      -4.290  -3.990   1.197  0.00  0.00    -0.004 A 
ATOM      4  C2  UNL d   1      -3.127  -3.768   0.493  0.00  0.00    -0.047 A 
ATOM      5  C3  UNL d   1      -2.556  -5.032   0.210  0.00  0.00    -0.047 A 
ATOM      6  C4  UNL d   1      -3.389  -5.989   0.750  0.00  0.00    -0.004 A 
ENDROOT
TORSDOF 0
ENDMDL
