MODEL 1
REMARK minimizedAffinity -1.41485238
REMARK minimizedRMSD -1
REMARK  0 active torsions:
REMARK  status: ('A' for Active; 'I' for Inactive)
ROOT
ATOM      1  C   UNL d   1      -5.697  -5.992  -5.828  0.00  0.00     0.172 C 
ATOM      2  N   UNL d   1      -4.367  -5.927  -5.269  0.00  0.00    -0.070 N 
ATOM      3  C1  UNL d   1      -4.065  -5.783  -3.941  0.00  0.00    -0.004 A 
ATOM      4  C2  UNL d   1      -2.693  -5.765  -3.820  0.00  0.00    -0.047 A 
ATOM      5  C3  UNL d   1      -2.151  -5.901  -5.121  0.00  0.00    -0.047 A 
ATOM      6  C4  UNL d   1      -3.210  -5.999  -5.998  0.00  0.00    -0.004 A 
ENDROOT
TORSDOF 0
ENDMDL
