MODEL 1
REMARK minimizedAffinity -1.72868228
REMARK minimizedRMSD -1
REMARK  0 active torsions:
REMARK  status: ('A' for Active; 'I' for Inactive)
ROOT
ATOM      1  C   UNL d   1      -5.990  -5.935  -4.235  0.00  0.00     0.172 C 
ATOM      2  N   UNL d   1      -4.619  -5.903  -4.687  0.00  0.00    -0.070 N 
ATOM      3  C1  UNL d   1      -4.209  -5.774  -5.987  0.00  0.00    -0.004 A 
ATOM      4  C2  UNL d   1      -2.831  -5.787  -5.999  0.00  0.00    -0.047 A 
ATOM      5  C3  UNL d   1      -2.398  -5.930  -4.659  0.00  0.00    -0.047 A 
ATOM      6  C4  UNL d   1      -3.525  -5.999  -3.868  0.00  0.00    -0.004 A 
ENDROOT
TORSDOF 0
ENDMDL
