MODEL 1
REMARK minimizedAffinity 3.42438936
REMARK minimizedRMSD -1
REMARK  0 active torsions:
REMARK  status: ('A' for Active; 'I' for Inactive)
ROOT
ATOM      1  C   UNL d   1      -5.948  -1.777  -3.407  0.00  0.00     0.172 C 
ATOM      2  N   UNL d   1      -5.967  -0.589  -4.228  0.00  0.00    -0.070 N 
ATOM      3  C1  UNL d   1      -5.984  -0.565  -5.597  0.00  0.00    -0.004 A 
ATOM      4  C2  UNL d   1      -5.998   0.754  -5.995  0.00  0.00    -0.047 A 
ATOM      5  C3  UNL d   1      -5.988   1.550  -4.825  0.00  0.00    -0.047 A 
ATOM      6  C4  UNL d   1      -5.969   0.693  -3.746  0.00  0.00    -0.004 A 
ENDROOT
TORSDOF 0
ENDMDL
