MODEL 1
REMARK minimizedAffinity 0.679146469
REMARK minimizedRMSD -1
REMARK  0 active torsions:
REMARK  status: ('A' for Active; 'I' for Inactive)
ROOT
ATOM      1  C   UNL d   1      -4.415  -0.241   1.675  0.00  0.00     0.172 C 
ATOM      2  N   UNL d   1      -3.358  -0.293   2.658  0.00  0.00    -0.070 N 
ATOM      3  C1  UNL d   1      -2.114  -0.830   2.466  0.00  0.00    -0.004 A 
ATOM      4  C2  UNL d   1      -1.404  -0.683   3.638  0.00  0.00    -0.047 A 
ATOM      5  C3  UNL d   1      -2.252  -0.036   4.568  0.00  0.00    -0.047 A 
ATOM      6  C4  UNL d   1      -3.456   0.194   3.935  0.00  0.00    -0.004 A 
ENDROOT
TORSDOF 0
ENDMDL
