MODEL 1
REMARK minimizedAffinity 0.606790066
REMARK minimizedRMSD -1
REMARK  0 active torsions:
REMARK  status: ('A' for Active; 'I' for Inactive)
ROOT
ATOM      1  C   UNL d   1      -5.952  -1.299  -5.784  0.00  0.00     0.172 C 
ATOM      2  N   UNL d   1      -5.953  -0.192  -4.856  0.00  0.00    -0.070 N 
ATOM      3  C1  UNL d   1      -6.000   1.134  -5.195  0.00  0.00    -0.004 A 
ATOM      4  C2  UNL d   1      -5.985   1.868  -4.029  0.00  0.00    -0.047 A 
ATOM      5  C3  UNL d   1      -5.926   0.952  -2.952  0.00  0.00    -0.047 A 
ATOM      6  C4  UNL d   1      -5.908  -0.316  -3.493  0.00  0.00    -0.004 A 
ENDROOT
TORSDOF 0
ENDMDL
