MODEL 1
REMARK minimizedAffinity -1.4118166
REMARK minimizedRMSD -1
REMARK  0 active torsions:
REMARK  status: ('A' for Active; 'I' for Inactive)
ROOT
ATOM      1  C   UNL d   1      -3.408  -1.631   1.790  0.00  0.00     0.172 C 
ATOM      2  N   UNL d   1      -3.179  -1.114   3.119  0.00  0.00    -0.070 N 
ATOM      3  C1  UNL d   1      -4.013  -1.276   4.193  0.00  0.00    -0.004 A 
ATOM      4  C2  UNL d   1      -3.442  -0.636   5.271  0.00  0.00    -0.047 A 
ATOM      5  C3  UNL d   1      -2.223  -0.069   4.830  0.00  0.00    -0.047 A 
ATOM      6  C4  UNL d   1      -2.085  -0.380   3.494  0.00  0.00    -0.004 A 
ENDROOT
TORSDOF 0
ENDMDL
