MODEL 1
REMARK minimizedAffinity 2.8380785
REMARK minimizedRMSD -1
REMARK  0 active torsions:
REMARK  status: ('A' for Active; 'I' for Inactive)
ROOT
ATOM      1  C   UNL d   1      -5.988   1.949  -2.346  0.00  0.00     0.172 C 
ATOM      2  N   UNL d   1      -5.992   0.801  -3.222  0.00  0.00    -0.070 N 
ATOM      3  C1  UNL d   1      -5.996   0.840  -4.590  0.00  0.00    -0.004 A 
ATOM      4  C2  UNL d   1      -5.998  -0.459  -5.050  0.00  0.00    -0.047 A 
ATOM      5  C3  UNL d   1      -5.996  -1.309  -3.918  0.00  0.00    -0.047 A 
ATOM      6  C4  UNL d   1      -5.992  -0.502  -2.800  0.00  0.00    -0.004 A 
ENDROOT
TORSDOF 0
ENDMDL
