MODEL 1
REMARK minimizedAffinity 0.0324587412
REMARK minimizedRMSD -1
REMARK  0 active torsions:
REMARK  status: ('A' for Active; 'I' for Inactive)
ROOT
ATOM      1  C   UNL d   1      -2.123  -0.567   2.335  0.00  0.00     0.172 C 
ATOM      2  N   UNL d   1      -1.146  -1.622   2.212  0.00  0.00    -0.070 N 
ATOM      3  C1  UNL d   1      -1.184  -2.644   1.302  0.00  0.00    -0.004 A 
ATOM      4  C2  UNL d   1      -0.076  -3.436   1.510  0.00  0.00    -0.047 A 
ATOM      5  C3  UNL d   1       0.654  -2.871   2.583  0.00  0.00    -0.047 A 
ATOM      6  C4  UNL d   1      -0.031  -1.749   2.999  0.00  0.00    -0.004 A 
ENDROOT
TORSDOF 0
ENDMDL
