MODEL 1
REMARK minimizedAffinity -1.3883481
REMARK minimizedRMSD -1
REMARK  0 active torsions:
REMARK  status: ('A' for Active; 'I' for Inactive)
ROOT
ATOM      1  C   UNL d   1      -5.990   0.677  -2.520  0.00  0.00     0.172 C 
ATOM      2  N   UNL d   1      -5.993  -0.013  -3.788  0.00  0.00    -0.070 N 
ATOM      3  C1  UNL d   1      -5.997  -1.372  -3.958  0.00  0.00    -0.004 A 
ATOM      4  C2  UNL d   1      -6.000  -1.628  -5.312  0.00  0.00    -0.047 A 
ATOM      5  C3  UNL d   1      -5.996  -0.380  -5.980  0.00  0.00    -0.047 A 
ATOM      6  C4  UNL d   1      -5.992   0.603  -5.012  0.00  0.00    -0.004 A 
ENDROOT
TORSDOF 0
ENDMDL
