MODEL 1
REMARK minimizedAffinity -0.761529863
REMARK minimizedRMSD -1
REMARK  0 active torsions:
REMARK  status: ('A' for Active; 'I' for Inactive)
ROOT
ATOM      1  C   UNL d   1       1.807   4.120  -3.750  0.00  0.00     0.172 C 
ATOM      2  N   UNL d   1       0.703   4.608  -4.543  0.00  0.00    -0.070 N 
ATOM      3  C1  UNL d   1       0.203   5.882  -4.517  0.00  0.00    -0.004 A 
ATOM      4  C2  UNL d   1      -0.841   5.944  -5.415  0.00  0.00    -0.047 A 
ATOM      5  C3  UNL d   1      -0.973   4.662  -6.000  0.00  0.00    -0.047 A 
ATOM      6  C4  UNL d   1      -0.005   3.854  -5.442  0.00  0.00    -0.004 A 
ENDROOT
TORSDOF 0
ENDMDL
