MODEL 1
REMARK minimizedAffinity 0.263318747
REMARK minimizedRMSD -1
REMARK  0 active torsions:
REMARK  status: ('A' for Active; 'I' for Inactive)
ROOT
ATOM      1  C   UNL d   1      -5.977   0.247  -5.994  0.00  0.00     0.172 C 
ATOM      2  N   UNL d   1      -5.982   0.440  -4.563  0.00  0.00    -0.070 N 
ATOM      3  C1  UNL d   1      -5.999   1.650  -3.921  0.00  0.00    -0.004 A 
ATOM      4  C2  UNL d   1      -5.999   1.408  -2.564  0.00  0.00    -0.047 A 
ATOM      5  C3  UNL d   1      -5.981   0.004  -2.384  0.00  0.00    -0.047 A 
ATOM      6  C4  UNL d   1      -5.971  -0.570  -3.638  0.00  0.00    -0.004 A 
ENDROOT
TORSDOF 0
ENDMDL
