MODEL 1
REMARK minimizedAffinity 0.104475491
REMARK minimizedRMSD -1
REMARK  0 active torsions:
REMARK  status: ('A' for Active; 'I' for Inactive)
ROOT
ATOM      1  C   UNL d   1      -5.996  -0.381  -4.525  0.00  0.00     0.172 C 
ATOM      2  N   UNL d   1      -5.993   0.291  -3.247  0.00  0.00    -0.070 N 
ATOM      3  C1  UNL d   1      -5.983   1.648  -3.059  0.00  0.00    -0.004 A 
ATOM      4  C2  UNL d   1      -5.984   1.885  -1.701  0.00  0.00    -0.047 A 
ATOM      5  C3  UNL d   1      -5.994   0.628  -1.051  0.00  0.00    -0.047 A 
ATOM      6  C4  UNL d   1      -6.000  -0.341  -2.032  0.00  0.00    -0.004 A 
ENDROOT
TORSDOF 0
ENDMDL
