MODEL 1
REMARK minimizedAffinity -2.83882332
REMARK minimizedRMSD -1
REMARK  0 active torsions:
REMARK  status: ('A' for Active; 'I' for Inactive)
ROOT
ATOM      1  C   UNL d   1       3.129  -1.266   1.231  0.00  0.00     0.077 C 
ATOM      2  C1  UNL d   1       1.629  -1.300   1.196  0.00  0.00    -0.074 A 
ATOM      3  C2  UNL d   1       0.917  -2.295   1.872  0.00  0.00    -0.005 A 
ATOM      4  C3  UNL d   1      -0.478  -2.308   1.838  0.00  0.00     0.006 A 
ATOM      5  C4  UNL d   1      -1.172  -1.327   1.129  0.00  0.00    -0.005 A 
ATOM      6  C5  UNL d   1      -0.477  -0.324   0.447  0.00  0.00    -0.074 A 
ATOM      7  C6  UNL d   1      -1.208   0.744  -0.311  0.00  0.00     0.077 C 
ATOM      8  C7  UNL d   1       0.924  -0.313   0.492  0.00  0.00    -0.001 A 
ENDROOT
TORSDOF 0
ENDMDL
