MODEL 1
REMARK minimizedAffinity 7.71077108
REMARK minimizedRMSD -1
REMARK  0 active torsions:
REMARK  status: ('A' for Active; 'I' for Inactive)
ROOT
ATOM      1  C   UNL d   1       3.050   3.464   3.578  0.00  0.00     0.077 C 
ATOM      2  C1  UNL d   1       2.667   2.095   3.099  0.00  0.00    -0.074 A 
ATOM      3  C2  UNL d   1       2.936   0.961   3.872  0.00  0.00    -0.005 A 
ATOM      4  C3  UNL d   1       2.566  -0.304   3.417  0.00  0.00     0.006 A 
ATOM      5  C4  UNL d   1       1.923  -0.448   2.187  0.00  0.00    -0.005 A 
ATOM      6  C5  UNL d   1       1.645   0.674   1.400  0.00  0.00    -0.074 A 
ATOM      7  C6  UNL d   1       0.946   0.538   0.080  0.00  0.00     0.077 C 
ATOM      8  C7  UNL d   1       2.014   1.943   1.868  0.00  0.00    -0.001 A 
ENDROOT
TORSDOF 0
ENDMDL
