MODEL 1
REMARK minimizedAffinity -0.202025771
REMARK minimizedRMSD -1
REMARK  0 active torsions:
REMARK  status: ('A' for Active; 'I' for Inactive)
ROOT
ATOM      1  C   UNL d   1       1.813  -2.086   3.687  0.00  0.00     0.077 C 
ATOM      2  C1  UNL d   1       1.996  -0.778   2.977  0.00  0.00    -0.074 A 
ATOM      3  C2  UNL d   1       1.777  -0.671   1.599  0.00  0.00    -0.005 A 
ATOM      4  C3  UNL d   1       1.942   0.554   0.954  0.00  0.00     0.006 A 
ATOM      5  C4  UNL d   1       2.328   1.683   1.678  0.00  0.00    -0.005 A 
ATOM      6  C5  UNL d   1       2.551   1.596   3.056  0.00  0.00    -0.074 A 
ATOM      7  C6  UNL d   1       2.956   2.801   3.850  0.00  0.00     0.077 C 
ATOM      8  C7  UNL d   1       2.375   0.362   3.698  0.00  0.00    -0.001 A 
ENDROOT
TORSDOF 0
ENDMDL
