MODEL 1
REMARK minimizedAffinity 5.88058615
REMARK minimizedRMSD -1
REMARK  0 active torsions:
REMARK  status: ('A' for Active; 'I' for Inactive)
ROOT
ATOM      1  C   UNL d   1       3.438   0.821   1.521  0.00  0.00     0.077 C 
ATOM      2  C1  UNL d   1       2.057   1.218   1.090  0.00  0.00    -0.074 A 
ATOM      3  C2  UNL d   1       1.172   0.276   0.555  0.00  0.00    -0.005 A 
ATOM      4  C3  UNL d   1      -0.112   0.657   0.168  0.00  0.00     0.006 A 
ATOM      5  C4  UNL d   1      -0.524   1.983   0.310  0.00  0.00    -0.005 A 
ATOM      6  C5  UNL d   1       0.347   2.939   0.843  0.00  0.00    -0.074 A 
ATOM      7  C6  UNL d   1      -0.084   4.366   1.012  0.00  0.00     0.077 C 
ATOM      8  C7  UNL d   1       1.633   2.546   1.237  0.00  0.00    -0.001 A 
ENDROOT
TORSDOF 0
ENDMDL
