MODEL 1
REMARK minimizedAffinity 7.18275881
REMARK minimizedRMSD -1
REMARK  0 active torsions:
REMARK  status: ('A' for Active; 'I' for Inactive)
ROOT
ATOM      1  C   UNL d   1      -0.738  -2.217   0.841  0.00  0.00     0.077 C 
ATOM      2  C1  UNL d   1       0.345  -1.620   1.690  0.00  0.00    -0.074 A 
ATOM      3  C2  UNL d   1       0.810  -2.281   2.831  0.00  0.00    -0.005 A 
ATOM      4  C3  UNL d   1       1.825  -1.718   3.606  0.00  0.00     0.006 A 
ATOM      5  C4  UNL d   1       2.384  -0.491   3.247  0.00  0.00    -0.005 A 
ATOM      6  C5  UNL d   1       1.932   0.184   2.108  0.00  0.00    -0.074 A 
ATOM      7  C6  UNL d   1       2.529   1.499   1.703  0.00  0.00     0.077 C 
ATOM      8  C7  UNL d   1       0.917  -0.392   1.331  0.00  0.00    -0.001 A 
ENDROOT
TORSDOF 0
ENDMDL
