MODEL 1
REMARK minimizedAffinity 11.0225239
REMARK minimizedRMSD -1
REMARK  0 active torsions:
REMARK  status: ('A' for Active; 'I' for Inactive)
ROOT
ATOM      1  C   UNL d   1       1.084  -1.523   2.073  0.00  0.00     0.077 C 
ATOM      2  C1  UNL d   1       0.313  -1.839   0.826  0.00  0.00    -0.074 A 
ATOM      3  C2  UNL d   1      -1.005  -1.398   0.665  0.00  0.00    -0.005 A 
ATOM      4  C3  UNL d   1      -1.706  -1.691  -0.505  0.00  0.00     0.006 A 
ATOM      5  C4  UNL d   1      -1.099  -2.427  -1.523  0.00  0.00    -0.005 A 
ATOM      6  C5  UNL d   1       0.218  -2.876  -1.380  0.00  0.00    -0.074 A 
ATOM      7  C6  UNL d   1       0.889  -3.659  -2.468  0.00  0.00     0.077 C 
ATOM      8  C7  UNL d   1       0.919  -2.571  -0.205  0.00  0.00    -0.001 A 
ENDROOT
TORSDOF 0
ENDMDL
