MODEL 1
REMARK minimizedAffinity 3.98404932
REMARK minimizedRMSD -1
REMARK  0 active torsions:
REMARK  status: ('A' for Active; 'I' for Inactive)
ROOT
ATOM      1  C   UNL d   1       2.713   0.594   1.957  0.00  0.00     0.077 C 
ATOM      2  C1  UNL d   1       1.542   1.069   1.149  0.00  0.00    -0.074 A 
ATOM      3  C2  UNL d   1       0.637   0.159   0.592  0.00  0.00    -0.005 A 
ATOM      4  C3  UNL d   1      -0.453   0.616  -0.149  0.00  0.00     0.006 A 
ATOM      5  C4  UNL d   1      -0.648   1.984  -0.340  0.00  0.00    -0.005 A 
ATOM      6  C5  UNL d   1       0.245   2.909   0.210  0.00  0.00    -0.074 A 
ATOM      7  C6  UNL d   1       0.044   4.383   0.023  0.00  0.00     0.077 C 
ATOM      8  C7  UNL d   1       1.334   2.442   0.959  0.00  0.00    -0.001 A 
ENDROOT
TORSDOF 0
ENDMDL
