MODEL 1
REMARK minimizedAffinity 10.8199244
REMARK minimizedRMSD -1
REMARK  0 active torsions:
REMARK  status: ('A' for Active; 'I' for Inactive)
ROOT
ATOM      1  C   UNL d   1      -3.080  -1.410  -2.956  0.00  0.00     0.077 C 
ATOM      2  C1  UNL d   1      -2.028  -2.222  -2.260  0.00  0.00    -0.074 A 
ATOM      3  C2  UNL d   1      -1.508  -3.379  -2.848  0.00  0.00    -0.005 A 
ATOM      4  C3  UNL d   1      -0.523  -4.119  -2.194  0.00  0.00     0.006 A 
ATOM      5  C4  UNL d   1      -0.049  -3.709  -0.947  0.00  0.00    -0.005 A 
ATOM      6  C5  UNL d   1      -0.556  -2.554  -0.344  0.00  0.00    -0.074 A 
ATOM      7  C6  UNL d   1      -0.051  -2.094   0.991  0.00  0.00     0.077 C 
ATOM      8  C7  UNL d   1      -1.541  -1.812  -1.011  0.00  0.00    -0.001 A 
ENDROOT
TORSDOF 0
ENDMDL
