MODEL 1
REMARK minimizedAffinity -0.0871481448
REMARK minimizedRMSD -1
REMARK  0 active torsions:
REMARK  status: ('A' for Active; 'I' for Inactive)
ROOT
ATOM      1  C   UNL d   1       4.906  -4.147  -5.999  0.00  0.00     0.077 C 
ATOM      2  C1  UNL d   1       4.443  -2.720  -5.997  0.00  0.00    -0.074 A 
ATOM      3  C2  UNL d   1       3.080  -2.407  -5.998  0.00  0.00    -0.005 A 
ATOM      4  C3  UNL d   1       2.665  -1.075  -5.986  0.00  0.00     0.006 A 
ATOM      5  C4  UNL d   1       3.606  -0.045  -5.973  0.00  0.00    -0.005 A 
ATOM      6  C5  UNL d   1       4.973  -0.340  -5.971  0.00  0.00    -0.074 A 
ATOM      7  C6  UNL d   1       5.999   0.755  -5.947  0.00  0.00     0.077 C 
ATOM      8  C7  UNL d   1       5.383  -1.680  -5.976  0.00  0.00    -0.001 A 
ENDROOT
TORSDOF 0
ENDMDL
