MODEL 1
REMARK minimizedAffinity 10.2459135
REMARK minimizedRMSD -1
REMARK  2 active torsions:
REMARK  status: ('A' for Active; 'I' for Inactive)
REMARK    1  A    between atoms: C2'_3  and  C1'_4 
REMARK    2  A    between atoms: C1'_4  and  C1_5 
ROOT
ATOM      1  C1  I4B d   1       0.789  -2.612   2.100  0.00  0.00    -0.075 A 
ATOM      2  C2  I4B d   1       1.084  -3.902   1.738  0.00  0.00     0.003 A 
ATOM      3  C3  I4B d   1       2.052  -4.157   0.736  0.00  0.00     0.002 A 
ATOM      4  C4  I4B d   1       2.659  -3.098   0.092  0.00  0.00    -0.004 A 
ATOM      5  C5  I4B d   1       2.375  -1.791   0.477  0.00  0.00     0.002 A 
ATOM      6  C6  I4B d   1       1.443  -1.546   1.496  0.00  0.00     0.003 A 
ENDROOT
BRANCH   1   7
ATOM      7  C1' I4B d   1      -0.262  -2.378   3.139  0.00  0.00     0.060 C 
BRANCH   7   8
ATOM      8  C2' I4B d   1      -1.487  -3.182   2.753  0.00  0.00    -0.013 C 
ATOM      9  C4' I4B d   1      -2.104  -3.847   3.955  0.00  0.00     0.013 C 
ATOM     10  C3' I4B d   1      -2.460  -2.254   2.089  0.00  0.00     0.013 C 
ENDBRANCH   7   8
ENDBRANCH   1   7
TORSDOF 2
ENDMDL
