MODEL 1
REMARK minimizedAffinity 6.74057198
REMARK minimizedRMSD -1
REMARK  2 active torsions:
REMARK  status: ('A' for Active; 'I' for Inactive)
REMARK    1  A    between atoms: C2'_3  and  C1'_4 
REMARK    2  A    between atoms: C1'_4  and  C1_5 
ROOT
ATOM      1  C1  I4B d   1       2.030   0.332   1.503  0.00  0.00    -0.075 A 
ATOM      2  C2  I4B d   1       1.381  -0.212   2.583  0.00  0.00     0.003 A 
ATOM      3  C3  I4B d   1       0.883   0.624   3.611  0.00  0.00     0.002 A 
ATOM      4  C4  I4B d   1       1.100   1.985   3.545  0.00  0.00    -0.004 A 
ATOM      5  C5  I4B d   1       1.739   2.537   2.438  0.00  0.00     0.002 A 
ATOM      6  C6  I4B d   1       2.196   1.707   1.405  0.00  0.00     0.003 A 
ENDROOT
BRANCH   1   7
ATOM      7  C1' I4B d   1       2.572  -0.584   0.452  0.00  0.00     0.060 C 
BRANCH   7   8
ATOM      8  C2' I4B d   1       1.464  -1.534   0.044  0.00  0.00    -0.013 C 
ATOM      9  C4' I4B d   1       0.792  -1.076  -1.223  0.00  0.00     0.013 C 
ATOM     10  C3' I4B d   1       2.062  -2.899  -0.123  0.00  0.00     0.013 C 
ENDBRANCH   7   8
ENDBRANCH   1   7
TORSDOF 2
ENDMDL
