MODEL 1
REMARK minimizedAffinity 2.06877208
REMARK minimizedRMSD -1
REMARK  2 active torsions:
REMARK  status: ('A' for Active; 'I' for Inactive)
REMARK    1  A    between atoms: C2'_3  and  C1'_4 
REMARK    2  A    between atoms: C1'_4  and  C1_5 
ROOT
ATOM      1  C1  I4B d   1       0.291  -1.695   2.180  0.00  0.00    -0.075 A 
ATOM      2  C2  I4B d   1       0.012  -1.098   0.976  0.00  0.00     0.003 A 
ATOM      3  C3  I4B d   1       0.689  -1.510  -0.197  0.00  0.00     0.002 A 
ATOM      4  C4  I4B d   1       1.666  -2.480  -0.113  0.00  0.00    -0.004 A 
ATOM      5  C5  I4B d   1       1.932  -3.100   1.104  0.00  0.00     0.002 A 
ATOM      6  C6  I4B d   1       1.232  -2.714   2.256  0.00  0.00     0.003 A 
ENDROOT
BRANCH   1   7
ATOM      7  C1' I4B d   1      -0.418  -1.213   3.406  0.00  0.00     0.060 C 
BRANCH   7   8
ATOM      8  C2' I4B d   1      -1.462  -0.203   2.974  0.00  0.00    -0.013 C 
ATOM      9  C4' I4B d   1      -2.594  -0.130   3.965  0.00  0.00     0.013 C 
ATOM     10  C3' I4B d   1      -0.786   1.127   2.826  0.00  0.00     0.013 C 
ENDBRANCH   7   8
ENDBRANCH   1   7
TORSDOF 2
ENDMDL
