MODEL 1
REMARK minimizedAffinity 3.33602428
REMARK minimizedRMSD -1
REMARK  2 active torsions:
REMARK  status: ('A' for Active; 'I' for Inactive)
REMARK    1  A    between atoms: C2'_3  and  C1'_4 
REMARK    2  A    between atoms: C1'_4  and  C1_5 
ROOT
ATOM      1  C1  I4B d   1      -0.157  -1.185   2.694  0.00  0.00    -0.075 A 
ATOM      2  C2  I4B d   1      -0.422   0.124   3.008  0.00  0.00     0.003 A 
ATOM      3  C3  I4B d   1      -1.740   0.631   2.898  0.00  0.00     0.002 A 
ATOM      4  C4  I4B d   1      -2.745  -0.186   2.424  0.00  0.00    -0.004 A 
ATOM      5  C5  I4B d   1      -2.479  -1.520   2.127  0.00  0.00     0.002 A 
ATOM      6  C6  I4B d   1      -1.180  -2.027   2.275  0.00  0.00     0.003 A 
ENDROOT
BRANCH   1   7
ATOM      7  C1' I4B d   1       1.251  -1.679   2.790  0.00  0.00     0.060 C 
BRANCH   7   8
ATOM      8  C2' I4B d   1       1.553  -2.477   1.538  0.00  0.00    -0.013 C 
ATOM      9  C4' I4B d   1       1.921  -1.573   0.391  0.00  0.00     0.013 C 
ATOM     10  C3' I4B d   1       2.666  -3.431   1.854  0.00  0.00     0.013 C 
ENDBRANCH   7   8
ENDBRANCH   1   7
TORSDOF 2
ENDMDL
