MODEL 1
REMARK minimizedAffinity 4.70148563
REMARK minimizedRMSD -1
REMARK  2 active torsions:
REMARK  status: ('A' for Active; 'I' for Inactive)
REMARK    1  A    between atoms: C2'_3  and  C1'_4 
REMARK    2  A    between atoms: C1'_4  and  C1_5 
ROOT
ATOM      1  C1  I4B d   1       0.913  -2.780   1.408  0.00  0.00    -0.075 A 
ATOM      2  C2  I4B d   1       1.730  -1.745   1.025  0.00  0.00     0.003 A 
ATOM      3  C3  I4B d   1       2.939  -2.009   0.338  0.00  0.00     0.002 A 
ATOM      4  C4  I4B d   1       3.315  -3.316   0.100  0.00  0.00    -0.004 A 
ATOM      5  C5  I4B d   1       2.474  -4.362   0.468  0.00  0.00     0.002 A 
ATOM      6  C6  I4B d   1       1.259  -4.092   1.116  0.00  0.00     0.003 A 
ENDROOT
BRANCH   1   7
ATOM      7  C1' I4B d   1      -0.341  -2.467   2.162  0.00  0.00     0.060 C 
BRANCH   7   8
ATOM      8  C2' I4B d   1      -0.321  -0.992   2.510  0.00  0.00    -0.013 C 
ATOM      9  C4' I4B d   1      -1.700  -0.393   2.428  0.00  0.00     0.013 C 
ATOM     10  C3' I4B d   1       0.250  -0.850   3.890  0.00  0.00     0.013 C 
ENDBRANCH   7   8
ENDBRANCH   1   7
TORSDOF 2
ENDMDL
