MODEL 1
REMARK minimizedAffinity 0.699286103
REMARK minimizedRMSD -1
REMARK  0 active torsions:
REMARK  status: ('A' for Active; 'I' for Inactive)
ROOT
ATOM      1  C   UNL d   1       0.602  -4.711   4.078  0.00  0.00     0.077 C 
ATOM      2  C1  UNL d   1       1.744  -3.750   3.935  0.00  0.00    -0.074 A 
ATOM      3  C2  UNL d   1       3.026  -4.086   4.382  0.00  0.00    -0.005 A 
ATOM      4  C3  UNL d   1       4.081  -3.185   4.235  0.00  0.00     0.006 A 
ATOM      5  C4  UNL d   1       3.866  -1.942   3.639  0.00  0.00    -0.005 A 
ATOM      6  C5  UNL d   1       2.591  -1.589   3.185  0.00  0.00    -0.074 A 
ATOM      7  C6  UNL d   1       2.344  -0.260   2.534  0.00  0.00     0.077 C 
ATOM      8  C7  UNL d   1       1.537  -2.502   3.331  0.00  0.00    -0.001 A 
ENDROOT
TORSDOF 0
ENDMDL
