MODEL 1
REMARK minimizedAffinity -1.19342089
REMARK minimizedRMSD -1
REMARK  0 active torsions:
REMARK  status: ('A' for Active; 'I' for Inactive)
ROOT
ATOM      1  C   UNL d   1       1.000  -5.999  -1.198  0.00  0.00     0.077 C 
ATOM      2  C1  UNL d   1       2.112  -5.983  -2.205  0.00  0.00    -0.074 A 
ATOM      3  C2  UNL d   1       3.450  -5.994  -1.799  0.00  0.00    -0.005 A 
ATOM      4  C3  UNL d   1       4.473  -5.989  -2.747  0.00  0.00     0.006 A 
ATOM      5  C4  UNL d   1       4.169  -5.972  -4.109  0.00  0.00    -0.005 A 
ATOM      6  C5  UNL d   1       2.836  -5.962  -4.534  0.00  0.00    -0.074 A 
ATOM      7  C6  UNL d   1       2.492  -5.954  -5.994  0.00  0.00     0.077 C 
ATOM      8  C7  UNL d   1       1.814  -5.974  -3.575  0.00  0.00    -0.001 A 
ENDROOT
TORSDOF 0
ENDMDL
