MODEL 1
REMARK minimizedAffinity 4.89488268
REMARK minimizedRMSD -1
REMARK  0 active torsions:
REMARK  status: ('A' for Active; 'I' for Inactive)
ROOT
ATOM      1  C   UNL d   1      -0.373  -2.187   0.718  0.00  0.00     0.077 C 
ATOM      2  C1  UNL d   1       0.676  -2.257   1.788  0.00  0.00    -0.074 A 
ATOM      3  C2  UNL d   1       1.207  -1.093   2.352  0.00  0.00    -0.005 A 
ATOM      4  C3  UNL d   1       2.175  -1.175   3.353  0.00  0.00     0.006 A 
ATOM      5  C4  UNL d   1       2.621  -2.420   3.799  0.00  0.00    -0.005 A 
ATOM      6  C5  UNL d   1       2.101  -3.595   3.247  0.00  0.00    -0.074 A 
ATOM      7  C6  UNL d   1       2.563  -4.941   3.721  0.00  0.00     0.077 C 
ATOM      8  C7  UNL d   1       1.124  -3.504   2.246  0.00  0.00    -0.001 A 
ENDROOT
TORSDOF 0
ENDMDL
