MODEL 1
REMARK minimizedAffinity -3.58787274
REMARK minimizedRMSD -1
REMARK  0 active torsions:
REMARK  status: ('A' for Active; 'I' for Inactive)
ROOT
ATOM      1  C   UNL d   1       1.502  -5.999  -5.942  0.00  0.00     0.077 C 
ATOM      2  C1  UNL d   1       2.824  -6.000  -5.234  0.00  0.00    -0.074 A 
ATOM      3  C2  UNL d   1       4.024  -5.984  -5.952  0.00  0.00    -0.005 A 
ATOM      4  C3  UNL d   1       5.246  -5.975  -5.279  0.00  0.00     0.006 A 
ATOM      5  C4  UNL d   1       5.280  -5.983  -3.884  0.00  0.00    -0.005 A 
ATOM      6  C5  UNL d   1       4.090  -5.998  -3.149  0.00  0.00    -0.074 A 
ATOM      7  C6  UNL d   1       4.109  -5.997  -1.649  0.00  0.00     0.077 C 
ATOM      8  C7  UNL d   1       2.866  -6.000  -3.833  0.00  0.00    -0.001 A 
ENDROOT
TORSDOF 0
ENDMDL
