MODEL 1
REMARK minimizedAffinity 6.10893106
REMARK minimizedRMSD -1
REMARK  0 active torsions:
REMARK  status: ('A' for Active; 'I' for Inactive)
ROOT
ATOM      1  C   UNL d   1       2.429   1.122   1.765  0.00  0.00     0.077 C 
ATOM      2  C1  UNL d   1       1.900  -0.269   1.951  0.00  0.00    -0.074 A 
ATOM      3  C2  UNL d   1       2.281  -1.041   3.054  0.00  0.00    -0.005 A 
ATOM      4  C3  UNL d   1       1.773  -2.330   3.219  0.00  0.00     0.006 A 
ATOM      5  C4  UNL d   1       0.882  -2.859   2.285  0.00  0.00    -0.005 A 
ATOM      6  C5  UNL d   1       0.489  -2.102   1.177  0.00  0.00    -0.074 A 
ATOM      7  C6  UNL d   1      -0.476  -2.651   0.169  0.00  0.00     0.077 C 
ATOM      8  C7  UNL d   1       0.998  -0.805   1.022  0.00  0.00    -0.001 A 
ENDROOT
TORSDOF 0
ENDMDL
