MODEL 1
REMARK minimizedAffinity 10.6401262
REMARK minimizedRMSD -1
REMARK  0 active torsions:
REMARK  status: ('A' for Active; 'I' for Inactive)
ROOT
ATOM      1  C   UNL d   1      -3.788  -2.463  -3.694  0.00  0.00     0.077 C 
ATOM      2  C1  UNL d   1      -3.612  -1.017  -3.337  0.00  0.00    -0.074 A 
ATOM      3  C2  UNL d   1      -2.639  -0.618  -2.416  0.00  0.00    -0.005 A 
ATOM      4  C3  UNL d   1      -2.481   0.732  -2.101  0.00  0.00     0.006 A 
ATOM      5  C4  UNL d   1      -3.293   1.694  -2.703  0.00  0.00    -0.005 A 
ATOM      6  C5  UNL d   1      -4.271   1.313  -3.627  0.00  0.00    -0.074 A 
ATOM      7  C6  UNL d   1      -5.145   2.335  -4.291  0.00  0.00     0.077 C 
ATOM      8  C7  UNL d   1      -4.419  -0.044  -3.944  0.00  0.00    -0.001 A 
ENDROOT
TORSDOF 0
ENDMDL
