MODEL 1
REMARK minimizedAffinity 9.18427277
REMARK minimizedRMSD -1
REMARK  0 active torsions:
REMARK  status: ('A' for Active; 'I' for Inactive)
ROOT
ATOM      1  C   UNL d   1       1.864  -1.831   3.004  0.00  0.00     0.077 C 
ATOM      2  C1  UNL d   1       2.062  -3.056   3.846  0.00  0.00    -0.074 A 
ATOM      3  C2  UNL d   1       3.302  -3.333   4.430  0.00  0.00    -0.005 A 
ATOM      4  C3  UNL d   1       3.469  -4.472   5.219  0.00  0.00     0.006 A 
ATOM      5  C4  UNL d   1       2.399  -5.342   5.432  0.00  0.00    -0.005 A 
ATOM      6  C5  UNL d   1       1.152  -5.080   4.857  0.00  0.00    -0.074 A 
ATOM      7  C6  UNL d   1      -0.011  -6.000   5.084  0.00  0.00     0.077 C 
ATOM      8  C7  UNL d   1       0.990  -3.931   4.071  0.00  0.00    -0.001 A 
ENDROOT
TORSDOF 0
ENDMDL
