MODEL 1
REMARK minimizedAffinity -0.364451408
REMARK minimizedRMSD -1
REMARK  0 active torsions:
REMARK  status: ('A' for Active; 'I' for Inactive)
ROOT
ATOM      1  C   UNL d   1       3.573  -5.976  -0.957  0.00  0.00     0.077 C 
ATOM      2  C1  UNL d   1       3.887  -5.977  -2.423  0.00  0.00    -0.074 A 
ATOM      3  C2  UNL d   1       5.210  -5.989  -2.875  0.00  0.00    -0.005 A 
ATOM      4  C3  UNL d   1       5.486  -6.000  -4.242  0.00  0.00     0.006 A 
ATOM      5  C4  UNL d   1       4.444  -6.000  -5.170  0.00  0.00    -0.005 A 
ATOM      6  C5  UNL d   1       3.114  -5.990  -4.737  0.00  0.00    -0.074 A 
ATOM      7  C6  UNL d   1       1.982  -6.000  -5.720  0.00  0.00     0.077 C 
ATOM      8  C7  UNL d   1       2.845  -5.986  -3.361  0.00  0.00    -0.001 A 
ENDROOT
TORSDOF 0
ENDMDL
