MODEL 1
REMARK minimizedAffinity 23.217001
REMARK minimizedRMSD -1
REMARK  0 active torsions:
REMARK  status: ('A' for Active; 'I' for Inactive)
ROOT
ATOM      1  C   UNL d   1       3.398  -0.099   1.903  0.00  0.00     0.124 A 
ATOM      2  C1  UNL d   1       2.087  -0.335   2.292  0.00  0.00     0.062 A 
ATOM      3  C2  UNL d   1       1.784  -1.421   3.108  0.00  0.00     0.162 A 
ATOM      4  C3  UNL d   1       2.794  -2.279   3.542  0.00  0.00    -0.034 A 
ATOM      5  C4  UNL d   1       4.110  -2.036   3.146  0.00  0.00     0.162 A 
ATOM      6  C5  UNL d   1       4.408  -0.950   2.330  0.00  0.00     0.062 A 
ATOM      7  F   UNL d   1       5.676  -0.723   1.955  0.00  0.00    -0.097 F 
ATOM      8  F1  UNL d   1       5.106  -2.841   3.545  0.00  0.00    -0.096 F 
ATOM      9  I   UNL d   1       2.345  -3.903   4.764  0.00  0.00    -0.060 I 
ATOM     10  F2  UNL d   1       0.508  -1.625   3.469  0.00  0.00    -0.096 F 
ATOM     11  F3  UNL d   1       1.109   0.484   1.879  0.00  0.00    -0.097 F 
ATOM     12  F4  UNL d   1       3.687   0.945   1.116  0.00  0.00    -0.092 F 
ENDROOT
TORSDOF 0
ENDMDL
