MODEL 1
REMARK minimizedAffinity 22.4023838
REMARK minimizedRMSD -1
REMARK  0 active torsions:
REMARK  status: ('A' for Active; 'I' for Inactive)
ROOT
ATOM      1  C   UNL d   1       1.918  -1.306   1.621  0.00  0.00     0.124 A 
ATOM      2  C1  UNL d   1       0.973  -0.317   1.860  0.00  0.00     0.062 A 
ATOM      3  C2  UNL d   1      -0.132  -0.187   1.023  0.00  0.00     0.162 A 
ATOM      4  C3  UNL d   1      -0.300  -1.050  -0.060  0.00  0.00    -0.034 A 
ATOM      5  C4  UNL d   1       0.655  -2.042  -0.294  0.00  0.00     0.162 A 
ATOM      6  C5  UNL d   1       1.757  -2.167   0.544  0.00  0.00     0.062 A 
ATOM      7  F   UNL d   1       2.669  -3.123   0.312  0.00  0.00    -0.097 F 
ATOM      8  F1  UNL d   1       0.524  -2.888  -1.327  0.00  0.00    -0.096 F 
ATOM      9  I   UNL d   1      -1.951  -0.860  -1.312  0.00  0.00    -0.060 I 
ATOM     10  F2  UNL d   1      -1.028   0.777   1.278  0.00  0.00    -0.096 F 
ATOM     11  F3  UNL d   1       1.126   0.517   2.898  0.00  0.00    -0.097 F 
ATOM     12  F4  UNL d   1       2.980  -1.428   2.426  0.00  0.00    -0.092 F 
ENDROOT
TORSDOF 0
ENDMDL
