MODEL 1
REMARK minimizedAffinity 14.0804577
REMARK minimizedRMSD -1
REMARK  0 active torsions:
REMARK  status: ('A' for Active; 'I' for Inactive)
ROOT
ATOM      1  C   UNL d   1       2.398  -1.308   2.684  0.00  0.00     0.124 A 
ATOM      2  C1  UNL d   1       3.756  -1.209   2.414  0.00  0.00     0.062 A 
ATOM      3  C2  UNL d   1       4.689  -1.639   3.353  0.00  0.00     0.162 A 
ATOM      4  C3  UNL d   1       4.267  -2.173   4.571  0.00  0.00    -0.034 A 
ATOM      5  C4  UNL d   1       2.900  -2.268   4.835  0.00  0.00     0.162 A 
ATOM      6  C5  UNL d   1       1.971  -1.837   3.893  0.00  0.00     0.062 A 
ATOM      7  F   UNL d   1       0.660  -1.932   4.156  0.00  0.00    -0.097 F 
ATOM      8  F1  UNL d   1       2.460  -2.776   5.996  0.00  0.00    -0.096 F 
ATOM      9  I   UNL d   1       5.660  -2.816   5.977  0.00  0.00    -0.060 I 
ATOM     10  F2  UNL d   1       5.995  -1.532   3.065  0.00  0.00    -0.096 F 
ATOM     11  F3  UNL d   1       4.170  -0.698   1.246  0.00  0.00    -0.097 F 
ATOM     12  F4  UNL d   1       1.502  -0.892   1.779  0.00  0.00    -0.092 F 
ENDROOT
TORSDOF 0
ENDMDL
