MODEL 1
REMARK minimizedAffinity 26.8460979
REMARK minimizedRMSD -1
REMARK  0 active torsions:
REMARK  status: ('A' for Active; 'I' for Inactive)
ROOT
ATOM      1  C   UNL d   1       2.241  -2.382   3.191  0.00  0.00     0.124 A 
ATOM      2  C1  UNL d   1       2.497  -3.719   2.917  0.00  0.00     0.062 A 
ATOM      3  C2  UNL d   1       1.901  -4.716   3.683  0.00  0.00     0.162 A 
ATOM      4  C3  UNL d   1       1.042  -4.381   4.731  0.00  0.00    -0.034 A 
ATOM      5  C4  UNL d   1       0.791  -3.035   5.000  0.00  0.00     0.162 A 
ATOM      6  C5  UNL d   1       1.389  -2.041   4.232  0.00  0.00     0.062 A 
ATOM      7  F   UNL d   1       1.141  -0.751   4.497  0.00  0.00    -0.097 F 
ATOM      8  F1  UNL d   1      -0.029  -2.677   6.000  0.00  0.00    -0.096 F 
ATOM      9  I   UNL d   1       0.150  -5.870   5.879  0.00  0.00    -0.060 I 
ATOM     10  F2  UNL d   1       2.166  -6.000   3.397  0.00  0.00    -0.096 F 
ATOM     11  F3  UNL d   1       3.320  -4.051   1.913  0.00  0.00    -0.097 F 
ATOM     12  F4  UNL d   1       2.817  -1.424   2.452  0.00  0.00    -0.092 F 
ENDROOT
TORSDOF 0
ENDMDL
