MODEL 1
REMARK minimizedAffinity 15.7369194
REMARK minimizedRMSD -1
REMARK  0 active torsions:
REMARK  status: ('A' for Active; 'I' for Inactive)
ROOT
ATOM      1  C   UNL d   1       2.241  -1.150   2.926  0.00  0.00     0.124 A 
ATOM      2  C1  UNL d   1       2.015  -1.827   4.116  0.00  0.00     0.062 A 
ATOM      3  C2  UNL d   1       3.086  -2.325   4.853  0.00  0.00     0.162 A 
ATOM      4  C3  UNL d   1       4.394  -2.147   4.402  0.00  0.00    -0.034 A 
ATOM      5  C4  UNL d   1       4.614  -1.465   3.203  0.00  0.00     0.162 A 
ATOM      6  C5  UNL d   1       3.540  -0.970   2.471  0.00  0.00     0.062 A 
ATOM      7  F   UNL d   1       3.760  -0.316   1.321  0.00  0.00    -0.097 F 
ATOM      8  F1  UNL d   1       5.858  -1.276   2.740  0.00  0.00    -0.096 F 
ATOM      9  I   UNL d   1       5.999  -2.890   5.500  0.00  0.00    -0.060 I 
ATOM     10  F2  UNL d   1       2.839  -2.976   6.000  0.00  0.00    -0.096 F 
ATOM     11  F3  UNL d   1       0.762  -2.004   4.558  0.00  0.00    -0.097 F 
ATOM     12  F4  UNL d   1       1.209  -0.673   2.219  0.00  0.00    -0.092 F 
ENDROOT
TORSDOF 0
ENDMDL
