MODEL 1
REMARK minimizedAffinity 9.30971813
REMARK minimizedRMSD -1
REMARK  0 active torsions:
REMARK  status: ('A' for Active; 'I' for Inactive)
ROOT
ATOM      1  C   UNL d   1       2.378  -1.493   3.161  0.00  0.00     0.124 A 
ATOM      2  C1  UNL d   1       3.698  -1.194   2.853  0.00  0.00     0.062 A 
ATOM      3  C2  UNL d   1       4.734  -1.740   3.606  0.00  0.00     0.162 A 
ATOM      4  C3  UNL d   1       4.454  -2.592   4.675  0.00  0.00    -0.034 A 
ATOM      5  C4  UNL d   1       3.124  -2.887   4.979  0.00  0.00     0.162 A 
ATOM      6  C5  UNL d   1       2.092  -2.339   4.224  0.00  0.00     0.062 A 
ATOM      7  F   UNL d   1       0.818  -2.629   4.523  0.00  0.00    -0.097 F 
ATOM      8  F1  UNL d   1       2.819  -3.702   6.000  0.00  0.00    -0.096 F 
ATOM      9  I   UNL d   1       5.999  -3.410   5.804  0.00  0.00    -0.060 I 
ATOM     10  F2  UNL d   1       6.000  -1.434   3.286  0.00  0.00    -0.096 F 
ATOM     11  F3  UNL d   1       3.977  -0.377   1.828  0.00  0.00    -0.097 F 
ATOM     12  F4  UNL d   1       1.384  -0.966   2.436  0.00  0.00    -0.092 F 
ENDROOT
TORSDOF 0
ENDMDL
