MODEL 1
REMARK minimizedAffinity 21.7908916
REMARK minimizedRMSD -1
REMARK  0 active torsions:
REMARK  status: ('A' for Active; 'I' for Inactive)
ROOT
ATOM      1  C   UNL d   1       3.443  -3.187   4.927  0.00  0.00     0.124 A 
ATOM      2  C1  UNL d   1       2.308  -2.960   4.161  0.00  0.00     0.062 A 
ATOM      3  C2  UNL d   1       2.206  -1.810   3.383  0.00  0.00     0.162 A 
ATOM      4  C3  UNL d   1       3.243  -0.877   3.367  0.00  0.00    -0.034 A 
ATOM      5  C4  UNL d   1       4.381  -1.111   4.141  0.00  0.00     0.162 A 
ATOM      6  C5  UNL d   1       4.478  -2.262   4.916  0.00  0.00     0.062 A 
ATOM      7  F   UNL d   1       5.576  -2.479   5.656  0.00  0.00    -0.097 F 
ATOM      8  F1  UNL d   1       5.397  -0.235   4.149  0.00  0.00    -0.096 F 
ATOM      9  I   UNL d   1       3.094   0.844   2.207  0.00  0.00    -0.060 I 
ATOM     10  F2  UNL d   1       1.098  -1.617   2.653  0.00  0.00    -0.096 F 
ATOM     11  F3  UNL d   1       1.306  -3.851   4.170  0.00  0.00    -0.097 F 
ATOM     12  F4  UNL d   1       3.539  -4.294   5.674  0.00  0.00    -0.092 F 
ENDROOT
TORSDOF 0
ENDMDL
