MODEL 1
REMARK minimizedAffinity 29.0946388
REMARK minimizedRMSD -1
REMARK  0 active torsions:
REMARK  status: ('A' for Active; 'I' for Inactive)
ROOT
ATOM      1  C   UNL d   1      -0.696  -0.641  -0.412  0.00  0.00     0.124 A 
ATOM      2  C1  UNL d   1      -1.017   0.558   0.210  0.00  0.00     0.062 A 
ATOM      3  C2  UNL d   1      -0.080   1.203   1.013  0.00  0.00     0.162 A 
ATOM      4  C3  UNL d   1       1.187   0.651   1.198  0.00  0.00    -0.034 A 
ATOM      5  C4  UNL d   1       1.502  -0.556   0.570  0.00  0.00     0.162 A 
ATOM      6  C5  UNL d   1       0.563  -1.196  -0.232  0.00  0.00     0.062 A 
ATOM      7  F   UNL d   1       0.875  -2.354  -0.832  0.00  0.00    -0.097 F 
ATOM      8  F1  UNL d   1       2.712  -1.114   0.726  0.00  0.00    -0.096 F 
ATOM      9  I   UNL d   1       2.590   1.612   2.397  0.00  0.00    -0.060 I 
ATOM     10  F2  UNL d   1      -0.418   2.360   1.601  0.00  0.00    -0.096 F 
ATOM     11  F3  UNL d   1      -2.233   1.096   0.038  0.00  0.00    -0.097 F 
ATOM     12  F4  UNL d   1      -1.599  -1.260  -1.183  0.00  0.00    -0.092 F 
ENDROOT
TORSDOF 0
ENDMDL
