MODEL 1
REMARK minimizedAffinity 9.84080505
REMARK minimizedRMSD -1
REMARK  0 active torsions:
REMARK  status: ('A' for Active; 'I' for Inactive)
ROOT
ATOM      1  C   UNL d   1       2.483  -2.764   3.964  0.00  0.00     0.124 A 
ATOM      2  C1  UNL d   1       2.083  -1.516   3.508  0.00  0.00     0.062 A 
ATOM      3  C2  UNL d   1       1.921  -1.287   2.145  0.00  0.00     0.162 A 
ATOM      4  C3  UNL d   1       2.158  -2.311   1.227  0.00  0.00    -0.034 A 
ATOM      5  C4  UNL d   1       2.560  -3.564   1.693  0.00  0.00     0.162 A 
ATOM      6  C5  UNL d   1       2.721  -3.787   3.057  0.00  0.00     0.062 A 
ATOM      7  F   UNL d   1       3.106  -4.994   3.495  0.00  0.00    -0.097 F 
ATOM      8  F1  UNL d   1       2.796  -4.570   0.838  0.00  0.00    -0.096 F 
ATOM      9  I   UNL d   1       1.917  -1.973  -0.813  0.00  0.00    -0.060 I 
ATOM     10  F2  UNL d   1       1.535  -0.071   1.733  0.00  0.00    -0.096 F 
ATOM     11  F3  UNL d   1       1.854  -0.526   4.383  0.00  0.00    -0.097 F 
ATOM     12  F4  UNL d   1       2.639  -2.981   5.277  0.00  0.00    -0.092 F 
ENDROOT
TORSDOF 0
ENDMDL
