MODEL 1
REMARK minimizedAffinity 1.6478225
REMARK minimizedRMSD -1
REMARK  1 active torsions:
REMARK  status: ('A' for Active; 'I' for Inactive)
REMARK    1  A    between atoms: C1_2  and  C2_3 
ROOT
ATOM      1  C2  UNL d   1       3.266   2.316   1.835  0.00  0.00    -0.073 A 
ATOM      2  C3  UNL d   1       4.225   3.185   2.369  0.00  0.00    -0.002 A 
ATOM      3  C4  UNL d   1       5.584   2.894   2.250  0.00  0.00     0.004 A 
ATOM      4  C5  UNL d   1       6.000   1.738   1.590  0.00  0.00    -0.004 A 
ATOM      5  C6  UNL d   1       5.058   0.863   1.038  0.00  0.00    -0.075 A 
ATOM      6  C7  UNL d   1       5.488  -0.386   0.327  0.00  0.00     0.076 C 
ATOM      7  C8  UNL d   1       3.694   1.161   1.165  0.00  0.00     0.001 A 
ENDROOT
BRANCH   1   8
ATOM      8  C1  UNL d   1       1.797   2.629   1.956  0.00  0.00     0.053 C 
ATOM      9  C   UNL d   1       1.403   2.971   3.384  0.00  0.00     0.018 C 
ENDBRANCH   1   8
TORSDOF 1
ENDMDL
