MODEL 1
REMARK minimizedAffinity 4.9775939
REMARK minimizedRMSD -1
REMARK  1 active torsions:
REMARK  status: ('A' for Active; 'I' for Inactive)
REMARK    1  A    between atoms: C1_2  and  C2_3 
ROOT
ATOM      1  C2  UNL d   1       3.253  -4.028   3.968  0.00  0.00    -0.073 A 
ATOM      2  C3  UNL d   1       3.435  -4.563   2.688  0.00  0.00    -0.002 A 
ATOM      3  C4  UNL d   1       2.643  -4.131   1.624  0.00  0.00     0.004 A 
ATOM      4  C5  UNL d   1       1.667  -3.156   1.826  0.00  0.00    -0.004 A 
ATOM      5  C6  UNL d   1       1.477  -2.600   3.096  0.00  0.00    -0.075 A 
ATOM      6  C7  UNL d   1       0.430  -1.552   3.331  0.00  0.00     0.076 C 
ATOM      7  C8  UNL d   1       2.275  -3.042   4.160  0.00  0.00     0.001 A 
ENDROOT
BRANCH   1   8
ATOM      8  C1  UNL d   1       4.110  -4.487   5.119  0.00  0.00     0.053 C 
ATOM      9  C   UNL d   1       4.094  -6.000   5.274  0.00  0.00     0.018 C 
ENDBRANCH   1   8
TORSDOF 1
ENDMDL
