MODEL 1
REMARK minimizedAffinity 2.08679104
REMARK minimizedRMSD -1
REMARK  1 active torsions:
REMARK  status: ('A' for Active; 'I' for Inactive)
REMARK    1  A    between atoms: C1_2  and  C2_3 
ROOT
ATOM      1  C2  UNL d   1       5.983   1.765   0.624  0.00  0.00    -0.073 A 
ATOM      2  C3  UNL d   1       5.994   0.446   1.090  0.00  0.00    -0.002 A 
ATOM      3  C4  UNL d   1       5.998  -0.620   0.188  0.00  0.00     0.004 A 
ATOM      4  C5  UNL d   1       5.998  -0.377  -1.185  0.00  0.00    -0.004 A 
ATOM      5  C6  UNL d   1       5.999   0.935  -1.670  0.00  0.00    -0.075 A 
ATOM      6  C7  UNL d   1       5.997   1.213  -3.144  0.00  0.00     0.076 C 
ATOM      7  C8  UNL d   1       5.993   1.999  -0.758  0.00  0.00     0.001 A 
ENDROOT
BRANCH   1   8
ATOM      8  C1  UNL d   1       5.985   2.919   1.594  0.00  0.00     0.053 C 
ATOM      9  C   UNL d   1       5.999   4.262   0.882  0.00  0.00     0.018 C 
ENDBRANCH   1   8
TORSDOF 1
ENDMDL
