MODEL 1
REMARK minimizedAffinity 2.39879417
REMARK minimizedRMSD -1
REMARK  1 active torsions:
REMARK  status: ('A' for Active; 'I' for Inactive)
REMARK    1  A    between atoms: C1_2  and  C2_3 
ROOT
ATOM      1  C2  UNL d   1       1.485  -1.828   0.293  0.00  0.00    -0.073 A 
ATOM      2  C3  UNL d   1       2.184  -3.002   0.594  0.00  0.00    -0.002 A 
ATOM      3  C4  UNL d   1       2.040  -3.609   1.842  0.00  0.00     0.004 A 
ATOM      4  C5  UNL d   1       1.191  -3.052   2.799  0.00  0.00    -0.004 A 
ATOM      5  C6  UNL d   1       0.474  -1.885   2.513  0.00  0.00    -0.075 A 
ATOM      6  C7  UNL d   1      -0.441  -1.273   3.532  0.00  0.00     0.076 C 
ATOM      7  C8  UNL d   1       0.627  -1.281   1.258  0.00  0.00     0.001 A 
ENDROOT
BRANCH   1   8
ATOM      8  C1  UNL d   1       1.633  -1.173  -1.055  0.00  0.00     0.053 C 
ATOM      9  C   UNL d   1       0.286  -0.856  -1.686  0.00  0.00     0.018 C 
ENDBRANCH   1   8
TORSDOF 1
ENDMDL
