MODEL 1
REMARK minimizedAffinity 7.09444094
REMARK minimizedRMSD -1
REMARK  1 active torsions:
REMARK  status: ('A' for Active; 'I' for Inactive)
REMARK    1  A    between atoms: C1_2  and  C2_3 
ROOT
ATOM      1  C2  UNL d   1       2.668   4.632  -1.567  0.00  0.00    -0.081 A 
ATOM      2  C3  UNL d   1       2.492   4.158  -2.873  0.00  0.00     0.006 A 
ATOM      3  C4  UNL d   1       3.556   4.163  -3.778  0.00  0.00     0.002 A 
ATOM      4  C5  UNL d   1       4.815   4.633  -3.390  0.00  0.00    -0.080 A 
ATOM      5  C6  UNL d   1       5.974   4.615  -4.342  0.00  0.00     0.076 C 
ATOM      6  C7  UNL d   1       4.987   5.122  -2.091  0.00  0.00     0.002 A 
ATOM      7  C8  UNL d   1       3.923   5.119  -1.186  0.00  0.00     0.006 A 
ENDROOT
BRANCH   1   8
ATOM      8  C1  UNL d   1       1.539   4.568  -0.570  0.00  0.00     0.054 C 
ATOM      9  C   UNL d   1       1.723   3.411   0.401  0.00  0.00     0.018 C 
ENDBRANCH   1   8
TORSDOF 1
ENDMDL
