MODEL 1
REMARK minimizedAffinity 8.48763657
REMARK minimizedRMSD -1
REMARK  1 active torsions:
REMARK  status: ('A' for Active; 'I' for Inactive)
REMARK    1  A    between atoms: C1_2  and  C2_3 
ROOT
ATOM      1  C2  UNL d   1       3.065  -1.588   5.257  0.00  0.00    -0.081 A 
ATOM      2  C3  UNL d   1       2.861  -2.151   3.991  0.00  0.00     0.006 A 
ATOM      3  C4  UNL d   1       3.811  -3.013   3.438  0.00  0.00     0.002 A 
ATOM      4  C5  UNL d   1       4.976  -3.333   4.144  0.00  0.00    -0.080 A 
ATOM      5  C6  UNL d   1       5.989  -4.281   3.574  0.00  0.00     0.076 C 
ATOM      6  C7  UNL d   1       5.188  -2.756   5.400  0.00  0.00     0.002 A 
ATOM      7  C8  UNL d   1       4.239  -1.894   5.954  0.00  0.00     0.006 A 
ENDROOT
BRANCH   1   8
ATOM      8  C1  UNL d   1       2.013  -0.709   5.884  0.00  0.00     0.054 C 
ATOM      9  C   UNL d   1       0.666  -1.415   5.943  0.00  0.00     0.018 C 
ENDBRANCH   1   8
TORSDOF 1
ENDMDL
