MODEL 1
REMARK minimizedAffinity 9.0224371
REMARK minimizedRMSD -1
REMARK  1 active torsions:
REMARK  status: ('A' for Active; 'I' for Inactive)
REMARK    1  A    between atoms: C1_2  and  C2_3 
ROOT
ATOM      1  C2  UNL d   1      -0.595  -2.049  -1.023  0.00  0.00    -0.081 A 
ATOM      2  C3  UNL d   1      -1.349  -3.065  -1.623  0.00  0.00     0.006 A 
ATOM      3  C4  UNL d   1      -2.366  -3.707  -0.913  0.00  0.00     0.002 A 
ATOM      4  C5  UNL d   1      -2.652  -3.337   0.406  0.00  0.00    -0.080 A 
ATOM      5  C6  UNL d   1      -3.761  -3.997   1.170  0.00  0.00     0.076 C 
ATOM      6  C7  UNL d   1      -1.888  -2.334   1.012  0.00  0.00     0.002 A 
ATOM      7  C8  UNL d   1      -0.870  -1.693   0.302  0.00  0.00     0.006 A 
ENDROOT
BRANCH   1   8
ATOM      8  C1  UNL d   1       0.459  -1.311  -1.808  0.00  0.00     0.054 C 
ATOM      9  C   UNL d   1       0.776  -2.024  -3.115  0.00  0.00     0.018 C 
ENDBRANCH   1   8
TORSDOF 1
ENDMDL
