MODEL 1
REMARK minimizedAffinity 3.80541539
REMARK minimizedRMSD -1
REMARK  1 active torsions:
REMARK  status: ('A' for Active; 'I' for Inactive)
REMARK    1  A    between atoms: C1_2  and  C2_3 
ROOT
ATOM      1  C2  UNL d   1       4.427  -3.501   4.173  0.00  0.00    -0.081 A 
ATOM      2  C3  UNL d   1       5.354  -4.057   3.282  0.00  0.00     0.006 A 
ATOM      3  C4  UNL d   1       5.224  -3.852   1.906  0.00  0.00     0.002 A 
ATOM      4  C5  UNL d   1       4.171  -3.084   1.399  0.00  0.00    -0.080 A 
ATOM      5  C6  UNL d   1       4.038  -2.832  -0.074  0.00  0.00     0.076 C 
ATOM      6  C7  UNL d   1       3.235  -2.543   2.287  0.00  0.00     0.002 A 
ATOM      7  C8  UNL d   1       3.364  -2.748   3.663  0.00  0.00     0.006 A 
ENDROOT
BRANCH   1   8
ATOM      8  C1  UNL d   1       4.600  -3.665   5.661  0.00  0.00     0.054 C 
ATOM      9  C   UNL d   1       5.961  -4.257   5.997  0.00  0.00     0.018 C 
ENDBRANCH   1   8
TORSDOF 1
ENDMDL
