MODEL 1
REMARK minimizedAffinity 6.2280941
REMARK minimizedRMSD -1
REMARK  1 active torsions:
REMARK  status: ('A' for Active; 'I' for Inactive)
REMARK    1  A    between atoms: C1_2  and  C2_3 
ROOT
ATOM      1  C2  UNL d   1       5.336   5.221  -4.172  0.00  0.00    -0.081 A 
ATOM      2  C3  UNL d   1       5.980   5.918  -3.142  0.00  0.00     0.006 A 
ATOM      3  C4  UNL d   1       5.408   5.990  -1.870  0.00  0.00     0.002 A 
ATOM      4  C5  UNL d   1       4.187   5.361  -1.604  0.00  0.00    -0.080 A 
ATOM      5  C6  UNL d   1       3.577   5.405  -0.235  0.00  0.00     0.076 C 
ATOM      6  C7  UNL d   1       3.535   4.679  -2.637  0.00  0.00     0.002 A 
ATOM      7  C8  UNL d   1       4.106   4.607  -3.910  0.00  0.00     0.006 A 
ENDROOT
BRANCH   1   8
ATOM      8  C1  UNL d   1       5.982   5.087  -5.527  0.00  0.00     0.054 C 
ATOM      9  C   UNL d   1       5.991   3.639  -5.995  0.00  0.00     0.018 C 
ENDBRANCH   1   8
TORSDOF 1
ENDMDL
