MODEL 1
REMARK minimizedAffinity 7.76146793
REMARK minimizedRMSD -1
REMARK  1 active torsions:
REMARK  status: ('A' for Active; 'I' for Inactive)
REMARK    1  A    between atoms: C1_2  and  C2_3 
ROOT
ATOM      1  C2  UNL d   1      -0.759  -1.783  -0.503  0.00  0.00    -0.081 A 
ATOM      2  C3  UNL d   1      -0.802  -2.957   0.258  0.00  0.00     0.006 A 
ATOM      3  C4  UNL d   1      -1.275  -2.933   1.572  0.00  0.00     0.002 A 
ATOM      4  C5  UNL d   1      -1.720  -1.736   2.144  0.00  0.00    -0.080 A 
ATOM      5  C6  UNL d   1      -2.258  -1.701   3.544  0.00  0.00     0.076 C 
ATOM      6  C7  UNL d   1      -1.660  -0.559   1.390  0.00  0.00     0.002 A 
ATOM      7  C8  UNL d   1      -1.187  -0.583   0.076  0.00  0.00     0.006 A 
ENDROOT
BRANCH   1   8
ATOM      8  C1  UNL d   1      -0.310  -1.818  -1.941  0.00  0.00     0.054 C 
ATOM      9  C   UNL d   1      -0.146  -3.248  -2.435  0.00  0.00     0.018 C 
ENDBRANCH   1   8
TORSDOF 1
ENDMDL
