MODEL 1
REMARK minimizedAffinity 11.2203321
REMARK minimizedRMSD -1
REMARK  1 active torsions:
REMARK  status: ('A' for Active; 'I' for Inactive)
REMARK    1  A    between atoms: C1_2  and  C2_3 
ROOT
ATOM      1  C2  UNL d   1       4.495   5.587  -3.017  0.00  0.00    -0.081 A 
ATOM      2  C3  UNL d   1       3.133   5.627  -3.343  0.00  0.00     0.006 A 
ATOM      3  C4  UNL d   1       2.163   5.520  -2.344  0.00  0.00     0.002 A 
ATOM      4  C5  UNL d   1       2.536   5.380  -1.004  0.00  0.00    -0.080 A 
ATOM      5  C6  UNL d   1       1.504   5.294   0.081  0.00  0.00     0.076 C 
ATOM      6  C7  UNL d   1       3.896   5.322  -0.680  0.00  0.00     0.002 A 
ATOM      7  C8  UNL d   1       4.867   5.429  -1.678  0.00  0.00     0.006 A 
ENDROOT
BRANCH   1   8
ATOM      8  C1  UNL d   1       5.544   5.767  -4.085  0.00  0.00     0.054 C 
ATOM      9  C   UNL d   1       5.999   4.427  -4.645  0.00  0.00     0.018 C 
ENDBRANCH   1   8
TORSDOF 1
ENDMDL
