MODEL 1
REMARK minimizedAffinity 2.67532611
REMARK minimizedRMSD -1
REMARK  1 active torsions:
REMARK  status: ('A' for Active; 'I' for Inactive)
REMARK    1  A    between atoms: C1_2  and  C2_3 
ROOT
ATOM      1  C2  UNL d   1      -1.497  -1.494   0.562  0.00  0.00    -0.081 A 
ATOM      2  C3  UNL d   1      -2.011  -2.065   1.732  0.00  0.00     0.006 A 
ATOM      3  C4  UNL d   1      -2.117  -1.308   2.902  0.00  0.00     0.002 A 
ATOM      4  C5  UNL d   1      -1.718   0.032   2.918  0.00  0.00    -0.080 A 
ATOM      5  C6  UNL d   1      -1.855   0.864   4.159  0.00  0.00     0.076 C 
ATOM      6  C7  UNL d   1      -1.188   0.598   1.754  0.00  0.00     0.002 A 
ATOM      7  C8  UNL d   1      -1.082  -0.158   0.584  0.00  0.00     0.006 A 
ENDROOT
BRANCH   1   8
ATOM      8  C1  UNL d   1      -1.442  -2.288  -0.718  0.00  0.00     0.054 C 
ATOM      9  C   UNL d   1      -2.798  -2.892  -1.054  0.00  0.00     0.018 C 
ENDBRANCH   1   8
TORSDOF 1
ENDMDL
