MODEL 1
REMARK minimizedAffinity 4.92621231
REMARK minimizedRMSD -1
REMARK  1 active torsions:
REMARK  status: ('A' for Active; 'I' for Inactive)
REMARK    1  A    between atoms: C1_2  and  C2_3 
ROOT
ATOM      1  C2  UNL d   1       0.391  -2.500  -2.554  0.00  0.00    -0.081 A 
ATOM      2  C3  UNL d   1       0.633  -1.870  -1.327  0.00  0.00     0.006 A 
ATOM      3  C4  UNL d   1      -0.354  -1.840  -0.339  0.00  0.00     0.002 A 
ATOM      4  C5  UNL d   1      -1.596  -2.445  -0.558  0.00  0.00    -0.080 A 
ATOM      5  C6  UNL d   1      -2.653  -2.446   0.506  0.00  0.00     0.076 C 
ATOM      6  C7  UNL d   1      -1.845  -3.059  -1.790  0.00  0.00     0.002 A 
ATOM      7  C8  UNL d   1      -0.858  -3.090  -2.778  0.00  0.00     0.006 A 
ENDROOT
BRANCH   1   8
ATOM      8  C1  UNL d   1       1.475  -2.591  -3.596  0.00  0.00     0.054 C 
ATOM      9  C   UNL d   1       2.858  -2.508  -2.965  0.00  0.00     0.018 C 
ENDBRANCH   1   8
TORSDOF 1
ENDMDL
