MODEL 1
REMARK minimizedAffinity 2.87080979
REMARK minimizedRMSD -1
REMARK  1 active torsions:
REMARK  status: ('A' for Active; 'I' for Inactive)
REMARK    1  A    between atoms: C1_2  and  C2_3 
ROOT
ATOM      1  C2  UNL d   1      -0.384  -2.669  -1.832  0.00  0.00    -0.081 A 
ATOM      2  C3  UNL d   1       0.088  -1.948  -2.935  0.00  0.00     0.006 A 
ATOM      3  C4  UNL d   1       0.092  -2.524  -4.208  0.00  0.00     0.002 A 
ATOM      4  C5  UNL d   1      -0.383  -3.826  -4.400  0.00  0.00    -0.080 A 
ATOM      5  C6  UNL d   1      -0.412  -4.445  -5.766  0.00  0.00     0.076 C 
ATOM      6  C7  UNL d   1      -0.839  -4.552  -3.294  0.00  0.00     0.002 A 
ATOM      7  C8  UNL d   1      -0.842  -3.978  -2.022  0.00  0.00     0.006 A 
ENDROOT
BRANCH   1   8
ATOM      8  C1  UNL d   1      -0.450  -2.028  -0.469  0.00  0.00     0.054 C 
ATOM      9  C   UNL d   1      -1.495  -2.702   0.409  0.00  0.00     0.018 C 
ENDBRANCH   1   8
TORSDOF 1
ENDMDL
