MODEL 1
REMARK minimizedAffinity 6.33651018
REMARK minimizedRMSD -1
REMARK  1 active torsions:
REMARK  status: ('A' for Active; 'I' for Inactive)
REMARK    1  A    between atoms: C1_2  and  C2_3 
ROOT
ATOM      1  C2  UNL d   1      -1.123  -2.861  -0.270  0.00  0.00    -0.081 A 
ATOM      2  C3  UNL d   1      -0.663  -4.053  -0.842  0.00  0.00     0.006 A 
ATOM      3  C4  UNL d   1       0.082  -4.030  -2.024  0.00  0.00     0.002 A 
ATOM      4  C5  UNL d   1       0.386  -2.815  -2.647  0.00  0.00    -0.080 A 
ATOM      5  C6  UNL d   1       1.211  -2.774  -3.899  0.00  0.00     0.076 C 
ATOM      6  C7  UNL d   1      -0.089  -1.625  -2.085  0.00  0.00     0.002 A 
ATOM      7  C8  UNL d   1      -0.835  -1.648  -0.904  0.00  0.00     0.006 A 
ENDROOT
BRANCH   1   8
ATOM      8  C1  UNL d   1      -1.872  -2.879   1.039  0.00  0.00     0.054 C 
ATOM      9  C   UNL d   1      -3.376  -2.928   0.815  0.00  0.00     0.018 C 
ENDBRANCH   1   8
TORSDOF 1
ENDMDL
