MODEL 1
REMARK minimizedAffinity 7.57170582
REMARK minimizedRMSD -1
REMARK  1 active torsions:
REMARK  status: ('A' for Active; 'I' for Inactive)
REMARK    1  A    between atoms: C1_2  and  C2_3 
ROOT
ATOM      1  C2  UNL d   1       1.837  -2.074  -2.779  0.00  0.00    -0.081 A 
ATOM      2  C3  UNL d   1       1.368  -1.450  -1.617  0.00  0.00     0.006 A 
ATOM      3  C4  UNL d   1       0.066  -1.678  -1.166  0.00  0.00     0.002 A 
ATOM      4  C5  UNL d   1      -0.786  -2.539  -1.865  0.00  0.00    -0.080 A 
ATOM      5  C6  UNL d   1      -2.176  -2.816  -1.375  0.00  0.00     0.076 C 
ATOM      6  C7  UNL d   1      -0.324  -3.150  -3.035  0.00  0.00     0.002 A 
ATOM      7  C8  UNL d   1       0.978  -2.922  -3.487  0.00  0.00     0.006 A 
ENDROOT
BRANCH   1   8
ATOM      8  C1  UNL d   1       3.262  -1.881  -3.232  0.00  0.00     0.054 C 
ATOM      9  C   UNL d   1       4.164  -1.493  -2.069  0.00  0.00     0.018 C 
ENDBRANCH   1   8
TORSDOF 1
ENDMDL
