MODEL 1
REMARK minimizedAffinity 6.27746534
REMARK minimizedRMSD -1
REMARK  1 active torsions:
REMARK  status: ('A' for Active; 'I' for Inactive)
REMARK    1  A    between atoms: C1_2  and  C2_3 
ROOT
ATOM      1  C2  UNL d   1      -0.921  -2.873  -0.783  0.00  0.00    -0.081 A 
ATOM      2  C3  UNL d   1      -0.022  -1.840  -1.077  0.00  0.00     0.006 A 
ATOM      3  C4  UNL d   1       0.483  -1.688  -2.371  0.00  0.00     0.002 A 
ATOM      4  C5  UNL d   1       0.091  -2.559  -3.393  0.00  0.00    -0.080 A 
ATOM      5  C6  UNL d   1       0.602  -2.387  -4.793  0.00  0.00     0.076 C 
ATOM      6  C7  UNL d   1      -0.794  -3.601  -3.096  0.00  0.00     0.002 A 
ATOM      7  C8  UNL d   1      -1.298  -3.754  -1.802  0.00  0.00     0.006 A 
ENDROOT
BRANCH   1   8
ATOM      8  C1  UNL d   1      -1.517  -3.001   0.595  0.00  0.00     0.054 C 
ATOM      9  C   UNL d   1      -3.038  -2.946   0.548  0.00  0.00     0.018 C 
ENDBRANCH   1   8
TORSDOF 1
ENDMDL
