MODEL 1
REMARK minimizedAffinity 23.0109444
REMARK minimizedRMSD -1
REMARK  0 active torsions:
REMARK  status: ('A' for Active; 'I' for Inactive)
ROOT
ATOM      1  C   UNL d   1      -0.687  -4.048  -0.084  0.00  0.00     0.124 A 
ATOM      2  C1  UNL d   1      -0.926  -3.047   0.846  0.00  0.00     0.062 A 
ATOM      3  C2  UNL d   1       0.135  -2.333   1.395  0.00  0.00     0.162 A 
ATOM      4  C3  UNL d   1       1.446  -2.618   1.015  0.00  0.00    -0.034 A 
ATOM      5  C4  UNL d   1       1.679  -3.628   0.079  0.00  0.00     0.162 A 
ATOM      6  C5  UNL d   1       0.615  -4.338  -0.467  0.00  0.00     0.062 A 
ATOM      7  F   UNL d   1       0.849  -5.306  -1.365  0.00  0.00    -0.097 F 
ATOM      8  F1  UNL d   1       2.928  -3.928  -0.309  0.00  0.00    -0.096 F 
ATOM      9  I   UNL d   1       3.036  -1.554   1.834  0.00  0.00    -0.060 I 
ATOM     10  F2  UNL d   1      -0.126  -1.370   2.292  0.00  0.00    -0.096 F 
ATOM     11  F3  UNL d   1      -2.184  -2.765   1.218  0.00  0.00    -0.097 F 
ATOM     12  F4  UNL d   1      -1.710  -4.734  -0.611  0.00  0.00    -0.092 F 
ENDROOT
TORSDOF 0
ENDMDL
