MODEL 1
REMARK minimizedAffinity 17.5839939
REMARK minimizedRMSD -1
REMARK  0 active torsions:
REMARK  status: ('A' for Active; 'I' for Inactive)
ROOT
ATOM      1  C   UNL d   1      -1.112  -3.925  -0.253  0.00  0.00     0.124 A 
ATOM      2  C1  UNL d   1      -1.782  -2.767   0.117  0.00  0.00     0.062 A 
ATOM      3  C2  UNL d   1      -1.861  -2.401   1.457  0.00  0.00     0.162 A 
ATOM      4  C3  UNL d   1      -1.266  -3.193   2.439  0.00  0.00    -0.034 A 
ATOM      5  C4  UNL d   1      -0.595  -4.357   2.060  0.00  0.00     0.162 A 
ATOM      6  C5  UNL d   1      -0.519  -4.718   0.719  0.00  0.00     0.062 A 
ATOM      7  F   UNL d   1       0.129  -5.837   0.364  0.00  0.00    -0.097 F 
ATOM      8  F1  UNL d   1      -0.011  -5.142   2.978  0.00  0.00    -0.096 F 
ATOM      9  I   UNL d   1      -1.381  -2.649   4.445  0.00  0.00    -0.060 I 
ATOM     10  F2  UNL d   1      -2.515  -1.277   1.786  0.00  0.00    -0.096 F 
ATOM     11  F3  UNL d   1      -2.357  -1.999  -0.820  0.00  0.00    -0.097 F 
ATOM     12  F4  UNL d   1      -1.039  -4.275  -1.543  0.00  0.00    -0.092 F 
ENDROOT
TORSDOF 0
ENDMDL
