MODEL 1
REMARK minimizedAffinity 10.9308605
REMARK minimizedRMSD -1
REMARK  0 active torsions:
REMARK  status: ('A' for Active; 'I' for Inactive)
ROOT
ATOM      1  C   UNL d   1      -1.845  -0.760  -3.213  0.00  0.00     0.124 A 
ATOM      2  C1  UNL d   1      -1.350   0.133  -2.273  0.00  0.00     0.062 A 
ATOM      3  C2  UNL d   1      -2.207   0.715  -1.342  0.00  0.00     0.162 A 
ATOM      4  C3  UNL d   1      -3.567   0.406  -1.348  0.00  0.00    -0.034 A 
ATOM      5  C4  UNL d   1      -4.057  -0.492  -2.298  0.00  0.00     0.162 A 
ATOM      6  C5  UNL d   1      -3.197  -1.071  -3.225  0.00  0.00     0.062 A 
ATOM      7  F   UNL d   1      -3.676  -1.933  -4.134  0.00  0.00    -0.097 F 
ATOM      8  F1  UNL d   1      -5.359  -0.812  -2.331  0.00  0.00    -0.096 F 
ATOM      9  I   UNL d   1      -4.850   1.274   0.041  0.00  0.00    -0.060 I 
ATOM     10  F2  UNL d   1      -1.701   1.574  -0.445  0.00  0.00    -0.096 F 
ATOM     11  F3  UNL d   1      -0.044   0.436  -2.260  0.00  0.00    -0.097 F 
ATOM     12  F4  UNL d   1      -1.019  -1.318  -4.108  0.00  0.00    -0.092 F 
ENDROOT
TORSDOF 0
ENDMDL
