MODEL 1
REMARK minimizedAffinity 11.9315825
REMARK minimizedRMSD -1
REMARK  0 active torsions:
REMARK  status: ('A' for Active; 'I' for Inactive)
ROOT
ATOM      1  C   UNL d   1      -1.001  -2.918  -0.414  0.00  0.00     0.124 A 
ATOM      2  C1  UNL d   1      -1.538  -1.835  -1.096  0.00  0.00     0.062 A 
ATOM      3  C2  UNL d   1      -2.897  -1.553  -1.004  0.00  0.00     0.162 A 
ATOM      4  C3  UNL d   1      -3.731  -2.355  -0.224  0.00  0.00    -0.034 A 
ATOM      5  C4  UNL d   1      -3.185  -3.443   0.459  0.00  0.00     0.162 A 
ATOM      6  C5  UNL d   1      -1.825  -3.721   0.363  0.00  0.00     0.062 A 
ATOM      7  F   UNL d   1      -1.309  -4.767   1.023  0.00  0.00    -0.097 F 
ATOM      8  F1  UNL d   1      -3.958  -4.234   1.217  0.00  0.00    -0.096 F 
ATOM      9  I   UNL d   1      -5.765  -1.936  -0.083  0.00  0.00    -0.060 I 
ATOM     10  F2  UNL d   1      -3.388  -0.500  -1.674  0.00  0.00    -0.096 F 
ATOM     11  F3  UNL d   1      -0.744  -1.058  -1.848  0.00  0.00    -0.097 F 
ATOM     12  F4  UNL d   1       0.307  -3.188  -0.505  0.00  0.00    -0.092 F 
ENDROOT
TORSDOF 0
ENDMDL
