MODEL 1
REMARK minimizedAffinity 12.5296097
REMARK minimizedRMSD -1
REMARK  0 active torsions:
REMARK  status: ('A' for Active; 'I' for Inactive)
ROOT
ATOM      1  C   UNL d   1      -5.994   1.193   1.347  0.00  0.00     0.124 A 
ATOM      2  C1  UNL d   1      -5.993   1.555   2.687  0.00  0.00     0.062 A 
ATOM      3  C2  UNL d   1      -5.994   0.577   3.677  0.00  0.00     0.162 A 
ATOM      4  C3  UNL d   1      -5.996  -0.774   3.331  0.00  0.00    -0.034 A 
ATOM      5  C4  UNL d   1      -5.998  -1.131   1.981  0.00  0.00     0.162 A 
ATOM      6  C5  UNL d   1      -5.997  -0.150   0.995  0.00  0.00     0.062 A 
ATOM      7  F   UNL d   1      -5.998  -0.502  -0.298  0.00  0.00    -0.097 F 
ATOM      8  F1  UNL d   1      -6.000  -2.421   1.613  0.00  0.00    -0.096 F 
ATOM      9  I   UNL d   1      -5.998  -2.240   4.808  0.00  0.00    -0.060 I 
ATOM     10  F2  UNL d   1      -5.993   0.956   4.963  0.00  0.00    -0.096 F 
ATOM     11  F3  UNL d   1      -5.991   2.852   3.029  0.00  0.00    -0.097 F 
ATOM     12  F4  UNL d   1      -5.994   2.136   0.397  0.00  0.00    -0.092 F 
ENDROOT
TORSDOF 0
ENDMDL
