MODEL 1
REMARK minimizedAffinity -2.92381597
REMARK minimizedRMSD -1
REMARK  0 active torsions:
REMARK  status: ('A' for Active; 'I' for Inactive)
ROOT
ATOM      1  C   UNL d   1      -2.453  -1.123  -1.970  0.00  0.00     0.124 A 
ATOM      2  C1  UNL d   1      -1.237  -0.467  -2.109  0.00  0.00     0.062 A 
ATOM      3  C2  UNL d   1      -0.237  -0.637  -1.156  0.00  0.00     0.162 A 
ATOM      4  C3  UNL d   1      -0.448  -1.468  -0.055  0.00  0.00    -0.034 A 
ATOM      5  C4  UNL d   1      -1.673  -2.123   0.078  0.00  0.00     0.162 A 
ATOM      6  C5  UNL d   1      -2.670  -1.950  -0.877  0.00  0.00     0.062 A 
ATOM      7  F   UNL d   1      -3.843  -2.584  -0.741  0.00  0.00    -0.097 F 
ATOM      8  F1  UNL d   1      -1.909  -2.930   1.124  0.00  0.00    -0.096 F 
ATOM      9  I   UNL d   1       1.045  -1.725   1.372  0.00  0.00    -0.060 I 
ATOM     10  F2  UNL d   1       0.927   0.009  -1.315  0.00  0.00    -0.096 F 
ATOM     11  F3  UNL d   1      -1.026   0.334  -3.163  0.00  0.00    -0.097 F 
ATOM     12  F4  UNL d   1      -3.414  -0.956  -2.888  0.00  0.00    -0.092 F 
ENDROOT
TORSDOF 0
ENDMDL
