MODEL 1
REMARK minimizedAffinity 4.8234067
REMARK minimizedRMSD -1
REMARK  0 active torsions:
REMARK  status: ('A' for Active; 'I' for Inactive)
ROOT
ATOM      1  C   UNL d   1       1.605  -3.768   0.399  0.00  0.00     0.124 A 
ATOM      2  C1  UNL d   1       1.260  -2.480   0.785  0.00  0.00     0.062 A 
ATOM      3  C2  UNL d   1      -0.062  -2.054   0.702  0.00  0.00     0.162 A 
ATOM      4  C3  UNL d   1      -1.051  -2.918   0.232  0.00  0.00    -0.034 A 
ATOM      5  C4  UNL d   1      -0.697  -4.212  -0.155  0.00  0.00     0.162 A 
ATOM      6  C5  UNL d   1       0.626  -4.633  -0.070  0.00  0.00     0.062 A 
ATOM      7  F   UNL d   1       0.957  -5.877  -0.443  0.00  0.00    -0.097 F 
ATOM      8  F1  UNL d   1      -1.623  -5.069  -0.611  0.00  0.00    -0.096 F 
ATOM      9  I   UNL d   1      -3.030  -2.286   0.107  0.00  0.00    -0.060 I 
ATOM     10  F2  UNL d   1      -0.366  -0.804   1.081  0.00  0.00    -0.096 F 
ATOM     11  F3  UNL d   1       2.204  -1.642   1.237  0.00  0.00    -0.097 F 
ATOM     12  F4  UNL d   1       2.878  -4.174   0.479  0.00  0.00    -0.092 F 
ENDROOT
TORSDOF 0
ENDMDL
