MODEL 1
REMARK minimizedAffinity 31.0136452
REMARK minimizedRMSD -1
REMARK  0 active torsions:
REMARK  status: ('A' for Active; 'I' for Inactive)
ROOT
ATOM      1  C   UNL d   1      -3.309  -0.317  -2.305  0.00  0.00     0.124 A 
ATOM      2  C1  UNL d   1      -3.786  -1.158  -1.309  0.00  0.00     0.062 A 
ATOM      3  C2  UNL d   1      -2.978  -2.174  -0.806  0.00  0.00     0.162 A 
ATOM      4  C3  UNL d   1      -1.685  -2.355  -1.297  0.00  0.00    -0.034 A 
ATOM      5  C4  UNL d   1      -1.214  -1.505  -2.300  0.00  0.00     0.162 A 
ATOM      6  C5  UNL d   1      -2.025  -0.491  -2.799  0.00  0.00     0.062 A 
ATOM      7  F   UNL d   1      -1.563   0.320  -3.762  0.00  0.00    -0.097 F 
ATOM      8  F1  UNL d   1       0.024  -1.651  -2.795  0.00  0.00    -0.096 F 
ATOM      9  I   UNL d   1      -0.475  -3.873  -0.548  0.00  0.00    -0.060 I 
ATOM     10  F2  UNL d   1      -3.464  -2.972   0.157  0.00  0.00    -0.096 F 
ATOM     11  F3  UNL d   1      -5.027  -0.993  -0.830  0.00  0.00    -0.097 F 
ATOM     12  F4  UNL d   1      -4.089   0.659  -2.788  0.00  0.00    -0.092 F 
ENDROOT
TORSDOF 0
ENDMDL
