MODEL 1
REMARK minimizedAffinity 23.2723522
REMARK minimizedRMSD -1
REMARK  0 active torsions:
REMARK  status: ('A' for Active; 'I' for Inactive)
ROOT
ATOM      1  C   UNL d   1      -1.101  -3.979  -0.117  0.00  0.00     0.124 A 
ATOM      2  C1  UNL d   1      -0.876  -4.715   1.038  0.00  0.00     0.062 A 
ATOM      3  C2  UNL d   1       0.369  -5.293   1.268  0.00  0.00     0.162 A 
ATOM      4  C3  UNL d   1       1.400  -5.137   0.342  0.00  0.00    -0.034 A 
ATOM      5  C4  UNL d   1       1.165  -4.396  -0.818  0.00  0.00     0.162 A 
ATOM      6  C5  UNL d   1      -0.081  -3.820  -1.044  0.00  0.00     0.062 A 
ATOM      7  F   UNL d   1      -0.296  -3.109  -2.160  0.00  0.00    -0.097 F 
ATOM      8  F1  UNL d   1       2.134  -4.225  -1.730  0.00  0.00    -0.096 F 
ATOM      9  I   UNL d   1       3.263  -5.999   0.683  0.00  0.00    -0.060 I 
ATOM     10  F2  UNL d   1       0.558  -5.999   2.393  0.00  0.00    -0.096 F 
ATOM     11  F3  UNL d   1      -1.861  -4.871   1.934  0.00  0.00    -0.097 F 
ATOM     12  F4  UNL d   1      -2.301  -3.425  -0.337  0.00  0.00    -0.092 F 
ENDROOT
TORSDOF 0
ENDMDL
