MODEL 1
REMARK minimizedAffinity -4.36653662
REMARK minimizedRMSD -1
REMARK  0 active torsions:
REMARK  status: ('A' for Active; 'I' for Inactive)
ROOT
ATOM      1  C   UNL d   1      -0.707  -0.967   2.835  0.00  0.00     0.078 C 
ATOM      2  C1  UNL d   1      -0.203  -0.212   1.642  0.00  0.00    -0.077 A 
ATOM      3  C2  UNL d   1      -1.067   0.155   0.603  0.00  0.00    -0.001 A 
ATOM      4  C3  UNL d   1      -0.582   0.850  -0.506  0.00  0.00     0.003 A 
ATOM      5  C4  UNL d   1       0.768   1.183  -0.588  0.00  0.00    -0.005 A 
ATOM      6  C5  UNL d   1       1.636   0.820   0.440  0.00  0.00     0.003 A 
ATOM      7  C6  UNL d   1       1.153   0.125   1.550  0.00  0.00    -0.001 A 
ENDROOT
TORSDOF 0
ENDMDL
