MODEL 1
REMARK minimizedAffinity -5.04323387
REMARK minimizedRMSD -1
REMARK  0 active torsions:
REMARK  status: ('A' for Active; 'I' for Inactive)
ROOT
ATOM      1  C   UNL d   1      -1.068  -1.043   3.584  0.00  0.00     0.078 C 
ATOM      2  C1  UNL d   1      -0.512  -0.496   2.303  0.00  0.00    -0.077 A 
ATOM      3  C2  UNL d   1       0.822  -0.081   2.215  0.00  0.00    -0.001 A 
ATOM      4  C3  UNL d   1       1.323   0.435   1.019  0.00  0.00     0.003 A 
ATOM      5  C4  UNL d   1       0.496   0.543  -0.097  0.00  0.00    -0.005 A 
ATOM      6  C5  UNL d   1      -0.834   0.135  -0.019  0.00  0.00     0.003 A 
ATOM      7  C6  UNL d   1      -1.336  -0.382   1.177  0.00  0.00    -0.001 A 
ENDROOT
TORSDOF 0
ENDMDL
