MODEL 1
REMARK minimizedAffinity -5.40291548
REMARK minimizedRMSD -1
REMARK  0 active torsions:
REMARK  status: ('A' for Active; 'I' for Inactive)
ROOT
ATOM      1  C   UNL d   1      -0.315  -0.973   3.002  0.00  0.00     0.078 C 
ATOM      2  C1  UNL d   1      -0.530  -0.361   1.650  0.00  0.00    -0.077 A 
ATOM      3  C2  UNL d   1       0.531   0.217   0.943  0.00  0.00    -0.001 A 
ATOM      4  C3  UNL d   1       0.315   0.792  -0.310  0.00  0.00     0.003 A 
ATOM      5  C4  UNL d   1      -0.962   0.795  -0.867  0.00  0.00    -0.005 A 
ATOM      6  C5  UNL d   1      -2.025   0.224  -0.170  0.00  0.00     0.003 A 
ATOM      7  C6  UNL d   1      -1.811  -0.351   1.083  0.00  0.00    -0.001 A 
ENDROOT
TORSDOF 0
ENDMDL
