MODEL 1
REMARK minimizedAffinity -5.26553631
REMARK minimizedRMSD -1
REMARK  0 active torsions:
REMARK  status: ('A' for Active; 'I' for Inactive)
ROOT
ATOM      1  C   UNL d   1      -0.929  -0.797   2.642  0.00  0.00     0.078 C 
ATOM      2  C1  UNL d   1      -0.704  -0.197   1.286  0.00  0.00    -0.077 A 
ATOM      3  C2  UNL d   1      -1.759  -0.056   0.376  0.00  0.00    -0.001 A 
ATOM      4  C3  UNL d   1      -1.533   0.495  -0.886  0.00  0.00     0.003 A 
ATOM      5  C4  UNL d   1      -0.253   0.908  -1.251  0.00  0.00    -0.005 A 
ATOM      6  C5  UNL d   1       0.803   0.769  -0.353  0.00  0.00     0.003 A 
ATOM      7  C6  UNL d   1       0.579   0.218   0.910  0.00  0.00    -0.001 A 
ENDROOT
TORSDOF 0
ENDMDL
