MODEL 1
REMARK minimizedAffinity -5.95762634
REMARK minimizedRMSD -1
REMARK  0 active torsions:
REMARK  status: ('A' for Active; 'I' for Inactive)
ROOT
ATOM      1  C   UNL d   1      -3.150   0.444   1.760  0.00  0.00     0.078 C 
ATOM      2  C1  UNL d   1      -1.680   0.185   1.611  0.00  0.00    -0.077 A 
ATOM      3  C2  UNL d   1      -0.876  -0.069   2.729  0.00  0.00    -0.001 A 
ATOM      4  C3  UNL d   1       0.493  -0.299   2.576  0.00  0.00     0.003 A 
ATOM      5  C4  UNL d   1       1.068  -0.277   1.307  0.00  0.00    -0.005 A 
ATOM      6  C5  UNL d   1       0.276  -0.024   0.189  0.00  0.00     0.003 A 
ATOM      7  C6  UNL d   1      -1.092   0.207   0.340  0.00  0.00    -0.001 A 
ENDROOT
TORSDOF 0
ENDMDL
