MODEL 1
REMARK minimizedAffinity -5.8195529
REMARK minimizedRMSD -1
REMARK  0 active torsions:
REMARK  status: ('A' for Active; 'I' for Inactive)
ROOT
ATOM      1  C   UNL d   1      -2.145   1.125  -1.076  0.00  0.00     0.078 C 
ATOM      2  C1  UNL d   1      -1.392   0.771   0.171  0.00  0.00    -0.077 A 
ATOM      3  C2  UNL d   1      -2.066   0.504   1.369  0.00  0.00    -0.001 A 
ATOM      4  C3  UNL d   1      -1.351   0.186   2.525  0.00  0.00     0.003 A 
ATOM      5  C4  UNL d   1       0.041   0.132   2.495  0.00  0.00    -0.005 A 
ATOM      6  C5  UNL d   1       0.720   0.398   1.308  0.00  0.00     0.003 A 
ATOM      7  C6  UNL d   1       0.007   0.717   0.151  0.00  0.00    -0.001 A 
ENDROOT
TORSDOF 0
ENDMDL
