MODEL 1
REMARK minimizedAffinity -5.86147928
REMARK minimizedRMSD -1
REMARK  0 active torsions:
REMARK  status: ('A' for Active; 'I' for Inactive)
ROOT
ATOM      1  C   UNL d   1      -0.089  -0.306  -0.820  0.00  0.00     0.078 C 
ATOM      2  C1  UNL d   1      -0.661  -0.273   0.566  0.00  0.00    -0.077 A 
ATOM      3  C2  UNL d   1      -2.032  -0.084   0.775  0.00  0.00    -0.001 A 
ATOM      4  C3  UNL d   1      -2.550  -0.046   2.071  0.00  0.00     0.003 A 
ATOM      5  C4  UNL d   1      -1.703  -0.195   3.167  0.00  0.00    -0.005 A 
ATOM      6  C5  UNL d   1      -0.336  -0.381   2.969  0.00  0.00     0.003 A 
ATOM      7  C6  UNL d   1       0.183  -0.420   1.674  0.00  0.00    -0.001 A 
ENDROOT
TORSDOF 0
ENDMDL
