MODEL 1
REMARK minimizedAffinity -5.54607534
REMARK minimizedRMSD -1
REMARK  0 active torsions:
REMARK  status: ('A' for Active; 'I' for Inactive)
ROOT
ATOM      1  C   UNL d   1       0.754  -0.049  -0.943  0.00  0.00     0.078 C 
ATOM      2  C1  UNL d   1       0.206  -0.249   0.439  0.00  0.00    -0.077 A 
ATOM      3  C2  UNL d   1      -0.539  -1.390   0.760  0.00  0.00    -0.001 A 
ATOM      4  C3  UNL d   1      -1.052  -1.559   2.047  0.00  0.00     0.003 A 
ATOM      5  C4  UNL d   1      -0.825  -0.591   3.023  0.00  0.00    -0.005 A 
ATOM      6  C5  UNL d   1      -0.087   0.549   2.712  0.00  0.00     0.003 A 
ATOM      7  C6  UNL d   1       0.427   0.720   1.425  0.00  0.00    -0.001 A 
ENDROOT
TORSDOF 0
ENDMDL
