MODEL 1
REMARK minimizedAffinity -3.55741096
REMARK minimizedRMSD -1
REMARK  0 active torsions:
REMARK  status: ('A' for Active; 'I' for Inactive)
ROOT
ATOM      1  C   UNL d   1      -0.020   0.188   2.452  0.00  0.00     0.078 C 
ATOM      2  C1  UNL d   1       0.043   0.209   0.954  0.00  0.00    -0.077 A 
ATOM      3  C2  UNL d   1       1.187  -0.225   0.274  0.00  0.00    -0.001 A 
ATOM      4  C3  UNL d   1       1.236  -0.190  -1.121  0.00  0.00     0.003 A 
ATOM      5  C4  UNL d   1       0.143   0.279  -1.847  0.00  0.00    -0.005 A 
ATOM      6  C5  UNL d   1      -0.999   0.716  -1.179  0.00  0.00     0.003 A 
ATOM      7  C6  UNL d   1      -1.049   0.682   0.215  0.00  0.00    -0.001 A 
ENDROOT
TORSDOF 0
ENDMDL
