MODEL 1
REMARK minimizedAffinity -5.29509163
REMARK minimizedRMSD -1
REMARK  0 active torsions:
REMARK  status: ('A' for Active; 'I' for Inactive)
ROOT
ATOM      1  C   UNL d   1       0.204  -0.070  -1.132  0.00  0.00     0.078 C 
ATOM      2  C1  UNL d   1      -0.215  -0.228   0.299  0.00  0.00    -0.077 A 
ATOM      3  C2  UNL d   1      -1.562  -0.389   0.643  0.00  0.00    -0.001 A 
ATOM      4  C3  UNL d   1      -1.938  -0.525   1.980  0.00  0.00     0.003 A 
ATOM      5  C4  UNL d   1      -0.973  -0.499   2.985  0.00  0.00    -0.005 A 
ATOM      6  C5  UNL d   1       0.370  -0.337   2.653  0.00  0.00     0.003 A 
ATOM      7  C6  UNL d   1       0.748  -0.201   1.316  0.00  0.00    -0.001 A 
ENDROOT
TORSDOF 0
ENDMDL
