MODEL 1
REMARK minimizedAffinity -1.6213963
REMARK minimizedRMSD -1
REMARK  0 active torsions:
REMARK  status: ('A' for Active; 'I' for Inactive)
ROOT
ATOM      1  C   UNL d   1       1.143   0.172  -3.016  0.00  0.00     0.078 C 
ATOM      2  C1  UNL d   1       0.337   0.326  -1.761  0.00  0.00    -0.077 A 
ATOM      3  C2  UNL d   1      -1.005   0.725  -1.809  0.00  0.00    -0.001 A 
ATOM      4  C3  UNL d   1      -1.740   0.874  -0.632  0.00  0.00     0.003 A 
ATOM      5  C4  UNL d   1      -1.142   0.628   0.602  0.00  0.00    -0.005 A 
ATOM      6  C5  UNL d   1       0.193   0.233   0.660  0.00  0.00     0.003 A 
ATOM      7  C6  UNL d   1       0.930   0.083  -0.516  0.00  0.00    -0.001 A 
ENDROOT
TORSDOF 0
ENDMDL
