MODEL 1
REMARK minimizedAffinity 8.2164917
REMARK minimizedRMSD -1
REMARK  0 active torsions:
REMARK  status: ('A' for Active; 'I' for Inactive)
ROOT
ATOM      1  C1  BNZ d   1       3.441   3.749  -2.529  0.00  0.00     0.000 A 
ATOM      2  C2  BNZ d   1       4.550   4.518  -2.292  0.00  0.00     0.000 A 
ATOM      3  C3  BNZ d   1       5.478   4.728  -3.273  0.00  0.00     0.000 A 
ATOM      4  C4  BNZ d   1       5.317   4.138  -4.475  0.00  0.00     0.000 A 
ATOM      5  C5  BNZ d   1       4.210   3.353  -4.727  0.00  0.00     0.000 A 
ATOM      6  C6  BNZ d   1       3.258   3.175  -3.749  0.00  0.00     0.000 A 
ENDROOT
TORSDOF 0
ENDMDL
