MODEL 1
REMARK minimizedAffinity 12.4646559
REMARK minimizedRMSD -1
REMARK  0 active torsions:
REMARK  status: ('A' for Active; 'I' for Inactive)
ROOT
ATOM      1  C1  BNZ d   1      -5.999  -5.398  -5.653  0.00  0.00     0.000 A 
ATOM      2  C2  BNZ d   1      -4.817  -5.995  -5.999  0.00  0.00     0.000 A 
ATOM      3  C3  BNZ d   1      -3.627  -5.521  -5.523  0.00  0.00     0.000 A 
ATOM      4  C4  BNZ d   1      -3.617  -4.427  -4.733  0.00  0.00     0.000 A 
ATOM      5  C5  BNZ d   1      -4.801  -3.808  -4.383  0.00  0.00     0.000 A 
ATOM      6  C6  BNZ d   1      -5.999  -4.312  -4.833  0.00  0.00     0.000 A 
ENDROOT
TORSDOF 0
ENDMDL
