MODEL 1
REMARK minimizedAffinity 7.66970778
REMARK minimizedRMSD -1
REMARK  0 active torsions:
REMARK  status: ('A' for Active; 'I' for Inactive)
ROOT
ATOM      1  C1  BNZ d   1      -1.233  -2.215   1.541  0.00  0.00     0.000 A 
ATOM      2  C2  BNZ d   1      -1.189  -0.849   1.624  0.00  0.00     0.000 A 
ATOM      3  C3  BNZ d   1      -2.222  -0.148   2.182  0.00  0.00     0.000 A 
ATOM      4  C4  BNZ d   1      -3.313  -0.810   2.618  0.00  0.00     0.000 A 
ATOM      5  C5  BNZ d   1      -3.376  -2.187   2.532  0.00  0.00     0.000 A 
ATOM      6  C6  BNZ d   1      -2.318  -2.892   2.006  0.00  0.00     0.000 A 
ENDROOT
TORSDOF 0
ENDMDL
