MODEL 1
REMARK minimizedAffinity 0.225960627
REMARK minimizedRMSD -1
REMARK  0 active torsions:
REMARK  status: ('A' for Active; 'I' for Inactive)
ROOT
ATOM      1  C1  BNZ d   1      -0.749  -6.000  -5.524  0.00  0.00     0.000 A 
ATOM      2  C2  BNZ d   1       0.282  -6.000  -4.622  0.00  0.00     0.000 A 
ATOM      3  C3  BNZ d   1       0.484  -4.934  -3.791  0.00  0.00     0.000 A 
ATOM      4  C4  BNZ d   1      -0.318  -3.854  -3.890  0.00  0.00     0.000 A 
ATOM      5  C5  BNZ d   1      -1.355  -3.835  -4.800  0.00  0.00     0.000 A 
ATOM      6  C6  BNZ d   1      -1.580  -4.926  -5.609  0.00  0.00     0.000 A 
ENDROOT
TORSDOF 0
ENDMDL
