MODEL 1
REMARK minimizedAffinity 5.95449829
REMARK minimizedRMSD -1
REMARK  0 active torsions:
REMARK  status: ('A' for Active; 'I' for Inactive)
ROOT
ATOM      1  C1  BNZ d   1       3.479  -3.752  -0.386  0.00  0.00     0.000 A 
ATOM      2  C2  BNZ d   1       4.574  -3.025  -0.773  0.00  0.00     0.000 A 
ATOM      3  C3  BNZ d   1       5.836  -3.427  -0.436  0.00  0.00     0.000 A 
ATOM      4  C4  BNZ d   1       6.000  -4.531   0.320  0.00  0.00     0.000 A 
ATOM      5  C5  BNZ d   1       4.906  -5.270   0.726  0.00  0.00     0.000 A 
ATOM      6  C6  BNZ d   1       3.639  -4.883   0.352  0.00  0.00     0.000 A 
ENDROOT
TORSDOF 0
ENDMDL
