MODEL 1
REMARK minimizedAffinity 2.07526851
REMARK minimizedRMSD -1
REMARK  0 active torsions:
REMARK  status: ('A' for Active; 'I' for Inactive)
ROOT
ATOM      1  C1  BNZ d   1      -0.161   4.218  -3.576  0.00  0.00     0.000 A 
ATOM      2  C2  BNZ d   1       0.505   3.060  -3.873  0.00  0.00     0.000 A 
ATOM      3  C3  BNZ d   1       1.702   2.769  -3.280  0.00  0.00     0.000 A 
ATOM      4  C4  BNZ d   1       2.250   3.655  -2.423  0.00  0.00     0.000 A 
ATOM      5  C5  BNZ d   1       1.594   4.832  -2.120  0.00  0.00     0.000 A 
ATOM      6  C6  BNZ d   1       0.371   5.103  -2.689  0.00  0.00     0.000 A 
ENDROOT
TORSDOF 0
ENDMDL
