MODEL 1
REMARK minimizedAffinity 11.5967512
REMARK minimizedRMSD -1
REMARK  0 active torsions:
REMARK  status: ('A' for Active; 'I' for Inactive)
ROOT
ATOM      1  C1  BNZ d   1      -3.910   4.655   5.997  0.00  0.00     0.000 A 
ATOM      2  C2  BNZ d   1      -3.938   3.286   5.954  0.00  0.00     0.000 A 
ATOM      3  C3  BNZ d   1      -4.959   2.627   5.329  0.00  0.00     0.000 A 
ATOM      4  C4  BNZ d   1      -5.969   3.334   4.783  0.00  0.00     0.000 A 
ATOM      5  C5  BNZ d   1      -5.960   4.714   4.826  0.00  0.00     0.000 A 
ATOM      6  C6  BNZ d   1      -4.911   5.376   5.422  0.00  0.00     0.000 A 
ENDROOT
TORSDOF 0
ENDMDL
