MODEL 1
REMARK minimizedAffinity 7.85694647
REMARK minimizedRMSD -1
REMARK  0 active torsions:
REMARK  status: ('A' for Active; 'I' for Inactive)
ROOT
ATOM      1  C1  BNZ d   1       3.870   3.034  -4.657  0.00  0.00     0.000 A 
ATOM      2  C2  BNZ d   1       5.141   3.535  -4.558  0.00  0.00     0.000 A 
ATOM      3  C3  BNZ d   1       5.574   4.120  -3.401  0.00  0.00     0.000 A 
ATOM      4  C4  BNZ d   1       4.725   4.240  -2.360  0.00  0.00     0.000 A 
ATOM      5  C5  BNZ d   1       3.438   3.748  -2.448  0.00  0.00     0.000 A 
ATOM      6  C6  BNZ d   1       3.018   3.125  -3.600  0.00  0.00     0.000 A 
ENDROOT
TORSDOF 0
ENDMDL
