MODEL 1
REMARK minimizedAffinity 6.68146896
REMARK minimizedRMSD -1
REMARK  0 active torsions:
REMARK  status: ('A' for Active; 'I' for Inactive)
ROOT
ATOM      1  C1  BNZ d   1      -0.883  -0.294   3.449  0.00  0.00     0.000 A 
ATOM      2  C2  BNZ d   1       0.004  -0.657   4.427  0.00  0.00     0.000 A 
ATOM      3  C3  BNZ d   1       0.814  -1.747   4.267  0.00  0.00     0.000 A 
ATOM      4  C4  BNZ d   1       0.708  -2.494   3.149  0.00  0.00     0.000 A 
ATOM      5  C5  BNZ d   1      -0.189  -2.146   2.158  0.00  0.00     0.000 A 
ATOM      6  C6  BNZ d   1      -0.975  -1.026   2.305  0.00  0.00     0.000 A 
ENDROOT
TORSDOF 0
ENDMDL
