MODEL 1
REMARK minimizedAffinity 5.30136681
REMARK minimizedRMSD -1
REMARK  0 active torsions:
REMARK  status: ('A' for Active; 'I' for Inactive)
ROOT
ATOM      1  C1  BNZ d   1       2.558   3.341  -3.725  0.00  0.00     0.000 A 
ATOM      2  C2  BNZ d   1       3.038   3.225  -5.002  0.00  0.00     0.000 A 
ATOM      3  C3  BNZ d   1       4.292   3.665  -5.322  0.00  0.00     0.000 A 
ATOM      4  C4  BNZ d   1       5.048   4.257  -4.375  0.00  0.00     0.000 A 
ATOM      5  C5  BNZ d   1       4.575   4.391  -3.084  0.00  0.00     0.000 A 
ATOM      6  C6  BNZ d   1       3.327   3.911  -2.757  0.00  0.00     0.000 A 
ENDROOT
TORSDOF 0
ENDMDL
