MODEL 1
REMARK minimizedAffinity 4.43294001
REMARK minimizedRMSD -1
REMARK  0 active torsions:
REMARK  status: ('A' for Active; 'I' for Inactive)
ROOT
ATOM      1  C1  BNZ d   1       4.015  -5.986   0.154  0.00  0.00     0.000 A 
ATOM      2  C2  BNZ d   1       3.294  -4.882  -0.215  0.00  0.00     0.000 A 
ATOM      3  C3  BNZ d   1       3.914  -3.788  -0.751  0.00  0.00     0.000 A 
ATOM      4  C4  BNZ d   1       5.256  -3.784  -0.878  0.00  0.00     0.000 A 
ATOM      5  C5  BNZ d   1       5.998  -4.885  -0.501  0.00  0.00     0.000 A 
ATOM      6  C6  BNZ d   1       5.367  -6.000   0.001  0.00  0.00     0.000 A 
ENDROOT
TORSDOF 0
ENDMDL
