MODEL 1
REMARK minimizedAffinity 10.3974705
REMARK minimizedRMSD -1
REMARK  0 active torsions:
REMARK  status: ('A' for Active; 'I' for Inactive)
ROOT
ATOM      1  C1  BNZ d   1       3.174   2.967  -4.870  0.00  0.00     0.000 A 
ATOM      2  C2  BNZ d   1       4.417   3.517  -5.037  0.00  0.00     0.000 A 
ATOM      3  C3  BNZ d   1       5.024   4.199  -4.019  0.00  0.00     0.000 A 
ATOM      4  C4  BNZ d   1       4.370   4.364  -2.850  0.00  0.00     0.000 A 
ATOM      5  C5  BNZ d   1       3.113   3.823  -2.670  0.00  0.00     0.000 A 
ATOM      6  C6  BNZ d   1       2.522   3.105  -3.684  0.00  0.00     0.000 A 
ENDROOT
TORSDOF 0
ENDMDL
