MODEL 1
REMARK minimizedAffinity 5.22140837
REMARK minimizedRMSD -1
REMARK  0 active torsions:
REMARK  status: ('A' for Active; 'I' for Inactive)
ROOT
ATOM      1  C1  BNZ d   1       2.369   5.034  -2.045  0.00  0.00     0.000 A 
ATOM      2  C2  BNZ d   1       1.639   3.943  -2.437  0.00  0.00     0.000 A 
ATOM      3  C3  BNZ d   1       2.226   2.922  -3.130  0.00  0.00     0.000 A 
ATOM      4  C4  BNZ d   1       3.530   3.010  -3.465  0.00  0.00     0.000 A 
ATOM      5  C5  BNZ d   1       4.276   4.108  -3.084  0.00  0.00     0.000 A 
ATOM      6  C6  BNZ d   1       3.692   5.116  -2.353  0.00  0.00     0.000 A 
ENDROOT
TORSDOF 0
ENDMDL
