MODEL 1
REMARK minimizedAffinity 8.49621201
REMARK minimizedRMSD -1
REMARK  0 active torsions:
REMARK  status: ('A' for Active; 'I' for Inactive)
ROOT
ATOM      1  C1  BNZ d   1      -5.828   2.369  -0.704  0.00  0.00     0.000 A 
ATOM      2  C2  BNZ d   1      -5.595   2.240   0.639  0.00  0.00     0.000 A 
ATOM      3  C3  BNZ d   1      -5.384   1.011   1.198  0.00  0.00     0.000 A 
ATOM      4  C4  BNZ d   1      -5.446  -0.090   0.421  0.00  0.00     0.000 A 
ATOM      5  C5  BNZ d   1      -5.689   0.023  -0.933  0.00  0.00     0.000 A 
ATOM      6  C6  BNZ d   1      -5.862   1.265  -1.499  0.00  0.00     0.000 A 
ENDROOT
TORSDOF 0
ENDMDL
