MODEL 1
REMARK minimizedAffinity 7.71612215
REMARK minimizedRMSD -1
REMARK  0 active torsions:
REMARK  status: ('A' for Active; 'I' for Inactive)
ROOT
ATOM      1  C1  BNZ d   1      -2.659  -2.098   1.848  0.00  0.00     0.000 A 
ATOM      2  C2  BNZ d   1      -3.735  -2.944   1.896  0.00  0.00     0.000 A 
ATOM      3  C3  BNZ d   1      -3.602  -4.265   1.575  0.00  0.00     0.000 A 
ATOM      4  C4  BNZ d   1      -2.403  -4.731   1.168  0.00  0.00     0.000 A 
ATOM      5  C5  BNZ d   1      -1.311  -3.889   1.104  0.00  0.00     0.000 A 
ATOM      6  C6  BNZ d   1      -1.440  -2.568   1.466  0.00  0.00     0.000 A 
ENDROOT
TORSDOF 0
ENDMDL
