MODEL 1
REMARK minimizedAffinity 0.799901962
REMARK minimizedRMSD -1
REMARK  0 active torsions:
REMARK  status: ('A' for Active; 'I' for Inactive)
ROOT
ATOM      1  C1  BNZ d   1       3.930   2.686  -3.839  0.00  0.00     0.000 A 
ATOM      2  C2  BNZ d   1       4.706   3.800  -3.660  0.00  0.00     0.000 A 
ATOM      3  C3  BNZ d   1       5.370   4.009  -2.484  0.00  0.00     0.000 A 
ATOM      4  C4  BNZ d   1       5.225   3.126  -1.475  0.00  0.00     0.000 A 
ATOM      5  C5  BNZ d   1       4.439   2.002  -1.637  0.00  0.00     0.000 A 
ATOM      6  C6  BNZ d   1       3.804   1.775  -2.836  0.00  0.00     0.000 A 
ENDROOT
TORSDOF 0
ENDMDL
