MODEL 1
REMARK minimizedAffinity -2.65659523
REMARK minimizedRMSD -1
REMARK  0 active torsions:
REMARK  status: ('A' for Active; 'I' for Inactive)
ROOT
ATOM      1  C4' PXY d   1       3.871  -1.440  -5.995  0.00  0.00     0.077 C 
ATOM      2  C1' PXY d   1       3.015  -6.000  -2.547  0.00  0.00     0.077 C 
ATOM      3  C1  PXY d   1       3.234  -4.796  -3.443  0.00  0.00    -0.082 A 
ATOM      4  C2  PXY d   1       3.400  -4.971  -4.744  0.00  0.00     0.003 A 
ATOM      5  C3  PXY d   1       3.630  -3.896  -5.564  0.00  0.00     0.003 A 
ATOM      6  C4  PXY d   1       3.638  -2.625  -5.054  0.00  0.00    -0.082 A 
ATOM      7  C5  PXY d   1       3.459  -2.438  -3.730  0.00  0.00     0.003 A 
ATOM      8  C6  PXY d   1       3.268  -3.546  -2.908  0.00  0.00     0.003 A 
ENDROOT
TORSDOF 0
ENDMDL
