MODEL 1
REMARK minimizedAffinity 8.34182644
REMARK minimizedRMSD -1
REMARK  0 active torsions:
REMARK  status: ('A' for Active; 'I' for Inactive)
ROOT
ATOM      1  C4' PXY d   1      -0.759   5.658   0.524  0.00  0.00     0.077 C 
ATOM      2  C1' PXY d   1       1.011   0.242  -0.453  0.00  0.00     0.077 C 
ATOM      3  C1  PXY d   1       0.559   1.667  -0.200  0.00  0.00    -0.082 A 
ATOM      4  C2  PXY d   1      -0.481   1.893   0.587  0.00  0.00     0.003 A 
ATOM      5  C3  PXY d   1      -0.923   3.173   0.801  0.00  0.00     0.003 A 
ATOM      6  C4  PXY d   1      -0.261   4.236   0.248  0.00  0.00    -0.082 A 
ATOM      7  C5  PXY d   1       0.807   4.015  -0.547  0.00  0.00     0.003 A 
ATOM      8  C6  PXY d   1       1.215   2.705  -0.785  0.00  0.00     0.003 A 
ENDROOT
TORSDOF 0
ENDMDL
