MODEL 1
REMARK minimizedAffinity 9.24816418
REMARK minimizedRMSD -1
REMARK  0 active torsions:
REMARK  status: ('A' for Active; 'I' for Inactive)
ROOT
ATOM      1  C4' PXY d   1      -2.082  -1.656  -3.023  0.00  0.00     0.077 C 
ATOM      2  C1' PXY d   1      -4.711   3.271  -4.514  0.00  0.00     0.077 C 
ATOM      3  C1  PXY d   1      -4.028   1.973  -4.132  0.00  0.00    -0.082 A 
ATOM      4  C2  PXY d   1      -3.511   1.837  -2.922  0.00  0.00     0.003 A 
ATOM      5  C3  PXY d   1      -2.862   0.681  -2.570  0.00  0.00     0.003 A 
ATOM      6  C4  PXY d   1      -2.788  -0.366  -3.449  0.00  0.00    -0.082 A 
ATOM      7  C5  PXY d   1      -3.322  -0.239  -4.682  0.00  0.00     0.003 A 
ATOM      8  C6  PXY d   1      -3.941   0.957  -5.034  0.00  0.00     0.003 A 
ENDROOT
TORSDOF 0
ENDMDL
