MODEL 1
REMARK minimizedAffinity 6.64384222
REMARK minimizedRMSD -1
REMARK  0 active torsions:
REMARK  status: ('A' for Active; 'I' for Inactive)
ROOT
ATOM      1  C4' PXY d   1       0.364  -2.225  -2.526  0.00  0.00     0.077 C 
ATOM      2  C1' PXY d   1      -5.336  -1.377  -2.975  0.00  0.00     0.077 C 
ATOM      3  C1  PXY d   1      -3.843  -1.609  -2.848  0.00  0.00    -0.082 A 
ATOM      4  C2  PXY d   1      -3.000  -0.664  -3.233  0.00  0.00     0.003 A 
ATOM      5  C3  PXY d   1      -1.646  -0.869  -3.154  0.00  0.00     0.003 A 
ATOM      6  C4  PXY d   1      -1.151  -2.032  -2.627  0.00  0.00    -0.082 A 
ATOM      7  C5  PXY d   1      -2.005  -2.996  -2.223  0.00  0.00     0.003 A 
ATOM      8  C6  PXY d   1      -3.375  -2.785  -2.349  0.00  0.00     0.003 A 
ENDROOT
TORSDOF 0
ENDMDL
