MODEL 1
REMARK minimizedAffinity 3.95780635
REMARK minimizedRMSD -1
REMARK  0 active torsions:
REMARK  status: ('A' for Active; 'I' for Inactive)
ROOT
ATOM      1  C4' PXY d   1      -0.496  -3.250  -1.541  0.00  0.00     0.077 C 
ATOM      2  C1' PXY d   1       1.845   1.493   0.791  0.00  0.00     0.077 C 
ATOM      3  C1  PXY d   1       1.241   0.249   0.170  0.00  0.00    -0.082 A 
ATOM      4  C2  PXY d   1      -0.032  -0.038   0.389  0.00  0.00     0.003 A 
ATOM      5  C3  PXY d   1      -0.587  -1.176  -0.139  0.00  0.00     0.003 A 
ATOM      6  C4  PXY d   1       0.155  -2.000  -0.942  0.00  0.00    -0.082 A 
ATOM      7  C5  PXY d   1       1.451  -1.708  -1.179  0.00  0.00     0.003 A 
ATOM      8  C6  PXY d   1       2.006  -0.570  -0.601  0.00  0.00     0.003 A 
ENDROOT
TORSDOF 0
ENDMDL
