MODEL 1
REMARK minimizedAffinity 3.71360707
REMARK minimizedRMSD -1
REMARK  0 active torsions:
REMARK  status: ('A' for Active; 'I' for Inactive)
ROOT
ATOM      1  C4' PXY d   1       0.050   5.107   0.599  0.00  0.00     0.077 C 
ATOM      2  C1' PXY d   1       1.082  -0.562   0.140  0.00  0.00     0.077 C 
ATOM      3  C1  PXY d   1       0.816   0.924   0.273  0.00  0.00    -0.082 A 
ATOM      4  C2  PXY d   1      -0.072   1.503  -0.519  0.00  0.00     0.003 A 
ATOM      5  C3  PXY d   1      -0.302   2.852  -0.435  0.00  0.00     0.003 A 
ATOM      6  C4  PXY d   1       0.344   3.607   0.507  0.00  0.00    -0.082 A 
ATOM      7  C5  PXY d   1       1.244   3.022   1.326  0.00  0.00     0.003 A 
ATOM      8  C6  PXY d   1       1.494   1.659   1.196  0.00  0.00     0.003 A 
ENDROOT
TORSDOF 0
ENDMDL
