MODEL 1
REMARK minimizedAffinity 3.64703441
REMARK minimizedRMSD -1
REMARK  0 active torsions:
REMARK  status: ('A' for Active; 'I' for Inactive)
ROOT
ATOM      1  O1  BZF d   1      -2.464  -0.793  -0.125  0.00  0.00    -0.204 OA
ATOM      2  C2  BZF d   1      -2.021   0.491  -0.376  0.00  0.00     0.174 A 
ATOM      3  C3  BZF d   1      -1.205   0.918   0.609  0.00  0.00    -0.012 A 
ATOM      4  C3A BZF d   1      -1.059  -0.202   1.488  0.00  0.00    -0.107 A 
ATOM      5  C4  BZF d   1      -0.357  -0.405   2.642  0.00  0.00     0.055 A 
ATOM      6  C5  BZF d   1      -0.487  -1.590   3.294  0.00  0.00    -0.016 A 
ATOM      7  C6  BZF d   1      -1.312  -2.591   2.824  0.00  0.00     0.022 A 
ATOM      8  C7  BZF d   1      -2.025  -2.438   1.682  0.00  0.00     0.029 A 
ATOM      9  C7A BZF d   1      -1.870  -1.254   1.003  0.00  0.00     0.058 A 
ENDROOT
TORSDOF 0
ENDMDL
