MODEL 1
REMARK minimizedAffinity 2.64630842
REMARK minimizedRMSD -1
REMARK  0 active torsions:
REMARK  status: ('A' for Active; 'I' for Inactive)
ROOT
ATOM      1  O1  BZF d   1       1.450  -1.765  -0.080  0.00  0.00    -0.204 OA
ATOM      2  C2  BZF d   1       1.848  -0.572  -0.652  0.00  0.00     0.174 A 
ATOM      3  C3  BZF d   1       3.180  -0.563  -0.863  0.00  0.00    -0.012 A 
ATOM      4  C3A BZF d   1       3.630  -1.866  -0.479  0.00  0.00    -0.107 A 
ATOM      5  C4  BZF d   1       4.853  -2.473  -0.474  0.00  0.00     0.055 A 
ATOM      6  C5  BZF d   1       4.965  -3.729   0.032  0.00  0.00    -0.016 A 
ATOM      7  C6  BZF d   1       3.878  -4.404   0.546  0.00  0.00     0.022 A 
ATOM      8  C7  BZF d   1       2.643  -3.845   0.558  0.00  0.00     0.029 A 
ATOM      9  C7A BZF d   1       2.521  -2.589   0.017  0.00  0.00     0.058 A 
ENDROOT
TORSDOF 0
ENDMDL
