MODEL 1
REMARK minimizedAffinity 6.17958307
REMARK minimizedRMSD -1
REMARK  0 active torsions:
REMARK  status: ('A' for Active; 'I' for Inactive)
ROOT
ATOM      1  O1  BZF d   1       1.171  -2.009   0.448  0.00  0.00    -0.204 OA
ATOM      2  C2  BZF d   1       1.720  -1.160  -0.493  0.00  0.00     0.174 A 
ATOM      3  C3  BZF d   1       2.919  -1.617  -0.907  0.00  0.00    -0.012 A 
ATOM      4  C3A BZF d   1       3.091  -2.875  -0.247  0.00  0.00    -0.107 A 
ATOM      5  C4  BZF d   1       4.079  -3.817  -0.266  0.00  0.00     0.055 A 
ATOM      6  C5  BZF d   1       3.975  -4.899   0.550  0.00  0.00    -0.016 A 
ATOM      7  C6  BZF d   1       2.902  -5.067   1.400  0.00  0.00     0.022 A 
ATOM      8  C7  BZF d   1       1.895  -4.162   1.450  0.00  0.00     0.029 A 
ATOM      9  C7A BZF d   1       1.981  -3.084   0.602  0.00  0.00     0.058 A 
ENDROOT
TORSDOF 0
ENDMDL
