MODEL 1
REMARK minimizedAffinity 3.26194263
REMARK minimizedRMSD -1
REMARK  0 active torsions:
REMARK  status: ('A' for Active; 'I' for Inactive)
ROOT
ATOM      1  O1  BZF d   1       1.192  -1.284   0.406  0.00  0.00    -0.204 OA
ATOM      2  C2  BZF d   1       1.041  -0.969  -0.931  0.00  0.00     0.174 A 
ATOM      3  C3  BZF d   1      -0.220  -0.567  -1.188  0.00  0.00    -0.012 A 
ATOM      4  C3A BZF d   1      -0.876  -0.548   0.083  0.00  0.00    -0.107 A 
ATOM      5  C4  BZF d   1      -2.140  -0.219   0.483  0.00  0.00     0.055 A 
ATOM      6  C5  BZF d   1      -2.482  -0.378   1.788  0.00  0.00    -0.016 A 
ATOM      7  C6  BZF d   1      -1.589  -0.869   2.718  0.00  0.00     0.022 A 
ATOM      8  C7  BZF d   1      -0.323  -1.204   2.370  0.00  0.00     0.029 A 
ATOM      9  C7A BZF d   1       0.036  -1.013   1.059  0.00  0.00     0.058 A 
ENDROOT
TORSDOF 0
ENDMDL
