MODEL 1
REMARK minimizedAffinity 5.29431629
REMARK minimizedRMSD -1
REMARK  0 active torsions:
REMARK  status: ('A' for Active; 'I' for Inactive)
ROOT
ATOM      1  O1  BZF d   1       1.690  -2.943   0.481  0.00  0.00    -0.204 OA
ATOM      2  C2  BZF d   1       2.281  -2.227  -0.542  0.00  0.00     0.174 A 
ATOM      3  C3  BZF d   1       3.445  -2.798  -0.915  0.00  0.00    -0.012 A 
ATOM      4  C3A BZF d   1       3.544  -3.994  -0.137  0.00  0.00    -0.107 A 
ATOM      5  C4  BZF d   1       4.469  -4.995  -0.068  0.00  0.00     0.055 A 
ATOM      6  C5  BZF d   1       4.306  -5.984   0.850  0.00  0.00    -0.016 A 
ATOM      7  C6  BZF d   1       3.234  -5.999   1.717  0.00  0.00     0.022 A 
ATOM      8  C7  BZF d   1       2.287  -5.030   1.684  0.00  0.00     0.029 A 
ATOM      9  C7A BZF d   1       2.432  -4.048   0.735  0.00  0.00     0.058 A 
ENDROOT
TORSDOF 0
ENDMDL
