MODEL 1
REMARK minimizedAffinity 6.54618645
REMARK minimizedRMSD -1
REMARK  0 active torsions:
REMARK  status: ('A' for Active; 'I' for Inactive)
ROOT
ATOM      1  O1  BZF d   1      -4.443  -0.192   1.126  0.00  0.00    -0.204 OA
ATOM      2  C2  BZF d   1      -4.719   0.469   2.308  0.00  0.00     0.174 A 
ATOM      3  C3  BZF d   1      -3.582   0.744   2.979  0.00  0.00    -0.012 A 
ATOM      4  C3A BZF d   1      -2.523   0.304   2.122  0.00  0.00    -0.107 A 
ATOM      5  C4  BZF d   1      -1.162   0.321   2.227  0.00  0.00     0.055 A 
ATOM      6  C5  BZF d   1      -0.417  -0.254   1.247  0.00  0.00    -0.016 A 
ATOM      7  C6  BZF d   1      -0.999  -0.858   0.152  0.00  0.00     0.022 A 
ATOM      8  C7  BZF d   1      -2.345  -0.896   0.002  0.00  0.00     0.029 A 
ATOM      9  C7A BZF d   1      -3.100  -0.287   0.974  0.00  0.00     0.058 A 
ENDROOT
TORSDOF 0
ENDMDL
