MODEL 1
REMARK minimizedAffinity 0.116580658
REMARK minimizedRMSD -1
REMARK  0 active torsions:
REMARK  status: ('A' for Active; 'I' for Inactive)
ROOT
ATOM      1  O1  BZF d   1       1.874  -2.445  -0.145  0.00  0.00    -0.204 OA
ATOM      2  C2  BZF d   1       2.398  -3.538   0.518  0.00  0.00     0.174 A 
ATOM      3  C3  BZF d   1       1.787  -3.714   1.707  0.00  0.00    -0.012 A 
ATOM      4  C3A BZF d   1       0.758  -2.721   1.752  0.00  0.00    -0.107 A 
ATOM      5  C4  BZF d   1      -0.198  -2.401   2.673  0.00  0.00     0.055 A 
ATOM      6  C5  BZF d   1      -1.002  -1.329   2.445  0.00  0.00    -0.016 A 
ATOM      7  C6  BZF d   1      -0.874  -0.554   1.312  0.00  0.00     0.022 A 
ATOM      8  C7  BZF d   1       0.057  -0.835   0.367  0.00  0.00     0.029 A 
ATOM      9  C7A BZF d   1       0.848  -1.937   0.579  0.00  0.00     0.058 A 
ENDROOT
TORSDOF 0
ENDMDL
