MODEL 1
REMARK minimizedAffinity 13.5631533
REMARK minimizedRMSD -1
REMARK  0 active torsions:
REMARK  status: ('A' for Active; 'I' for Inactive)
ROOT
ATOM      1  C   UNL d   1      -2.832   2.790  -3.485  0.00  0.00     0.124 A 
ATOM      2  C1  UNL d   1      -2.707   2.038  -2.326  0.00  0.00     0.062 A 
ATOM      3  C2  UNL d   1      -2.626   0.650  -2.397  0.00  0.00     0.162 A 
ATOM      4  C3  UNL d   1      -2.668   0.005  -3.633  0.00  0.00    -0.034 A 
ATOM      5  C4  UNL d   1      -2.795   0.769  -4.795  0.00  0.00     0.162 A 
ATOM      6  C5  UNL d   1      -2.875   2.155  -4.718  0.00  0.00     0.062 A 
ATOM      7  F   UNL d   1      -2.996   2.881  -5.840  0.00  0.00    -0.097 F 
ATOM      8  F1  UNL d   1      -2.838   0.181  -6.000  0.00  0.00    -0.096 F 
ATOM      9  I   UNL d   1      -2.547  -2.070  -3.744  0.00  0.00    -0.060 I 
ATOM     10  F2  UNL d   1      -2.506  -0.052  -1.260  0.00  0.00    -0.096 F 
ATOM     11  F3  UNL d   1      -2.666   2.649  -1.133  0.00  0.00    -0.097 F 
ATOM     12  F4  UNL d   1      -2.911   4.125  -3.414  0.00  0.00    -0.092 F 
ENDROOT
TORSDOF 0
ENDMDL
