MODEL 1
REMARK minimizedAffinity 11.6308165
REMARK minimizedRMSD -1
REMARK  0 active torsions:
REMARK  status: ('A' for Active; 'I' for Inactive)
ROOT
ATOM      1  C   UNL d   1       0.123  -1.174  -0.165  0.00  0.00     0.124 A 
ATOM      2  C1  UNL d   1      -0.385  -1.389   1.108  0.00  0.00     0.062 A 
ATOM      3  C2  UNL d   1       0.478  -1.563   2.186  0.00  0.00     0.162 A 
ATOM      4  C3  UNL d   1       1.859  -1.522   1.995  0.00  0.00    -0.034 A 
ATOM      5  C4  UNL d   1       2.363  -1.306   0.712  0.00  0.00     0.162 A 
ATOM      6  C5  UNL d   1       1.496  -1.133  -0.363  0.00  0.00     0.062 A 
ATOM      7  F   UNL d   1       1.989  -0.925  -1.592  0.00  0.00    -0.097 F 
ATOM      8  F1  UNL d   1       3.686  -1.261   0.493  0.00  0.00    -0.096 F 
ATOM      9  I   UNL d   1       3.153  -1.782   3.605  0.00  0.00    -0.060 I 
ATOM     10  F2  UNL d   1      -0.041  -1.770   3.406  0.00  0.00    -0.096 F 
ATOM     11  F3  UNL d   1      -1.711  -1.430   1.301  0.00  0.00    -0.097 F 
ATOM     12  F4  UNL d   1      -0.710  -1.008  -1.201  0.00  0.00    -0.092 F 
ENDROOT
TORSDOF 0
ENDMDL
