MODEL 1
REMARK minimizedAffinity 1.40142441
REMARK minimizedRMSD -1
REMARK  0 active torsions:
REMARK  status: ('A' for Active; 'I' for Inactive)
ROOT
ATOM      1  C   UNL d   1       1.843  -2.452   0.946  0.00  0.00     0.124 A 
ATOM      2  C1  UNL d   1       3.049  -3.130   0.838  0.00  0.00     0.062 A 
ATOM      3  C2  UNL d   1       3.960  -3.111   1.889  0.00  0.00     0.162 A 
ATOM      4  C3  UNL d   1       3.669  -2.410   3.060  0.00  0.00    -0.034 A 
ATOM      5  C4  UNL d   1       2.454  -1.729   3.162  0.00  0.00     0.162 A 
ATOM      6  C5  UNL d   1       1.547  -1.752   2.108  0.00  0.00     0.062 A 
ATOM      7  F   UNL d   1       0.382  -1.096   2.215  0.00  0.00    -0.097 F 
ATOM      8  F1  UNL d   1       2.143  -1.046   4.273  0.00  0.00    -0.096 F 
ATOM      9  I   UNL d   1       5.029  -2.379   4.635  0.00  0.00    -0.060 I 
ATOM     10  F2  UNL d   1       5.118  -3.775   1.757  0.00  0.00    -0.096 F 
ATOM     11  F3  UNL d   1       3.337  -3.806  -0.284  0.00  0.00    -0.097 F 
ATOM     12  F4  UNL d   1       0.968  -2.471  -0.068  0.00  0.00    -0.092 F 
ENDROOT
TORSDOF 0
ENDMDL
