MODEL 1
REMARK minimizedAffinity 16.1798859
REMARK minimizedRMSD -1
REMARK  0 active torsions:
REMARK  status: ('A' for Active; 'I' for Inactive)
ROOT
ATOM      1  C   UNL d   1      -4.669  -1.725   1.269  0.00  0.00     0.124 A 
ATOM      2  C1  UNL d   1      -4.079  -2.727   2.027  0.00  0.00     0.062 A 
ATOM      3  C2  UNL d   1      -2.698  -2.754   2.199  0.00  0.00     0.162 A 
ATOM      4  C3  UNL d   1      -1.896  -1.774   1.612  0.00  0.00    -0.034 A 
ATOM      5  C4  UNL d   1      -2.497  -0.770   0.850  0.00  0.00     0.162 A 
ATOM      6  C5  UNL d   1      -3.877  -0.748   0.681  0.00  0.00     0.062 A 
ATOM      7  F   UNL d   1      -4.445   0.221  -0.052  0.00  0.00    -0.097 F 
ATOM      8  F1  UNL d   1      -1.756   0.187   0.272  0.00  0.00    -0.096 F 
ATOM      9  I   UNL d   1       0.169  -1.811   1.867  0.00  0.00    -0.060 I 
ATOM     10  F2  UNL d   1      -2.155  -3.734   2.937  0.00  0.00    -0.096 F 
ATOM     11  F3  UNL d   1      -4.841  -3.672   2.595  0.00  0.00    -0.097 F 
ATOM     12  F4  UNL d   1      -5.997  -1.702   1.104  0.00  0.00    -0.092 F 
ENDROOT
TORSDOF 0
ENDMDL
