MODEL 1
REMARK minimizedAffinity -1.16859162
REMARK minimizedRMSD -1
REMARK  0 active torsions:
REMARK  status: ('A' for Active; 'I' for Inactive)
ROOT
ATOM      1  C   UNL d   1      -1.131  -0.076  -0.062  0.00  0.00     0.124 A 
ATOM      2  C1  UNL d   1      -1.371   0.040   1.300  0.00  0.00     0.062 A 
ATOM      3  C2  UNL d   1      -0.469  -0.489   2.218  0.00  0.00     0.162 A 
ATOM      4  C3  UNL d   1       0.684  -1.140   1.777  0.00  0.00    -0.034 A 
ATOM      5  C4  UNL d   1       0.918  -1.254   0.405  0.00  0.00     0.162 A 
ATOM      6  C5  UNL d   1       0.013  -0.723  -0.508  0.00  0.00     0.062 A 
ATOM      7  F   UNL d   1       0.246  -0.837  -1.824  0.00  0.00    -0.097 F 
ATOM      8  F1  UNL d   1       2.015  -1.874  -0.054  0.00  0.00    -0.096 F 
ATOM      9  I   UNL d   1       2.035  -1.934   3.146  0.00  0.00    -0.060 I 
ATOM     10  F2  UNL d   1      -0.726  -0.362   3.528  0.00  0.00    -0.096 F 
ATOM     11  F3  UNL d   1      -2.476   0.664   1.734  0.00  0.00    -0.097 F 
ATOM     12  F4  UNL d   1      -2.001   0.434  -0.943  0.00  0.00    -0.092 F 
ENDROOT
TORSDOF 0
ENDMDL
