MODEL 1
REMARK minimizedAffinity 17.7979069
REMARK minimizedRMSD -1
REMARK  0 active torsions:
REMARK  status: ('A' for Active; 'I' for Inactive)
ROOT
ATOM      1  C   UNL d   1      -0.323  -3.523   3.057  0.00  0.00     0.124 A 
ATOM      2  C1  UNL d   1       0.307  -2.933   1.971  0.00  0.00     0.062 A 
ATOM      3  C2  UNL d   1       0.012  -1.620   1.618  0.00  0.00     0.162 A 
ATOM      4  C3  UNL d   1      -0.919  -0.886   2.353  0.00  0.00    -0.034 A 
ATOM      5  C4  UNL d   1      -1.550  -1.486   3.444  0.00  0.00     0.162 A 
ATOM      6  C5  UNL d   1      -1.251  -2.799   3.793  0.00  0.00     0.062 A 
ATOM      7  F   UNL d   1      -1.861  -3.367   4.843  0.00  0.00    -0.097 F 
ATOM      8  F1  UNL d   1      -2.450  -0.809   4.173  0.00  0.00    -0.096 F 
ATOM      9  I   UNL d   1      -1.364   1.078   1.829  0.00  0.00    -0.060 I 
ATOM     10  F2  UNL d   1       0.636  -1.075   0.563  0.00  0.00    -0.096 F 
ATOM     11  F3  UNL d   1       1.203  -3.631   1.258  0.00  0.00    -0.097 F 
ATOM     12  F4  UNL d   1      -0.038  -4.787   3.394  0.00  0.00    -0.092 F 
ENDROOT
TORSDOF 0
ENDMDL
