MODEL 1
REMARK minimizedAffinity 6.29260731
REMARK minimizedRMSD -1
REMARK  0 active torsions:
REMARK  status: ('A' for Active; 'I' for Inactive)
ROOT
ATOM      1  C   UNL d   1      -2.858   0.006   1.712  0.00  0.00     0.124 A 
ATOM      2  C1  UNL d   1      -2.568  -0.338   0.399  0.00  0.00     0.062 A 
ATOM      3  C2  UNL d   1      -1.325  -0.873   0.074  0.00  0.00     0.162 A 
ATOM      4  C3  UNL d   1      -0.362  -1.068   1.064  0.00  0.00    -0.034 A 
ATOM      5  C4  UNL d   1      -0.661  -0.719   2.383  0.00  0.00     0.162 A 
ATOM      6  C5  UNL d   1      -1.905  -0.185   2.702  0.00  0.00     0.062 A 
ATOM      7  F   UNL d   1      -2.183   0.147   3.972  0.00  0.00    -0.097 F 
ATOM      8  F1  UNL d   1       0.242  -0.893   3.359  0.00  0.00    -0.096 F 
ATOM      9  I   UNL d   1       1.498  -1.867   0.582  0.00  0.00    -0.060 I 
ATOM     10  F2  UNL d   1      -1.072  -1.196  -1.203  0.00  0.00    -0.096 F 
ATOM     11  F3  UNL d   1      -3.487  -0.154  -0.559  0.00  0.00    -0.097 F 
ATOM     12  F4  UNL d   1      -4.055   0.521   2.022  0.00  0.00    -0.092 F 
ENDROOT
TORSDOF 0
ENDMDL
