MODEL 1
REMARK minimizedAffinity 22.5676003
REMARK minimizedRMSD -1
REMARK  0 active torsions:
REMARK  status: ('A' for Active; 'I' for Inactive)
ROOT
ATOM      1  C   UNL d   1      -2.018  -2.026   1.703  0.00  0.00     0.124 A 
ATOM      2  C1  UNL d   1      -1.039  -1.272   2.337  0.00  0.00     0.062 A 
ATOM      3  C2  UNL d   1      -1.179   0.108   2.446  0.00  0.00     0.162 A 
ATOM      4  C3  UNL d   1      -2.304   0.745   1.920  0.00  0.00    -0.034 A 
ATOM      5  C4  UNL d   1      -3.284  -0.019   1.284  0.00  0.00     0.162 A 
ATOM      6  C5  UNL d   1      -3.139  -1.399   1.178  0.00  0.00     0.062 A 
ATOM      7  F   UNL d   1      -4.085  -2.125   0.565  0.00  0.00    -0.097 F 
ATOM      8  F1  UNL d   1      -4.378   0.560   0.768  0.00  0.00    -0.096 F 
ATOM      9  I   UNL d   1      -2.518   2.809   2.081  0.00  0.00    -0.060 I 
ATOM     10  F2  UNL d   1      -0.218   0.811   3.063  0.00  0.00    -0.096 F 
ATOM     11  F3  UNL d   1       0.046  -1.875   2.844  0.00  0.00    -0.097 F 
ATOM     12  F4  UNL d   1      -1.879  -3.354   1.599  0.00  0.00    -0.092 F 
ENDROOT
TORSDOF 0
ENDMDL
