MODEL 1
REMARK minimizedAffinity 1.25549686
REMARK minimizedRMSD -1
REMARK  0 active torsions:
REMARK  status: ('A' for Active; 'I' for Inactive)
ROOT
ATOM      1  C   UNL d   1       2.300  -3.596   1.355  0.00  0.00     0.124 A 
ATOM      2  C1  UNL d   1       3.333  -4.493   1.588  0.00  0.00     0.062 A 
ATOM      3  C2  UNL d   1       4.092  -4.400   2.750  0.00  0.00     0.162 A 
ATOM      4  C3  UNL d   1       3.821  -3.406   3.691  0.00  0.00    -0.034 A 
ATOM      5  C4  UNL d   1       2.781  -2.506   3.449  0.00  0.00     0.162 A 
ATOM      6  C5  UNL d   1       2.025  -2.603   2.286  0.00  0.00     0.062 A 
ATOM      7  F   UNL d   1       1.028  -1.735   2.062  0.00  0.00    -0.097 F 
ATOM      8  F1  UNL d   1       2.494  -1.538   4.332  0.00  0.00    -0.096 F 
ATOM      9  I   UNL d   1       4.954  -3.264   5.430  0.00  0.00    -0.060 I 
ATOM     10  F2  UNL d   1       5.084  -5.281   2.949  0.00  0.00    -0.096 F 
ATOM     11  F3  UNL d   1       3.601  -5.452   0.690  0.00  0.00    -0.097 F 
ATOM     12  F4  UNL d   1       1.571  -3.687   0.235  0.00  0.00    -0.092 F 
ENDROOT
TORSDOF 0
ENDMDL
