MODEL 1
REMARK minimizedAffinity 5.24139309
REMARK minimizedRMSD -1
REMARK  3 active torsions:
REMARK  status: ('A' for Active; 'I' for Inactive)
REMARK    1  A    between atoms: C3'_2  and  C2'_3 
REMARK    2  A    between atoms: C2'_3  and  C1'_4 
REMARK    3  A    between atoms: C1'_4  and  C1_5 
ROOT
ATOM      1  C1  N4B d   1      -3.330   2.014  -2.722  0.00  0.00    -0.075 A 
ATOM      2  C2  N4B d   1      -3.829   2.613  -1.545  0.00  0.00     0.002 A 
ATOM      3  C3  N4B d   1      -4.603   3.745  -1.625  0.00  0.00     0.002 A 
ATOM      4  C4  N4B d   1      -4.873   4.304  -2.865  0.00  0.00    -0.004 A 
ATOM      5  C5  N4B d   1      -4.408   3.705  -3.999  0.00  0.00     0.002 A 
ATOM      6  C6  N4B d   1      -3.633   2.565  -3.934  0.00  0.00     0.002 A 
ENDROOT
BRANCH   1   7
ATOM      7  C1' N4B d   1      -2.409   0.825  -2.680  0.00  0.00     0.057 C 
BRANCH   7   8
ATOM      8  C2' N4B d   1      -2.780  -0.136  -3.804  0.00  0.00     0.009 C 
BRANCH   8   9
ATOM      9  C3' N4B d   1      -3.689  -1.253  -3.320  0.00  0.00     0.004 C 
ATOM     10  C4' N4B d   1      -4.623  -1.745  -4.386  0.00  0.00     0.003 C 
ENDBRANCH   8   9
ENDBRANCH   7   8
ENDBRANCH   1   7
TORSDOF 3
ENDMDL
