MODEL 1
REMARK minimizedAffinity 5.31827974
REMARK minimizedRMSD -1
REMARK  3 active torsions:
REMARK  status: ('A' for Active; 'I' for Inactive)
REMARK    1  A    between atoms: C3'_2  and  C2'_3 
REMARK    2  A    between atoms: C2'_3  and  C1'_4 
REMARK    3  A    between atoms: C1'_4  and  C1_5 
ROOT
ATOM      1  C1  N4B d   1       2.368  -0.391   2.757  0.00  0.00    -0.075 A 
ATOM      2  C2  N4B d   1       2.323   0.932   3.248  0.00  0.00     0.002 A 
ATOM      3  C3  N4B d   1       2.765   1.970   2.465  0.00  0.00     0.002 A 
ATOM      4  C4  N4B d   1       3.271   1.709   1.201  0.00  0.00    -0.004 A 
ATOM      5  C5  N4B d   1       3.287   0.431   0.724  0.00  0.00     0.002 A 
ATOM      6  C6  N4B d   1       2.843  -0.622   1.498  0.00  0.00     0.002 A 
ENDROOT
BRANCH   1   7
ATOM      7  C1' N4B d   1       1.976  -1.568   3.608  0.00  0.00     0.057 C 
BRANCH   7   8
ATOM      8  C2' N4B d   1       2.947  -2.717   3.351  0.00  0.00     0.009 C 
BRANCH   8   9
ATOM      9  C3' N4B d   1       3.866  -2.960   4.536  0.00  0.00     0.004 C 
ATOM     10  C4' N4B d   1       5.316  -2.973   4.154  0.00  0.00     0.003 C 
ENDBRANCH   8   9
ENDBRANCH   7   8
ENDBRANCH   1   7
TORSDOF 3
ENDMDL
