MODEL 1
REMARK minimizedAffinity 8.80160713
REMARK minimizedRMSD -1
REMARK  3 active torsions:
REMARK  status: ('A' for Active; 'I' for Inactive)
REMARK    1  A    between atoms: C3'_2  and  C2'_3 
REMARK    2  A    between atoms: C2'_3  and  C1'_4 
REMARK    3  A    between atoms: C1'_4  and  C1_5 
ROOT
ATOM      1  C1  N4B d   1       1.343  -0.987   1.746  0.00  0.00    -0.075 A 
ATOM      2  C2  N4B d   1       1.777  -1.475   0.494  0.00  0.00     0.002 A 
ATOM      3  C3  N4B d   1       0.894  -1.554  -0.555  0.00  0.00     0.002 A 
ATOM      4  C4  N4B d   1      -0.426  -1.171  -0.371  0.00  0.00    -0.004 A 
ATOM      5  C5  N4B d   1      -0.831  -0.677   0.834  0.00  0.00     0.002 A 
ATOM      6  C6  N4B d   1       0.047  -0.587   1.896  0.00  0.00     0.002 A 
ENDROOT
BRANCH   1   7
ATOM      7  C1' N4B d   1       2.250  -0.961   2.946  0.00  0.00     0.057 C 
BRANCH   7   8
ATOM      8  C2' N4B d   1       3.701  -0.921   2.477  0.00  0.00     0.009 C 
BRANCH   8   9
ATOM      9  C3' N4B d   1       4.574  -1.899   3.244  0.00  0.00     0.004 C 
ATOM     10  C4' N4B d   1       5.998  -1.899   2.774  0.00  0.00     0.003 C 
ENDBRANCH   8   9
ENDBRANCH   7   8
ENDBRANCH   1   7
TORSDOF 3
ENDMDL
