MODEL 1
REMARK minimizedAffinity 8.96033764
REMARK minimizedRMSD -1
REMARK  3 active torsions:
REMARK  status: ('A' for Active; 'I' for Inactive)
REMARK    1  A    between atoms: C3'_2  and  C2'_3 
REMARK    2  A    between atoms: C2'_3  and  C1'_4 
REMARK    3  A    between atoms: C1'_4  and  C1_5 
ROOT
ATOM      1  C1  N4B d   1       1.044  -2.015   0.825  0.00  0.00    -0.075 A 
ATOM      2  C2  N4B d   1      -0.003  -1.079   0.980  0.00  0.00     0.002 A 
ATOM      3  C3  N4B d   1      -0.936  -0.922  -0.015  0.00  0.00     0.002 A 
ATOM      4  C4  N4B d   1      -0.834  -1.674  -1.176  0.00  0.00    -0.004 A 
ATOM      5  C5  N4B d   1       0.165  -2.594  -1.307  0.00  0.00     0.002 A 
ATOM      6  C6  N4B d   1       1.108  -2.765  -0.314  0.00  0.00     0.002 A 
ENDROOT
BRANCH   1   7
ATOM      7  C1' N4B d   1       2.137  -2.161   1.848  0.00  0.00     0.057 C 
BRANCH   7   8
ATOM      8  C2' N4B d   1       2.587  -0.775   2.300  0.00  0.00     0.009 C 
BRANCH   8   9
ATOM      9  C3' N4B d   1       1.822  -0.301   3.524  0.00  0.00     0.004 C 
ATOM     10  C4' N4B d   1       1.725  -1.350   4.591  0.00  0.00     0.003 C 
ENDBRANCH   8   9
ENDBRANCH   7   8
ENDBRANCH   1   7
TORSDOF 3
ENDMDL
