MODEL 1
REMARK minimizedAffinity 12.2393579
REMARK minimizedRMSD -1
REMARK  3 active torsions:
REMARK  status: ('A' for Active; 'I' for Inactive)
REMARK    1  A    between atoms: C3'_2  and  C2'_3 
REMARK    2  A    between atoms: C2'_3  and  C1'_4 
REMARK    3  A    between atoms: C1'_4  and  C1_5 
ROOT
ATOM      1  C1  N4B d   1       2.847   0.312   3.105  0.00  0.00    -0.075 A 
ATOM      2  C2  N4B d   1       3.211   1.575   3.619  0.00  0.00     0.002 A 
ATOM      3  C3  N4B d   1       3.457   2.620   2.763  0.00  0.00     0.002 A 
ATOM      4  C4  N4B d   1       3.364   2.421   1.393  0.00  0.00    -0.004 A 
ATOM      5  C5  N4B d   1       2.987   1.204   0.906  0.00  0.00     0.002 A 
ATOM      6  C6  N4B d   1       2.733   0.146   1.755  0.00  0.00     0.002 A 
ENDROOT
BRANCH   1   7
ATOM      7  C1' N4B d   1       2.651  -0.883   3.999  0.00  0.00     0.057 C 
BRANCH   7   8
ATOM      8  C2' N4B d   1       1.975  -1.997   3.205  0.00  0.00     0.009 C 
BRANCH   8   9
ATOM      9  C3' N4B d   1       2.320  -3.372   3.749  0.00  0.00     0.004 C 
ATOM     10  C4' N4B d   1       3.579  -3.376   4.563  0.00  0.00     0.003 C 
ENDBRANCH   8   9
ENDBRANCH   7   8
ENDBRANCH   1   7
TORSDOF 3
ENDMDL
