MODEL 1
REMARK minimizedAffinity 15.8003426
REMARK minimizedRMSD -1
REMARK  3 active torsions:
REMARK  status: ('A' for Active; 'I' for Inactive)
REMARK    1  A    between atoms: C3'_2  and  C2'_3 
REMARK    2  A    between atoms: C2'_3  and  C1'_4 
REMARK    3  A    between atoms: C1'_4  and  C1_5 
ROOT
ATOM      1  C1  N4B d   1       2.972   2.949  -2.441  0.00  0.00    -0.075 A 
ATOM      2  C2  N4B d   1       4.114   2.790  -3.257  0.00  0.00     0.002 A 
ATOM      3  C3  N4B d   1       4.457   3.769  -4.156  0.00  0.00     0.002 A 
ATOM      4  C4  N4B d   1       3.666   4.903  -4.271  0.00  0.00    -0.004 A 
ATOM      5  C5  N4B d   1       2.579   5.060  -3.462  0.00  0.00     0.002 A 
ATOM      6  C6  N4B d   1       2.224   4.086  -2.551  0.00  0.00     0.002 A 
ENDROOT
BRANCH   1   7
ATOM      7  C1' N4B d   1       2.508   1.868  -1.504  0.00  0.00     0.057 C 
BRANCH   7   8
ATOM      8  C2' N4B d   1       1.446   1.023  -2.200  0.00  0.00     0.009 C 
BRANCH   8   9
ATOM      9  C3' N4B d   1       2.056  -0.134  -2.973  0.00  0.00     0.004 C 
ATOM     10  C4' N4B d   1       1.133  -0.684  -4.019  0.00  0.00     0.003 C 
ENDBRANCH   8   9
ENDBRANCH   7   8
ENDBRANCH   1   7
TORSDOF 3
ENDMDL
