MODEL 1
REMARK minimizedAffinity 12.0992069
REMARK minimizedRMSD -1
REMARK  3 active torsions:
REMARK  status: ('A' for Active; 'I' for Inactive)
REMARK    1  A    between atoms: C3'_2  and  C2'_3 
REMARK    2  A    between atoms: C2'_3  and  C1'_4 
REMARK    3  A    between atoms: C1'_4  and  C1_5 
ROOT
ATOM      1  C1  N4B d   1      -2.090  -2.802  -5.993  0.00  0.00    -0.075 A 
ATOM      2  C2  N4B d   1      -2.962  -3.913  -5.999  0.00  0.00     0.002 A 
ATOM      3  C3  N4B d   1      -4.322  -3.718  -6.000  0.00  0.00     0.002 A 
ATOM      4  C4  N4B d   1      -4.830  -2.428  -5.975  0.00  0.00    -0.004 A 
ATOM      5  C5  N4B d   1      -3.981  -1.360  -5.994  0.00  0.00     0.002 A 
ATOM      6  C6  N4B d   1      -2.612  -1.541  -5.998  0.00  0.00     0.002 A 
ENDROOT
BRANCH   1   7
ATOM      7  C1' N4B d   1      -0.597  -2.965  -5.906  0.00  0.00     0.057 C 
BRANCH   7   8
ATOM      8  C2' N4B d   1       0.031  -1.630  -5.520  0.00  0.00     0.009 C 
BRANCH   8   9
ATOM      9  C3' N4B d   1       1.501  -1.774  -5.165  0.00  0.00     0.004 C 
ATOM     10  C4' N4B d   1       2.099  -0.504  -4.638  0.00  0.00     0.003 C 
ENDBRANCH   8   9
ENDBRANCH   7   8
ENDBRANCH   1   7
TORSDOF 3
ENDMDL
