MODEL 1
REMARK minimizedAffinity 12.0921078
REMARK minimizedRMSD -1
REMARK  3 active torsions:
REMARK  status: ('A' for Active; 'I' for Inactive)
REMARK    1  A    between atoms: C3'_2  and  C2'_3 
REMARK    2  A    between atoms: C2'_3  and  C1'_4 
REMARK    3  A    between atoms: C1'_4  and  C1_5 
ROOT
ATOM      1  C1  N4B d   1      -4.558   1.490   2.669  0.00  0.00    -0.075 A 
ATOM      2  C2  N4B d   1      -5.020   1.084   1.398  0.00  0.00     0.002 A 
ATOM      3  C3  N4B d   1      -4.157   0.486   0.513  0.00  0.00     0.002 A 
ATOM      4  C4  N4B d   1      -2.829   0.301   0.868  0.00  0.00    -0.004 A 
ATOM      5  C5  N4B d   1      -2.397   0.672   2.107  0.00  0.00     0.002 A 
ATOM      6  C6  N4B d   1      -3.254   1.271   3.008  0.00  0.00     0.002 A 
ENDROOT
BRANCH   1   7
ATOM      7  C1' N4B d   1      -5.442   2.226   3.638  0.00  0.00     0.057 C 
BRANCH   7   8
ATOM      8  C2' N4B d   1      -4.746   3.511   4.075  0.00  0.00     0.009 C 
BRANCH   8   9
ATOM      9  C3' N4B d   1      -5.677   4.425   4.853  0.00  0.00     0.004 C 
ATOM     10  C4' N4B d   1      -5.006   5.689   5.305  0.00  0.00     0.003 C 
ENDBRANCH   8   9
ENDBRANCH   7   8
ENDBRANCH   1   7
TORSDOF 3
ENDMDL
