MODEL 1
REMARK minimizedAffinity 0.593957067
REMARK minimizedRMSD -1
REMARK  3 active torsions:
REMARK  status: ('A' for Active; 'I' for Inactive)
REMARK    1  A    between atoms: C3'_2  and  C2'_3 
REMARK    2  A    between atoms: C2'_3  and  C1'_4 
REMARK    3  A    between atoms: C1'_4  and  C1_5 
ROOT
ATOM      1  C1  N4B d   1      -1.495   0.539   1.558  0.00  0.00    -0.075 A 
ATOM      2  C2  N4B d   1      -2.393   0.310   0.492  0.00  0.00     0.002 A 
ATOM      3  C3  N4B d   1      -3.726   0.602   0.642  0.00  0.00     0.002 A 
ATOM      4  C4  N4B d   1      -4.186   1.104   1.850  0.00  0.00    -0.004 A 
ATOM      5  C5  N4B d   1      -3.308   1.347   2.866  0.00  0.00     0.002 A 
ATOM      6  C6  N4B d   1      -1.965   1.061   2.728  0.00  0.00     0.002 A 
ENDROOT
BRANCH   1   7
ATOM      7  C1' N4B d   1      -0.043   0.155   1.470  0.00  0.00     0.057 C 
BRANCH   7   8
ATOM      8  C2' N4B d   1       0.494  -0.098   2.875  0.00  0.00     0.009 C 
BRANCH   8   9
ATOM      9  C3' N4B d   1       1.629   0.848   3.228  0.00  0.00     0.004 C 
ATOM     10  C4' N4B d   1       1.146   2.208   3.635  0.00  0.00     0.003 C 
ENDBRANCH   8   9
ENDBRANCH   7   8
ENDBRANCH   1   7
TORSDOF 3
ENDMDL
