MODEL 1
REMARK minimizedAffinity 7.96014881
REMARK minimizedRMSD -1
REMARK  3 active torsions:
REMARK  status: ('A' for Active; 'I' for Inactive)
REMARK    1  A    between atoms: C3'_2  and  C2'_3 
REMARK    2  A    between atoms: C2'_3  and  C1'_4 
REMARK    3  A    between atoms: C1'_4  and  C1_5 
ROOT
ATOM      1  C1  N4B d   1      -2.987   0.720   3.214  0.00  0.00    -0.075 A 
ATOM      2  C2  N4B d   1      -1.837  -0.093   3.319  0.00  0.00     0.002 A 
ATOM      3  C3  N4B d   1      -0.588   0.464   3.189  0.00  0.00     0.002 A 
ATOM      4  C4  N4B d   1      -0.466   1.822   2.936  0.00  0.00    -0.004 A 
ATOM      5  C5  N4B d   1      -1.581   2.604   2.861  0.00  0.00     0.002 A 
ATOM      6  C6  N4B d   1      -2.842   2.059   2.994  0.00  0.00     0.002 A 
ENDROOT
BRANCH   1   7
ATOM      7  C1' N4B d   1      -4.375   0.143   3.264  0.00  0.00     0.057 C 
BRANCH   7   8
ATOM      8  C2' N4B d   1      -5.266   0.895   2.281  0.00  0.00     0.009 C 
BRANCH   8   9
ATOM      9  C3' N4B d   1      -5.455   0.128   0.984  0.00  0.00     0.004 C 
ATOM     10  C4' N4B d   1      -5.431  -1.358   1.179  0.00  0.00     0.003 C 
ENDBRANCH   8   9
ENDBRANCH   7   8
ENDBRANCH   1   7
TORSDOF 3
ENDMDL
