MODEL 1
REMARK minimizedAffinity 8.57035828
REMARK minimizedRMSD -1
REMARK  3 active torsions:
REMARK  status: ('A' for Active; 'I' for Inactive)
REMARK    1  A    between atoms: C3'_2  and  C2'_3 
REMARK    2  A    between atoms: C2'_3  and  C1'_4 
REMARK    3  A    between atoms: C1'_4  and  C1_5 
ROOT
ATOM      1  C1  N4B d   1      -1.124  -0.829  -5.254  0.00  0.00    -0.075 A 
ATOM      2  C2  N4B d   1      -0.851  -2.165  -5.622  0.00  0.00     0.002 A 
ATOM      3  C3  N4B d   1      -1.876  -2.996  -6.000  0.00  0.00     0.002 A 
ATOM      4  C4  N4B d   1      -3.179  -2.522  -6.000  0.00  0.00    -0.004 A 
ATOM      5  C5  N4B d   1      -3.432  -1.223  -5.668  0.00  0.00     0.002 A 
ATOM      6  C6  N4B d   1      -2.410  -0.375  -5.289  0.00  0.00     0.002 A 
ENDROOT
BRANCH   1   7
ATOM      7  C1' N4B d   1      -0.046   0.092  -4.750  0.00  0.00     0.057 C 
BRANCH   7   8
ATOM      8  C2' N4B d   1       0.872  -0.680  -3.807  0.00  0.00     0.009 C 
BRANCH   8   9
ATOM      9  C3' N4B d   1       1.829   0.239  -3.067  0.00  0.00     0.004 C 
ATOM     10  C4' N4B d   1       1.124   1.337  -2.328  0.00  0.00     0.003 C 
ENDBRANCH   8   9
ENDBRANCH   7   8
ENDBRANCH   1   7
TORSDOF 3
ENDMDL
