MODEL 1
REMARK minimizedAffinity 3.56623387
REMARK minimizedRMSD -1
REMARK  3 active torsions:
REMARK  status: ('A' for Active; 'I' for Inactive)
REMARK    1  A    between atoms: C3'_2  and  C2'_3 
REMARK    2  A    between atoms: C2'_3  and  C1'_4 
REMARK    3  A    between atoms: C1'_4  and  C1_5 
ROOT
ATOM      1  C1  N4B d   1      -3.685  -0.459   0.963  0.00  0.00    -0.075 A 
ATOM      2  C2  N4B d   1      -4.514   0.286   1.830  0.00  0.00     0.002 A 
ATOM      3  C3  N4B d   1      -3.958   1.172   2.719  0.00  0.00     0.002 A 
ATOM      4  C4  N4B d   1      -2.579   1.317   2.772  0.00  0.00    -0.004 A 
ATOM      5  C5  N4B d   1      -1.787   0.613   1.913  0.00  0.00     0.002 A 
ATOM      6  C6  N4B d   1      -2.333  -0.279   1.012  0.00  0.00     0.002 A 
ENDROOT
BRANCH   1   7
ATOM      7  C1' N4B d   1      -4.241  -1.502   0.033  0.00  0.00     0.057 C 
BRANCH   7   8
ATOM      8  C2' N4B d   1      -3.995  -2.885   0.629  0.00  0.00     0.009 C 
BRANCH   8   9
ATOM      9  C3' N4B d   1      -2.823  -3.589  -0.033  0.00  0.00     0.004 C 
ATOM     10  C4' N4B d   1      -1.507  -3.244   0.599  0.00  0.00     0.003 C 
ENDBRANCH   8   9
ENDBRANCH   7   8
ENDBRANCH   1   7
TORSDOF 3
ENDMDL
