MODEL 1
REMARK minimizedAffinity 8.78932762
REMARK minimizedRMSD -1
REMARK  3 active torsions:
REMARK  status: ('A' for Active; 'I' for Inactive)
REMARK    1  A    between atoms: C3'_2  and  C2'_3 
REMARK    2  A    between atoms: C2'_3  and  C1'_4 
REMARK    3  A    between atoms: C1'_4  and  C1_5 
ROOT
ATOM      1  C1  N4B d   1      -4.025   0.617   3.169  0.00  0.00    -0.075 A 
ATOM      2  C2  N4B d   1      -2.646   0.310   3.167  0.00  0.00     0.002 A 
ATOM      3  C3  N4B d   1      -1.975   0.175   1.977  0.00  0.00     0.002 A 
ATOM      4  C4  N4B d   1      -2.663   0.322   0.781  0.00  0.00    -0.004 A 
ATOM      5  C5  N4B d   1      -3.988   0.643   0.792  0.00  0.00     0.002 A 
ATOM      6  C6  N4B d   1      -4.675   0.787   1.981  0.00  0.00     0.002 A 
ENDROOT
BRANCH   1   7
ATOM      7  C1' N4B d   1      -4.820   0.691   4.444  0.00  0.00     0.057 C 
BRANCH   7   8
ATOM      8  C2' N4B d   1      -5.780   1.874   4.368  0.00  0.00     0.009 C 
BRANCH   8   9
ATOM      9  C3' N4B d   1      -6.000   2.516   5.728  0.00  0.00     0.004 C 
ATOM     10  C4' N4B d   1      -5.657   3.975   5.743  0.00  0.00     0.003 C 
ENDBRANCH   8   9
ENDBRANCH   7   8
ENDBRANCH   1   7
TORSDOF 3
ENDMDL
