MODEL 1
REMARK minimizedAffinity 4.63751507
REMARK minimizedRMSD -1
REMARK  3 active torsions:
REMARK  status: ('A' for Active; 'I' for Inactive)
REMARK    1  A    between atoms: C3'_2  and  C2'_3 
REMARK    2  A    between atoms: C2'_3  and  C1'_4 
REMARK    3  A    between atoms: C1'_4  and  C1_5 
ROOT
ATOM      1  C1  N4B d   1      -5.395  -1.739   2.964  0.00  0.00    -0.075 A 
ATOM      2  C2  N4B d   1      -5.226  -0.483   3.588  0.00  0.00     0.002 A 
ATOM      3  C3  N4B d   1      -4.868   0.612   2.840  0.00  0.00     0.002 A 
ATOM      4  C4  N4B d   1      -4.656   0.472   1.476  0.00  0.00    -0.004 A 
ATOM      5  C5  N4B d   1      -4.846  -0.739   0.878  0.00  0.00     0.002 A 
ATOM      6  C6  N4B d   1      -5.210  -1.847   1.617  0.00  0.00     0.002 A 
ENDROOT
BRANCH   1   7
ATOM      7  C1' N4B d   1      -5.701  -2.982   3.754  0.00  0.00     0.057 C 
BRANCH   7   8
ATOM      8  C2' N4B d   1      -5.735  -2.636   5.240  0.00  0.00     0.009 C 
BRANCH   8   9
ATOM      9  C3' N4B d   1      -4.482  -3.105   5.960  0.00  0.00     0.004 C 
ATOM     10  C4' N4B d   1      -3.409  -2.059   5.999  0.00  0.00     0.003 C 
ENDBRANCH   8   9
ENDBRANCH   7   8
ENDBRANCH   1   7
TORSDOF 3
ENDMDL
