MODEL 1
REMARK minimizedAffinity 4.71252346
REMARK minimizedRMSD -1
REMARK  3 active torsions:
REMARK  status: ('A' for Active; 'I' for Inactive)
REMARK    1  A    between atoms: C3'_2  and  C2'_3 
REMARK    2  A    between atoms: C2'_3  and  C1'_4 
REMARK    3  A    between atoms: C1'_4  and  C1_5 
ROOT
ATOM      1  C1  N4B d   1      -1.813   1.119   2.060  0.00  0.00    -0.075 A 
ATOM      2  C2  N4B d   1      -1.085   2.305   2.297  0.00  0.00     0.002 A 
ATOM      3  C3  N4B d   1       0.163   2.241   2.868  0.00  0.00     0.002 A 
ATOM      4  C4  N4B d   1       0.692   1.010   3.225  0.00  0.00    -0.004 A 
ATOM      5  C5  N4B d   1      -0.008  -0.133   2.969  0.00  0.00     0.002 A 
ATOM      6  C6  N4B d   1      -1.261  -0.084   2.392  0.00  0.00     0.002 A 
ENDROOT
BRANCH   1   7
ATOM      7  C1' N4B d   1      -3.216   1.144   1.517  0.00  0.00     0.057 C 
BRANCH   7   8
ATOM      8  C2' N4B d   1      -3.874  -0.210   1.766  0.00  0.00     0.009 C 
BRANCH   8   9
ATOM      9  C3' N4B d   1      -4.606  -0.721   0.537  0.00  0.00     0.004 C 
ATOM     10  C4' N4B d   1      -4.276  -2.148   0.216  0.00  0.00     0.003 C 
ENDBRANCH   8   9
ENDBRANCH   7   8
ENDBRANCH   1   7
TORSDOF 3
ENDMDL
