MODEL 1
REMARK minimizedAffinity 3.62683797
REMARK minimizedRMSD -1
REMARK  3 active torsions:
REMARK  status: ('A' for Active; 'I' for Inactive)
REMARK    1  A    between atoms: C3'_2  and  C2'_3 
REMARK    2  A    between atoms: C2'_3  and  C1'_4 
REMARK    3  A    between atoms: C1'_4  and  C1_5 
ROOT
ATOM      1  C1  N4B d   1      -2.821  -0.713   1.069  0.00  0.00    -0.075 A 
ATOM      2  C2  N4B d   1      -1.818  -1.706   1.012  0.00  0.00     0.002 A 
ATOM      3  C3  N4B d   1      -2.114  -2.953   0.518  0.00  0.00     0.002 A 
ATOM      4  C4  N4B d   1      -3.404  -3.235   0.096  0.00  0.00    -0.004 A 
ATOM      5  C5  N4B d   1      -4.360  -2.262   0.130  0.00  0.00     0.002 A 
ATOM      6  C6  N4B d   1      -4.076  -1.004   0.620  0.00  0.00     0.002 A 
ENDROOT
BRANCH   1   7
ATOM      7  C1' N4B d   1      -2.566   0.638   1.680  0.00  0.00     0.057 C 
BRANCH   7   8
ATOM      8  C2' N4B d   1      -3.840   1.125   2.365  0.00  0.00     0.009 C 
BRANCH   8   9
ATOM      9  C3' N4B d   1      -4.078   0.421   3.689  0.00  0.00     0.004 C 
ATOM     10  C4' N4B d   1      -5.217   1.012   4.465  0.00  0.00     0.003 C 
ENDBRANCH   8   9
ENDBRANCH   7   8
ENDBRANCH   1   7
TORSDOF 3
ENDMDL
