MODEL 1
REMARK minimizedAffinity 21.7304401
REMARK minimizedRMSD -1
REMARK  0 active torsions:
REMARK  status: ('A' for Active; 'I' for Inactive)
ROOT
ATOM      1  C2' OXE d   1       2.333   2.344  -1.729  0.00  0.00     0.078 C 
ATOM      2  C1' OXE d   1       1.500  -0.300  -2.172  0.00  0.00     0.078 C 
ATOM      3  C1  OXE d   1       2.789  -0.085  -1.419  0.00  0.00    -0.078 A 
ATOM      4  C2  OXE d   1       3.213   1.211  -1.247  0.00  0.00    -0.078 A 
ATOM      5  C3  OXE d   1       4.367   1.467  -0.512  0.00  0.00     0.003 A 
ATOM      6  C4  OXE d   1       5.180   0.413  -0.079  0.00  0.00    -0.002 A 
ATOM      7  C5  OXE d   1       4.787  -0.914  -0.278  0.00  0.00    -0.002 A 
ATOM      8  C6  OXE d   1       3.576  -1.180  -0.907  0.00  0.00     0.003 A 
ENDROOT
TORSDOF 0
ENDMDL
