MODEL 1
REMARK minimizedAffinity 7.78802252
REMARK minimizedRMSD -1
REMARK  0 active torsions:
REMARK  status: ('A' for Active; 'I' for Inactive)
ROOT
ATOM      1  C2' OXE d   1       1.445   0.095  -3.078  0.00  0.00     0.078 C 
ATOM      2  C1' OXE d   1       2.846   0.948  -0.800  0.00  0.00     0.078 C 
ATOM      3  C1  OXE d   1       2.736  -0.536  -1.043  0.00  0.00    -0.078 A 
ATOM      4  C2  OXE d   1       2.009  -0.946  -2.135  0.00  0.00    -0.078 A 
ATOM      5  C3  OXE d   1       1.922  -2.302  -2.437  0.00  0.00     0.003 A 
ATOM      6  C4  OXE d   1       2.438  -3.259  -1.554  0.00  0.00    -0.002 A 
ATOM      7  C5  OXE d   1       3.149  -2.864  -0.415  0.00  0.00    -0.002 A 
ATOM      8  C6  OXE d   1       3.343  -1.509  -0.169  0.00  0.00     0.003 A 
ENDROOT
TORSDOF 0
ENDMDL
