MODEL 1
REMARK minimizedAffinity -1.55787063
REMARK minimizedRMSD -1
REMARK  0 active torsions:
REMARK  status: ('A' for Active; 'I' for Inactive)
ROOT
ATOM      1  C2' OXE d   1       2.007  -1.637  -2.230  0.00  0.00     0.078 C 
ATOM      2  C1' OXE d   1       3.147  -3.240  -0.227  0.00  0.00     0.078 C 
ATOM      3  C1  OXE d   1       3.008  -3.832  -1.608  0.00  0.00    -0.078 A 
ATOM      4  C2  OXE d   1       2.407  -3.057  -2.570  0.00  0.00    -0.078 A 
ATOM      5  C3  OXE d   1       2.303  -3.534  -3.873  0.00  0.00     0.003 A 
ATOM      6  C4  OXE d   1       2.666  -4.852  -4.177  0.00  0.00    -0.002 A 
ATOM      7  C5  OXE d   1       3.244  -5.671  -3.202  0.00  0.00    -0.002 A 
ATOM      8  C6  OXE d   1       3.461  -5.164  -1.926  0.00  0.00     0.003 A 
ENDROOT
TORSDOF 0
ENDMDL
