MODEL 1
REMARK minimizedAffinity 1.86701953
REMARK minimizedRMSD -1
REMARK  0 active torsions:
REMARK  status: ('A' for Active; 'I' for Inactive)
ROOT
ATOM      1  C2' OXE d   1       3.560  -4.126   0.157  0.00  0.00     0.078 C 
ATOM      2  C1' OXE d   1       1.562  -2.166  -0.058  0.00  0.00     0.078 C 
ATOM      3  C1  OXE d   1       1.977  -2.889  -1.316  0.00  0.00    -0.078 A 
ATOM      4  C2  OXE d   1       2.988  -3.813  -1.209  0.00  0.00    -0.078 A 
ATOM      5  C3  OXE d   1       3.371  -4.548  -2.327  0.00  0.00     0.003 A 
ATOM      6  C4  OXE d   1       2.844  -4.245  -3.589  0.00  0.00    -0.002 A 
ATOM      7  C5  OXE d   1       1.842  -3.279  -3.726  0.00  0.00    -0.002 A 
ATOM      8  C6  OXE d   1       1.368  -2.623  -2.595  0.00  0.00     0.003 A 
ENDROOT
TORSDOF 0
ENDMDL
