MODEL 1
REMARK minimizedAffinity 2.11872935
REMARK minimizedRMSD -1
REMARK  0 active torsions:
REMARK  status: ('A' for Active; 'I' for Inactive)
ROOT
ATOM      1  C2' OXE d   1      -4.060  -5.994   3.377  0.00  0.00     0.078 C 
ATOM      2  C1' OXE d   1      -6.000  -5.091   1.560  0.00  0.00     0.078 C 
ATOM      3  C1  OXE d   1      -5.487  -4.111   2.586  0.00  0.00    -0.078 A 
ATOM      4  C2  OXE d   1      -4.572  -4.575   3.500  0.00  0.00    -0.078 A 
ATOM      5  C3  OXE d   1      -4.026  -3.699   4.434  0.00  0.00     0.003 A 
ATOM      6  C4  OXE d   1      -4.513  -2.391   4.548  0.00  0.00    -0.002 A 
ATOM      7  C5  OXE d   1      -5.473  -1.910   3.652  0.00  0.00    -0.002 A 
ATOM      8  C6  OXE d   1      -5.939  -2.743   2.640  0.00  0.00     0.003 A 
ENDROOT
TORSDOF 0
ENDMDL
