MODEL 1
REMARK minimizedAffinity 0.5258829
REMARK minimizedRMSD -1
REMARK  0 active torsions:
REMARK  status: ('A' for Active; 'I' for Inactive)
ROOT
ATOM      1  C2' OXE d   1       3.786  -4.468  -0.415  0.00  0.00     0.078 C 
ATOM      2  C1' OXE d   1       1.881  -2.406  -0.439  0.00  0.00     0.078 C 
ATOM      3  C1  OXE d   1       2.385  -2.913  -1.766  0.00  0.00    -0.078 A 
ATOM      4  C2  OXE d   1       3.352  -3.890  -1.744  0.00  0.00    -0.078 A 
ATOM      5  C3  OXE d   1       3.812  -4.432  -2.941  0.00  0.00     0.003 A 
ATOM      6  C4  OXE d   1       3.412  -3.885  -4.167  0.00  0.00    -0.002 A 
ATOM      7  C5  OXE d   1       2.458  -2.863  -4.211  0.00  0.00    -0.002 A 
ATOM      8  C6  OXE d   1       1.904  -2.396  -3.024  0.00  0.00     0.003 A 
ENDROOT
TORSDOF 0
ENDMDL
