MODEL 1
REMARK minimizedAffinity 2.21649694
REMARK minimizedRMSD -1
REMARK  0 active torsions:
REMARK  status: ('A' for Active; 'I' for Inactive)
ROOT
ATOM      1  C2' OXE d   1       2.092  -1.797  -1.371  0.00  0.00     0.078 C 
ATOM      2  C1' OXE d   1       3.267  -3.988  -0.067  0.00  0.00     0.078 C 
ATOM      3  C1  OXE d   1       3.087  -4.073  -1.562  0.00  0.00    -0.078 A 
ATOM      4  C2  OXE d   1       2.469  -3.016  -2.185  0.00  0.00    -0.078 A 
ATOM      5  C3  OXE d   1       2.328  -3.020  -3.570  0.00  0.00     0.003 A 
ATOM      6  C4  OXE d   1       2.670  -4.155  -4.315  0.00  0.00    -0.002 A 
ATOM      7  C5  OXE d   1       3.264  -5.259  -3.693  0.00  0.00    -0.002 A 
ATOM      8  C6  OXE d   1       3.518  -5.217  -2.327  0.00  0.00     0.003 A 
ENDROOT
TORSDOF 0
ENDMDL
