MODEL 1
REMARK minimizedAffinity 2.26779604
REMARK minimizedRMSD -1
REMARK  0 active torsions:
REMARK  status: ('A' for Active; 'I' for Inactive)
ROOT
ATOM      1  C2' OXE d   1       0.034   1.643   3.258  0.00  0.00     0.078 C 
ATOM      2  C1' OXE d   1       0.029   2.261   5.997  0.00  0.00     0.078 C 
ATOM      3  C1  OXE d   1      -1.304   2.135   5.301  0.00  0.00    -0.078 A 
ATOM      4  C2  OXE d   1      -1.290   1.879   3.951  0.00  0.00    -0.078 A 
ATOM      5  C3  OXE d   1      -2.492   1.699   3.271  0.00  0.00     0.003 A 
ATOM      6  C4  OXE d   1      -3.713   1.929   3.917  0.00  0.00    -0.002 A 
ATOM      7  C5  OXE d   1      -3.748   2.230   5.283  0.00  0.00    -0.002 A 
ATOM      8  C6  OXE d   1      -2.556   2.295   5.997  0.00  0.00     0.003 A 
ENDROOT
TORSDOF 0
ENDMDL
