MODEL 1
REMARK minimizedAffinity 9.37421799
REMARK minimizedRMSD -1
REMARK  0 active torsions:
REMARK  status: ('A' for Active; 'I' for Inactive)
ROOT
ATOM      1  C2' OXE d   1       4.959  -4.982  -0.606  0.00  0.00     0.078 C 
ATOM      2  C1' OXE d   1       2.860  -3.149  -0.272  0.00  0.00     0.078 C 
ATOM      3  C1  OXE d   1       3.035  -3.778  -1.632  0.00  0.00    -0.078 A 
ATOM      4  C2  OXE d   1       4.093  -4.638  -1.799  0.00  0.00    -0.078 A 
ATOM      5  C3  OXE d   1       4.268  -5.288  -3.017  0.00  0.00     0.003 A 
ATOM      6  C4  OXE d   1       3.469  -4.956  -4.118  0.00  0.00    -0.002 A 
ATOM      7  C5  OXE d   1       2.410  -4.053  -3.980  0.00  0.00    -0.002 A 
ATOM      8  C6  OXE d   1       2.153  -3.488  -2.735  0.00  0.00     0.003 A 
ENDROOT
TORSDOF 0
ENDMDL
