MODEL 1
REMARK minimizedAffinity 12.32934
REMARK minimizedRMSD -1
REMARK  0 active torsions:
REMARK  status: ('A' for Active; 'I' for Inactive)
ROOT
ATOM      1  C2' OXE d   1      -1.296   2.349   5.990  0.00  0.00     0.078 C 
ATOM      2  C1' OXE d   1      -2.953   2.255   3.726  0.00  0.00     0.078 C 
ATOM      3  C1  OXE d   1      -1.539   1.750   3.584  0.00  0.00    -0.078 A 
ATOM      4  C2  OXE d   1      -0.721   1.842   4.684  0.00  0.00    -0.078 A 
ATOM      5  C3  OXE d   1       0.575   1.340   4.623  0.00  0.00     0.003 A 
ATOM      6  C4  OXE d   1       1.102   0.882   3.409  0.00  0.00    -0.002 A 
ATOM      7  C5  OXE d   1       0.298   0.817   2.267  0.00  0.00    -0.002 A 
ATOM      8  C6  OXE d   1      -1.035   1.206   2.348  0.00  0.00     0.003 A 
ENDROOT
TORSDOF 0
ENDMDL
