MODEL 1
REMARK minimizedAffinity 14.2650738
REMARK minimizedRMSD -1
REMARK  0 active torsions:
REMARK  status: ('A' for Active; 'I' for Inactive)
ROOT
ATOM      1  C2' OXE d   1      -3.199   1.041   5.977  0.00  0.00     0.078 C 
ATOM      2  C1' OXE d   1      -3.530   1.135   3.191  0.00  0.00     0.078 C 
ATOM      3  C1  OXE d   1      -3.656  -0.206   3.869  0.00  0.00    -0.078 A 
ATOM      4  C2  OXE d   1      -3.446  -0.250   5.227  0.00  0.00    -0.078 A 
ATOM      5  C3  OXE d   1      -3.604  -1.452   5.910  0.00  0.00     0.003 A 
ATOM      6  C4  OXE d   1      -3.823  -2.644   5.207  0.00  0.00    -0.002 A 
ATOM      7  C5  OXE d   1      -4.000  -2.627   3.820  0.00  0.00    -0.002 A 
ATOM      8  C6  OXE d   1      -3.962  -1.414   3.142  0.00  0.00     0.003 A 
ENDROOT
TORSDOF 0
ENDMDL
