MODEL 1
REMARK minimizedAffinity 16.0820847
REMARK minimizedRMSD -1
REMARK  0 active torsions:
REMARK  status: ('A' for Active; 'I' for Inactive)
ROOT
ATOM      1  C2' OXE d   1      -4.143   2.431  -6.000  0.00  0.00     0.078 C 
ATOM      2  C1' OXE d   1      -2.235   2.054  -3.976  0.00  0.00     0.078 C 
ATOM      3  C1  OXE d   1      -2.445   3.456  -4.493  0.00  0.00    -0.078 A 
ATOM      4  C2  OXE d   1      -3.347   3.623  -5.516  0.00  0.00    -0.078 A 
ATOM      5  C3  OXE d   1      -3.619   4.903  -5.993  0.00  0.00     0.003 A 
ATOM      6  C4  OXE d   1      -2.870   5.999  -5.546  0.00  0.00    -0.002 A 
ATOM      7  C5  OXE d   1      -1.919   5.844  -4.533  0.00  0.00    -0.002 A 
ATOM      8  C6  OXE d   1      -1.724   4.589  -3.967  0.00  0.00     0.003 A 
ENDROOT
TORSDOF 0
ENDMDL
