MODEL 1
REMARK minimizedAffinity 19.8772011
REMARK minimizedRMSD -1
REMARK  0 active torsions:
REMARK  status: ('A' for Active; 'I' for Inactive)
ROOT
ATOM      1  C2' OXE d   1       3.734   0.486  -0.479  0.00  0.00     0.078 C 
ATOM      2  C1' OXE d   1       2.281   2.684  -1.446  0.00  0.00     0.078 C 
ATOM      3  C1  OXE d   1       2.092   1.357  -2.137  0.00  0.00    -0.078 A 
ATOM      4  C2  OXE d   1       2.842   0.297  -1.687  0.00  0.00    -0.078 A 
ATOM      5  C3  OXE d   1       2.665  -0.962  -2.254  0.00  0.00     0.003 A 
ATOM      6  C4  OXE d   1       1.846  -1.125  -3.378  0.00  0.00    -0.002 A 
ATOM      7  C5  OXE d   1       1.103  -0.050  -3.877  0.00  0.00    -0.002 A 
ATOM      8  C6  OXE d   1       1.182   1.186  -3.243  0.00  0.00     0.003 A 
ENDROOT
TORSDOF 0
ENDMDL
