MODEL 1
REMARK minimizedAffinity 16.4714794
REMARK minimizedRMSD -1
REMARK  0 active torsions:
REMARK  status: ('A' for Active; 'I' for Inactive)
ROOT
ATOM      1  C2' OXE d   1      -2.061   2.131   5.975  0.00  0.00     0.078 C 
ATOM      2  C1' OXE d   1      -2.467   0.952   3.460  0.00  0.00     0.078 C 
ATOM      3  C1  OXE d   1      -3.643   1.628   4.118  0.00  0.00    -0.078 A 
ATOM      4  C2  OXE d   1      -3.448   2.161   5.369  0.00  0.00    -0.078 A 
ATOM      5  C3  OXE d   1      -4.485   2.844   5.998  0.00  0.00     0.003 A 
ATOM      6  C4  OXE d   1      -5.767   2.858   5.435  0.00  0.00    -0.002 A 
ATOM      7  C5  OXE d   1      -5.998   2.286   4.179  0.00  0.00    -0.002 A 
ATOM      8  C6  OXE d   1      -4.939   1.706   3.490  0.00  0.00     0.003 A 
ENDROOT
TORSDOF 0
ENDMDL
