MODEL 1
REMARK minimizedAffinity 20.5818024
REMARK minimizedRMSD -1
REMARK  0 active torsions:
REMARK  status: ('A' for Active; 'I' for Inactive)
ROOT
ATOM      1  C2' OXE d   1       1.503  -4.366  -0.134  0.00  0.00     0.078 C 
ATOM      2  C1' OXE d   1      -0.091  -3.886  -2.394  0.00  0.00     0.078 C 
ATOM      3  C1  OXE d   1       0.772  -2.757  -1.889  0.00  0.00    -0.078 A 
ATOM      4  C2  OXE d   1       1.513  -2.986  -0.755  0.00  0.00    -0.078 A 
ATOM      5  C3  OXE d   1       2.368  -1.996  -0.278  0.00  0.00     0.003 A 
ATOM      6  C4  OXE d   1       2.364  -0.720  -0.853  0.00  0.00    -0.002 A 
ATOM      7  C5  OXE d   1       1.586  -0.453  -1.985  0.00  0.00    -0.002 A 
ATOM      8  C6  OXE d   1       0.819  -1.471  -2.540  0.00  0.00     0.003 A 
ENDROOT
TORSDOF 0
ENDMDL
