MODEL 1
REMARK minimizedAffinity 20.903635
REMARK minimizedRMSD -1
REMARK  0 active torsions:
REMARK  status: ('A' for Active; 'I' for Inactive)
ROOT
ATOM      1  C2' OXE d   1       2.175   1.486   2.293  0.00  0.00     0.078 C 
ATOM      2  C1' OXE d   1      -0.182   3.010   2.230  0.00  0.00     0.078 C 
ATOM      3  C1  OXE d   1       0.308   2.528   3.573  0.00  0.00    -0.078 A 
ATOM      4  C2  OXE d   1       1.437   1.743   3.589  0.00  0.00    -0.078 A 
ATOM      5  C3  OXE d   1       1.962   1.318   4.806  0.00  0.00     0.003 A 
ATOM      6  C4  OXE d   1       1.268   1.552   5.999  0.00  0.00    -0.002 A 
ATOM      7  C5  OXE d   1       0.095   2.315   6.000  0.00  0.00    -0.002 A 
ATOM      8  C6  OXE d   1      -0.374   2.845   4.803  0.00  0.00     0.003 A 
ENDROOT
TORSDOF 0
ENDMDL
