MODEL 1
REMARK minimizedAffinity 13.0136595
REMARK minimizedRMSD -1
REMARK  0 active torsions:
REMARK  status: ('A' for Active; 'I' for Inactive)
ROOT
ATOM      1  C2' OXE d   1      -0.377  -5.355  -5.605  0.00  0.00     0.078 C 
ATOM      2  C1' OXE d   1      -0.085  -4.667  -2.899  0.00  0.00     0.078 C 
ATOM      3  C1  OXE d   1      -1.228  -4.046  -3.663  0.00  0.00    -0.078 A 
ATOM      4  C2  OXE d   1      -1.335  -4.352  -4.998  0.00  0.00    -0.078 A 
ATOM      5  C3  OXE d   1      -2.403  -3.850  -5.737  0.00  0.00     0.003 A 
ATOM      6  C4  OXE d   1      -3.279  -2.915  -5.171  0.00  0.00    -0.002 A 
ATOM      7  C5  OXE d   1      -3.163  -2.559  -3.823  0.00  0.00    -0.002 A 
ATOM      8  C6  OXE d   1      -2.171  -3.147  -3.046  0.00  0.00     0.003 A 
ENDROOT
TORSDOF 0
ENDMDL
