MODEL 1
REMARK minimizedAffinity 21.0944042
REMARK minimizedRMSD -1
REMARK  0 active torsions:
REMARK  status: ('A' for Active; 'I' for Inactive)
ROOT
ATOM      1  C2' OXE d   1       0.921   0.682   1.841  0.00  0.00     0.078 C 
ATOM      2  C1' OXE d   1      -1.250   2.302   2.577  0.00  0.00     0.078 C 
ATOM      3  C1  OXE d   1      -0.282   1.888   3.658  0.00  0.00    -0.078 A 
ATOM      4  C2  OXE d   1       0.751   1.057   3.297  0.00  0.00    -0.078 A 
ATOM      5  C3  OXE d   1       1.703   0.691   4.244  0.00  0.00     0.003 A 
ATOM      6  C4  OXE d   1       1.533   1.034   5.591  0.00  0.00    -0.002 A 
ATOM      7  C5  OXE d   1       0.466   1.847   5.987  0.00  0.00    -0.002 A 
ATOM      8  C6  OXE d   1      -0.425   2.317   5.028  0.00  0.00     0.003 A 
ENDROOT
TORSDOF 0
ENDMDL
