MODEL 1
REMARK minimizedAffinity -4.63079929
REMARK minimizedRMSD -1
REMARK  1 active torsions:
REMARK  status: ('A' for Active; 'I' for Inactive)
REMARK    1  A    between atoms: C1_2  and  C2_3 
ROOT
ATOM      1  C2  UNL d   1      -0.206   0.125   0.038  0.00  0.00    -0.077 A 
ATOM      2  C3  UNL d   1      -0.838   1.049  -0.806  0.00  0.00     0.002 A 
ATOM      3  C4  UNL d   1      -1.380   2.225  -0.286  0.00  0.00     0.002 A 
ATOM      4  C5  UNL d   1      -1.292   2.490   1.079  0.00  0.00    -0.004 A 
ATOM      5  C6  UNL d   1      -0.668   1.577   1.927  0.00  0.00     0.002 A 
ATOM      6  C7  UNL d   1      -0.127   0.399   1.409  0.00  0.00     0.002 A 
ENDROOT
BRANCH   1   7
ATOM      7  C1  UNL d   1       0.422  -1.121  -0.529  0.00  0.00     0.055 C 
ATOM      8  C   UNL d   1      -0.634  -2.100  -1.022  0.00  0.00     0.019 C 
ENDBRANCH   1   7
TORSDOF 1
ENDMDL
