MODEL 1
REMARK minimizedAffinity -4.74646997
REMARK minimizedRMSD -1
REMARK  1 active torsions:
REMARK  status: ('A' for Active; 'I' for Inactive)
REMARK    1  A    between atoms: C1_2  and  C2_3 
ROOT
ATOM      1  C2  UNL d   1      -0.231  -0.070   0.315  0.00  0.00    -0.077 A 
ATOM      2  C3  UNL d   1      -1.193   0.703  -0.349  0.00  0.00     0.002 A 
ATOM      3  C4  UNL d   1      -1.642   1.903   0.207  0.00  0.00     0.002 A 
ATOM      4  C5  UNL d   1      -1.130   2.342   1.427  0.00  0.00    -0.004 A 
ATOM      5  C6  UNL d   1      -0.174   1.579   2.096  0.00  0.00     0.002 A 
ATOM      6  C7  UNL d   1       0.275   0.379   1.542  0.00  0.00     0.002 A 
ENDROOT
BRANCH   1   7
ATOM      7  C1  UNL d   1       0.290  -1.339  -0.306  0.00  0.00     0.055 C 
ATOM      8  C   UNL d   1      -0.842  -2.304  -0.628  0.00  0.00     0.019 C 
ENDBRANCH   1   7
TORSDOF 1
ENDMDL
