MODEL 1
REMARK minimizedAffinity -5.55631208
REMARK minimizedRMSD -1
REMARK  1 active torsions:
REMARK  status: ('A' for Active; 'I' for Inactive)
REMARK    1  A    between atoms: C1_2  and  C2_3 
ROOT
ATOM      1  C2  UNL d   1      -0.074  -1.150  -0.167  0.00  0.00    -0.077 A 
ATOM      2  C3  UNL d   1      -1.441  -1.414  -0.005  0.00  0.00     0.002 A 
ATOM      3  C4  UNL d   1      -2.037  -2.487  -0.671  0.00  0.00     0.002 A 
ATOM      4  C5  UNL d   1      -1.273  -3.306  -1.500  0.00  0.00    -0.004 A 
ATOM      5  C6  UNL d   1       0.087  -3.050  -1.670  0.00  0.00     0.002 A 
ATOM      6  C7  UNL d   1       0.684  -1.977  -1.006  0.00  0.00     0.002 A 
ENDROOT
BRANCH   1   7
ATOM      7  C1  UNL d   1       0.581  -0.023   0.588  0.00  0.00     0.055 C 
ATOM      8  C   UNL d   1      -0.207   0.336   1.840  0.00  0.00     0.019 C 
ENDBRANCH   1   7
TORSDOF 1
ENDMDL
