MODEL 1
REMARK minimizedAffinity -3.3411963
REMARK minimizedRMSD -1
REMARK  1 active torsions:
REMARK  status: ('A' for Active; 'I' for Inactive)
REMARK    1  A    between atoms: C1_2  and  C2_3 
ROOT
ATOM      1  C2  UNL d   1       0.081   1.115   2.431  0.00  0.00    -0.077 A 
ATOM      2  C3  UNL d   1       0.963   0.473   1.551  0.00  0.00     0.002 A 
ATOM      3  C4  UNL d   1       1.637  -0.685   1.945  0.00  0.00     0.002 A 
ATOM      4  C5  UNL d   1       1.432  -1.213   3.218  0.00  0.00    -0.004 A 
ATOM      5  C6  UNL d   1       0.558  -0.581   4.102  0.00  0.00     0.002 A 
ATOM      6  C7  UNL d   1      -0.115   0.577   3.710  0.00  0.00     0.002 A 
ENDROOT
BRANCH   1   7
ATOM      7  C1  UNL d   1      -0.684   2.335   1.991  0.00  0.00     0.055 C 
ATOM      8  C   UNL d   1      -2.181   2.152   2.191  0.00  0.00     0.019 C 
ENDBRANCH   1   7
TORSDOF 1
ENDMDL
