MODEL 1
REMARK minimizedAffinity -5.15026236
REMARK minimizedRMSD -1
REMARK  1 active torsions:
REMARK  status: ('A' for Active; 'I' for Inactive)
REMARK    1  A    between atoms: C1_2  and  C2_3 
ROOT
ATOM      1  C2  UNL d   1       0.033  -0.047   0.442  0.00  0.00    -0.077 A 
ATOM      2  C3  UNL d   1      -0.934   0.785  -0.140  0.00  0.00     0.002 A 
ATOM      3  C4  UNL d   1      -1.405   1.907   0.546  0.00  0.00     0.002 A 
ATOM      4  C5  UNL d   1      -0.911   2.208   1.813  0.00  0.00    -0.004 A 
ATOM      5  C6  UNL d   1       0.049   1.386   2.401  0.00  0.00     0.002 A 
ATOM      6  C7  UNL d   1       0.520   0.263   1.718  0.00  0.00     0.002 A 
ENDROOT
BRANCH   1   7
ATOM      7  C1  UNL d   1       0.578  -1.230  -0.316  0.00  0.00     0.055 C 
ATOM      8  C   UNL d   1      -0.519  -1.940  -1.096  0.00  0.00     0.019 C 
ENDBRANCH   1   7
TORSDOF 1
ENDMDL
