MODEL 1
REMARK minimizedAffinity -4.74575138
REMARK minimizedRMSD -1
REMARK  3 active torsions:
REMARK  status: ('A' for Active; 'I' for Inactive)
REMARK    1  A    between atoms: C3'_2  and  C2'_3 
REMARK    2  A    between atoms: C2'_3  and  C1'_4 
REMARK    3  A    between atoms: C1'_4  and  C1_5 
ROOT
ATOM      1  C1  N4B d   1      -0.033   0.342  -0.311  0.00  0.00    -0.075 A 
ATOM      2  C2  N4B d   1       0.612  -0.760  -0.916  0.00  0.00     0.002 A 
ATOM      3  C3  N4B d   1       0.406  -2.027  -0.430  0.00  0.00     0.002 A 
ATOM      4  C4  N4B d   1      -0.422  -2.215   0.667  0.00  0.00    -0.004 A 
ATOM      5  C5  N4B d   1      -1.061  -1.149   1.229  0.00  0.00     0.002 A 
ATOM      6  C6  N4B d   1      -0.866   0.130   0.749  0.00  0.00     0.002 A 
ENDROOT
BRANCH   1   7
ATOM      7  C1' N4B d   1       0.229   1.756  -0.753  0.00  0.00     0.057 C 
BRANCH   7   8
ATOM      8  C2' N4B d   1       0.602   2.600   0.462  0.00  0.00     0.009 C 
BRANCH   8   9
ATOM      9  C3' N4B d   1       1.613   3.679   0.115  0.00  0.00     0.004 C 
ATOM     10  C4' N4B d   1       2.961   3.122  -0.232  0.00  0.00     0.003 C 
ENDBRANCH   8   9
ENDBRANCH   7   8
ENDBRANCH   1   7
TORSDOF 3
ENDMDL
