MODEL 1
REMARK minimizedAffinity -4.53497076
REMARK minimizedRMSD -1
REMARK  3 active torsions:
REMARK  status: ('A' for Active; 'I' for Inactive)
REMARK    1  A    between atoms: C3'_2  and  C2'_3 
REMARK    2  A    between atoms: C2'_3  and  C1'_4 
REMARK    3  A    between atoms: C1'_4  and  C1_5 
ROOT
ATOM      1  C1  N4B d   1       0.002   1.131  -0.410  0.00  0.00    -0.075 A 
ATOM      2  C2  N4B d   1      -0.283   0.953  -1.781  0.00  0.00     0.002 A 
ATOM      3  C3  N4B d   1      -0.131  -0.284  -2.359  0.00  0.00     0.002 A 
ATOM      4  C4  N4B d   1       0.321  -1.348  -1.593  0.00  0.00    -0.004 A 
ATOM      5  C5  N4B d   1       0.570  -1.173  -0.264  0.00  0.00     0.002 A 
ATOM      6  C6  N4B d   1       0.418   0.063   0.332  0.00  0.00     0.002 A 
ENDROOT
BRANCH   1   7
ATOM      7  C1' N4B d   1      -0.067   2.483   0.247  0.00  0.00     0.057 C 
BRANCH   7   8
ATOM      8  C2' N4B d   1       1.035   3.372  -0.322  0.00  0.00     0.009 C 
BRANCH   8   9
ATOM      9  C3' N4B d   1       2.372   3.123   0.354  0.00  0.00     0.004 C 
ATOM     10  C4' N4B d   1       2.355   3.454   1.816  0.00  0.00     0.003 C 
ENDBRANCH   8   9
ENDBRANCH   7   8
ENDBRANCH   1   7
TORSDOF 3
ENDMDL
