MODEL 1
REMARK minimizedAffinity -4.88854837
REMARK minimizedRMSD -1
REMARK  3 active torsions:
REMARK  status: ('A' for Active; 'I' for Inactive)
REMARK    1  A    between atoms: C3'_2  and  C2'_3 
REMARK    2  A    between atoms: C2'_3  and  C1'_4 
REMARK    3  A    between atoms: C1'_4  and  C1_5 
ROOT
ATOM      1  C1  N4B d   1       0.022  -1.362  -0.083  0.00  0.00    -0.075 A 
ATOM      2  C2  N4B d   1      -0.280  -2.623   0.477  0.00  0.00     0.002 A 
ATOM      3  C3  N4B d   1      -0.284  -3.743  -0.317  0.00  0.00     0.002 A 
ATOM      4  C4  N4B d   1      -0.010  -3.625  -1.671  0.00  0.00    -0.004 A 
ATOM      5  C5  N4B d   1       0.305  -2.408  -2.200  0.00  0.00     0.002 A 
ATOM      6  C6  N4B d   1       0.317  -1.274  -1.413  0.00  0.00     0.002 A 
ENDROOT
BRANCH   1   7
ATOM      7  C1' N4B d   1      -0.045  -0.096   0.727  0.00  0.00     0.057 C 
BRANCH   7   8
ATOM      8  C2' N4B d   1       0.061   1.104  -0.209  0.00  0.00     0.009 C 
BRANCH   8   9
ATOM      9  C3' N4B d   1       0.158   2.413   0.555  0.00  0.00     0.004 C 
ATOM     10  C4' N4B d   1       1.539   2.998   0.533  0.00  0.00     0.003 C 
ENDBRANCH   8   9
ENDBRANCH   7   8
ENDBRANCH   1   7
TORSDOF 3
ENDMDL
