MODEL 1
REMARK minimizedAffinity -0.944218338
REMARK minimizedRMSD -1
REMARK  3 active torsions:
REMARK  status: ('A' for Active; 'I' for Inactive)
REMARK    1  A    between atoms: C3'_2  and  C2'_3 
REMARK    2  A    between atoms: C2'_3  and  C1'_4 
REMARK    3  A    between atoms: C1'_4  and  C1_5 
ROOT
ATOM      1  C1  N4B d   1      -0.590   0.039   0.261  0.00  0.00    -0.075 A 
ATOM      2  C2  N4B d   1      -1.163  -0.805   1.237  0.00  0.00     0.002 A 
ATOM      3  C3  N4B d   1      -1.065  -2.169   1.108  0.00  0.00     0.002 A 
ATOM      4  C4  N4B d   1      -0.418  -2.709   0.006  0.00  0.00    -0.004 A 
ATOM      5  C5  N4B d   1       0.154  -1.886  -0.919  0.00  0.00     0.002 A 
ATOM      6  C6  N4B d   1       0.066  -0.514  -0.801  0.00  0.00     0.002 A 
ENDROOT
BRANCH   1   7
ATOM      7  C1' N4B d   1      -0.746   1.534   0.314  0.00  0.00     0.057 C 
BRANCH   7   8
ATOM      8  C2' N4B d   1       0.582   2.190  -0.053  0.00  0.00     0.009 C 
BRANCH   8   9
ATOM      9  C3' N4B d   1       0.938   3.322   0.895  0.00  0.00     0.004 C 
ATOM     10  C4' N4B d   1       2.398   3.661   0.872  0.00  0.00     0.003 C 
ENDBRANCH   8   9
ENDBRANCH   7   8
ENDBRANCH   1   7
TORSDOF 3
ENDMDL
