MODEL 1
REMARK minimizedAffinity -5.56171417
REMARK minimizedRMSD -1
REMARK  3 active torsions:
REMARK  status: ('A' for Active; 'I' for Inactive)
REMARK    1  A    between atoms: C3'_2  and  C2'_3 
REMARK    2  A    between atoms: C2'_3  and  C1'_4 
REMARK    3  A    between atoms: C1'_4  and  C1_5 
ROOT
ATOM      1  C1  N4B d   1       0.171   0.444  -0.178  0.00  0.00    -0.075 A 
ATOM      2  C2  N4B d   1      -0.611   0.208   0.975  0.00  0.00     0.002 A 
ATOM      3  C3  N4B d   1      -0.782  -1.074   1.437  0.00  0.00     0.002 A 
ATOM      4  C4  N4B d   1      -0.201  -2.132   0.755  0.00  0.00    -0.004 A 
ATOM      5  C5  N4B d   1       0.574  -1.893  -0.342  0.00  0.00     0.002 A 
ATOM      6  C6  N4B d   1       0.758  -0.610  -0.816  0.00  0.00     0.002 A 
ENDROOT
BRANCH   1   7
ATOM      7  C1' N4B d   1       0.316   1.819  -0.770  0.00  0.00     0.057 C 
BRANCH   7   8
ATOM      8  C2' N4B d   1       0.277   2.854   0.350  0.00  0.00     0.009 C 
BRANCH   8   9
ATOM      9  C3' N4B d   1       1.596   2.931   1.099  0.00  0.00     0.004 C 
ATOM     10  C4' N4B d   1       2.785   2.877   0.188  0.00  0.00     0.003 C 
ENDBRANCH   8   9
ENDBRANCH   7   8
ENDBRANCH   1   7
TORSDOF 3
ENDMDL
