MODEL 1
REMARK minimizedAffinity -3.82536125
REMARK minimizedRMSD -1
REMARK  3 active torsions:
REMARK  status: ('A' for Active; 'I' for Inactive)
REMARK    1  A    between atoms: C3'_2  and  C2'_3 
REMARK    2  A    between atoms: C2'_3  and  C1'_4 
REMARK    3  A    between atoms: C1'_4  and  C1_5 
ROOT
ATOM      1  C1  N4B d   1      -0.022   0.013   0.252  0.00  0.00    -0.075 A 
ATOM      2  C2  N4B d   1       0.920  -0.523  -0.654  0.00  0.00     0.002 A 
ATOM      3  C3  N4B d   1       1.156  -1.875  -0.679  0.00  0.00     0.002 A 
ATOM      4  C4  N4B d   1       0.480  -2.706   0.201  0.00  0.00    -0.004 A 
ATOM      5  C5  N4B d   1      -0.446  -2.184   1.056  0.00  0.00     0.002 A 
ATOM      6  C6  N4B d   1      -0.697  -0.827   1.090  0.00  0.00     0.002 A 
ENDROOT
BRANCH   1   7
ATOM      7  C1' N4B d   1      -0.251   1.494   0.376  0.00  0.00     0.057 C 
BRANCH   7   8
ATOM      8  C2' N4B d   1       1.057   2.229   0.098  0.00  0.00     0.009 C 
BRANCH   8   9
ATOM      9  C3' N4B d   1       1.082   3.607   0.736  0.00  0.00     0.004 C 
ATOM     10  C4' N4B d   1       2.191   3.765   1.734  0.00  0.00     0.003 C 
ENDBRANCH   8   9
ENDBRANCH   7   8
ENDBRANCH   1   7
TORSDOF 3
ENDMDL
