MODEL 1
REMARK minimizedAffinity -6.20870686
REMARK minimizedRMSD -1
REMARK  3 active torsions:
REMARK  status: ('A' for Active; 'I' for Inactive)
REMARK    1  A    between atoms: C3'_2  and  C2'_3 
REMARK    2  A    between atoms: C2'_3  and  C1'_4 
REMARK    3  A    between atoms: C1'_4  and  C1_5 
ROOT
ATOM      1  C1  N4B d   1      -0.411  -1.021   0.203  0.00  0.00    -0.075 A 
ATOM      2  C2  N4B d   1       0.085  -1.436  -1.052  0.00  0.00     0.002 A 
ATOM      3  C3  N4B d   1       0.553  -2.717  -1.216  0.00  0.00     0.002 A 
ATOM      4  C4  N4B d   1       0.553  -3.590  -0.139  0.00  0.00    -0.004 A 
ATOM      5  C5  N4B d   1       0.049  -3.189   1.064  0.00  0.00     0.002 A 
ATOM      6  C6  N4B d   1      -0.429  -1.906   1.242  0.00  0.00     0.002 A 
ENDROOT
BRANCH   1   7
ATOM      7  C1' N4B d   1      -0.854   0.395   0.453  0.00  0.00     0.057 C 
BRANCH   7   8
ATOM      8  C2' N4B d   1       0.036   1.346  -0.341  0.00  0.00     0.009 C 
BRANCH   8   9
ATOM      9  C3' N4B d   1       1.301   1.707   0.419  0.00  0.00     0.004 C 
ATOM     10  C4' N4B d   1       1.564   3.183   0.441  0.00  0.00     0.003 C 
ENDBRANCH   8   9
ENDBRANCH   7   8
ENDBRANCH   1   7
TORSDOF 3
ENDMDL
