MODEL 1
REMARK minimizedAffinity -3.43176484
REMARK minimizedRMSD -1
REMARK  3 active torsions:
REMARK  status: ('A' for Active; 'I' for Inactive)
REMARK    1  A    between atoms: C3'_2  and  C2'_3 
REMARK    2  A    between atoms: C2'_3  and  C1'_4 
REMARK    3  A    between atoms: C1'_4  and  C1_5 
ROOT
ATOM      1  C1  N4B d   1      -0.473   0.784  -0.158  0.00  0.00    -0.075 A 
ATOM      2  C2  N4B d   1      -0.209   0.975  -1.532  0.00  0.00     0.002 A 
ATOM      3  C3  N4B d   1       0.209  -0.082  -2.303  0.00  0.00     0.002 A 
ATOM      4  C4  N4B d   1       0.385  -1.329  -1.721  0.00  0.00    -0.004 A 
ATOM      5  C5  N4B d   1       0.103  -1.510  -0.399  0.00  0.00     0.002 A 
ATOM      6  C6  N4B d   1      -0.321  -0.457   0.388  0.00  0.00     0.002 A 
ENDROOT
BRANCH   1   7
ATOM      7  C1' N4B d   1      -0.849   1.928   0.744  0.00  0.00     0.057 C 
BRANCH   7   8
ATOM      8  C2' N4B d   1      -0.053   3.166   0.341  0.00  0.00     0.009 C 
BRANCH   8   9
ATOM      9  C3' N4B d   1       1.011   3.517   1.367  0.00  0.00     0.004 C 
ATOM     10  C4' N4B d   1       2.362   3.732   0.753  0.00  0.00     0.003 C 
ENDBRANCH   8   9
ENDBRANCH   7   8
ENDBRANCH   1   7
TORSDOF 3
ENDMDL
