MODEL 1
REMARK minimizedAffinity -3.48298526
REMARK minimizedRMSD -1
REMARK  3 active torsions:
REMARK  status: ('A' for Active; 'I' for Inactive)
REMARK    1  A    between atoms: C3'_2  and  C2'_3 
REMARK    2  A    between atoms: C2'_3  and  C1'_4 
REMARK    3  A    between atoms: C1'_4  and  C1_5 
ROOT
ATOM      1  C1  N4B d   1       0.185  -1.248  -0.166  0.00  0.00    -0.075 A 
ATOM      2  C2  N4B d   1      -0.209  -0.186   0.677  0.00  0.00     0.002 A 
ATOM      3  C3  N4B d   1      -0.349   1.080   0.165  0.00  0.00     0.002 A 
ATOM      4  C4  N4B d   1      -0.085   1.312  -1.176  0.00  0.00    -0.004 A 
ATOM      5  C5  N4B d   1       0.271   0.275  -1.989  0.00  0.00     0.002 A 
ATOM      6  C6  N4B d   1       0.412  -1.004  -1.490  0.00  0.00     0.002 A 
ENDROOT
BRANCH   1   7
ATOM      7  C1' N4B d   1       0.435  -2.633   0.365  0.00  0.00     0.057 C 
BRANCH   7   8
ATOM      8  C2' N4B d   1      -0.793  -3.500   0.104  0.00  0.00     0.009 C 
BRANCH   8   9
ATOM      9  C3' N4B d   1      -2.065  -2.854   0.628  0.00  0.00     0.004 C 
ATOM     10  C4' N4B d   1      -3.279  -3.235  -0.166  0.00  0.00     0.003 C 
ENDBRANCH   8   9
ENDBRANCH   7   8
ENDBRANCH   1   7
TORSDOF 3
ENDMDL
