MODEL 1
REMARK minimizedAffinity -4.80408859
REMARK minimizedRMSD -1
REMARK  3 active torsions:
REMARK  status: ('A' for Active; 'I' for Inactive)
REMARK    1  A    between atoms: C3'_2  and  C2'_3 
REMARK    2  A    between atoms: C2'_3  and  C1'_4 
REMARK    3  A    between atoms: C1'_4  and  C1_5 
ROOT
ATOM      1  C1  N4B d   1      -0.158   0.293  -0.594  0.00  0.00    -0.075 A 
ATOM      2  C2  N4B d   1       0.514  -0.551  -1.504  0.00  0.00     0.002 A 
ATOM      3  C3  N4B d   1       0.585  -1.902  -1.265  0.00  0.00     0.002 A 
ATOM      4  C4  N4B d   1       0.011  -2.425  -0.116  0.00  0.00    -0.004 A 
ATOM      5  C5  N4B d   1      -0.659  -1.606   0.746  0.00  0.00     0.002 A 
ATOM      6  C6  N4B d   1      -0.741  -0.248   0.515  0.00  0.00     0.002 A 
ENDROOT
BRANCH   1   7
ATOM      7  C1' N4B d   1      -0.187   1.787  -0.769  0.00  0.00     0.057 C 
BRANCH   7   8
ATOM      8  C2' N4B d   1       0.874   2.418   0.127  0.00  0.00     0.009 C 
BRANCH   8   9
ATOM      9  C3' N4B d   1       0.267   3.370   1.143  0.00  0.00     0.004 C 
ATOM     10  C4' N4B d   1       1.132   3.555   2.354  0.00  0.00     0.003 C 
ENDBRANCH   8   9
ENDBRANCH   7   8
ENDBRANCH   1   7
TORSDOF 3
ENDMDL
