MODEL 1
REMARK minimizedAffinity -0.0158150792
REMARK minimizedRMSD -1
REMARK  0 active torsions:
REMARK  status: ('A' for Active; 'I' for Inactive)
ROOT
ATOM      1  C   UNL d   1      -0.539   0.059  -0.855  0.00  0.00     0.078 C 
ATOM      2  C1  UNL d   1      -1.709   0.362   0.032  0.00  0.00    -0.077 A 
ATOM      3  C2  UNL d   1      -2.998  -0.070  -0.303  0.00  0.00    -0.001 A 
ATOM      4  C3  UNL d   1      -4.080   0.227   0.528  0.00  0.00     0.003 A 
ATOM      5  C4  UNL d   1      -3.884   0.958   1.698  0.00  0.00    -0.005 A 
ATOM      6  C5  UNL d   1      -2.605   1.394   2.038  0.00  0.00     0.003 A 
ATOM      7  C6  UNL d   1      -1.522   1.098   1.209  0.00  0.00    -0.001 A 
ENDROOT
TORSDOF 0
ENDMDL
