MODEL 1
REMARK minimizedAffinity -1.7125535
REMARK minimizedRMSD -1
REMARK  0 active torsions:
REMARK  status: ('A' for Active; 'I' for Inactive)
ROOT
ATOM      1  C   UNL d   1       0.790   1.549   0.360  0.00  0.00     0.078 C 
ATOM      2  C1  UNL d   1       1.223   0.146   0.058  0.00  0.00    -0.077 A 
ATOM      3  C2  UNL d   1       0.447  -0.689  -0.755  0.00  0.00    -0.001 A 
ATOM      4  C3  UNL d   1       0.858  -1.997  -1.020  0.00  0.00     0.003 A 
ATOM      5  C4  UNL d   1       2.044  -2.482  -0.473  0.00  0.00    -0.005 A 
ATOM      6  C5  UNL d   1       2.821  -1.659   0.340  0.00  0.00     0.003 A 
ATOM      7  C6  UNL d   1       2.412  -0.351   0.605  0.00  0.00    -0.001 A 
ENDROOT
TORSDOF 0
ENDMDL
