MODEL 1
REMARK minimizedAffinity 0.827080786
REMARK minimizedRMSD -1
REMARK  0 active torsions:
REMARK  status: ('A' for Active; 'I' for Inactive)
ROOT
ATOM      1  C   UNL d   1       1.502   2.136   0.730  0.00  0.00     0.078 C 
ATOM      2  C1  UNL d   1       1.790   0.677   0.544  0.00  0.00    -0.077 A 
ATOM      3  C2  UNL d   1       1.163  -0.059  -0.470  0.00  0.00    -0.001 A 
ATOM      4  C3  UNL d   1       1.433  -1.419  -0.625  0.00  0.00     0.003 A 
ATOM      5  C4  UNL d   1       2.330  -2.057   0.230  0.00  0.00    -0.005 A 
ATOM      6  C5  UNL d   1       2.957  -1.334   1.243  0.00  0.00     0.003 A 
ATOM      7  C6  UNL d   1       2.688   0.027   1.400  0.00  0.00    -0.001 A 
ENDROOT
TORSDOF 0
ENDMDL
