MODEL 1
REMARK minimizedAffinity -1.96936452
REMARK minimizedRMSD -1
REMARK  0 active torsions:
REMARK  status: ('A' for Active; 'I' for Inactive)
ROOT
ATOM      1  C   UNL d   1      -1.533  -3.744  -1.464  0.00  0.00     0.078 C 
ATOM      2  C1  UNL d   1      -0.359  -3.053  -0.839  0.00  0.00    -0.077 A 
ATOM      3  C2  UNL d   1       0.016  -1.764  -1.238  0.00  0.00    -0.001 A 
ATOM      4  C3  UNL d   1       1.117  -1.136  -0.655  0.00  0.00     0.003 A 
ATOM      5  C4  UNL d   1       1.853  -1.789   0.332  0.00  0.00    -0.005 A 
ATOM      6  C5  UNL d   1       1.489  -3.072   0.735  0.00  0.00     0.003 A 
ATOM      7  C6  UNL d   1       0.388  -3.702   0.152  0.00  0.00    -0.001 A 
ENDROOT
TORSDOF 0
ENDMDL
