MODEL 1
REMARK minimizedAffinity -3.22089028
REMARK minimizedRMSD -1
REMARK  0 active torsions:
REMARK  status: ('A' for Active; 'I' for Inactive)
ROOT
ATOM      1  N1  IND d   1       0.300   1.758  -1.214  0.00  0.00    -0.196 N 
ATOM      2  C2  IND d   1       1.195   0.879  -1.758  0.00  0.00     0.054 A 
ATOM      3  C3  IND d   1       1.313  -0.217  -0.975  0.00  0.00    -0.031 A 
ATOM      4  C4  IND d   1       0.058  -0.824   1.189  0.00  0.00     0.051 A 
ATOM      5  C5  IND d   1      -0.832  -0.320   2.095  0.00  0.00    -0.031 A 
ATOM      6  C6  IND d   1      -1.404   0.927   1.940  0.00  0.00     0.015 A 
ATOM      7  C7  IND d   1      -1.114   1.714   0.862  0.00  0.00    -0.016 A 
ATOM      8  C8  IND d   1      -0.205   1.208  -0.056  0.00  0.00    -0.047 A 
ATOM      9  C9  IND d   1       0.410  -0.038   0.118  0.00  0.00    -0.096 A 
ATOM     10  HN1 IND d   1       0.089   2.525  -1.541  0.00  0.00     0.298 HD
ENDROOT
TORSDOF 0
ENDMDL
