MODEL 1
REMARK minimizedAffinity -1.38760507
REMARK minimizedRMSD -1
REMARK  0 active torsions:
REMARK  status: ('A' for Active; 'I' for Inactive)
ROOT
ATOM      1  N1  IND d   1      -1.208   1.937   0.796  0.00  0.00    -0.196 N 
ATOM      2  C2  IND d   1      -1.559   1.110   1.826  0.00  0.00     0.054 A 
ATOM      3  C3  IND d   1      -0.888  -0.060   1.740  0.00  0.00    -0.031 A 
ATOM      4  C4  IND d   1       0.910  -0.794   0.050  0.00  0.00     0.051 A 
ATOM      5  C5  IND d   1       1.539  -0.393  -1.095  0.00  0.00    -0.031 A 
ATOM      6  C6  IND d   1       1.282   0.830  -1.679  0.00  0.00     0.015 A 
ATOM      7  C7  IND d   1       0.389   1.708  -1.130  0.00  0.00    -0.016 A 
ATOM      8  C8  IND d   1      -0.257   1.301   0.029  0.00  0.00    -0.047 A 
ATOM      9  C9  IND d   1      -0.031   0.043   0.602  0.00  0.00    -0.096 A 
ATOM     10  HN1 IND d   1      -1.528   2.722   0.651  0.00  0.00     0.298 HD
ENDROOT
TORSDOF 0
ENDMDL
