MODEL 1
REMARK minimizedAffinity -1.73646748
REMARK minimizedRMSD -1
REMARK  0 active torsions:
REMARK  status: ('A' for Active; 'I' for Inactive)
ROOT
ATOM      1  N1  IND d   1       0.779  -0.689   0.955  0.00  0.00    -0.196 N 
ATOM      2  C2  IND d   1       1.035  -1.175  -0.296  0.00  0.00     0.054 A 
ATOM      3  C3  IND d   1       0.207  -0.606  -1.201  0.00  0.00    -0.031 A 
ATOM      4  C4  IND d   1      -1.575   1.221  -0.865  0.00  0.00     0.051 A 
ATOM      5  C5  IND d   1      -2.197   1.953   0.108  0.00  0.00    -0.031 A 
ATOM      6  C6  IND d   1      -1.850   1.841   1.439  0.00  0.00     0.015 A 
ATOM      7  C7  IND d   1      -0.856   0.998   1.847  0.00  0.00    -0.016 A 
ATOM      8  C8  IND d   1      -0.227   0.248   0.864  0.00  0.00    -0.047 A 
ATOM      9  C9  IND d   1      -0.603   0.326  -0.483  0.00  0.00    -0.096 A 
ATOM     10  HN1 IND d   1       1.178  -0.928   1.678  0.00  0.00     0.298 HD
ENDROOT
TORSDOF 0
ENDMDL
