MODEL 1
REMARK minimizedAffinity -2.97560573
REMARK minimizedRMSD -1
REMARK  0 active torsions:
REMARK  status: ('A' for Active; 'I' for Inactive)
ROOT
ATOM      1  N1  IND d   1       1.191  -0.290   1.057  0.00  0.00    -0.196 N 
ATOM      2  C2  IND d   1       1.480  -0.517  -0.260  0.00  0.00     0.054 A 
ATOM      3  C3  IND d   1       0.644   0.189  -1.054  0.00  0.00    -0.031 A 
ATOM      4  C4  IND d   1      -1.206   1.858  -0.406  0.00  0.00     0.051 A 
ATOM      5  C5  IND d   1      -1.865   2.369   0.677  0.00  0.00    -0.031 A 
ATOM      6  C6  IND d   1      -1.531   2.014   1.968  0.00  0.00     0.015 A 
ATOM      7  C7  IND d   1      -0.513   1.140   2.225  0.00  0.00    -0.016 A 
ATOM      8  C8  IND d   1       0.154   0.614   1.128  0.00  0.00    -0.047 A 
ATOM      9  C9  IND d   1      -0.208   0.938  -0.186  0.00  0.00    -0.096 A 
ATOM     10  HN1 IND d   1       1.590  -0.651   1.727  0.00  0.00     0.298 HD
ENDROOT
TORSDOF 0
ENDMDL
