MODEL 1
REMARK minimizedAffinity 1.08007741
REMARK minimizedRMSD -1
REMARK  0 active torsions:
REMARK  status: ('A' for Active; 'I' for Inactive)
ROOT
ATOM      1  N1  IND d   1       1.531  -0.757  -0.509  0.00  0.00    -0.196 N 
ATOM      2  C2  IND d   1       0.931  -1.530   0.446  0.00  0.00     0.054 A 
ATOM      3  C3  IND d   1      -0.206  -0.942   0.881  0.00  0.00    -0.031 A 
ATOM      4  C4  IND d   1      -1.324   1.239   0.093  0.00  0.00     0.051 A 
ATOM      5  C5  IND d   1      -1.132   2.311  -0.733  0.00  0.00    -0.031 A 
ATOM      6  C6  IND d   1      -0.021   2.416  -1.545  0.00  0.00     0.015 A 
ATOM      7  C7  IND d   1       0.938   1.443  -1.569  0.00  0.00    -0.016 A 
ATOM      8  C8  IND d   1       0.749   0.356  -0.727  0.00  0.00    -0.047 A 
ATOM      9  C9  IND d   1      -0.355   0.265   0.131  0.00  0.00    -0.096 A 
ATOM     10  HN1 IND d   1       2.272  -0.936  -0.906  0.00  0.00     0.298 HD
ENDROOT
TORSDOF 0
ENDMDL
