MODEL 1
REMARK minimizedAffinity -4.09044313
REMARK minimizedRMSD -1
REMARK  0 active torsions:
REMARK  status: ('A' for Active; 'I' for Inactive)
ROOT
ATOM      1  N1  IND d   1      -0.097  -0.462  -1.276  0.00  0.00    -0.196 N 
ATOM      2  C2  IND d   1       1.177  -0.856  -0.975  0.00  0.00     0.054 A 
ATOM      3  C3  IND d   1       1.493  -0.499   0.290  0.00  0.00    -0.031 A 
ATOM      4  C4  IND d   1       0.038   0.647   2.078  0.00  0.00     0.051 A 
ATOM      5  C5  IND d   1      -1.184   1.230   2.261  0.00  0.00    -0.031 A 
ATOM      6  C6  IND d   1      -2.127   1.278   1.254  0.00  0.00     0.015 A 
ATOM      7  C7  IND d   1      -1.885   0.731   0.025  0.00  0.00    -0.016 A 
ATOM      8  C8  IND d   1      -0.642   0.145  -0.166  0.00  0.00    -0.047 A 
ATOM      9  C9  IND d   1       0.334   0.131   0.839  0.00  0.00    -0.096 A 
ATOM     10  HN1 IND d   1      -0.491  -0.574  -2.032  0.00  0.00     0.298 HD
ENDROOT
TORSDOF 0
ENDMDL
