MODEL 1
REMARK minimizedAffinity -3.23463678
REMARK minimizedRMSD -1
REMARK  0 active torsions:
REMARK  status: ('A' for Active; 'I' for Inactive)
ROOT
ATOM      1  N1  IND d   1       0.692  -0.554   1.220  0.00  0.00    -0.196 N 
ATOM      2  C2  IND d   1       1.149  -0.998   0.011  0.00  0.00     0.054 A 
ATOM      3  C3  IND d   1       0.565  -0.308  -0.995  0.00  0.00    -0.031 A 
ATOM      4  C4  IND d   1      -1.090   1.661  -0.882  0.00  0.00     0.051 A 
ATOM      5  C5  IND d   1      -1.827   2.399   0.001  0.00  0.00    -0.031 A 
ATOM      6  C6  IND d   1      -1.760   2.187   1.363  0.00  0.00     0.015 A 
ATOM      7  C7  IND d   1      -0.939   1.234   1.896  0.00  0.00    -0.016 A 
ATOM      8  C8  IND d   1      -0.194   0.478   1.002  0.00  0.00    -0.047 A 
ATOM      9  C9  IND d   1      -0.290   0.659  -0.384  0.00  0.00    -0.096 A 
ATOM     10  HN1 IND d   1       0.921  -0.866   1.988  0.00  0.00     0.298 HD
ENDROOT
TORSDOF 0
ENDMDL
