MODEL 1
REMARK minimizedAffinity -3.10191345
REMARK minimizedRMSD -1
REMARK  0 active torsions:
REMARK  status: ('A' for Active; 'I' for Inactive)
ROOT
ATOM      1  N1  IND d   1       2.048  -1.030  -1.966  0.00  0.00    -0.196 N 
ATOM      2  C2  IND d   1       1.793  -2.320  -1.594  0.00  0.00     0.054 A 
ATOM      3  C3  IND d   1       0.878  -2.351  -0.599  0.00  0.00    -0.031 A 
ATOM      4  C4  IND d   1      -0.410  -0.410   0.498  0.00  0.00     0.051 A 
ATOM      5  C5  IND d   1      -0.491   0.954   0.517  0.00  0.00    -0.031 A 
ATOM      6  C6  IND d   1       0.283   1.742  -0.310  0.00  0.00     0.015 A 
ATOM      7  C7  IND d   1       1.163   1.193  -1.198  0.00  0.00    -0.016 A 
ATOM      8  C8  IND d   1       1.254  -0.192  -1.215  0.00  0.00    -0.047 A 
ATOM      9  C9  IND d   1       0.502  -0.995  -0.348  0.00  0.00    -0.096 A 
ATOM     10  HN1 IND d   1       2.610  -0.783  -2.569  0.00  0.00     0.298 HD
ENDROOT
TORSDOF 0
ENDMDL
