MODEL 1
REMARK minimizedAffinity -0.612787902
REMARK minimizedRMSD -1
REMARK  0 active torsions:
REMARK  status: ('A' for Active; 'I' for Inactive)
ROOT
ATOM      1  N1  IND d   1      -0.875   1.135   1.597  0.00  0.00    -0.196 N 
ATOM      2  C2  IND d   1      -1.511   2.010   0.760  0.00  0.00     0.054 A 
ATOM      3  C3  IND d   1      -1.238   1.710  -0.529  0.00  0.00    -0.031 A 
ATOM      4  C4  IND d   1       0.144  -0.234  -1.499  0.00  0.00     0.051 A 
ATOM      5  C5  IND d   1       0.949  -1.273  -1.128  0.00  0.00    -0.031 A 
ATOM      6  C6  IND d   1       1.190  -1.571   0.198  0.00  0.00     0.015 A 
ATOM      7  C7  IND d   1       0.623  -0.844   1.206  0.00  0.00    -0.016 A 
ATOM      8  C8  IND d   1      -0.189   0.217   0.832  0.00  0.00    -0.047 A 
ATOM      9  C9  IND d   1      -0.404   0.550  -0.511  0.00  0.00    -0.096 A 
ATOM     10  HN1 IND d   1      -0.899   1.156   2.456  0.00  0.00     0.298 HD
ENDROOT
TORSDOF 0
ENDMDL
