MODEL 1
REMARK minimizedAffinity -3.72113466
REMARK minimizedRMSD -1
REMARK  0 active torsions:
REMARK  status: ('A' for Active; 'I' for Inactive)
ROOT
ATOM      1  N1  IND d   1      -1.177   0.562   2.347  0.00  0.00    -0.196 N 
ATOM      2  C2  IND d   1      -2.176   1.438   2.028  0.00  0.00     0.054 A 
ATOM      3  C3  IND d   1      -2.200   1.658   0.694  0.00  0.00    -0.031 A 
ATOM      4  C4  IND d   1      -0.758   0.608  -1.163  0.00  0.00     0.051 A 
ATOM      5  C5  IND d   1       0.312  -0.220  -1.358  0.00  0.00    -0.031 A 
ATOM      6  C6  IND d   1       0.951  -0.845  -0.307  0.00  0.00     0.015 A 
ATOM      7  C7  IND d   1       0.535  -0.673   0.983  0.00  0.00    -0.016 A 
ATOM      8  C8  IND d   1      -0.546   0.173   1.186  0.00  0.00    -0.047 A 
ATOM      9  C9  IND d   1      -1.172   0.843   0.127  0.00  0.00    -0.096 A 
ATOM     10  HN1 IND d   1      -0.976   0.297   3.141  0.00  0.00     0.298 HD
ENDROOT
TORSDOF 0
ENDMDL
