MODEL 1
REMARK minimizedAffinity -3.81404138
REMARK minimizedRMSD -1
REMARK  0 active torsions:
REMARK  status: ('A' for Active; 'I' for Inactive)
ROOT
ATOM      1  N1  IND d   1      -2.180   0.636   0.697  0.00  0.00    -0.196 N 
ATOM      2  C2  IND d   1      -2.386   1.988   0.698  0.00  0.00     0.054 A 
ATOM      3  C3  IND d   1      -1.323   2.626   0.159  0.00  0.00    -0.031 A 
ATOM      4  C4  IND d   1       0.818   1.645  -0.882  0.00  0.00     0.051 A 
ATOM      5  C5  IND d   1       1.475   0.464  -1.080  0.00  0.00    -0.031 A 
ATOM      6  C6  IND d   1       0.936  -0.745  -0.691  0.00  0.00     0.015 A 
ATOM      7  C7  IND d   1      -0.292  -0.819  -0.096  0.00  0.00    -0.016 A 
ATOM      8  C8  IND d   1      -0.959   0.379   0.113  0.00  0.00    -0.047 A 
ATOM      9  C9  IND d   1      -0.398   1.613  -0.241  0.00  0.00    -0.096 A 
ATOM     10  HN1 IND d   1      -2.722   0.046   1.009  0.00  0.00     0.298 HD
ENDROOT
TORSDOF 0
ENDMDL
