MODEL 1
REMARK minimizedAffinity -1.14157057
REMARK minimizedRMSD -1
REMARK  0 active torsions:
REMARK  status: ('A' for Active; 'I' for Inactive)
ROOT
ATOM      1  N1  IND d   1       0.609  -0.174  -1.289  0.00  0.00    -0.196 N 
ATOM      2  C2  IND d   1       1.378  -1.160  -0.737  0.00  0.00     0.054 A 
ATOM      3  C3  IND d   1       1.141  -1.253   0.591  0.00  0.00    -0.031 A 
ATOM      4  C4  IND d   1      -0.540   0.043   2.047  0.00  0.00     0.051 A 
ATOM      5  C5  IND d   1      -1.440   1.070   1.998  0.00  0.00    -0.031 A 
ATOM      6  C6  IND d   1      -1.710   1.748   0.827  0.00  0.00     0.015 A 
ATOM      7  C7  IND d   1      -1.096   1.413  -0.347  0.00  0.00    -0.016 A 
ATOM      8  C8  IND d   1      -0.177   0.375  -0.300  0.00  0.00    -0.047 A 
ATOM      9  C9  IND d   1       0.133  -0.288   0.895  0.00  0.00    -0.096 A 
ATOM     10  HN1 IND d   1       0.614   0.063  -2.115  0.00  0.00     0.298 HD
ENDROOT
TORSDOF 0
ENDMDL
