MODEL 1
REMARK minimizedAffinity -0.937242746
REMARK minimizedRMSD -1
REMARK  0 active torsions:
REMARK  status: ('A' for Active; 'I' for Inactive)
ROOT
ATOM      1  N1  IND d   1       0.558   1.750  -0.880  0.00  0.00    -0.196 N 
ATOM      2  C2  IND d   1       1.292   0.669  -1.282  0.00  0.00     0.054 A 
ATOM      3  C3  IND d   1       1.174  -0.338  -0.388  0.00  0.00    -0.031 A 
ATOM      4  C4  IND d   1      -0.252  -0.468   1.751  0.00  0.00     0.051 A 
ATOM      5  C5  IND d   1      -1.065   0.284   2.551  0.00  0.00    -0.031 A 
ATOM      6  C6  IND d   1      -1.387   1.590   2.241  0.00  0.00     0.015 A 
ATOM      7  C7  IND d   1      -0.915   2.190   1.108  0.00  0.00    -0.016 A 
ATOM      8  C8  IND d   1      -0.084   1.431   0.297  0.00  0.00    -0.047 A 
ATOM      9  C9  IND d   1       0.281   0.120   0.628  0.00  0.00    -0.096 A 
ATOM     10  HN1 IND d   1       0.506   2.503  -1.292  0.00  0.00     0.298 HD
ENDROOT
TORSDOF 0
ENDMDL
