MODEL 1
REMARK minimizedAffinity -3.49353075
REMARK minimizedRMSD -1
REMARK  0 active torsions:
REMARK  status: ('A' for Active; 'I' for Inactive)
ROOT
ATOM      1  N1  IND d   1      -0.278   3.141  -0.976  0.00  0.00    -0.196 N 
ATOM      2  C2  IND d   1       0.429   2.640  -2.034  0.00  0.00     0.054 A 
ATOM      3  C3  IND d   1       0.766   1.350  -1.806  0.00  0.00    -0.031 A 
ATOM      4  C4  IND d   1       0.175  -0.167   0.189  0.00  0.00     0.051 A 
ATOM      5  C5  IND d   1      -0.423  -0.146   1.417  0.00  0.00    -0.031 A 
ATOM      6  C6  IND d   1      -1.018   0.993   1.920  0.00  0.00     0.015 A 
ATOM      7  C7  IND d   1      -1.047   2.156   1.204  0.00  0.00    -0.016 A 
ATOM      8  C8  IND d   1      -0.434   2.142  -0.041  0.00  0.00    -0.047 A 
ATOM      9  C9  IND d   1       0.208   1.000  -0.538  0.00  0.00    -0.096 A 
ATOM     10  HN1 IND d   1      -0.575   3.945  -0.907  0.00  0.00     0.298 HD
ENDROOT
TORSDOF 0
ENDMDL
