MODEL 1
REMARK minimizedAffinity 9.06912518
REMARK minimizedRMSD -1
REMARK  0 active torsions:
REMARK  status: ('A' for Active; 'I' for Inactive)
ROOT
ATOM      1  C1  BNZ d   1       0.063   3.549  -2.479  0.00  0.00     0.000 A 
ATOM      2  C2  BNZ d   1      -0.776   2.500  -2.211  0.00  0.00     0.000 A 
ATOM      3  C3  BNZ d   1      -1.078   2.158  -0.923  0.00  0.00     0.000 A 
ATOM      4  C4  BNZ d   1      -0.511   2.837   0.095  0.00  0.00     0.000 A 
ATOM      5  C5  BNZ d   1       0.344   3.891  -0.159  0.00  0.00     0.000 A 
ATOM      6  C6  BNZ d   1       0.616   4.258  -1.457  0.00  0.00     0.000 A 
ENDROOT
TORSDOF 0
ENDMDL
