MODEL 1
REMARK minimizedAffinity -2.66214538
REMARK minimizedRMSD -1
REMARK  0 active torsions:
REMARK  status: ('A' for Active; 'I' for Inactive)
ROOT
ATOM      1  C1  BNZ d   1       4.313  -2.604  -1.900  0.00  0.00     0.000 A 
ATOM      2  C2  BNZ d   1       3.157  -2.376  -1.202  0.00  0.00     0.000 A 
ATOM      3  C3  BNZ d   1       2.165  -3.316  -1.165  0.00  0.00     0.000 A 
ATOM      4  C4  BNZ d   1       2.313  -4.463  -1.858  0.00  0.00     0.000 A 
ATOM      5  C5  BNZ d   1       3.469  -4.704  -2.574  0.00  0.00     0.000 A 
ATOM      6  C6  BNZ d   1       4.482  -3.772  -2.577  0.00  0.00     0.000 A 
ENDROOT
TORSDOF 0
ENDMDL
