MODEL 1
REMARK minimizedAffinity -0.877064228
REMARK minimizedRMSD -1
REMARK  0 active torsions:
REMARK  status: ('A' for Active; 'I' for Inactive)
ROOT
ATOM      1  C1  BNZ d   1       0.228  -0.284   0.954  0.00  0.00     0.000 A 
ATOM      2  C2  BNZ d   1       0.130  -0.236   2.319  0.00  0.00     0.000 A 
ATOM      3  C3  BNZ d   1       0.263   0.947   2.990  0.00  0.00     0.000 A 
ATOM      4  C4  BNZ d   1       0.533   2.074   2.299  0.00  0.00     0.000 A 
ATOM      5  C5  BNZ d   1       0.644   2.041   0.924  0.00  0.00     0.000 A 
ATOM      6  C6  BNZ d   1       0.471   0.854   0.249  0.00  0.00     0.000 A 
ENDROOT
TORSDOF 0
ENDMDL
