MODEL 1
REMARK minimizedAffinity 0.256517768
REMARK minimizedRMSD -1
REMARK  0 active torsions:
REMARK  status: ('A' for Active; 'I' for Inactive)
ROOT
ATOM      1  C1  BNZ d   1       0.071   3.740  -1.072  0.00  0.00     0.000 A 
ATOM      2  C2  BNZ d   1      -0.836   4.765  -1.113  0.00  0.00     0.000 A 
ATOM      3  C3  BNZ d   1      -1.762   4.920  -0.119  0.00  0.00     0.000 A 
ATOM      4  C4  BNZ d   1      -1.805   4.029   0.892  0.00  0.00     0.000 A 
ATOM      5  C5  BNZ d   1      -0.903   2.985   0.943  0.00  0.00     0.000 A 
ATOM      6  C6  BNZ d   1       0.052   2.854  -0.039  0.00  0.00     0.000 A 
ENDROOT
TORSDOF 0
ENDMDL
