MODEL 1
REMARK minimizedAffinity 10.4059525
REMARK minimizedRMSD -1
REMARK  0 active torsions:
REMARK  status: ('A' for Active; 'I' for Inactive)
ROOT
ATOM      1  C1  BNZ d   1      -3.154   3.552  -3.734  0.00  0.00     0.000 A 
ATOM      2  C2  BNZ d   1      -3.913   2.873  -4.649  0.00  0.00     0.000 A 
ATOM      3  C3  BNZ d   1      -4.640   1.777  -4.278  0.00  0.00     0.000 A 
ATOM      4  C4  BNZ d   1      -4.577   1.338  -3.004  0.00  0.00     0.000 A 
ATOM      5  C5  BNZ d   1      -3.809   2.008  -2.072  0.00  0.00     0.000 A 
ATOM      6  C6  BNZ d   1      -3.109   3.133  -2.440  0.00  0.00     0.000 A 
ENDROOT
TORSDOF 0
ENDMDL
