MODEL 1
REMARK minimizedAffinity 9.72453213
REMARK minimizedRMSD -1
REMARK  0 active torsions:
REMARK  status: ('A' for Active; 'I' for Inactive)
ROOT
ATOM      1  C1  BNZ d   1      -2.403   3.172   2.314  0.00  0.00     0.000 A 
ATOM      2  C2  BNZ d   1      -1.471   2.218   2.004  0.00  0.00     0.000 A 
ATOM      3  C3  BNZ d   1      -0.740   2.301   0.852  0.00  0.00     0.000 A 
ATOM      4  C4  BNZ d   1      -0.969   3.315  -0.007  0.00  0.00     0.000 A 
ATOM      5  C5  BNZ d   1      -1.912   4.280   0.286  0.00  0.00     0.000 A 
ATOM      6  C6  BNZ d   1      -2.619   4.214   1.465  0.00  0.00     0.000 A 
ENDROOT
TORSDOF 0
ENDMDL
