MODEL 1
REMARK minimizedAffinity 21.5138664
REMARK minimizedRMSD -1
REMARK  0 active torsions:
REMARK  status: ('A' for Active; 'I' for Inactive)
ROOT
ATOM      1  C   UNL d   1       0.179  -1.140  -0.352  0.00  0.00     0.077 C 
ATOM      2  C1  UNL d   1       1.330  -0.351  -0.903  0.00  0.00    -0.074 A 
ATOM      3  C2  UNL d   1       1.853  -0.632  -2.169  0.00  0.00    -0.005 A 
ATOM      4  C3  UNL d   1       2.918   0.117  -2.672  0.00  0.00     0.006 A 
ATOM      5  C4  UNL d   1       3.469   1.151  -1.914  0.00  0.00    -0.005 A 
ATOM      6  C5  UNL d   1       2.958   1.447  -0.646  0.00  0.00    -0.074 A 
ATOM      7  C6  UNL d   1       3.532   2.561   0.177  0.00  0.00     0.077 C 
ATOM      8  C7  UNL d   1       1.884   0.695  -0.151  0.00  0.00    -0.001 A 
ENDROOT
TORSDOF 0
ENDMDL
