MODEL 1
REMARK minimizedAffinity 13.2158785
REMARK minimizedRMSD -1
REMARK  0 active torsions:
REMARK  status: ('A' for Active; 'I' for Inactive)
ROOT
ATOM      1  C   UNL d   1       6.000   3.169  -1.284  0.00  0.00     0.077 C 
ATOM      2  C1  UNL d   1       5.301   2.837   0.001  0.00  0.00    -0.074 A 
ATOM      3  C2  UNL d   1       4.067   3.414   0.318  0.00  0.00    -0.005 A 
ATOM      4  C3  UNL d   1       3.424   3.088   1.512  0.00  0.00     0.006 A 
ATOM      5  C4  UNL d   1       4.007   2.184   2.400  0.00  0.00    -0.005 A 
ATOM      6  C5  UNL d   1       5.240   1.595   2.100  0.00  0.00    -0.074 A 
ATOM      7  C6  UNL d   1       5.876   0.614   3.038  0.00  0.00     0.077 C 
ATOM      8  C7  UNL d   1       5.876   1.923   0.895  0.00  0.00    -0.001 A 
ENDROOT
TORSDOF 0
ENDMDL
