MODEL 1
REMARK minimizedAffinity 6.48921347
REMARK minimizedRMSD -1
REMARK  0 active torsions:
REMARK  status: ('A' for Active; 'I' for Inactive)
ROOT
ATOM      1  C   UNL d   1       5.259   4.278  -0.145  0.00  0.00     0.077 C 
ATOM      2  C1  UNL d   1       4.228   3.204   0.035  0.00  0.00    -0.074 A 
ATOM      3  C2  UNL d   1       3.829   2.797   1.312  0.00  0.00    -0.005 A 
ATOM      4  C3  UNL d   1       2.862   1.803   1.464  0.00  0.00     0.006 A 
ATOM      5  C4  UNL d   1       2.285   1.208   0.341  0.00  0.00    -0.005 A 
ATOM      6  C5  UNL d   1       2.670   1.603  -0.944  0.00  0.00    -0.074 A 
ATOM      7  C6  UNL d   1       2.052   0.980  -2.160  0.00  0.00     0.077 C 
ATOM      8  C7  UNL d   1       3.637   2.607  -1.088  0.00  0.00    -0.001 A 
ENDROOT
TORSDOF 0
ENDMDL
