MODEL 1
REMARK minimizedAffinity 12.6332874
REMARK minimizedRMSD -1
REMARK  0 active torsions:
REMARK  status: ('A' for Active; 'I' for Inactive)
ROOT
ATOM      1  C   UNL d   1      -4.763  -2.774   1.377  0.00  0.00     0.077 C 
ATOM      2  C1  UNL d   1      -3.343  -2.753   0.896  0.00  0.00    -0.074 A 
ATOM      3  C2  UNL d   1      -2.849  -1.672   0.159  0.00  0.00    -0.005 A 
ATOM      4  C3  UNL d   1      -1.523  -1.663  -0.274  0.00  0.00     0.006 A 
ATOM      5  C4  UNL d   1      -0.679  -2.733   0.026  0.00  0.00    -0.005 A 
ATOM      6  C5  UNL d   1      -1.155  -3.822   0.763  0.00  0.00    -0.074 A 
ATOM      7  C6  UNL d   1      -0.258  -4.975   1.102  0.00  0.00     0.077 C 
ATOM      8  C7  UNL d   1      -2.486  -3.821   1.200  0.00  0.00    -0.001 A 
ENDROOT
TORSDOF 0
ENDMDL
