MODEL 1
REMARK minimizedAffinity 8.48138618
REMARK minimizedRMSD -1
REMARK  0 active torsions:
REMARK  status: ('A' for Active; 'I' for Inactive)
ROOT
ATOM      1  C   UNL d   1      -5.975   5.960  -1.353  0.00  0.00     0.077 C 
ATOM      2  C1  UNL d   1      -5.434   5.418  -0.063  0.00  0.00    -0.074 A 
ATOM      3  C2  UNL d   1      -4.415   4.459  -0.058  0.00  0.00    -0.005 A 
ATOM      4  C3  UNL d   1      -3.915   3.971   1.149  0.00  0.00     0.006 A 
ATOM      5  C4  UNL d   1      -4.427   4.436   2.361  0.00  0.00    -0.005 A 
ATOM      6  C5  UNL d   1      -5.445   5.395   2.376  0.00  0.00    -0.074 A 
ATOM      7  C6  UNL d   1      -6.000   5.913   3.669  0.00  0.00     0.077 C 
ATOM      8  C7  UNL d   1      -5.937   5.886   1.158  0.00  0.00    -0.001 A 
ENDROOT
TORSDOF 0
ENDMDL
