MODEL 1
REMARK minimizedAffinity 8.39291859
REMARK minimizedRMSD -1
REMARK  0 active torsions:
REMARK  status: ('A' for Active; 'I' for Inactive)
ROOT
ATOM      1  C   UNL d   1      -0.248  -6.000   2.252  0.00  0.00     0.077 C 
ATOM      2  C1  UNL d   1      -0.734  -4.638   1.854  0.00  0.00    -0.074 A 
ATOM      3  C2  UNL d   1      -0.633  -4.197   0.531  0.00  0.00    -0.005 A 
ATOM      4  C3  UNL d   1      -1.098  -2.931   0.174  0.00  0.00     0.006 A 
ATOM      5  C4  UNL d   1      -1.665  -2.094   1.135  0.00  0.00    -0.005 A 
ATOM      6  C5  UNL d   1      -1.775  -2.518   2.463  0.00  0.00    -0.074 A 
ATOM      7  C6  UNL d   1      -2.391  -1.635   3.507  0.00  0.00     0.077 C 
ATOM      8  C7  UNL d   1      -1.312  -3.794   2.813  0.00  0.00    -0.001 A 
ENDROOT
TORSDOF 0
ENDMDL
