MODEL 1
REMARK minimizedAffinity 8.10861492
REMARK minimizedRMSD -1
REMARK  0 active torsions:
REMARK  status: ('A' for Active; 'I' for Inactive)
ROOT
ATOM      1  C   UNL d   1      -5.999   6.000  -5.969  0.00  0.00     0.077 C 
ATOM      2  C1  UNL d   1      -4.920   5.312  -5.187  0.00  0.00    -0.074 A 
ATOM      3  C2  UNL d   1      -4.186   5.999  -4.215  0.00  0.00    -0.005 A 
ATOM      4  C3  UNL d   1      -3.192   5.343  -3.490  0.00  0.00     0.006 A 
ATOM      5  C4  UNL d   1      -2.921   3.995  -3.728  0.00  0.00    -0.005 A 
ATOM      6  C5  UNL d   1      -3.645   3.291  -4.696  0.00  0.00    -0.074 A 
ATOM      7  C6  UNL d   1      -3.374   1.839  -4.958  0.00  0.00     0.077 C 
ATOM      8  C7  UNL d   1      -4.647   3.955  -5.416  0.00  0.00    -0.001 A 
ENDROOT
TORSDOF 0
ENDMDL
