MODEL 1
REMARK minimizedAffinity 6.76983976
REMARK minimizedRMSD -1
REMARK  0 active torsions:
REMARK  status: ('A' for Active; 'I' for Inactive)
ROOT
ATOM      1  C   UNL d   1      -5.823  -2.089   5.996  0.00  0.00     0.077 C 
ATOM      2  C1  UNL d   1      -5.104  -0.773   5.997  0.00  0.00    -0.074 A 
ATOM      3  C2  UNL d   1      -3.707  -0.717   5.978  0.00  0.00    -0.005 A 
ATOM      4  C3  UNL d   1      -3.052   0.514   5.970  0.00  0.00     0.006 A 
ATOM      5  C4  UNL d   1      -3.786   1.700   5.980  0.00  0.00    -0.005 A 
ATOM      6  C5  UNL d   1      -5.184   1.665   5.998  0.00  0.00    -0.074 A 
ATOM      7  C6  UNL d   1      -5.989   2.930   5.999  0.00  0.00     0.077 C 
ATOM      8  C7  UNL d   1      -5.835   0.423   5.999  0.00  0.00    -0.001 A 
ENDROOT
TORSDOF 0
ENDMDL
