MODEL 1
REMARK minimizedAffinity 10.6677732
REMARK minimizedRMSD -1
REMARK  0 active torsions:
REMARK  status: ('A' for Active; 'I' for Inactive)
ROOT
ATOM      1  C   UNL d   1      -0.403  -5.474  -0.992  0.00  0.00     0.077 C 
ATOM      2  C1  UNL d   1      -0.566  -4.025  -1.343  0.00  0.00    -0.074 A 
ATOM      3  C2  UNL d   1      -0.189  -3.544  -2.601  0.00  0.00    -0.005 A 
ATOM      4  C3  UNL d   1      -0.355  -2.195  -2.916  0.00  0.00     0.006 A 
ATOM      5  C4  UNL d   1      -0.899  -1.316  -1.979  0.00  0.00    -0.005 A 
ATOM      6  C5  UNL d   1      -1.282  -1.780  -0.717  0.00  0.00    -0.074 A 
ATOM      7  C6  UNL d   1      -1.878  -0.850   0.299  0.00  0.00     0.077 C 
ATOM      8  C7  UNL d   1      -1.119  -3.138  -0.410  0.00  0.00    -0.001 A 
ENDROOT
TORSDOF 0
ENDMDL
