MODEL 1
REMARK minimizedAffinity 12.2512407
REMARK minimizedRMSD -1
REMARK  0 active torsions:
REMARK  status: ('A' for Active; 'I' for Inactive)
ROOT
ATOM      1  C   UNL d   1      -3.442   1.145  -3.270  0.00  0.00     0.077 C 
ATOM      2  C1  UNL d   1      -2.486   1.947  -4.103  0.00  0.00    -0.074 A 
ATOM      3  C2  UNL d   1      -2.927   2.639  -5.236  0.00  0.00    -0.005 A 
ATOM      4  C3  UNL d   1      -2.028   3.388  -5.995  0.00  0.00     0.006 A 
ATOM      5  C4  UNL d   1      -0.683   3.453  -5.631  0.00  0.00    -0.005 A 
ATOM      6  C5  UNL d   1      -0.224   2.768  -4.501  0.00  0.00    -0.074 A 
ATOM      7  C6  UNL d   1       1.216   2.834  -4.090  0.00  0.00     0.077 C 
ATOM      8  C7  UNL d   1      -1.135   2.023  -3.739  0.00  0.00    -0.001 A 
ENDROOT
TORSDOF 0
ENDMDL
