MODEL 1
REMARK minimizedAffinity 13.1272497
REMARK minimizedRMSD -1
REMARK  0 active torsions:
REMARK  status: ('A' for Active; 'I' for Inactive)
ROOT
ATOM      1  C   UNL d   1       5.094   4.471  -0.041  0.00  0.00     0.077 C 
ATOM      2  C1  UNL d   1       4.164   3.362   0.353  0.00  0.00    -0.074 A 
ATOM      3  C2  UNL d   1       3.283   2.799  -0.575  0.00  0.00    -0.005 A 
ATOM      4  C3  UNL d   1       2.430   1.761  -0.196  0.00  0.00     0.006 A 
ATOM      5  C4  UNL d   1       2.451   1.278   1.112  0.00  0.00    -0.005 A 
ATOM      6  C5  UNL d   1       3.326   1.828   2.054  0.00  0.00    -0.074 A 
ATOM      7  C6  UNL d   1       3.368   1.313   3.462  0.00  0.00     0.077 C 
ATOM      8  C7  UNL d   1       4.184   2.865   1.664  0.00  0.00    -0.001 A 
ENDROOT
TORSDOF 0
ENDMDL
