MODEL 1
REMARK minimizedAffinity 10.1833897
REMARK minimizedRMSD -1
REMARK  0 active torsions:
REMARK  status: ('A' for Active; 'I' for Inactive)
ROOT
ATOM      1  C   UNL d   1      -5.976   5.972   2.995  0.00  0.00     0.077 C 
ATOM      2  C1  UNL d   1      -5.075   5.419   1.932  0.00  0.00    -0.074 A 
ATOM      3  C2  UNL d   1      -4.183   4.379   2.214  0.00  0.00    -0.005 A 
ATOM      4  C3  UNL d   1      -3.358   3.869   1.212  0.00  0.00     0.006 A 
ATOM      5  C4  UNL d   1      -3.416   4.391  -0.080  0.00  0.00    -0.005 A 
ATOM      6  C5  UNL d   1      -4.302   5.430  -0.382  0.00  0.00    -0.074 A 
ATOM      7  C6  UNL d   1      -4.385   5.996  -1.768  0.00  0.00     0.077 C 
ATOM      8  C7  UNL d   1      -5.133   5.933   0.629  0.00  0.00    -0.001 A 
ENDROOT
TORSDOF 0
ENDMDL
