MODEL 1
REMARK minimizedAffinity 17.2402134
REMARK minimizedRMSD -1
REMARK  0 active torsions:
REMARK  status: ('A' for Active; 'I' for Inactive)
ROOT
ATOM      1  C   UNL d   1       4.664   3.379   1.801  0.00  0.00     0.077 C 
ATOM      2  C1  UNL d   1       4.748   3.688   3.266  0.00  0.00    -0.074 A 
ATOM      3  C2  UNL d   1       5.927   3.462   3.982  0.00  0.00    -0.005 A 
ATOM      4  C3  UNL d   1       5.993   3.763   5.342  0.00  0.00     0.006 A 
ATOM      5  C4  UNL d   1       4.882   4.294   5.999  0.00  0.00    -0.005 A 
ATOM      6  C5  UNL d   1       3.694   4.528   5.299  0.00  0.00    -0.074 A 
ATOM      7  C6  UNL d   1       2.494   5.107   5.988  0.00  0.00     0.077 C 
ATOM      8  C7  UNL d   1       3.638   4.229   3.931  0.00  0.00    -0.001 A 
ENDROOT
TORSDOF 0
ENDMDL
