MODEL 1
REMARK minimizedAffinity 3.1242342
REMARK minimizedRMSD -1
REMARK  0 active torsions:
REMARK  status: ('A' for Active; 'I' for Inactive)
ROOT
ATOM      1  C   UNL d   1      -2.081  -2.830   4.213  0.00  0.00     0.077 C 
ATOM      2  C1  UNL d   1      -2.071  -2.542   2.741  0.00  0.00    -0.074 A 
ATOM      3  C2  UNL d   1      -1.128  -3.138   1.898  0.00  0.00    -0.005 A 
ATOM      4  C3  UNL d   1      -1.137  -2.868   0.530  0.00  0.00     0.006 A 
ATOM      5  C4  UNL d   1      -2.088  -2.000  -0.008  0.00  0.00    -0.005 A 
ATOM      6  C5  UNL d   1      -3.039  -1.395   0.819  0.00  0.00    -0.074 A 
ATOM      7  C6  UNL d   1      -4.074  -0.468   0.255  0.00  0.00     0.077 C 
ATOM      8  C7  UNL d   1      -3.028  -1.677   2.192  0.00  0.00    -0.001 A 
ENDROOT
TORSDOF 0
ENDMDL
