MODEL 1
REMARK minimizedAffinity -0.197868109
REMARK minimizedRMSD -1
REMARK  0 active torsions:
REMARK  status: ('A' for Active; 'I' for Inactive)
ROOT
ATOM      1  C   UNL d   1      -5.927  -5.897   5.660  0.00  0.00     0.172 C 
ATOM      2  N   UNL d   1      -5.946  -5.272   4.359  0.00  0.00    -0.070 N 
ATOM      3  C1  UNL d   1      -5.915  -3.924   4.120  0.00  0.00    -0.004 A 
ATOM      4  C2  UNL d   1      -5.946  -3.736   2.755  0.00  0.00    -0.047 A 
ATOM      5  C3  UNL d   1      -5.999  -5.015   2.153  0.00  0.00    -0.047 A 
ATOM      6  C4  UNL d   1      -5.997  -5.948   3.168  0.00  0.00    -0.004 A 
ENDROOT
TORSDOF 0
ENDMDL
