MODEL 1
REMARK minimizedAffinity 0.38862294
REMARK minimizedRMSD -1
REMARK  0 active torsions:
REMARK  status: ('A' for Active; 'I' for Inactive)
ROOT
ATOM      1  C   UNL d   1      -4.875  -2.958   3.382  0.00  0.00     0.172 C 
ATOM      2  N   UNL d   1      -3.987  -1.827   3.516  0.00  0.00    -0.070 N 
ATOM      3  C1  UNL d   1      -3.999  -0.921   4.542  0.00  0.00    -0.004 A 
ATOM      4  C2  UNL d   1      -3.001  -0.000   4.303  0.00  0.00    -0.047 A 
ATOM      5  C3  UNL d   1      -2.370  -0.365   3.091  0.00  0.00    -0.047 A 
ATOM      6  C4  UNL d   1      -3.000  -1.500   2.625  0.00  0.00    -0.004 A 
ENDROOT
TORSDOF 0
ENDMDL
