MODEL 1
REMARK minimizedAffinity 2.93809152
REMARK minimizedRMSD -1
REMARK  0 active torsions:
REMARK  status: ('A' for Active; 'I' for Inactive)
ROOT
ATOM      1  C   UNL d   1      -2.843  -3.679   0.490  0.00  0.00     0.172 C 
ATOM      2  N   UNL d   1      -1.882  -2.780   1.086  0.00  0.00    -0.070 N 
ATOM      3  C1  UNL d   1      -2.118  -1.477   1.435  0.00  0.00    -0.004 A 
ATOM      4  C2  UNL d   1      -0.955  -0.966   1.969  0.00  0.00    -0.047 A 
ATOM      5  C3  UNL d   1       0.014  -1.997   1.938  0.00  0.00    -0.047 A 
ATOM      6  C4  UNL d   1      -0.587  -3.109   1.387  0.00  0.00    -0.004 A 
ENDROOT
TORSDOF 0
ENDMDL
