MODEL 1
REMARK minimizedAffinity 1.12633717
REMARK minimizedRMSD -1
REMARK  0 active torsions:
REMARK  status: ('A' for Active; 'I' for Inactive)
ROOT
ATOM      1  C   UNL d   1      -4.813  -0.476   5.934  0.00  0.00     0.172 C 
ATOM      2  N   UNL d   1      -4.064  -0.401   4.701  0.00  0.00    -0.070 N 
ATOM      3  C1  UNL d   1      -2.951   0.368   4.489  0.00  0.00    -0.004 A 
ATOM      4  C2  UNL d   1      -2.536   0.159   3.191  0.00  0.00    -0.047 A 
ATOM      5  C3  UNL d   1      -3.431  -0.766   2.604  0.00  0.00    -0.047 A 
ATOM      6  C4  UNL d   1      -4.367  -1.096   3.561  0.00  0.00    -0.004 A 
ENDROOT
TORSDOF 0
ENDMDL
