MODEL 1
REMARK minimizedAffinity 5.03900862
REMARK minimizedRMSD -1
REMARK  0 active torsions:
REMARK  status: ('A' for Active; 'I' for Inactive)
ROOT
ATOM      1  C   UNL d   1      -4.593   2.268   4.873  0.00  0.00     0.172 C 
ATOM      2  N   UNL d   1      -3.600   1.628   4.042  0.00  0.00    -0.070 N 
ATOM      3  C1  UNL d   1      -2.612   0.789   4.482  0.00  0.00    -0.004 A 
ATOM      4  C2  UNL d   1      -1.876   0.392   3.386  0.00  0.00    -0.047 A 
ATOM      5  C3  UNL d   1      -2.441   1.015   2.248  0.00  0.00    -0.047 A 
ATOM      6  C4  UNL d   1      -3.507   1.775   2.683  0.00  0.00    -0.004 A 
ENDROOT
TORSDOF 0
ENDMDL
