MODEL 1
REMARK minimizedAffinity 2.45921874
REMARK minimizedRMSD -1
REMARK  0 active torsions:
REMARK  status: ('A' for Active; 'I' for Inactive)
ROOT
ATOM      1  C   UNL d   1       4.259   3.454  -3.843  0.00  0.00     0.172 C 
ATOM      2  N   UNL d   1       3.053   3.341  -3.056  0.00  0.00    -0.070 N 
ATOM      3  C1  UNL d   1       2.034   4.255  -3.022  0.00  0.00    -0.004 A 
ATOM      4  C2  UNL d   1       1.072   3.783  -2.156  0.00  0.00    -0.047 A 
ATOM      5  C3  UNL d   1       1.529   2.543  -1.651  0.00  0.00    -0.047 A 
ATOM      6  C4  UNL d   1       2.758   2.293  -2.225  0.00  0.00    -0.004 A 
ENDROOT
TORSDOF 0
ENDMDL
