MODEL 1
REMARK minimizedAffinity 3.10526299
REMARK minimizedRMSD -1
REMARK  0 active torsions:
REMARK  status: ('A' for Active; 'I' for Inactive)
ROOT
ATOM      1  C   UNL d   1      -4.026   5.999  -5.846  0.00  0.00     0.172 C 
ATOM      2  N   UNL d   1      -2.721   5.540  -5.432  0.00  0.00    -0.070 N 
ATOM      3  C1  UNL d   1      -2.471   4.648  -4.424  0.00  0.00    -0.004 A 
ATOM      4  C2  UNL d   1      -1.106   4.472  -4.343  0.00  0.00    -0.047 A 
ATOM      5  C3  UNL d   1      -0.515   5.288  -5.338  0.00  0.00    -0.047 A 
ATOM      6  C4  UNL d   1      -1.538   5.937  -5.997  0.00  0.00    -0.004 A 
ENDROOT
TORSDOF 0
ENDMDL
