MODEL 1
REMARK minimizedAffinity 4.88827801
REMARK minimizedRMSD -1
REMARK  0 active torsions:
REMARK  status: ('A' for Active; 'I' for Inactive)
ROOT
ATOM      1  C   UNL d   1      -4.718   0.946   0.784  0.00  0.00     0.172 C 
ATOM      2  N   UNL d   1      -3.520   0.415   1.390  0.00  0.00    -0.070 N 
ATOM      3  C1  UNL d   1      -2.841   0.974   2.439  0.00  0.00    -0.004 A 
ATOM      4  C2  UNL d   1      -1.759   0.168   2.720  0.00  0.00    -0.047 A 
ATOM      5  C3  UNL d   1      -1.788  -0.912   1.806  0.00  0.00    -0.047 A 
ATOM      6  C4  UNL d   1      -2.888  -0.735   0.995  0.00  0.00    -0.004 A 
ENDROOT
TORSDOF 0
ENDMDL
