MODEL 1
REMARK minimizedAffinity 0.0388640501
REMARK minimizedRMSD -1
REMARK  0 active torsions:
REMARK  status: ('A' for Active; 'I' for Inactive)
ROOT
ATOM      1  C   UNL d   1      -5.988  -3.011   5.726  0.00  0.00     0.172 C 
ATOM      2  N   UNL d   1      -5.975  -4.019   4.692  0.00  0.00    -0.070 N 
ATOM      3  C1  UNL d   1      -5.977  -5.373   4.897  0.00  0.00    -0.004 A 
ATOM      4  C2  UNL d   1      -5.962  -5.987   3.663  0.00  0.00    -0.047 A 
ATOM      5  C3  UNL d   1      -5.950  -4.966   2.683  0.00  0.00    -0.047 A 
ATOM      6  C4  UNL d   1      -5.958  -3.758   3.347  0.00  0.00    -0.004 A 
ENDROOT
TORSDOF 0
ENDMDL
