MODEL 1
REMARK minimizedAffinity 4.93121099
REMARK minimizedRMSD -1
REMARK  0 active torsions:
REMARK  status: ('A' for Active; 'I' for Inactive)
ROOT
ATOM      1  C   UNL d   1      -5.972  -3.227   5.995  0.00  0.00     0.172 C 
ATOM      2  N   UNL d   1      -5.707  -4.136   4.905  0.00  0.00    -0.070 N 
ATOM      3  C1  UNL d   1      -5.547  -5.492   5.017  0.00  0.00    -0.004 A 
ATOM      4  C2  UNL d   1      -5.312  -5.994   3.755  0.00  0.00    -0.047 A 
ATOM      5  C3  UNL d   1      -5.331  -4.903   2.854  0.00  0.00    -0.047 A 
ATOM      6  C4  UNL d   1      -5.577  -3.765   3.592  0.00  0.00    -0.004 A 
ENDROOT
TORSDOF 0
ENDMDL
