MODEL 1
REMARK minimizedAffinity 5.70232296
REMARK minimizedRMSD -1
REMARK  0 active torsions:
REMARK  status: ('A' for Active; 'I' for Inactive)
ROOT
ATOM      1  C   UNL d   1       3.349   2.306  -3.050  0.00  0.00     0.172 C 
ATOM      2  N   UNL d   1       4.030   3.174  -3.981  0.00  0.00    -0.070 N 
ATOM      3  C1  UNL d   1       3.654   4.451  -4.304  0.00  0.00    -0.004 A 
ATOM      4  C2  UNL d   1       4.559   4.938  -5.222  0.00  0.00    -0.047 A 
ATOM      5  C3  UNL d   1       5.511   3.918  -5.460  0.00  0.00    -0.047 A 
ATOM      6  C4  UNL d   1       5.160   2.838  -4.679  0.00  0.00    -0.004 A 
ENDROOT
TORSDOF 0
ENDMDL
