MODEL 1
REMARK minimizedAffinity 3.42024446
REMARK minimizedRMSD -1
REMARK  0 active torsions:
REMARK  status: ('A' for Active; 'I' for Inactive)
ROOT
ATOM      1  C   UNL d   1       2.259   1.792   0.296  0.00  0.00     0.172 C 
ATOM      2  N   UNL d   1       3.415   2.605   0.594  0.00  0.00    -0.070 N 
ATOM      3  C1  UNL d   1       4.438   2.887  -0.272  0.00  0.00    -0.004 A 
ATOM      4  C2  UNL d   1       5.341   3.690   0.390  0.00  0.00    -0.047 A 
ATOM      5  C3  UNL d   1       4.845   3.898   1.698  0.00  0.00    -0.047 A 
ATOM      6  C4  UNL d   1       3.651   3.215   1.798  0.00  0.00    -0.004 A 
ENDROOT
TORSDOF 0
ENDMDL
