MODEL 1
REMARK minimizedAffinity 7.08005857
REMARK minimizedRMSD -1
REMARK  0 active torsions:
REMARK  status: ('A' for Active; 'I' for Inactive)
ROOT
ATOM      1  C   UNL d   1      -4.003  -4.062   2.704  0.00  0.00     0.172 C 
ATOM      2  N   UNL d   1      -4.599  -4.608   3.900  0.00  0.00    -0.070 N 
ATOM      3  C1  UNL d   1      -4.625  -4.002   5.128  0.00  0.00    -0.004 A 
ATOM      4  C2  UNL d   1      -5.282  -4.843   6.000  0.00  0.00    -0.047 A 
ATOM      5  C3  UNL d   1      -5.664  -5.994   5.272  0.00  0.00    -0.047 A 
ATOM      6  C4  UNL d   1      -5.228  -5.823   3.974  0.00  0.00    -0.004 A 
ENDROOT
TORSDOF 0
ENDMDL
