MODEL 1
REMARK minimizedAffinity 7.02010727
REMARK minimizedRMSD -1
REMARK  0 active torsions:
REMARK  status: ('A' for Active; 'I' for Inactive)
ROOT
ATOM      1  C   UNL d   1      -5.463  -5.882   5.975  0.00  0.00     0.172 C 
ATOM      2  N   UNL d   1      -5.094  -5.371   4.676  0.00  0.00    -0.070 N 
ATOM      3  C1  UNL d   1      -4.430  -4.197   4.438  0.00  0.00    -0.004 A 
ATOM      4  C2  UNL d   1      -4.268  -4.072   3.075  0.00  0.00    -0.047 A 
ATOM      5  C3  UNL d   1      -4.856  -5.210   2.473  0.00  0.00    -0.047 A 
ATOM      6  C4  UNL d   1      -5.359  -5.998   3.486  0.00  0.00    -0.004 A 
ENDROOT
TORSDOF 0
ENDMDL
