MODEL 1
REMARK minimizedAffinity 5.74744463
REMARK minimizedRMSD -1
REMARK  0 active torsions:
REMARK  status: ('A' for Active; 'I' for Inactive)
ROOT
ATOM      1  C   UNL d   1       4.482   3.536  -3.466  0.00  0.00     0.172 C 
ATOM      2  N   UNL d   1       3.198   3.025  -3.046  0.00  0.00    -0.070 N 
ATOM      3  C1  UNL d   1       2.997   1.965  -2.203  0.00  0.00    -0.004 A 
ATOM      4  C2  UNL d   1       1.638   1.797  -2.053  0.00  0.00    -0.047 A 
ATOM      5  C3  UNL d   1       0.999   2.790  -2.833  0.00  0.00    -0.047 A 
ATOM      6  C4  UNL d   1       1.988   3.537  -3.437  0.00  0.00    -0.004 A 
ENDROOT
TORSDOF 0
ENDMDL
