MODEL 1
REMARK minimizedAffinity 5.39121628
REMARK minimizedRMSD -1
REMARK  0 active torsions:
REMARK  status: ('A' for Active; 'I' for Inactive)
ROOT
ATOM      1  C   UNL d   1      -2.544   0.989   2.994  0.00  0.00     0.172 C 
ATOM      2  N   UNL d   1      -2.147  -0.294   2.461  0.00  0.00    -0.070 N 
ATOM      3  C1  UNL d   1      -0.873  -0.794   2.449  0.00  0.00    -0.004 A 
ATOM      4  C2  UNL d   1      -0.913  -2.038   1.858  0.00  0.00    -0.047 A 
ATOM      5  C3  UNL d   1      -2.258  -2.294   1.502  0.00  0.00    -0.047 A 
ATOM      6  C4  UNL d   1      -3.001  -1.198   1.886  0.00  0.00    -0.004 A 
ENDROOT
TORSDOF 0
ENDMDL
