MODEL 1
REMARK minimizedAffinity 3.59556913
REMARK minimizedRMSD -1
REMARK  0 active torsions:
REMARK  status: ('A' for Active; 'I' for Inactive)
ROOT
ATOM      1  C   UNL d   1      -4.604  -4.332   2.528  0.00  0.00     0.172 C 
ATOM      2  N   UNL d   1      -5.127  -4.745   3.810  0.00  0.00    -0.070 N 
ATOM      3  C1  UNL d   1      -5.589  -5.997   4.118  0.00  0.00    -0.004 A 
ATOM      4  C2  UNL d   1      -5.997  -5.983   5.434  0.00  0.00    -0.047 A 
ATOM      5  C3  UNL d   1      -5.774  -4.678   5.934  0.00  0.00    -0.047 A 
ATOM      6  C4  UNL d   1      -5.234  -3.932   4.907  0.00  0.00    -0.004 A 
ENDROOT
TORSDOF 0
ENDMDL
