MODEL 1
REMARK minimizedAffinity -4.4468832
REMARK minimizedRMSD -1
REMARK  1 active torsions:
REMARK  status: ('A' for Active; 'I' for Inactive)
REMARK    1  A    between atoms: C3_4  and  O_7 
ROOT
ATOM      1  C   UNL d   1      -0.136   0.082  -0.989  0.00  0.00    -0.033 A 
ATOM      2  C1  UNL d   1      -1.234  -0.600  -0.461  0.00  0.00     0.039 A 
ATOM      3  C2  UNL d   1      -1.070  -1.443   0.640  0.00  0.00    -0.080 A 
ATOM      4  C3  UNL d   1       0.194  -1.594   1.203  0.00  0.00     0.150 A 
ATOM      5  C4  UNL d   1       1.291  -0.914   0.684  0.00  0.00    -0.007 A 
ATOM      6  C5  UNL d   1       1.126  -0.074  -0.416  0.00  0.00     0.039 A 
ENDROOT
BRANCH   4   7
ATOM      7  O   UNL d   1       0.404  -2.409   2.275  0.00  0.00    -0.526 OA
ATOM      8  H5  UNL d   1      -0.438  -2.835   2.507  0.00  0.00     0.418 HD
ENDBRANCH   4   7
TORSDOF 1
ENDMDL
