MODEL 1
REMARK minimizedAffinity -0.161384806
REMARK minimizedRMSD -1
REMARK  1 active torsions:
REMARK  status: ('A' for Active; 'I' for Inactive)
REMARK    1  A    between atoms: C3_4  and  O_7 
ROOT
ATOM      1  C   UNL d   1       4.836   4.890  -0.969  0.00  0.00    -0.033 A 
ATOM      2  C1  UNL d   1       5.562   5.383   0.117  0.00  0.00     0.039 A 
ATOM      3  C2  UNL d   1       5.371   4.842   1.390  0.00  0.00    -0.080 A 
ATOM      4  C3  UNL d   1       4.454   3.809   1.564  0.00  0.00     0.150 A 
ATOM      5  C4  UNL d   1       3.730   3.310   0.486  0.00  0.00    -0.007 A 
ATOM      6  C5  UNL d   1       3.921   3.852  -0.785  0.00  0.00     0.039 A 
ENDROOT
BRANCH   4   7
ATOM      7  O   UNL d   1       4.230   3.253   2.788  0.00  0.00    -0.526 OA
ATOM      8  H5  UNL d   1       4.779   3.717   3.442  0.00  0.00     0.418 HD
ENDBRANCH   4   7
TORSDOF 1
ENDMDL
