MODEL 1
REMARK minimizedAffinity -5.34265804
REMARK minimizedRMSD -1
REMARK  1 active torsions:
REMARK  status: ('A' for Active; 'I' for Inactive)
REMARK    1  A    between atoms: C3_4  and  O_7 
ROOT
ATOM      1  C   UNL d   1      -2.056  -1.516   0.113  0.00  0.00    -0.033 A 
ATOM      2  C1  UNL d   1      -1.927  -0.598  -0.932  0.00  0.00     0.039 A 
ATOM      3  C2  UNL d   1      -0.848   0.288  -0.956  0.00  0.00    -0.080 A 
ATOM      4  C3  UNL d   1       0.094   0.245   0.068  0.00  0.00     0.150 A 
ATOM      5  C4  UNL d   1      -0.027  -0.669   1.110  0.00  0.00    -0.007 A 
ATOM      6  C5  UNL d   1      -1.105  -1.552   1.133  0.00  0.00     0.039 A 
ENDROOT
BRANCH   4   7
ATOM      7  O   UNL d   1       1.161   1.093   0.091  0.00  0.00    -0.526 OA
ATOM      8  H5  UNL d   1       1.098   1.687  -0.676  0.00  0.00     0.418 HD
ENDBRANCH   4   7
TORSDOF 1
ENDMDL
