MODEL 1
REMARK minimizedAffinity 2.76176763
REMARK minimizedRMSD -1
REMARK  1 active torsions:
REMARK  status: ('A' for Active; 'I' for Inactive)
REMARK    1  A    between atoms: C3_4  and  O_7 
ROOT
ATOM      1  C   UNL d   1      -2.796  -1.173  -0.797  0.00  0.00    -0.033 A 
ATOM      2  C1  UNL d   1      -1.583  -1.264  -1.483  0.00  0.00     0.039 A 
ATOM      3  C2  UNL d   1      -1.134  -0.192  -2.257  0.00  0.00    -0.080 A 
ATOM      4  C3  UNL d   1      -1.906   0.964  -2.335  0.00  0.00     0.150 A 
ATOM      5  C4  UNL d   1      -3.113   1.063  -1.651  0.00  0.00    -0.007 A 
ATOM      6  C5  UNL d   1      -3.560  -0.009  -0.880  0.00  0.00     0.039 A 
ENDROOT
BRANCH   4   7
ATOM      7  O   UNL d   1      -1.511   2.035  -3.081  0.00  0.00    -0.526 OA
ATOM      8  H5  UNL d   1      -0.673   1.812  -3.519  0.00  0.00     0.418 HD
ENDBRANCH   4   7
TORSDOF 1
ENDMDL
