MODEL 1
REMARK minimizedAffinity 2.5963757
REMARK minimizedRMSD -1
REMARK  1 active torsions:
REMARK  status: ('A' for Active; 'I' for Inactive)
REMARK    1  A    between atoms: C3_4  and  O_7 
ROOT
ATOM      1  C   UNL d   1       1.399   1.068   2.729  0.00  0.00    -0.033 A 
ATOM      2  C1  UNL d   1       0.035   1.063   3.025  0.00  0.00     0.039 A 
ATOM      3  C2  UNL d   1      -0.757  -0.027   2.660  0.00  0.00    -0.080 A 
ATOM      4  C3  UNL d   1      -0.173  -1.106   2.001  0.00  0.00     0.150 A 
ATOM      5  C4  UNL d   1       1.186  -1.109   1.706  0.00  0.00    -0.007 A 
ATOM      6  C5  UNL d   1       1.975  -0.019   2.070  0.00  0.00     0.039 A 
ENDROOT
BRANCH   4   7
ATOM      7  O   UNL d   1      -0.906  -2.190   1.620  0.00  0.00    -0.526 OA
ATOM      8  H5  UNL d   1      -1.834  -2.035   1.864  0.00  0.00     0.418 HD
ENDBRANCH   4   7
TORSDOF 1
ENDMDL
