MODEL 1
REMARK minimizedAffinity -4.71891689
REMARK minimizedRMSD -1
REMARK  1 active torsions:
REMARK  status: ('A' for Active; 'I' for Inactive)
REMARK    1  A    between atoms: C3_4  and  O_7 
ROOT
ATOM      1  C   UNL d   1      -2.649  -0.799   0.002  0.00  0.00    -0.033 A 
ATOM      2  C1  UNL d   1      -1.477  -1.068  -0.707  0.00  0.00     0.039 A 
ATOM      3  C2  UNL d   1      -1.067  -0.212  -1.732  0.00  0.00    -0.080 A 
ATOM      4  C3  UNL d   1      -1.837   0.907  -2.036  0.00  0.00     0.150 A 
ATOM      5  C4  UNL d   1      -3.003   1.183  -1.330  0.00  0.00    -0.007 A 
ATOM      6  C5  UNL d   1      -3.411   0.327  -0.308  0.00  0.00     0.039 A 
ENDROOT
BRANCH   4   7
ATOM      7  O   UNL d   1      -1.480   1.769  -3.031  0.00  0.00    -0.526 OA
ATOM      8  H5  UNL d   1      -0.669   1.436  -3.449  0.00  0.00     0.418 HD
ENDBRANCH   4   7
TORSDOF 1
ENDMDL
