MODEL 1
REMARK minimizedAffinity 3.22445488
REMARK minimizedRMSD -1
REMARK  1 active torsions:
REMARK  status: ('A' for Active; 'I' for Inactive)
REMARK    1  A    between atoms: C3_4  and  O_7 
ROOT
ATOM      1  C   UNL d   1      -2.284  -0.946  -1.365  0.00  0.00    -0.033 A 
ATOM      2  C1  UNL d   1      -1.450  -1.296  -2.429  0.00  0.00     0.039 A 
ATOM      3  C2  UNL d   1      -0.962  -0.310  -3.289  0.00  0.00    -0.080 A 
ATOM      4  C3  UNL d   1      -1.313   1.019  -3.073  0.00  0.00     0.150 A 
ATOM      5  C4  UNL d   1      -2.139   1.375  -2.013  0.00  0.00    -0.007 A 
ATOM      6  C5  UNL d   1      -2.627   0.390  -1.156  0.00  0.00     0.039 A 
ENDROOT
BRANCH   4   7
ATOM      7  O   UNL d   1      -0.864   2.016  -3.889  0.00  0.00    -0.526 OA
ATOM      8  H5  UNL d   1      -0.327   1.618  -4.594  0.00  0.00     0.418 HD
ENDBRANCH   4   7
TORSDOF 1
ENDMDL
