MODEL 1
REMARK minimizedAffinity -0.8251279
REMARK minimizedRMSD -1
REMARK  1 active torsions:
REMARK  status: ('A' for Active; 'I' for Inactive)
REMARK    1  A    between atoms: C3_4  and  O_7 
ROOT
ATOM      1  C   UNL d   1       0.031   0.524   0.596  0.00  0.00    -0.033 A 
ATOM      2  C1  UNL d   1      -0.089  -0.177  -0.606  0.00  0.00     0.039 A 
ATOM      3  C2  UNL d   1      -0.883  -1.323  -0.672  0.00  0.00    -0.080 A 
ATOM      4  C3  UNL d   1      -1.551  -1.758   0.470  0.00  0.00     0.150 A 
ATOM      5  C4  UNL d   1      -1.439  -1.063   1.669  0.00  0.00    -0.007 A 
ATOM      6  C5  UNL d   1      -0.645   0.082   1.733  0.00  0.00     0.039 A 
ENDROOT
BRANCH   4   7
ATOM      7  O   UNL d   1      -2.334  -2.874   0.456  0.00  0.00    -0.526 OA
ATOM      8  H5  UNL d   1      -2.294  -3.267  -0.432  0.00  0.00     0.418 HD
ENDBRANCH   4   7
TORSDOF 1
ENDMDL
