MODEL 1
REMARK minimizedAffinity 1.70242143
REMARK minimizedRMSD -1
REMARK  1 active torsions:
REMARK  status: ('A' for Active; 'I' for Inactive)
REMARK    1  A    between atoms: C3_4  and  O_7 
ROOT
ATOM      1  C   UNL d   1      -2.676  -1.857   3.911  0.00  0.00    -0.033 A 
ATOM      2  C1  UNL d   1      -2.653  -0.653   3.204  0.00  0.00     0.039 A 
ATOM      3  C2  UNL d   1      -2.676   0.563   3.891  0.00  0.00    -0.080 A 
ATOM      4  C3  UNL d   1      -2.723   0.560   5.283  0.00  0.00     0.150 A 
ATOM      5  C4  UNL d   1      -2.743  -0.636   5.993  0.00  0.00    -0.007 A 
ATOM      6  C5  UNL d   1      -2.720  -1.848   5.306  0.00  0.00     0.039 A 
ENDROOT
BRANCH   4   7
ATOM      7  O   UNL d   1      -2.752   1.721   5.997  0.00  0.00    -0.526 OA
ATOM      8  H5  UNL d   1      -2.763   2.466   5.373  0.00  0.00     0.418 HD
ENDBRANCH   4   7
TORSDOF 1
ENDMDL
