MODEL 1
REMARK minimizedAffinity -1.42887616
REMARK minimizedRMSD -1
REMARK  1 active torsions:
REMARK  status: ('A' for Active; 'I' for Inactive)
REMARK    1  A    between atoms: C3_4  and  O_7 
ROOT
ATOM      1  C   UNL d   1       0.219  -0.028  -2.959  0.00  0.00    -0.033 A 
ATOM      2  C1  UNL d   1      -0.118   0.122  -1.613  0.00  0.00     0.039 A 
ATOM      3  C2  UNL d   1      -1.342  -0.356  -1.140  0.00  0.00    -0.080 A 
ATOM      4  C3  UNL d   1      -2.218  -0.982  -2.022  0.00  0.00     0.150 A 
ATOM      5  C4  UNL d   1      -1.887  -1.138  -3.364  0.00  0.00    -0.007 A 
ATOM      6  C5  UNL d   1      -0.665  -0.660  -3.835  0.00  0.00     0.039 A 
ENDROOT
BRANCH   4   7
ATOM      7  O   UNL d   1      -3.426  -1.460  -1.608  0.00  0.00    -0.526 OA
ATOM      8  H5  UNL d   1      -3.530  -1.255  -0.664  0.00  0.00     0.418 HD
ENDBRANCH   4   7
TORSDOF 1
ENDMDL
