MODEL 1
REMARK minimizedAffinity 0.284628153
REMARK minimizedRMSD -1
REMARK  1 active torsions:
REMARK  status: ('A' for Active; 'I' for Inactive)
REMARK    1  A    between atoms: C3_4  and  O_7 
ROOT
ATOM      1  C   UNL d   1      -4.775   5.999   2.244  0.00  0.00    -0.033 A 
ATOM      2  C1  UNL d   1      -5.467   5.044   2.990  0.00  0.00     0.039 A 
ATOM      3  C2  UNL d   1      -5.885   3.855   2.389  0.00  0.00    -0.080 A 
ATOM      4  C3  UNL d   1      -5.604   3.633   1.044  0.00  0.00     0.150 A 
ATOM      5  C4  UNL d   1      -4.911   4.579   0.295  0.00  0.00    -0.007 A 
ATOM      6  C5  UNL d   1      -4.495   5.766   0.897  0.00  0.00     0.039 A 
ENDROOT
BRANCH   4   7
ATOM      7  O   UNL d   1      -5.996   2.490   0.413  0.00  0.00    -0.526 OA
ATOM      8  H5  UNL d   1      -6.489   1.942   1.046  0.00  0.00     0.418 HD
ENDBRANCH   4   7
TORSDOF 1
ENDMDL
