MODEL 1
REMARK minimizedAffinity 3.19332957
REMARK minimizedRMSD -1
REMARK  1 active torsions:
REMARK  status: ('A' for Active; 'I' for Inactive)
REMARK    1  A    between atoms: C3_4  and  O_7 
ROOT
ATOM      1  C   UNL d   1      -5.113   4.407  -1.434  0.00  0.00    -0.033 A 
ATOM      2  C1  UNL d   1      -4.276   3.867  -0.455  0.00  0.00     0.039 A 
ATOM      3  C2  UNL d   1      -4.287   4.389   0.840  0.00  0.00    -0.080 A 
ATOM      4  C3  UNL d   1      -5.137   5.448   1.143  0.00  0.00     0.150 A 
ATOM      5  C4  UNL d   1      -5.976   5.989   0.174  0.00  0.00    -0.007 A 
ATOM      6  C5  UNL d   1      -5.964   5.467  -1.119  0.00  0.00     0.039 A 
ENDROOT
BRANCH   4   7
ATOM      7  O   UNL d   1      -5.179   5.994   2.392  0.00  0.00    -0.526 OA
ATOM      8  H5  UNL d   1      -4.525   5.539   2.949  0.00  0.00     0.418 HD
ENDBRANCH   4   7
TORSDOF 1
ENDMDL
