MODEL 1
REMARK minimizedAffinity -1.8383981
REMARK minimizedRMSD -1
REMARK  1 active torsions:
REMARK  status: ('A' for Active; 'I' for Inactive)
REMARK    1  A    between atoms: C3_4  and  O_7 
ROOT
ATOM      1  C   UNL d   1       0.493  -1.397   0.685  0.00  0.00    -0.033 A 
ATOM      2  C1  UNL d   1       0.447  -0.422  -0.313  0.00  0.00     0.039 A 
ATOM      3  C2  UNL d   1      -0.623  -0.387  -1.209  0.00  0.00    -0.080 A 
ATOM      4  C3  UNL d   1      -1.641  -1.330  -1.094  0.00  0.00     0.150 A 
ATOM      5  C4  UNL d   1      -1.604  -2.301  -0.099  0.00  0.00    -0.007 A 
ATOM      6  C5  UNL d   1      -0.534  -2.335   0.794  0.00  0.00     0.039 A 
ENDROOT
BRANCH   4   7
ATOM      7  O   UNL d   1      -2.704  -1.339  -1.948  0.00  0.00    -0.526 OA
ATOM      8  H5  UNL d   1      -2.580  -0.629  -2.600  0.00  0.00     0.418 HD
ENDBRANCH   4   7
TORSDOF 1
ENDMDL
