MODEL 1
REMARK minimizedAffinity -4.29955196
REMARK minimizedRMSD -1
REMARK  1 active torsions:
REMARK  status: ('A' for Active; 'I' for Inactive)
REMARK    1  A    between atoms: C3_4  and  O_7 
ROOT
ATOM      1  C   UNL d   1      -0.749  -2.552   1.475  0.00  0.00    -0.033 A 
ATOM      2  C1  UNL d   1      -1.889  -2.994   0.800  0.00  0.00     0.039 A 
ATOM      3  C2  UNL d   1      -2.522  -2.159  -0.124  0.00  0.00    -0.080 A 
ATOM      4  C3  UNL d   1      -2.006  -0.889  -0.363  0.00  0.00     0.150 A 
ATOM      5  C4  UNL d   1      -0.869  -0.444   0.303  0.00  0.00    -0.007 A 
ATOM      6  C5  UNL d   1      -0.238  -1.278   1.226  0.00  0.00     0.039 A 
ENDROOT
BRANCH   4   7
ATOM      7  O   UNL d   1      -2.592  -0.037  -1.251  0.00  0.00    -0.526 OA
ATOM      8  H5  UNL d   1      -3.384  -0.468  -1.614  0.00  0.00     0.418 HD
ENDBRANCH   4   7
TORSDOF 1
ENDMDL
