MODEL 1
REMARK minimizedAffinity -4.28068304
REMARK minimizedRMSD -1
REMARK  1 active torsions:
REMARK  status: ('A' for Active; 'I' for Inactive)
REMARK    1  A    between atoms: C3_4  and  O_7 
ROOT
ATOM      1  C   UNL d   1       1.203  -0.502   0.952  0.00  0.00    -0.033 A 
ATOM      2  C1  UNL d   1       0.152  -1.170   1.583  0.00  0.00     0.039 A 
ATOM      3  C2  UNL d   1      -1.100  -1.244   0.969  0.00  0.00    -0.080 A 
ATOM      4  C3  UNL d   1      -1.287  -0.647  -0.275  0.00  0.00     0.150 A 
ATOM      5  C4  UNL d   1      -0.243   0.017  -0.911  0.00  0.00    -0.007 A 
ATOM      6  C5  UNL d   1       1.006   0.090  -0.296  0.00  0.00     0.039 A 
ENDROOT
BRANCH   4   7
ATOM      7  O   UNL d   1      -2.492  -0.689  -0.911  0.00  0.00    -0.526 OA
ATOM      8  H5  UNL d   1      -3.125  -1.155  -0.340  0.00  0.00     0.418 HD
ENDBRANCH   4   7
TORSDOF 1
ENDMDL
