MODEL 1
REMARK minimizedAffinity -2.88946557
REMARK minimizedRMSD -1
REMARK  1 active torsions:
REMARK  status: ('A' for Active; 'I' for Inactive)
REMARK    1  A    between atoms: C3_4  and  O_7 
ROOT
ATOM      1  C   UNL d   1       0.929  -1.427   1.302  0.00  0.00    -0.033 A 
ATOM      2  C1  UNL d   1      -0.369  -1.797   1.660  0.00  0.00     0.039 A 
ATOM      3  C2  UNL d   1      -1.152  -0.941   2.437  0.00  0.00    -0.080 A 
ATOM      4  C3  UNL d   1      -0.626   0.281   2.848  0.00  0.00     0.150 A 
ATOM      5  C4  UNL d   1       0.665   0.657   2.492  0.00  0.00    -0.007 A 
ATOM      6  C5  UNL d   1       1.445  -0.199   1.717  0.00  0.00     0.039 A 
ENDROOT
BRANCH   4   7
ATOM      7  O   UNL d   1      -1.350   1.147   3.611  0.00  0.00    -0.526 OA
ATOM      8  H5  UNL d   1      -2.212   0.742   3.804  0.00  0.00     0.418 HD
ENDBRANCH   4   7
TORSDOF 1
ENDMDL
