MODEL 1
REMARK minimizedAffinity 5.83546638
REMARK minimizedRMSD -1
REMARK  1 active torsions:
REMARK  status: ('A' for Active; 'I' for Inactive)
REMARK    1  A    between atoms: C1_2  and  C2_3 
ROOT
ATOM      1  C2  UNL d   1      -4.328   1.643  -3.628  0.00  0.00    -0.073 A 
ATOM      2  C3  UNL d   1      -3.461   2.152  -2.655  0.00  0.00    -0.002 A 
ATOM      3  C4  UNL d   1      -2.636   1.293  -1.928  0.00  0.00     0.004 A 
ATOM      4  C5  UNL d   1      -2.663  -0.080  -2.171  0.00  0.00    -0.004 A 
ATOM      5  C6  UNL d   1      -3.514  -0.606  -3.148  0.00  0.00    -0.075 A 
ATOM      6  C7  UNL d   1      -3.558  -2.081  -3.420  0.00  0.00     0.076 C 
ATOM      7  C8  UNL d   1      -4.342   0.262  -3.872  0.00  0.00     0.001 A 
ENDROOT
BRANCH   1   8
ATOM      8  C1  UNL d   1      -5.217   2.567  -4.420  0.00  0.00     0.053 C 
ATOM      9  C   UNL d   1      -5.238   2.210  -5.898  0.00  0.00     0.018 C 
ENDBRANCH   1   8
TORSDOF 1
ENDMDL
