MODEL 1
REMARK minimizedAffinity -0.262677491
REMARK minimizedRMSD -1
REMARK  1 active torsions:
REMARK  status: ('A' for Active; 'I' for Inactive)
REMARK    1  A    between atoms: C1_2  and  C2_3 
ROOT
ATOM      1  C2  UNL d   1       2.351  -2.470   3.220  0.00  0.00    -0.073 A 
ATOM      2  C3  UNL d   1       1.812  -3.544   3.937  0.00  0.00    -0.002 A 
ATOM      3  C4  UNL d   1       2.626  -4.320   4.763  0.00  0.00     0.004 A 
ATOM      4  C5  UNL d   1       3.984  -4.026   4.886  0.00  0.00    -0.004 A 
ATOM      5  C6  UNL d   1       4.539  -2.949   4.188  0.00  0.00    -0.075 A 
ATOM      6  C7  UNL d   1       5.998  -2.620   4.308  0.00  0.00     0.076 C 
ATOM      7  C8  UNL d   1       3.715  -2.176   3.358  0.00  0.00     0.001 A 
ENDROOT
BRANCH   1   8
ATOM      8  C1  UNL d   1       1.474  -1.625   2.332  0.00  0.00     0.053 C 
ATOM      9  C   UNL d   1       2.288  -0.717   1.424  0.00  0.00     0.018 C 
ENDBRANCH   1   8
TORSDOF 1
ENDMDL
