MODEL 1
REMARK minimizedAffinity 8.13220787
REMARK minimizedRMSD -1
REMARK  1 active torsions:
REMARK  status: ('A' for Active; 'I' for Inactive)
REMARK    1  A    between atoms: C1_2  and  C2_3 
ROOT
ATOM      1  C2  UNL d   1      -3.195   2.411   0.459  0.00  0.00    -0.073 A 
ATOM      2  C3  UNL d   1      -3.941   1.783   1.462  0.00  0.00    -0.002 A 
ATOM      3  C4  UNL d   1      -5.214   2.250   1.792  0.00  0.00     0.004 A 
ATOM      4  C5  UNL d   1      -5.756   3.345   1.118  0.00  0.00    -0.004 A 
ATOM      5  C6  UNL d   1      -5.031   3.978   0.104  0.00  0.00    -0.075 A 
ATOM      6  C7  UNL d   1      -5.599   5.158  -0.630  0.00  0.00     0.076 C 
ATOM      7  C8  UNL d   1      -3.752   3.504  -0.220  0.00  0.00     0.001 A 
ENDROOT
BRANCH   1   8
ATOM      8  C1  UNL d   1      -1.823   1.905   0.095  0.00  0.00     0.053 C 
ATOM      9  C   UNL d   1      -1.768   0.387   0.050  0.00  0.00     0.018 C 
ENDBRANCH   1   8
TORSDOF 1
ENDMDL
