MODEL 1
REMARK minimizedAffinity 10.7439375
REMARK minimizedRMSD -1
REMARK  1 active torsions:
REMARK  status: ('A' for Active; 'I' for Inactive)
REMARK    1  A    between atoms: C1_2  and  C2_3 
ROOT
ATOM      1  C2  UNL d   1      -3.534   3.000   0.323  0.00  0.00    -0.073 A 
ATOM      2  C3  UNL d   1      -4.177   2.707   1.531  0.00  0.00    -0.002 A 
ATOM      3  C4  UNL d   1      -5.401   3.303   1.840  0.00  0.00     0.004 A 
ATOM      4  C5  UNL d   1      -5.996   4.191   0.944  0.00  0.00    -0.004 A 
ATOM      5  C6  UNL d   1      -5.374   4.487  -0.273  0.00  0.00    -0.075 A 
ATOM      6  C7  UNL d   1      -6.000   5.442  -1.247  0.00  0.00     0.076 C 
ATOM      7  C8  UNL d   1      -4.144   3.887  -0.576  0.00  0.00     0.001 A 
ENDROOT
BRANCH   1   8
ATOM      8  C1  UNL d   1      -2.216   2.355  -0.018  0.00  0.00     0.053 C 
ATOM      9  C   UNL d   1      -2.382   1.198  -0.991  0.00  0.00     0.018 C 
ENDBRANCH   1   8
TORSDOF 1
ENDMDL
