MODEL 1
REMARK minimizedAffinity 4.96772671
REMARK minimizedRMSD -1
REMARK  1 active torsions:
REMARK  status: ('A' for Active; 'I' for Inactive)
REMARK    1  A    between atoms: C1_2  and  C2_3 
ROOT
ATOM      1  C2  UNL d   1       2.360  -2.402   3.356  0.00  0.00    -0.073 A 
ATOM      2  C3  UNL d   1       1.777  -3.650   3.599  0.00  0.00    -0.002 A 
ATOM      3  C4  UNL d   1       2.559  -4.720   4.037  0.00  0.00     0.004 A 
ATOM      4  C5  UNL d   1       3.928  -4.551   4.242  0.00  0.00    -0.004 A 
ATOM      5  C6  UNL d   1       4.527  -3.307   4.016  0.00  0.00    -0.075 A 
ATOM      6  C7  UNL d   1       5.999  -3.109   4.230  0.00  0.00     0.076 C 
ATOM      7  C8  UNL d   1       3.735  -2.239   3.574  0.00  0.00     0.001 A 
ENDROOT
BRANCH   1   8
ATOM      8  C1  UNL d   1       1.518  -1.242   2.889  0.00  0.00     0.053 C 
ATOM      9  C   UNL d   1       2.250  -0.379   1.873  0.00  0.00     0.018 C 
ENDBRANCH   1   8
TORSDOF 1
ENDMDL
