MODEL 1
REMARK minimizedAffinity 6.52505445
REMARK minimizedRMSD -1
REMARK  0 active torsions:
REMARK  status: ('A' for Active; 'I' for Inactive)
ROOT
ATOM      1  C   UNL d   1       5.092   1.107   3.687  0.00  0.00     0.124 A 
ATOM      2  C1  UNL d   1       4.957   1.826   2.508  0.00  0.00     0.062 A 
ATOM      3  C2  UNL d   1       5.174   3.200   2.497  0.00  0.00     0.162 A 
ATOM      4  C3  UNL d   1       5.528   3.866   3.671  0.00  0.00    -0.034 A 
ATOM      5  C4  UNL d   1       5.661   3.136   4.854  0.00  0.00     0.162 A 
ATOM      6  C5  UNL d   1       5.443   1.762   4.859  0.00  0.00     0.062 A 
ATOM      7  F   UNL d   1       5.573   1.069   6.000  0.00  0.00    -0.097 F 
ATOM      8  F1  UNL d   1       6.000   3.745   6.000  0.00  0.00    -0.096 F 
ATOM      9  I   UNL d   1       5.853   5.922   3.659  0.00  0.00    -0.060 I 
ATOM     10  F2  UNL d   1       5.037   3.870   1.343  0.00  0.00    -0.096 F 
ATOM     11  F3  UNL d   1       4.617   1.194   1.375  0.00  0.00    -0.097 F 
ATOM     12  F4  UNL d   1       4.881  -0.216   3.695  0.00  0.00    -0.092 F 
ENDROOT
TORSDOF 0
ENDMDL
