MODEL 1
REMARK minimizedAffinity 11.3841829
REMARK minimizedRMSD -1
REMARK  0 active torsions:
REMARK  status: ('A' for Active; 'I' for Inactive)
ROOT
ATOM      1  C   UNL d   1       5.837  -0.439   3.637  0.00  0.00     0.124 A 
ATOM      2  C1  UNL d   1       5.898   0.249   2.434  0.00  0.00     0.062 A 
ATOM      3  C2  UNL d   1       5.933   1.640   2.424  0.00  0.00     0.162 A 
ATOM      4  C3  UNL d   1       5.907   2.353   3.623  0.00  0.00    -0.034 A 
ATOM      5  C4  UNL d   1       5.844   1.654   4.829  0.00  0.00     0.162 A 
ATOM      6  C5  UNL d   1       5.810   0.264   4.834  0.00  0.00     0.062 A 
ATOM      7  F   UNL d   1       5.750  -0.400   5.998  0.00  0.00    -0.097 F 
ATOM      8  F1  UNL d   1       5.818   2.308   6.000  0.00  0.00    -0.096 F 
ATOM      9  I   UNL d   1       5.959   4.434   3.612  0.00  0.00    -0.060 I 
ATOM     10  F2  UNL d   1       5.992   2.279   1.246  0.00  0.00    -0.096 F 
ATOM     11  F3  UNL d   1       5.923  -0.428   1.277  0.00  0.00    -0.097 F 
ATOM     12  F4  UNL d   1       5.802  -1.778   3.644  0.00  0.00    -0.092 F 
ENDROOT
TORSDOF 0
ENDMDL
