MODEL 1
REMARK minimizedAffinity 17.9270267
REMARK minimizedRMSD -1
REMARK  0 active torsions:
REMARK  status: ('A' for Active; 'I' for Inactive)
ROOT
ATOM      1  C   UNL d   1       5.826  -1.625   3.600  0.00  0.00     0.124 A 
ATOM      2  C1  UNL d   1       5.903  -0.917   2.409  0.00  0.00     0.062 A 
ATOM      3  C2  UNL d   1       5.898   0.474   2.419  0.00  0.00     0.162 A 
ATOM      4  C3  UNL d   1       5.818   1.169   3.626  0.00  0.00    -0.034 A 
ATOM      5  C4  UNL d   1       5.739   0.450   4.821  0.00  0.00     0.162 A 
ATOM      6  C5  UNL d   1       5.744  -0.941   4.805  0.00  0.00     0.062 A 
ATOM      7  F   UNL d   1       5.669  -1.622   5.957  0.00  0.00    -0.097 F 
ATOM      8  F1  UNL d   1       5.661   1.086   5.999  0.00  0.00    -0.096 F 
ATOM      9  I   UNL d   1       5.811   3.250   3.646  0.00  0.00    -0.060 I 
ATOM     10  F2  UNL d   1       5.974   1.132   1.253  0.00  0.00    -0.096 F 
ATOM     11  F3  UNL d   1       5.981  -1.576   1.243  0.00  0.00    -0.097 F 
ATOM     12  F4  UNL d   1       5.829  -2.964   3.587  0.00  0.00    -0.092 F 
ENDROOT
TORSDOF 0
ENDMDL
