MODEL 1
REMARK minimizedAffinity 7.90968132
REMARK minimizedRMSD -1
REMARK  0 active torsions:
REMARK  status: ('A' for Active; 'I' for Inactive)
ROOT
ATOM      1  C   UNL d   1       4.967   4.582   2.842  0.00  0.00     0.124 A 
ATOM      2  C1  UNL d   1       4.551   3.529   2.039  0.00  0.00     0.062 A 
ATOM      3  C2  UNL d   1       4.621   2.220   2.509  0.00  0.00     0.162 A 
ATOM      4  C3  UNL d   1       5.108   1.958   3.790  0.00  0.00    -0.034 A 
ATOM      5  C4  UNL d   1       5.525   3.022   4.590  0.00  0.00     0.162 A 
ATOM      6  C5  UNL d   1       5.454   4.328   4.116  0.00  0.00     0.062 A 
ATOM      7  F   UNL d   1       5.857   5.344   4.893  0.00  0.00    -0.097 F 
ATOM      8  F1  UNL d   1       5.999   2.805   5.826  0.00  0.00    -0.096 F 
ATOM      9  I   UNL d   1       5.213   0.003   4.496  0.00  0.00    -0.060 I 
ATOM     10  F2  UNL d   1       4.211   1.222   1.712  0.00  0.00    -0.096 F 
ATOM     11  F3  UNL d   1       4.081   3.771   0.807  0.00  0.00    -0.097 F 
ATOM     12  F4  UNL d   1       4.900   5.840   2.386  0.00  0.00    -0.092 F 
ENDROOT
TORSDOF 0
ENDMDL
