MODEL 1
REMARK minimizedAffinity 11.027339
REMARK minimizedRMSD -1
REMARK  0 active torsions:
REMARK  status: ('A' for Active; 'I' for Inactive)
ROOT
ATOM      1  C   UNL d   1       5.951   4.422   3.147  0.00  0.00     0.124 A 
ATOM      2  C1  UNL d   1       5.955   3.524   2.089  0.00  0.00     0.062 A 
ATOM      3  C2  UNL d   1       5.968   2.154   2.334  0.00  0.00     0.162 A 
ATOM      4  C3  UNL d   1       5.975   1.673   3.644  0.00  0.00    -0.034 A 
ATOM      5  C4  UNL d   1       5.972   2.583   4.703  0.00  0.00     0.162 A 
ATOM      6  C5  UNL d   1       5.959   3.951   4.452  0.00  0.00     0.062 A 
ATOM      7  F   UNL d   1       5.955   4.818   5.476  0.00  0.00    -0.097 F 
ATOM      8  F1  UNL d   1       5.979   2.155   5.974  0.00  0.00    -0.096 F 
ATOM      9  I   UNL d   1       5.995  -0.375   4.015  0.00  0.00    -0.060 I 
ATOM     10  F2  UNL d   1       5.972   1.308   1.293  0.00  0.00    -0.096 F 
ATOM     11  F3  UNL d   1       5.948   3.976   0.827  0.00  0.00    -0.097 F 
ATOM     12  F4  UNL d   1       5.939   5.740   2.908  0.00  0.00    -0.092 F 
ENDROOT
TORSDOF 0
ENDMDL
