MODEL 1
REMARK minimizedAffinity 16.8736496
REMARK minimizedRMSD -1
REMARK  0 active torsions:
REMARK  status: ('A' for Active; 'I' for Inactive)
ROOT
ATOM      1  C   UNL d   1      -2.609  -0.889   3.432  0.00  0.00     0.124 A 
ATOM      2  C1  UNL d   1      -1.428  -0.187   3.232  0.00  0.00     0.062 A 
ATOM      3  C2  UNL d   1      -0.812  -0.196   1.984  0.00  0.00     0.162 A 
ATOM      4  C3  UNL d   1      -1.376  -0.908   0.925  0.00  0.00    -0.034 A 
ATOM      5  C4  UNL d   1      -2.563  -1.612   1.135  0.00  0.00     0.162 A 
ATOM      6  C5  UNL d   1      -3.175  -1.601   2.384  0.00  0.00     0.062 A 
ATOM      7  F   UNL d   1      -4.316  -2.279   2.575  0.00  0.00    -0.097 F 
ATOM      8  F1  UNL d   1      -3.132  -2.308   0.139  0.00  0.00    -0.096 F 
ATOM      9  I   UNL d   1      -0.458  -0.923  -0.942  0.00  0.00    -0.060 I 
ATOM     10  F2  UNL d   1       0.328   0.491   1.819  0.00  0.00    -0.096 F 
ATOM     11  F3  UNL d   1      -0.879   0.500   4.243  0.00  0.00    -0.097 F 
ATOM     12  F4  UNL d   1      -3.199  -0.880   4.634  0.00  0.00    -0.092 F 
ENDROOT
TORSDOF 0
ENDMDL
