MODEL 1
REMARK minimizedAffinity 4.40178967
REMARK minimizedRMSD -1
REMARK  0 active torsions:
REMARK  status: ('A' for Active; 'I' for Inactive)
ROOT
ATOM      1  C   UNL d   1       5.959   4.040   3.608  0.00  0.00     0.124 A 
ATOM      2  C1  UNL d   1       5.956   3.350   4.812  0.00  0.00     0.062 A 
ATOM      3  C2  UNL d   1       5.968   1.958   4.821  0.00  0.00     0.162 A 
ATOM      4  C3  UNL d   1       5.983   1.247   3.622  0.00  0.00    -0.034 A 
ATOM      5  C4  UNL d   1       5.985   1.947   2.414  0.00  0.00     0.162 A 
ATOM      6  C5  UNL d   1       5.974   3.338   2.410  0.00  0.00     0.062 A 
ATOM      7  F   UNL d   1       5.976   4.003   1.246  0.00  0.00    -0.097 F 
ATOM      8  F1  UNL d   1       5.999   1.295   1.243  0.00  0.00    -0.096 F 
ATOM      9  I   UNL d   1       6.000  -0.835   3.631  0.00  0.00    -0.060 I 
ATOM     10  F2  UNL d   1       5.965   1.318   6.000  0.00  0.00    -0.096 F 
ATOM     11  F3  UNL d   1       5.942   4.026   5.970  0.00  0.00    -0.097 F 
ATOM     12  F4  UNL d   1       5.948   5.379   3.602  0.00  0.00    -0.092 F 
ENDROOT
TORSDOF 0
ENDMDL
