MODEL 1
REMARK minimizedAffinity 3.79549885
REMARK minimizedRMSD -1
REMARK  0 active torsions:
REMARK  status: ('A' for Active; 'I' for Inactive)
ROOT
ATOM      1  C   UNL d   1       5.815   4.650   3.420  0.00  0.00     0.124 A 
ATOM      2  C1  UNL d   1       5.805   3.863   2.277  0.00  0.00     0.062 A 
ATOM      3  C2  UNL d   1       5.856   2.476   2.381  0.00  0.00     0.162 A 
ATOM      4  C3  UNL d   1       5.916   1.867   3.634  0.00  0.00    -0.034 A 
ATOM      5  C4  UNL d   1       5.926   2.665   4.780  0.00  0.00     0.162 A 
ATOM      6  C5  UNL d   1       5.875   4.051   4.670  0.00  0.00     0.062 A 
ATOM      7  F   UNL d   1       5.885   4.809   5.776  0.00  0.00    -0.097 F 
ATOM      8  F1  UNL d   1       5.984   2.111   6.000  0.00  0.00    -0.096 F 
ATOM      9  I   UNL d   1       5.992  -0.207   3.795  0.00  0.00    -0.060 I 
ATOM     10  F2  UNL d   1       5.845   1.741   1.259  0.00  0.00    -0.096 F 
ATOM     11  F3  UNL d   1       5.747   4.441   1.068  0.00  0.00    -0.097 F 
ATOM     12  F4  UNL d   1       5.767   5.985   3.317  0.00  0.00    -0.092 F 
ENDROOT
TORSDOF 0
ENDMDL
