MODEL 1
REMARK minimizedAffinity 6.72633076
REMARK minimizedRMSD -1
REMARK  0 active torsions:
REMARK  status: ('A' for Active; 'I' for Inactive)
ROOT
ATOM      1  C   UNL d   1       5.973   2.456   4.490  0.00  0.00     0.124 A 
ATOM      2  C1  UNL d   1       5.982   3.834   4.655  0.00  0.00     0.062 A 
ATOM      3  C2  UNL d   1       5.989   4.672   3.543  0.00  0.00     0.162 A 
ATOM      4  C3  UNL d   1       5.987   4.133   2.256  0.00  0.00    -0.034 A 
ATOM      5  C4  UNL d   1       5.979   2.746   2.099  0.00  0.00     0.162 A 
ATOM      6  C5  UNL d   1       5.972   1.913   3.213  0.00  0.00     0.062 A 
ATOM      7  F   UNL d   1       5.963   0.582   3.053  0.00  0.00    -0.097 F 
ATOM      8  F1  UNL d   1       5.977   2.195   0.876  0.00  0.00    -0.096 F 
ATOM      9  I   UNL d   1       5.998   5.382   0.591  0.00  0.00    -0.060 I 
ATOM     10  F2  UNL d   1       5.998   6.000   3.731  0.00  0.00    -0.096 F 
ATOM     11  F3  UNL d   1       5.984   4.361   5.888  0.00  0.00    -0.097 F 
ATOM     12  F4  UNL d   1       5.967   1.653   5.562  0.00  0.00    -0.092 F 
ENDROOT
TORSDOF 0
ENDMDL
