MODEL 1
REMARK minimizedAffinity 2.71626639
REMARK minimizedRMSD -1
REMARK  0 active torsions:
REMARK  status: ('A' for Active; 'I' for Inactive)
ROOT
ATOM      1  C   UNL d   1      -2.151  -0.205   3.470  0.00  0.00     0.124 A 
ATOM      2  C1  UNL d   1      -1.247   0.466   2.659  0.00  0.00     0.062 A 
ATOM      3  C2  UNL d   1      -1.005   1.823   2.854  0.00  0.00     0.162 A 
ATOM      4  C3  UNL d   1      -1.667   2.517   3.866  0.00  0.00    -0.034 A 
ATOM      5  C4  UNL d   1      -2.576   1.836   4.677  0.00  0.00     0.162 A 
ATOM      6  C5  UNL d   1      -2.815   0.480   4.478  0.00  0.00     0.062 A 
ATOM      7  F   UNL d   1      -3.689  -0.167   5.263  0.00  0.00    -0.097 F 
ATOM      8  F1  UNL d   1      -3.231   2.473   5.659  0.00  0.00    -0.096 F 
ATOM      9  I   UNL d   1      -1.308   4.546   4.161  0.00  0.00    -0.060 I 
ATOM     10  F2  UNL d   1      -0.126   2.446   2.056  0.00  0.00    -0.096 F 
ATOM     11  F3  UNL d   1      -0.605  -0.194   1.684  0.00  0.00    -0.097 F 
ATOM     12  F4  UNL d   1      -2.383  -1.511   3.280  0.00  0.00    -0.092 F 
ENDROOT
TORSDOF 0
ENDMDL
