MODEL 1
REMARK minimizedAffinity 8.65147114
REMARK minimizedRMSD -1
REMARK  0 active torsions:
REMARK  status: ('A' for Active; 'I' for Inactive)
ROOT
ATOM      1  C   UNL d   1       4.881   0.016   3.480  0.00  0.00     0.124 A 
ATOM      2  C1  UNL d   1       5.311   0.535   4.693  0.00  0.00     0.062 A 
ATOM      3  C2  UNL d   1       5.585   1.895   4.815  0.00  0.00     0.162 A 
ATOM      4  C3  UNL d   1       5.428   2.745   3.720  0.00  0.00    -0.034 A 
ATOM      5  C4  UNL d   1       4.996   2.215   2.503  0.00  0.00     0.162 A 
ATOM      6  C5  UNL d   1       4.724   0.855   2.386  0.00  0.00     0.062 A 
ATOM      7  F   UNL d   1       4.308   0.355   1.214  0.00  0.00    -0.097 F 
ATOM      8  F1  UNL d   1       4.835   3.004   1.430  0.00  0.00    -0.096 F 
ATOM      9  I   UNL d   1       5.836   4.778   3.897  0.00  0.00    -0.060 I 
ATOM     10  F2  UNL d   1       5.999   2.370   5.999  0.00  0.00    -0.096 F 
ATOM     11  F3  UNL d   1       5.465  -0.274   5.751  0.00  0.00    -0.097 F 
ATOM     12  F4  UNL d   1       4.620  -1.293   3.366  0.00  0.00    -0.092 F 
ENDROOT
TORSDOF 0
ENDMDL
