MODEL 1
REMARK minimizedAffinity 8.39933681
REMARK minimizedRMSD -1
REMARK  0 active torsions:
REMARK  status: ('A' for Active; 'I' for Inactive)
ROOT
ATOM      1  C   UNL d   1       5.752   3.619   3.508  0.00  0.00     0.124 A 
ATOM      2  C1  UNL d   1       5.820   2.873   2.339  0.00  0.00     0.062 A 
ATOM      3  C2  UNL d   1       5.842   1.482   2.397  0.00  0.00     0.162 A 
ATOM      4  C3  UNL d   1       5.795   0.828   3.628  0.00  0.00    -0.034 A 
ATOM      5  C4  UNL d   1       5.728   1.585   4.799  0.00  0.00     0.162 A 
ATOM      6  C5  UNL d   1       5.706   2.975   4.736  0.00  0.00     0.062 A 
ATOM      7  F   UNL d   1       5.640   3.694   5.866  0.00  0.00    -0.097 F 
ATOM      8  F1  UNL d   1       5.681   0.988   5.999  0.00  0.00    -0.096 F 
ATOM      9  I   UNL d   1       5.828  -1.251   3.718  0.00  0.00    -0.060 I 
ATOM     10  F2  UNL d   1       5.908   0.787   1.251  0.00  0.00    -0.096 F 
ATOM     11  F3  UNL d   1       5.866   3.493   1.151  0.00  0.00    -0.097 F 
ATOM     12  F4  UNL d   1       5.732   4.957   3.449  0.00  0.00    -0.092 F 
ENDROOT
TORSDOF 0
ENDMDL
