MODEL 1
REMARK minimizedAffinity 9.60389996
REMARK minimizedRMSD -1
REMARK  0 active torsions:
REMARK  status: ('A' for Active; 'I' for Inactive)
ROOT
ATOM      1  C   UNL d   1       5.998   4.141   2.987  0.00  0.00     0.124 A 
ATOM      2  C1  UNL d   1       5.997   3.155   2.010  0.00  0.00     0.062 A 
ATOM      3  C2  UNL d   1       5.998   1.811   2.373  0.00  0.00     0.162 A 
ATOM      4  C3  UNL d   1       5.998   1.445   3.719  0.00  0.00    -0.034 A 
ATOM      5  C4  UNL d   1       5.999   2.443   4.696  0.00  0.00     0.162 A 
ATOM      6  C5  UNL d   1       5.998   3.785   4.328  0.00  0.00     0.062 A 
ATOM      7  F   UNL d   1       5.999   4.736   5.273  0.00  0.00    -0.097 F 
ATOM      8  F1  UNL d   1       5.999   2.127   5.999  0.00  0.00    -0.096 F 
ATOM      9  I   UNL d   1       5.999  -0.563   4.266  0.00  0.00    -0.060 I 
ATOM     10  F2  UNL d   1       5.998   0.879   1.409  0.00  0.00    -0.096 F 
ATOM     11  F3  UNL d   1       5.998   3.497   0.714  0.00  0.00    -0.097 F 
ATOM     12  F4  UNL d   1       5.998   5.433   2.635  0.00  0.00    -0.092 F 
ENDROOT
TORSDOF 0
ENDMDL
