MODEL 1
REMARK minimizedAffinity 8.46956062
REMARK minimizedRMSD -1
REMARK  0 active torsions:
REMARK  status: ('A' for Active; 'I' for Inactive)
ROOT
ATOM      1  C   UNL d   1       2.906   1.348  -2.468  0.00  0.00     0.124 A 
ATOM      2  C1  UNL d   1       3.316   1.278  -1.144  0.00  0.00     0.062 A 
ATOM      3  C2  UNL d   1       2.624   0.480  -0.238  0.00  0.00     0.162 A 
ATOM      4  C3  UNL d   1       1.514  -0.256  -0.654  0.00  0.00    -0.034 A 
ATOM      5  C4  UNL d   1       1.107  -0.180  -1.987  0.00  0.00     0.162 A 
ATOM      6  C5  UNL d   1       1.803   0.619  -2.889  0.00  0.00     0.062 A 
ATOM      7  F   UNL d   1       1.405   0.685  -4.168  0.00  0.00    -0.097 F 
ATOM      8  F1  UNL d   1       0.045  -0.875  -2.420  0.00  0.00    -0.096 F 
ATOM      9  I   UNL d   1       0.476  -1.451   0.698  0.00  0.00    -0.060 I 
ATOM     10  F2  UNL d   1       3.042   0.432   1.035  0.00  0.00    -0.096 F 
ATOM     11  F3  UNL d   1       4.381   1.983  -0.736  0.00  0.00    -0.097 F 
ATOM     12  F4  UNL d   1       3.574   2.118  -3.338  0.00  0.00    -0.092 F 
ENDROOT
TORSDOF 0
ENDMDL
