MODEL 1
REMARK minimizedAffinity 2.31616163
REMARK minimizedRMSD -1
REMARK  0 active torsions:
REMARK  status: ('A' for Active; 'I' for Inactive)
ROOT
ATOM      1  C   UNL d   1       5.887   4.661   3.554  0.00  0.00     0.124 A 
ATOM      2  C1  UNL d   1       5.874   3.935   2.371  0.00  0.00     0.062 A 
ATOM      3  C2  UNL d   1       5.904   2.544   2.404  0.00  0.00     0.162 A 
ATOM      4  C3  UNL d   1       5.946   1.869   3.624  0.00  0.00    -0.034 A 
ATOM      5  C4  UNL d   1       5.959   2.606   4.809  0.00  0.00     0.162 A 
ATOM      6  C5  UNL d   1       5.929   3.997   4.772  0.00  0.00     0.062 A 
ATOM      7  F   UNL d   1       5.941   4.697   5.915  0.00  0.00    -0.097 F 
ATOM      8  F1  UNL d   1       5.998   1.990   6.000  0.00  0.00    -0.096 F 
ATOM      9  I   UNL d   1       5.991  -0.211   3.677  0.00  0.00    -0.060 I 
ATOM     10  F2  UNL d   1       5.892   1.867   1.246  0.00  0.00    -0.096 F 
ATOM     11  F3  UNL d   1       5.835   4.575   1.194  0.00  0.00    -0.097 F 
ATOM     12  F4  UNL d   1       5.859   6.000   3.520  0.00  0.00    -0.092 F 
ENDROOT
TORSDOF 0
ENDMDL
