MODEL 1
REMARK minimizedAffinity 4.93648529
REMARK minimizedRMSD -1
REMARK  0 active torsions:
REMARK  status: ('A' for Active; 'I' for Inactive)
ROOT
ATOM      1  C   UNL d   1       1.132  -2.942  -2.482  0.00  0.00     0.124 A 
ATOM      2  C1  UNL d   1       0.575  -2.767  -1.223  0.00  0.00     0.062 A 
ATOM      3  C2  UNL d   1       0.393  -1.486  -0.710  0.00  0.00     0.162 A 
ATOM      4  C3  UNL d   1       0.766  -0.369  -1.458  0.00  0.00    -0.034 A 
ATOM      5  C4  UNL d   1       1.327  -0.553  -2.723  0.00  0.00     0.162 A 
ATOM      6  C5  UNL d   1       1.507  -1.836  -3.231  0.00  0.00     0.062 A 
ATOM      7  F   UNL d   1       2.045  -2.004  -4.448  0.00  0.00    -0.097 F 
ATOM      8  F1  UNL d   1       1.697   0.498  -3.469  0.00  0.00    -0.096 F 
ATOM      9  I   UNL d   1       0.495   1.549  -0.696  0.00  0.00    -0.060 I 
ATOM     10  F2  UNL d   1      -0.148  -1.346   0.509  0.00  0.00    -0.096 F 
ATOM     11  F3  UNL d   1       0.213  -3.834  -0.497  0.00  0.00    -0.097 F 
ATOM     12  F4  UNL d   1       1.307  -4.176  -2.972  0.00  0.00    -0.092 F 
ENDROOT
TORSDOF 0
ENDMDL
