MODEL 1
REMARK minimizedAffinity 2.91928339
REMARK minimizedRMSD -1
REMARK  3 active torsions:
REMARK  status: ('A' for Active; 'I' for Inactive)
REMARK    1  A    between atoms: C3'_2  and  C2'_3 
REMARK    2  A    between atoms: C2'_3  and  C1'_4 
REMARK    3  A    between atoms: C1'_4  and  C1_5 
ROOT
ATOM      1  C1  N4B d   1       0.733   1.481   0.812  0.00  0.00    -0.075 A 
ATOM      2  C2  N4B d   1       1.657   0.459   0.503  0.00  0.00     0.002 A 
ATOM      3  C3  N4B d   1       1.794   0.026  -0.793  0.00  0.00     0.002 A 
ATOM      4  C4  N4B d   1       1.006   0.584  -1.789  0.00  0.00    -0.004 A 
ATOM      5  C5  N4B d   1       0.134   1.588  -1.486  0.00  0.00     0.002 A 
ATOM      6  C6  N4B d   1      -0.011   2.036  -0.189  0.00  0.00     0.002 A 
ENDROOT
BRANCH   1   7
ATOM      7  C1' N4B d   1       0.487   1.928   2.228  0.00  0.00     0.057 C 
BRANCH   7   8
ATOM      8  C2' N4B d   1      -0.086   0.763   3.028  0.00  0.00     0.009 C 
BRANCH   8   9
ATOM      9  C3' N4B d   1       0.982  -0.250   3.403  0.00  0.00     0.004 C 
ATOM     10  C4' N4B d   1       0.639  -1.026   4.640  0.00  0.00     0.003 C 
ENDBRANCH   8   9
ENDBRANCH   7   8
ENDBRANCH   1   7
TORSDOF 3
ENDMDL
