MODEL 1
REMARK minimizedAffinity 9.71260452
REMARK minimizedRMSD -1
REMARK  3 active torsions:
REMARK  status: ('A' for Active; 'I' for Inactive)
REMARK    1  A    between atoms: C3'_2  and  C2'_3 
REMARK    2  A    between atoms: C2'_3  and  C1'_4 
REMARK    3  A    between atoms: C1'_4  and  C1_5 
ROOT
ATOM      1  C1  N4B d   1       1.469  -2.001  -1.502  0.00  0.00    -0.075 A 
ATOM      2  C2  N4B d   1       1.782  -0.686  -1.912  0.00  0.00     0.002 A 
ATOM      3  C3  N4B d   1       0.774   0.192  -2.229  0.00  0.00     0.002 A 
ATOM      4  C4  N4B d   1      -0.546  -0.227  -2.162  0.00  0.00    -0.004 A 
ATOM      5  C5  N4B d   1      -0.840  -1.490  -1.740  0.00  0.00     0.002 A 
ATOM      6  C6  N4B d   1       0.162  -2.382  -1.414  0.00  0.00     0.002 A 
ENDROOT
BRANCH   1   7
ATOM      7  C1' N4B d   1       2.539  -3.022  -1.227  0.00  0.00     0.057 C 
BRANCH   7   8
ATOM      8  C2' N4B d   1       1.977  -4.417  -1.483  0.00  0.00     0.009 C 
BRANCH   8   9
ATOM      9  C3' N4B d   1       2.941  -5.281  -2.279  0.00  0.00     0.004 C 
ATOM     10  C4' N4B d   1       2.276  -6.000  -3.414  0.00  0.00     0.003 C 
ENDBRANCH   8   9
ENDBRANCH   7   8
ENDBRANCH   1   7
TORSDOF 3
ENDMDL
