MODEL 1
REMARK minimizedAffinity -3.05720782
REMARK minimizedRMSD -1
REMARK  3 active torsions:
REMARK  status: ('A' for Active; 'I' for Inactive)
REMARK    1  A    between atoms: C3'_2  and  C2'_3 
REMARK    2  A    between atoms: C2'_3  and  C1'_4 
REMARK    3  A    between atoms: C1'_4  and  C1_5 
ROOT
ATOM      1  C1  N4B d   1       0.286   1.312   0.154  0.00  0.00    -0.075 A 
ATOM      2  C2  N4B d   1      -0.165   2.195  -0.852  0.00  0.00     0.002 A 
ATOM      3  C3  N4B d   1      -0.486   3.492  -0.533  0.00  0.00     0.002 A 
ATOM      4  C4  N4B d   1      -0.383   3.921   0.781  0.00  0.00    -0.004 A 
ATOM      5  C5  N4B d   1       0.077   3.069   1.742  0.00  0.00     0.002 A 
ATOM      6  C6  N4B d   1       0.407   1.764   1.436  0.00  0.00     0.002 A 
ENDROOT
BRANCH   1   7
ATOM      7  C1' N4B d   1       0.567  -0.138  -0.130  0.00  0.00     0.057 C 
BRANCH   7   8
ATOM      8  C2' N4B d   1      -0.754  -0.873  -0.337  0.00  0.00     0.009 C 
BRANCH   8   9
ATOM      9  C3' N4B d   1      -0.629  -2.359  -0.048  0.00  0.00     0.004 C 
ATOM     10  C4' N4B d   1      -0.212  -3.152  -1.250  0.00  0.00     0.003 C 
ENDBRANCH   8   9
ENDBRANCH   7   8
ENDBRANCH   1   7
TORSDOF 3
ENDMDL
