MODEL 1
REMARK minimizedAffinity -5.49848938
REMARK minimizedRMSD -1
REMARK  3 active torsions:
REMARK  status: ('A' for Active; 'I' for Inactive)
REMARK    1  A    between atoms: C3'_2  and  C2'_3 
REMARK    2  A    between atoms: C2'_3  and  C1'_4 
REMARK    3  A    between atoms: C1'_4  and  C1_5 
ROOT
ATOM      1  C1  N4B d   1      -0.362   0.178   0.542  0.00  0.00    -0.075 A 
ATOM      2  C2  N4B d   1      -1.006  -0.166   1.750  0.00  0.00     0.002 A 
ATOM      3  C3  N4B d   1      -0.406  -1.039   2.624  0.00  0.00     0.002 A 
ATOM      4  C4  N4B d   1       0.825  -1.592   2.304  0.00  0.00    -0.004 A 
ATOM      5  C5  N4B d   1       1.452  -1.236   1.146  0.00  0.00     0.002 A 
ATOM      6  C6  N4B d   1       0.862  -0.357   0.260  0.00  0.00     0.002 A 
ENDROOT
BRANCH   1   7
ATOM      7  C1' N4B d   1      -1.018   1.060  -0.485  0.00  0.00     0.057 C 
BRANCH   7   8
ATOM      8  C2' N4B d   1      -2.148   0.289  -1.161  0.00  0.00     0.009 C 
BRANCH   8   9
ATOM      9  C3' N4B d   1      -2.717   1.041  -2.351  0.00  0.00     0.004 C 
ATOM     10  C4' N4B d   1      -1.787   1.056  -3.527  0.00  0.00     0.003 C 
ENDBRANCH   8   9
ENDBRANCH   7   8
ENDBRANCH   1   7
TORSDOF 3
ENDMDL
