MODEL 1
REMARK minimizedAffinity -5.94424391
REMARK minimizedRMSD -1
REMARK  3 active torsions:
REMARK  status: ('A' for Active; 'I' for Inactive)
REMARK    1  A    between atoms: C3'_2  and  C2'_3 
REMARK    2  A    between atoms: C2'_3  and  C1'_4 
REMARK    3  A    between atoms: C1'_4  and  C1_5 
ROOT
ATOM      1  C1  N4B d   1      -0.650   1.155  -0.793  0.00  0.00    -0.075 A 
ATOM      2  C2  N4B d   1      -0.969   1.458  -2.135  0.00  0.00     0.002 A 
ATOM      3  C3  N4B d   1      -2.281   1.615  -2.510  0.00  0.00     0.002 A 
ATOM      4  C4  N4B d   1      -3.287   1.455  -1.570  0.00  0.00    -0.004 A 
ATOM      5  C5  N4B d   1      -2.970   1.187  -0.270  0.00  0.00     0.002 A 
ATOM      6  C6  N4B d   1      -1.655   1.031   0.122  0.00  0.00     0.002 A 
ENDROOT
BRANCH   1   7
ATOM      7  C1' N4B d   1       0.764   0.889  -0.354  0.00  0.00     0.057 C 
BRANCH   7   8
ATOM      8  C2' N4B d   1       1.190  -0.491  -0.843  0.00  0.00     0.009 C 
BRANCH   8   9
ATOM      9  C3' N4B d   1       0.616  -1.602   0.019  0.00  0.00     0.004 C 
ATOM     10  C4' N4B d   1       1.621  -2.668   0.339  0.00  0.00     0.003 C 
ENDBRANCH   8   9
ENDBRANCH   7   8
ENDBRANCH   1   7
TORSDOF 3
ENDMDL
