MODEL 1
REMARK minimizedAffinity 4.36927891
REMARK minimizedRMSD -1
REMARK  3 active torsions:
REMARK  status: ('A' for Active; 'I' for Inactive)
REMARK    1  A    between atoms: C3'_2  and  C2'_3 
REMARK    2  A    between atoms: C2'_3  and  C1'_4 
REMARK    3  A    between atoms: C1'_4  and  C1_5 
ROOT
ATOM      1  C1  N4B d   1      -4.043  -4.674   0.046  0.00  0.00    -0.075 A 
ATOM      2  C2  N4B d   1      -3.892  -4.649  -1.357  0.00  0.00     0.002 A 
ATOM      3  C3  N4B d   1      -4.797  -5.302  -2.157  0.00  0.00     0.002 A 
ATOM      4  C4  N4B d   1      -5.846  -5.999  -1.578  0.00  0.00    -0.004 A 
ATOM      5  C5  N4B d   1      -6.000  -5.997  -0.222  0.00  0.00     0.002 A 
ATOM      6  C6  N4B d   1      -5.100  -5.342   0.594  0.00  0.00     0.002 A 
ENDROOT
BRANCH   1   7
ATOM      7  C1' N4B d   1      -3.031  -4.047   0.966  0.00  0.00     0.057 C 
BRANCH   7   8
ATOM      8  C2' N4B d   1      -2.311  -2.923   0.226  0.00  0.00     0.009 C 
BRANCH   8   9
ATOM      9  C3' N4B d   1      -2.710  -1.553   0.747  0.00  0.00     0.004 C 
ATOM     10  C4' N4B d   1      -1.565  -0.585   0.773  0.00  0.00     0.003 C 
ENDBRANCH   8   9
ENDBRANCH   7   8
ENDBRANCH   1   7
TORSDOF 3
ENDMDL
