MODEL 1
REMARK minimizedAffinity 5.6402812
REMARK minimizedRMSD -1
REMARK  3 active torsions:
REMARK  status: ('A' for Active; 'I' for Inactive)
REMARK    1  A    between atoms: C3'_2  and  C2'_3 
REMARK    2  A    between atoms: C2'_3  and  C1'_4 
REMARK    3  A    between atoms: C1'_4  and  C1_5 
ROOT
ATOM      1  C1  N4B d   1      -0.966  -2.227   0.556  0.00  0.00    -0.075 A 
ATOM      2  C2  N4B d   1      -0.657  -3.234  -0.384  0.00  0.00     0.002 A 
ATOM      3  C3  N4B d   1      -1.410  -4.381  -0.435  0.00  0.00     0.002 A 
ATOM      4  C4  N4B d   1      -2.461  -4.551   0.454  0.00  0.00    -0.004 A 
ATOM      5  C5  N4B d   1      -2.770  -3.562   1.342  0.00  0.00     0.002 A 
ATOM      6  C6  N4B d   1      -2.024  -2.402   1.401  0.00  0.00     0.002 A 
ENDROOT
BRANCH   1   7
ATOM      7  C1' N4B d   1      -0.119  -0.993   0.706  0.00  0.00     0.057 C 
BRANCH   7   8
ATOM      8  C2' N4B d   1       0.946  -0.981  -0.386  0.00  0.00     0.009 C 
BRANCH   8   9
ATOM      9  C3' N4B d   1       2.276  -0.451   0.123  0.00  0.00     0.004 C 
ATOM     10  C4' N4B d   1       3.042  -1.468   0.915  0.00  0.00     0.003 C 
ENDBRANCH   8   9
ENDBRANCH   7   8
ENDBRANCH   1   7
TORSDOF 3
ENDMDL
