MODEL 1
REMARK minimizedAffinity 4.03116798
REMARK minimizedRMSD -1
REMARK  3 active torsions:
REMARK  status: ('A' for Active; 'I' for Inactive)
REMARK    1  A    between atoms: C3'_2  and  C2'_3 
REMARK    2  A    between atoms: C2'_3  and  C1'_4 
REMARK    3  A    between atoms: C1'_4  and  C1_5 
ROOT
ATOM      1  C1  N4B d   1       2.220  -0.563   0.705  0.00  0.00    -0.075 A 
ATOM      2  C2  N4B d   1       2.745  -0.108  -0.525  0.00  0.00     0.002 A 
ATOM      3  C3  N4B d   1       1.903   0.395  -1.486  0.00  0.00     0.002 A 
ATOM      4  C4  N4B d   1       0.537   0.436  -1.249  0.00  0.00    -0.004 A 
ATOM      5  C5  N4B d   1       0.041   0.019  -0.048  0.00  0.00     0.002 A 
ATOM      6  C6  N4B d   1       0.876  -0.486   0.929  0.00  0.00     0.002 A 
ENDROOT
BRANCH   1   7
ATOM      7  C1' N4B d   1       3.091  -1.201   1.753  0.00  0.00     0.057 C 
BRANCH   7   8
ATOM      8  C2' N4B d   1       2.263  -2.206   2.548  0.00  0.00     0.009 C 
BRANCH   8   9
ATOM      9  C3' N4B d   1       2.104  -1.790   4.000  0.00  0.00     0.004 C 
ATOM     10  C4' N4B d   1       0.670  -1.734   4.434  0.00  0.00     0.003 C 
ENDBRANCH   8   9
ENDBRANCH   7   8
ENDBRANCH   1   7
TORSDOF 3
ENDMDL
