MODEL 1
REMARK minimizedAffinity -2.19219899
REMARK minimizedRMSD -1
REMARK  3 active torsions:
REMARK  status: ('A' for Active; 'I' for Inactive)
REMARK    1  A    between atoms: C3'_2  and  C2'_3 
REMARK    2  A    between atoms: C2'_3  and  C1'_4 
REMARK    3  A    between atoms: C1'_4  and  C1_5 
ROOT
ATOM      1  C1  N4B d   1       1.194  -0.214   0.481  0.00  0.00    -0.075 A 
ATOM      2  C2  N4B d   1       2.222  -1.174   0.359  0.00  0.00     0.002 A 
ATOM      3  C3  N4B d   1       2.323  -2.193   1.274  0.00  0.00     0.002 A 
ATOM      4  C4  N4B d   1       1.422  -2.261   2.326  0.00  0.00    -0.004 A 
ATOM      5  C5  N4B d   1       0.416  -1.345   2.422  0.00  0.00     0.002 A 
ATOM      6  C6  N4B d   1       0.300  -0.318   1.507  0.00  0.00     0.002 A 
ENDROOT
BRANCH   1   7
ATOM      7  C1' N4B d   1       1.095   0.966  -0.447  0.00  0.00     0.057 C 
BRANCH   7   8
ATOM      8  C2' N4B d   1       1.951   0.705  -1.682  0.00  0.00     0.009 C 
BRANCH   8   9
ATOM      9  C3' N4B d   1       3.354   1.268  -1.532  0.00  0.00     0.004 C 
ATOM     10  C4' N4B d   1       4.326   0.675  -2.508  0.00  0.00     0.003 C 
ENDBRANCH   8   9
ENDBRANCH   7   8
ENDBRANCH   1   7
TORSDOF 3
ENDMDL
