MODEL 1
REMARK minimizedAffinity -1.48984456
REMARK minimizedRMSD -1
REMARK  3 active torsions:
REMARK  status: ('A' for Active; 'I' for Inactive)
REMARK    1  A    between atoms: C3'_2  and  C2'_3 
REMARK    2  A    between atoms: C2'_3  and  C1'_4 
REMARK    3  A    between atoms: C1'_4  and  C1_5 
ROOT
ATOM      1  C1  N4B d   1      -0.568   0.631   0.277  0.00  0.00    -0.075 A 
ATOM      2  C2  N4B d   1      -1.630   0.357   1.167  0.00  0.00     0.002 A 
ATOM      3  C3  N4B d   1      -1.432  -0.483   2.235  0.00  0.00     0.002 A 
ATOM      4  C4  N4B d   1      -0.191  -1.073   2.422  0.00  0.00    -0.004 A 
ATOM      5  C5  N4B d   1       0.837  -0.784   1.572  0.00  0.00     0.002 A 
ATOM      6  C6  N4B d   1       0.653   0.062   0.497  0.00  0.00     0.002 A 
ENDROOT
BRANCH   1   7
ATOM      7  C1' N4B d   1      -0.760   1.475  -0.953  0.00  0.00     0.057 C 
BRANCH   7   8
ATOM      8  C2' N4B d   1      -1.957   0.948  -1.740  0.00  0.00     0.009 C 
BRANCH   8   9
ATOM      9  C3' N4B d   1      -1.996   1.503  -3.154  0.00  0.00     0.004 C 
ATOM     10  C4' N4B d   1      -0.815   2.371  -3.470  0.00  0.00     0.003 C 
ENDBRANCH   8   9
ENDBRANCH   7   8
ENDBRANCH   1   7
TORSDOF 3
ENDMDL
