MODEL 1
REMARK minimizedAffinity 1.29446721
REMARK minimizedRMSD -1
REMARK  1 active torsions:
REMARK  status: ('A' for Active; 'I' for Inactive)
REMARK    1  A    between atoms: C1_2  and  C2_3 
ROOT
ATOM      1  C2  UNL d   1       1.960  -2.404   3.171  0.00  0.00    -0.077 A 
ATOM      2  C3  UNL d   1       2.840  -2.026   4.194  0.00  0.00     0.002 A 
ATOM      3  C4  UNL d   1       3.591  -2.989   4.872  0.00  0.00     0.002 A 
ATOM      4  C5  UNL d   1       3.472  -4.335   4.531  0.00  0.00    -0.004 A 
ATOM      5  C6  UNL d   1       2.597  -4.721   3.515  0.00  0.00     0.002 A 
ATOM      6  C7  UNL d   1       1.846  -3.760   2.838  0.00  0.00     0.002 A 
ENDROOT
BRANCH   1   7
ATOM      7  C1  UNL d   1       1.187  -1.362   2.406  0.00  0.00     0.055 C 
ATOM      8  C   UNL d   1       2.114  -0.472   1.591  0.00  0.00     0.019 C 
ENDBRANCH   1   7
TORSDOF 1
ENDMDL
