MODEL 1
REMARK minimizedAffinity -0.0670861229
REMARK minimizedRMSD -1
REMARK  1 active torsions:
REMARK  status: ('A' for Active; 'I' for Inactive)
REMARK    1  A    between atoms: C1_2  and  C2_3 
ROOT
ATOM      1  C2  UNL d   1       1.688  -2.725   3.669  0.00  0.00    -0.077 A 
ATOM      2  C3  UNL d   1       0.794  -3.755   3.990  0.00  0.00     0.002 A 
ATOM      3  C4  UNL d   1       0.974  -4.511   5.151  0.00  0.00     0.002 A 
ATOM      4  C5  UNL d   1       2.046  -4.241   6.000  0.00  0.00    -0.004 A 
ATOM      5  C6  UNL d   1       2.942  -3.220   5.687  0.00  0.00     0.002 A 
ATOM      6  C7  UNL d   1       2.764  -2.465   4.528  0.00  0.00     0.002 A 
ENDROOT
BRANCH   1   7
ATOM      7  C1  UNL d   1       1.467  -1.876   2.444  0.00  0.00     0.055 C 
ATOM      8  C   UNL d   1       1.993  -0.463   2.647  0.00  0.00     0.019 C 
ENDBRANCH   1   7
TORSDOF 1
ENDMDL
