MODEL 1
REMARK minimizedAffinity 5.17366838
REMARK minimizedRMSD -1
REMARK  1 active torsions:
REMARK  status: ('A' for Active; 'I' for Inactive)
REMARK    1  A    between atoms: C1_2  and  C2_3 
ROOT
ATOM      1  C2  UNL d   1       3.069  -5.939  -2.845  0.00  0.00    -0.077 A 
ATOM      2  C3  UNL d   1       1.891  -5.931  -3.606  0.00  0.00     0.002 A 
ATOM      3  C4  UNL d   1       1.951  -5.956  -5.001  0.00  0.00     0.002 A 
ATOM      4  C5  UNL d   1       3.186  -5.994  -5.646  0.00  0.00    -0.004 A 
ATOM      5  C6  UNL d   1       4.362  -6.000  -4.898  0.00  0.00     0.002 A 
ATOM      6  C7  UNL d   1       4.304  -5.973  -3.504  0.00  0.00     0.002 A 
ENDROOT
BRANCH   1   7
ATOM      7  C1  UNL d   1       3.005  -5.962  -1.340  0.00  0.00     0.055 C 
ATOM      8  C   UNL d   1       4.370  -5.694  -0.724  0.00  0.00     0.019 C 
ENDBRANCH   1   7
TORSDOF 1
ENDMDL
