MODEL 1
REMARK minimizedAffinity 6.24867249
REMARK minimizedRMSD -1
REMARK  1 active torsions:
REMARK  status: ('A' for Active; 'I' for Inactive)
REMARK    1  A    between atoms: C1_2  and  C2_3 
ROOT
ATOM      1  C2  UNL d   1       3.610  -3.076   3.896  0.00  0.00    -0.077 A 
ATOM      2  C3  UNL d   1       3.634  -3.252   5.286  0.00  0.00     0.002 A 
ATOM      3  C4  UNL d   1       4.824  -3.086   5.999  0.00  0.00     0.002 A 
ATOM      4  C5  UNL d   1       5.996  -2.739   5.330  0.00  0.00    -0.004 A 
ATOM      5  C6  UNL d   1       5.982  -2.563   3.947  0.00  0.00     0.002 A 
ATOM      6  C7  UNL d   1       4.795  -2.730   3.233  0.00  0.00     0.002 A 
ENDROOT
BRANCH   1   7
ATOM      7  C1  UNL d   1       2.319  -3.206   3.132  0.00  0.00     0.055 C 
ATOM      8  C   UNL d   1       1.684  -1.846   2.881  0.00  0.00     0.019 C 
ENDBRANCH   1   7
TORSDOF 1
ENDMDL
