MODEL 1
REMARK minimizedAffinity 7.15263271
REMARK minimizedRMSD -1
REMARK  1 active torsions:
REMARK  status: ('A' for Active; 'I' for Inactive)
REMARK    1  A    between atoms: C1_2  and  C2_3 
ROOT
ATOM      1  C2  UNL d   1       3.530  -2.697   4.271  0.00  0.00    -0.077 A 
ATOM      2  C3  UNL d   1       2.946  -3.910   3.880  0.00  0.00     0.002 A 
ATOM      3  C4  UNL d   1       1.885  -3.923   2.973  0.00  0.00     0.002 A 
ATOM      4  C5  UNL d   1       1.401  -2.727   2.446  0.00  0.00    -0.004 A 
ATOM      5  C6  UNL d   1       1.974  -1.515   2.830  0.00  0.00     0.002 A 
ATOM      6  C7  UNL d   1       3.035  -1.500   3.738  0.00  0.00     0.002 A 
ENDROOT
BRANCH   1   7
ATOM      7  C1  UNL d   1       4.707  -2.684   5.211  0.00  0.00     0.055 C 
ATOM      8  C   UNL d   1       5.999  -2.356   4.476  0.00  0.00     0.019 C 
ENDBRANCH   1   7
TORSDOF 1
ENDMDL
