MODEL 1
REMARK minimizedAffinity 7.98427534
REMARK minimizedRMSD -1
REMARK  1 active torsions:
REMARK  status: ('A' for Active; 'I' for Inactive)
REMARK    1  A    between atoms: C1_2  and  C2_3 
ROOT
ATOM      1  C2  UNL d   1       2.233  -3.756   3.126  0.00  0.00    -0.077 A 
ATOM      2  C3  UNL d   1       1.418  -3.335   2.066  0.00  0.00     0.002 A 
ATOM      3  C4  UNL d   1       1.340  -1.982   1.730  0.00  0.00     0.002 A 
ATOM      4  C5  UNL d   1       2.077  -1.041   2.446  0.00  0.00    -0.004 A 
ATOM      5  C6  UNL d   1       2.889  -1.450   3.503  0.00  0.00     0.002 A 
ATOM      6  C7  UNL d   1       2.967  -2.802   3.841  0.00  0.00     0.002 A 
ENDROOT
BRANCH   1   7
ATOM      7  C1  UNL d   1       2.356  -5.221   3.458  0.00  0.00     0.055 C 
ATOM      8  C   UNL d   1       3.376  -5.453   4.563  0.00  0.00     0.019 C 
ENDBRANCH   1   7
TORSDOF 1
ENDMDL
