MODEL 1
REMARK minimizedAffinity 0.952607989
REMARK minimizedRMSD -1
REMARK  1 active torsions:
REMARK  status: ('A' for Active; 'I' for Inactive)
REMARK    1  A    between atoms: C1_2  and  C2_3 
ROOT
ATOM      1  C2  UNL d   1       3.644  -5.888  -3.221  0.00  0.00    -0.077 A 
ATOM      2  C3  UNL d   1       4.959  -5.970  -3.700  0.00  0.00     0.002 A 
ATOM      3  C4  UNL d   1       5.210  -5.996  -5.073  0.00  0.00     0.002 A 
ATOM      4  C5  UNL d   1       4.152  -5.937  -5.978  0.00  0.00    -0.004 A 
ATOM      5  C6  UNL d   1       2.841  -5.857  -5.511  0.00  0.00     0.002 A 
ATOM      6  C7  UNL d   1       2.588  -5.832  -4.139  0.00  0.00     0.002 A 
ENDROOT
BRANCH   1   7
ATOM      7  C1  UNL d   1       3.374  -5.810  -1.741  0.00  0.00     0.055 C 
ATOM      8  C   UNL d   1       4.613  -5.371  -0.975  0.00  0.00     0.019 C 
ENDBRANCH   1   7
TORSDOF 1
ENDMDL
