MODEL 1
REMARK minimizedAffinity -3.49529028
REMARK minimizedRMSD -1
REMARK  0 active torsions:
REMARK  status: ('A' for Active; 'I' for Inactive)
ROOT
ATOM      1  C   UNL d   1      -0.629  -3.146  -0.288  0.00  0.00     0.124 A 
ATOM      2  C1  UNL d   1      -0.828  -2.384   0.855  0.00  0.00     0.062 A 
ATOM      3  C2  UNL d   1      -0.530  -1.025   0.851  0.00  0.00     0.162 A 
ATOM      4  C3  UNL d   1      -0.030  -0.418  -0.301  0.00  0.00    -0.034 A 
ATOM      5  C4  UNL d   1       0.168  -1.190  -1.446  0.00  0.00     0.162 A 
ATOM      6  C5  UNL d   1      -0.132  -2.549  -1.437  0.00  0.00     0.062 A 
ATOM      7  F   UNL d   1       0.061  -3.283  -2.542  0.00  0.00    -0.097 F 
ATOM      8  F1  UNL d   1       0.647  -0.639  -2.571  0.00  0.00    -0.096 F 
ATOM      9  I   UNL d   1       0.417   1.615  -0.311  0.00  0.00    -0.060 I 
ATOM     10  F2  UNL d   1      -0.732  -0.313   1.970  0.00  0.00    -0.096 F 
ATOM     11  F3  UNL d   1      -1.308  -2.959   1.968  0.00  0.00    -0.097 F 
ATOM     12  F4  UNL d   1      -0.916  -4.454  -0.280  0.00  0.00    -0.092 F 
ENDROOT
TORSDOF 0
ENDMDL
