MODEL 1
REMARK minimizedAffinity -1.49821568
REMARK minimizedRMSD -1
REMARK  0 active torsions:
REMARK  status: ('A' for Active; 'I' for Inactive)
ROOT
ATOM      1  C   UNL d   1       0.384   0.808  -1.330  0.00  0.00     0.124 A 
ATOM      2  C1  UNL d   1       0.480  -0.289  -2.175  0.00  0.00     0.062 A 
ATOM      3  C2  UNL d   1       0.144  -1.559  -1.715  0.00  0.00     0.162 A 
ATOM      4  C3  UNL d   1      -0.292  -1.739  -0.403  0.00  0.00    -0.034 A 
ATOM      5  C4  UNL d   1      -0.385  -0.632   0.442  0.00  0.00     0.162 A 
ATOM      6  C5  UNL d   1      -0.049   0.635  -0.023  0.00  0.00     0.062 A 
ATOM      7  F   UNL d   1      -0.142   1.694   0.796  0.00  0.00    -0.097 F 
ATOM      8  F1  UNL d   1      -0.801  -0.770   1.710  0.00  0.00    -0.096 F 
ATOM      9  I   UNL d   1      -0.795  -3.637   0.289  0.00  0.00    -0.060 I 
ATOM     10  F2  UNL d   1       0.247  -2.600  -2.554  0.00  0.00    -0.096 F 
ATOM     11  F3  UNL d   1       0.898  -0.125  -3.439  0.00  0.00    -0.097 F 
ATOM     12  F4  UNL d   1       0.708   2.029  -1.775  0.00  0.00    -0.092 F 
ENDROOT
TORSDOF 0
ENDMDL
