MODEL 1
REMARK minimizedAffinity -3.89282942
REMARK minimizedRMSD -1
REMARK  0 active torsions:
REMARK  status: ('A' for Active; 'I' for Inactive)
ROOT
ATOM      1  C   UNL d   1       0.300  -3.160  -0.533  0.00  0.00     0.124 A 
ATOM      2  C1  UNL d   1       0.339  -2.266  -1.593  0.00  0.00     0.062 A 
ATOM      3  C2  UNL d   1       0.179  -0.902  -1.365  0.00  0.00     0.162 A 
ATOM      4  C3  UNL d   1      -0.020  -0.424  -0.070  0.00  0.00    -0.034 A 
ATOM      5  C4  UNL d   1      -0.059  -1.329   0.991  0.00  0.00     0.162 A 
ATOM      6  C5  UNL d   1       0.101  -2.691   0.758  0.00  0.00     0.062 A 
ATOM      7  F   UNL d   1       0.062  -3.554   1.784  0.00  0.00    -0.097 F 
ATOM      8  F1  UNL d   1      -0.249  -0.903   2.249  0.00  0.00    -0.096 F 
ATOM      9  I   UNL d   1      -0.259   1.615   0.275  0.00  0.00    -0.060 I 
ATOM     10  F2  UNL d   1       0.222  -0.061  -2.409  0.00  0.00    -0.096 F 
ATOM     11  F3  UNL d   1       0.530  -2.717  -2.842  0.00  0.00    -0.097 F 
ATOM     12  F4  UNL d   1       0.452  -4.472  -0.755  0.00  0.00    -0.092 F 
ENDROOT
TORSDOF 0
ENDMDL
