MODEL 1
REMARK minimizedAffinity 0.716331124
REMARK minimizedRMSD -1
REMARK  0 active torsions:
REMARK  status: ('A' for Active; 'I' for Inactive)
ROOT
ATOM      1  C   UNL d   1      -0.474  -2.854  -0.377  0.00  0.00     0.124 A 
ATOM      2  C1  UNL d   1      -1.232  -2.103   0.511  0.00  0.00     0.062 A 
ATOM      3  C2  UNL d   1      -0.910  -0.771   0.753  0.00  0.00     0.162 A 
ATOM      4  C3  UNL d   1       0.175  -0.180   0.106  0.00  0.00    -0.034 A 
ATOM      5  C4  UNL d   1       0.933  -0.942  -0.785  0.00  0.00     0.162 A 
ATOM      6  C5  UNL d   1       0.607  -2.273  -1.024  0.00  0.00     0.062 A 
ATOM      7  F   UNL d   1       1.341  -2.997  -1.882  0.00  0.00    -0.097 F 
ATOM      8  F1  UNL d   1       1.983  -0.405  -1.425  0.00  0.00    -0.096 F 
ATOM      9  I   UNL d   1       0.660   1.812   0.465  0.00  0.00    -0.060 I 
ATOM     10  F2  UNL d   1      -1.660  -0.069   1.616  0.00  0.00    -0.096 F 
ATOM     11  F3  UNL d   1      -2.277  -2.662   1.138  0.00  0.00    -0.097 F 
ATOM     12  F4  UNL d   1      -0.786  -4.136  -0.607  0.00  0.00    -0.092 F 
ENDROOT
TORSDOF 0
ENDMDL
