MODEL 1
REMARK minimizedAffinity -5.54834223
REMARK minimizedRMSD -1
REMARK  0 active torsions:
REMARK  status: ('A' for Active; 'I' for Inactive)
ROOT
ATOM      1  C   UNL d   1      -0.194  -3.113  -0.942  0.00  0.00     0.124 A 
ATOM      2  C1  UNL d   1      -0.248  -2.595   0.345  0.00  0.00     0.062 A 
ATOM      3  C2  UNL d   1      -0.078  -1.230   0.558  0.00  0.00     0.162 A 
ATOM      4  C3  UNL d   1       0.145  -0.372  -0.519  0.00  0.00    -0.034 A 
ATOM      5  C4  UNL d   1       0.199  -0.900  -1.810  0.00  0.00     0.162 A 
ATOM      6  C5  UNL d   1       0.029  -2.265  -2.018  0.00  0.00     0.062 A 
ATOM      7  F   UNL d   1       0.081  -2.763  -3.262  0.00  0.00    -0.097 F 
ATOM      8  F1  UNL d   1       0.413  -0.104  -2.868  0.00  0.00    -0.096 F 
ATOM      9  I   UNL d   1       0.399   1.669  -0.204  0.00  0.00    -0.060 I 
ATOM     10  F2  UNL d   1      -0.135  -0.758   1.812  0.00  0.00    -0.096 F 
ATOM     11  F3  UNL d   1      -0.463  -3.412   1.386  0.00  0.00    -0.097 F 
ATOM     12  F4  UNL d   1      -0.357  -4.427  -1.144  0.00  0.00    -0.092 F 
ENDROOT
TORSDOF 0
ENDMDL
