MODEL 1
REMARK minimizedAffinity -2.64875627
REMARK minimizedRMSD -1
REMARK  0 active torsions:
REMARK  status: ('A' for Active; 'I' for Inactive)
ROOT
ATOM      1  C   UNL d   1      -0.015  -2.995  -1.192  0.00  0.00     0.124 A 
ATOM      2  C1  UNL d   1      -0.409  -2.374  -0.015  0.00  0.00     0.062 A 
ATOM      3  C2  UNL d   1      -0.318  -0.991   0.111  0.00  0.00     0.162 A 
ATOM      4  C3  UNL d   1       0.167  -0.218  -0.944  0.00  0.00    -0.034 A 
ATOM      5  C4  UNL d   1       0.562  -0.850  -2.125  0.00  0.00     0.162 A 
ATOM      6  C5  UNL d   1       0.469  -2.233  -2.246  0.00  0.00     0.062 A 
ATOM      7  F   UNL d   1       0.850  -2.831  -3.384  0.00  0.00    -0.097 F 
ATOM      8  F1  UNL d   1       1.032  -0.138  -3.159  0.00  0.00    -0.096 F 
ATOM      9  I   UNL d   1       0.304   1.850  -0.760  0.00  0.00    -0.060 I 
ATOM     10  F2  UNL d   1      -0.705  -0.417   1.260  0.00  0.00    -0.096 F 
ATOM     11  F3  UNL d   1      -0.876  -3.108   1.005  0.00  0.00    -0.097 F 
ATOM     12  F4  UNL d   1      -0.102  -4.326  -1.310  0.00  0.00    -0.092 F 
ENDROOT
TORSDOF 0
ENDMDL
