MODEL 1
REMARK minimizedAffinity -4.77931547
REMARK minimizedRMSD -1
REMARK  0 active torsions:
REMARK  status: ('A' for Active; 'I' for Inactive)
ROOT
ATOM      1  C   UNL d   1       0.253  -3.036  -0.843  0.00  0.00     0.124 A 
ATOM      2  C1  UNL d   1       0.441  -2.199  -1.935  0.00  0.00     0.062 A 
ATOM      3  C2  UNL d   1       0.490  -0.820  -1.759  0.00  0.00     0.162 A 
ATOM      4  C3  UNL d   1       0.351  -0.267  -0.486  0.00  0.00    -0.034 A 
ATOM      5  C4  UNL d   1       0.162  -1.115   0.607  0.00  0.00     0.162 A 
ATOM      6  C5  UNL d   1       0.114  -2.493   0.426  0.00  0.00     0.062 A 
ATOM      7  F   UNL d   1      -0.068  -3.300   1.482  0.00  0.00    -0.097 F 
ATOM      8  F1  UNL d   1       0.025  -0.617   1.845  0.00  0.00    -0.096 F 
ATOM      9  I   UNL d   1       0.424   1.796  -0.218  0.00  0.00    -0.060 I 
ATOM     10  F2  UNL d   1       0.672  -0.035  -2.832  0.00  0.00    -0.096 F 
ATOM     11  F3  UNL d   1       0.575  -2.721  -3.163  0.00  0.00    -0.097 F 
ATOM     12  F4  UNL d   1       0.205  -4.363  -1.015  0.00  0.00    -0.092 F 
ENDROOT
TORSDOF 0
ENDMDL
