MODEL 1
REMARK minimizedAffinity -3.86906028
REMARK minimizedRMSD -1
REMARK  0 active torsions:
REMARK  status: ('A' for Active; 'I' for Inactive)
ROOT
ATOM      1  C   UNL d   1      -0.352  -2.909  -0.828  0.00  0.00     0.124 A 
ATOM      2  C1  UNL d   1      -0.697  -2.316   0.379  0.00  0.00     0.062 A 
ATOM      3  C2  UNL d   1      -0.563  -0.940   0.546  0.00  0.00     0.162 A 
ATOM      4  C3  UNL d   1      -0.084  -0.148  -0.497  0.00  0.00    -0.034 A 
ATOM      5  C4  UNL d   1       0.262  -0.752  -1.707  0.00  0.00     0.162 A 
ATOM      6  C5  UNL d   1       0.127  -2.127  -1.869  0.00  0.00     0.062 A 
ATOM      7  F   UNL d   1       0.461  -2.698  -3.035  0.00  0.00    -0.097 F 
ATOM      8  F1  UNL d   1       0.727  -0.020  -2.731  0.00  0.00    -0.096 F 
ATOM      9  I   UNL d   1       0.117   1.909  -0.251  0.00  0.00    -0.060 I 
ATOM     10  F2  UNL d   1      -0.904  -0.394   1.723  0.00  0.00    -0.096 F 
ATOM     11  F3  UNL d   1      -1.159  -3.069   1.387  0.00  0.00    -0.097 F 
ATOM     12  F4  UNL d   1      -0.480  -4.233  -0.985  0.00  0.00    -0.092 F 
ENDROOT
TORSDOF 0
ENDMDL
