MODEL 1
REMARK minimizedAffinity 3.79656267
REMARK minimizedRMSD -1
REMARK  0 active torsions:
REMARK  status: ('A' for Active; 'I' for Inactive)
ROOT
ATOM      1  C   UNL d   1      -1.111  -1.708   1.344  0.00  0.00     0.124 A 
ATOM      2  C1  UNL d   1      -1.097  -0.427   1.879  0.00  0.00     0.062 A 
ATOM      3  C2  UNL d   1      -0.402   0.593   1.237  0.00  0.00     0.162 A 
ATOM      4  C3  UNL d   1       0.286   0.337   0.050  0.00  0.00    -0.034 A 
ATOM      5  C4  UNL d   1       0.268  -0.954  -0.482  0.00  0.00     0.162 A 
ATOM      6  C5  UNL d   1      -0.428  -1.970   0.164  0.00  0.00     0.062 A 
ATOM      7  F   UNL d   1      -0.440  -3.206  -0.355  0.00  0.00    -0.097 F 
ATOM      8  F1  UNL d   1       0.919  -1.235  -1.621  0.00  0.00    -0.096 F 
ATOM      9  I   UNL d   1       1.328   1.859  -0.913  0.00  0.00    -0.060 I 
ATOM     10  F2  UNL d   1      -0.406   1.820   1.777  0.00  0.00    -0.096 F 
ATOM     11  F3  UNL d   1      -1.756  -0.172   3.019  0.00  0.00    -0.097 F 
ATOM     12  F4  UNL d   1      -1.781  -2.688   1.964  0.00  0.00    -0.092 F 
ENDROOT
TORSDOF 0
ENDMDL
