MODEL 1
REMARK minimizedAffinity -5.7406559
REMARK minimizedRMSD -1
REMARK  0 active torsions:
REMARK  status: ('A' for Active; 'I' for Inactive)
ROOT
ATOM      1  C   UNL d   1       0.110  -2.850  -0.606  0.00  0.00     0.124 A 
ATOM      2  C1  UNL d   1       0.030  -2.303   0.667  0.00  0.00     0.062 A 
ATOM      3  C2  UNL d   1       0.016  -0.921   0.836  0.00  0.00     0.162 A 
ATOM      4  C3  UNL d   1       0.080  -0.076  -0.272  0.00  0.00    -0.034 A 
ATOM      5  C4  UNL d   1       0.161  -0.634  -1.550  0.00  0.00     0.162 A 
ATOM      6  C5  UNL d   1       0.176  -2.015  -1.713  0.00  0.00     0.062 A 
ATOM      7  F   UNL d   1       0.253  -2.542  -2.944  0.00  0.00    -0.097 F 
ATOM      8  F1  UNL d   1       0.224   0.150  -2.636  0.00  0.00    -0.096 F 
ATOM      9  I   UNL d   1       0.059   1.990  -0.024  0.00  0.00    -0.060 I 
ATOM     10  F2  UNL d   1      -0.062  -0.421   2.078  0.00  0.00    -0.096 F 
ATOM     11  F3  UNL d   1      -0.032  -3.107   1.738  0.00  0.00    -0.097 F 
ATOM     12  F4  UNL d   1       0.125  -4.179  -0.766  0.00  0.00    -0.092 F 
ENDROOT
TORSDOF 0
ENDMDL
