MODEL 1
REMARK minimizedAffinity -5.30614233
REMARK minimizedRMSD -1
REMARK  0 active torsions:
REMARK  status: ('A' for Active; 'I' for Inactive)
ROOT
ATOM      1  C   UNL d   1      -0.159  -3.421  -0.466  0.00  0.00     0.124 A 
ATOM      2  C1  UNL d   1       0.110  -2.749  -1.650  0.00  0.00     0.062 A 
ATOM      3  C2  UNL d   1       0.294  -1.370  -1.646  0.00  0.00     0.162 A 
ATOM      4  C3  UNL d   1       0.211  -0.652  -0.453  0.00  0.00    -0.034 A 
ATOM      5  C4  UNL d   1      -0.061  -1.335   0.734  0.00  0.00     0.162 A 
ATOM      6  C5  UNL d   1      -0.244  -2.714   0.725  0.00  0.00     0.062 A 
ATOM      7  F   UNL d   1      -0.503  -3.362   1.870  0.00  0.00    -0.097 F 
ATOM      8  F1  UNL d   1      -0.147  -0.677   1.900  0.00  0.00    -0.096 F 
ATOM      9  I   UNL d   1       0.486   1.411  -0.442  0.00  0.00    -0.060 I 
ATOM     10  F2  UNL d   1       0.552  -0.746  -2.805  0.00  0.00    -0.096 F 
ATOM     11  F3  UNL d   1       0.191  -3.430  -2.803  0.00  0.00    -0.097 F 
ATOM     12  F4  UNL d   1      -0.337  -4.749  -0.474  0.00  0.00    -0.092 F 
ENDROOT
TORSDOF 0
ENDMDL
