MODEL 1
REMARK minimizedAffinity 0.842609465
REMARK minimizedRMSD -1
REMARK  0 active torsions:
REMARK  status: ('A' for Active; 'I' for Inactive)
ROOT
ATOM      1  C   UNL d   1      -1.005  -1.512   1.511  0.00  0.00     0.124 A 
ATOM      2  C1  UNL d   1      -1.270  -0.210   1.913  0.00  0.00     0.062 A 
ATOM      3  C2  UNL d   1      -0.494   0.842   1.434  0.00  0.00     0.162 A 
ATOM      4  C3  UNL d   1       0.553   0.596   0.546  0.00  0.00    -0.034 A 
ATOM      5  C4  UNL d   1       0.813  -0.716   0.146  0.00  0.00     0.162 A 
ATOM      6  C5  UNL d   1       0.035  -1.764   0.628  0.00  0.00     0.062 A 
ATOM      7  F   UNL d   1       0.292  -3.021   0.238  0.00  0.00    -0.097 F 
ATOM      8  F1  UNL d   1       1.812  -0.987  -0.707  0.00  0.00    -0.096 F 
ATOM      9  I   UNL d   1       1.715   2.166  -0.173  0.00  0.00    -0.060 I 
ATOM     10  F2  UNL d   1      -0.772   2.089   1.840  0.00  0.00    -0.096 F 
ATOM     11  F3  UNL d   1      -2.274   0.035   2.767  0.00  0.00    -0.097 F 
ATOM     12  F4  UNL d   1      -1.752  -2.522   1.974  0.00  0.00    -0.092 F 
ENDROOT
TORSDOF 0
ENDMDL
