MODEL 1
REMARK minimizedAffinity -2.28739929
REMARK minimizedRMSD -1
REMARK  0 active torsions:
REMARK  status: ('A' for Active; 'I' for Inactive)
ROOT
ATOM      1  C   UNL d   1       0.107  -3.046  -0.542  0.00  0.00     0.124 A 
ATOM      2  C1  UNL d   1       0.181  -2.264  -1.686  0.00  0.00     0.062 A 
ATOM      3  C2  UNL d   1       0.087  -0.878  -1.594  0.00  0.00     0.162 A 
ATOM      4  C3  UNL d   1      -0.082  -0.265  -0.353  0.00  0.00    -0.034 A 
ATOM      5  C4  UNL d   1      -0.157  -1.059   0.793  0.00  0.00     0.162 A 
ATOM      6  C5  UNL d   1      -0.062  -2.443   0.696  0.00  0.00     0.062 A 
ATOM      7  F   UNL d   1      -0.135  -3.197   1.803  0.00  0.00    -0.097 F 
ATOM      8  F1  UNL d   1      -0.319  -0.502   2.003  0.00  0.00    -0.096 F 
ATOM      9  I   UNL d   1      -0.223   1.806  -0.211  0.00  0.00    -0.060 I 
ATOM     10  F2  UNL d   1       0.163  -0.147  -2.716  0.00  0.00    -0.096 F 
ATOM     11  F3  UNL d   1       0.344  -2.844  -2.884  0.00  0.00    -0.097 F 
ATOM     12  F4  UNL d   1       0.197  -4.379  -0.634  0.00  0.00    -0.092 F 
ENDROOT
TORSDOF 0
ENDMDL
