MODEL 1
REMARK minimizedAffinity -4.0650239
REMARK minimizedRMSD -1
REMARK  0 active torsions:
REMARK  status: ('A' for Active; 'I' for Inactive)
ROOT
ATOM      1  C   UNL d   1       0.410  -2.517  -1.988  0.00  0.00     0.124 A 
ATOM      2  C1  UNL d   1       0.103  -1.171  -2.131  0.00  0.00     0.062 A 
ATOM      3  C2  UNL d   1      -0.395  -0.448  -1.052  0.00  0.00     0.162 A 
ATOM      4  C3  UNL d   1      -0.589  -1.070   0.182  0.00  0.00    -0.034 A 
ATOM      5  C4  UNL d   1      -0.279  -2.424   0.318  0.00  0.00     0.162 A 
ATOM      6  C5  UNL d   1       0.219  -3.142  -0.764  0.00  0.00     0.062 A 
ATOM      7  F   UNL d   1       0.516  -4.442  -0.624  0.00  0.00    -0.097 F 
ATOM      8  F1  UNL d   1      -0.452  -3.053   1.490  0.00  0.00    -0.096 F 
ATOM      9  I   UNL d   1      -1.334   0.008   1.799  0.00  0.00    -0.060 I 
ATOM     10  F2  UNL d   1      -0.684   0.851  -1.218  0.00  0.00    -0.096 F 
ATOM     11  F3  UNL d   1       0.286  -0.565  -3.313  0.00  0.00    -0.097 F 
ATOM     12  F4  UNL d   1       0.889  -3.210  -3.029  0.00  0.00    -0.092 F 
ENDROOT
TORSDOF 0
ENDMDL
