MODEL 1
REMARK minimizedAffinity -4.24487209
REMARK minimizedRMSD -1
REMARK  0 active torsions:
REMARK  status: ('A' for Active; 'I' for Inactive)
ROOT
ATOM      1  C   UNL d   1      -0.290  -0.534   1.370  0.00  0.00     0.124 A 
ATOM      2  C1  UNL d   1      -0.282   0.289   0.252  0.00  0.00     0.062 A 
ATOM      3  C2  UNL d   1      -0.200  -0.263  -1.023  0.00  0.00     0.162 A 
ATOM      4  C3  UNL d   1      -0.126  -1.647  -1.188  0.00  0.00    -0.034 A 
ATOM      5  C4  UNL d   1      -0.134  -2.468  -0.059  0.00  0.00     0.162 A 
ATOM      6  C5  UNL d   1      -0.216  -1.911   1.213  0.00  0.00     0.062 A 
ATOM      7  F   UNL d   1      -0.224  -2.708   2.292  0.00  0.00    -0.097 F 
ATOM      8  F1  UNL d   1      -0.064  -3.802  -0.181  0.00  0.00    -0.096 F 
ATOM      9  I   UNL d   1      -0.003  -2.476  -3.093  0.00  0.00    -0.060 I 
ATOM     10  F2  UNL d   1      -0.194   0.556  -2.085  0.00  0.00    -0.096 F 
ATOM     11  F3  UNL d   1      -0.353   1.619   0.400  0.00  0.00    -0.097 F 
ATOM     12  F4  UNL d   1      -0.368  -0.000   2.595  0.00  0.00    -0.092 F 
ENDROOT
TORSDOF 0
ENDMDL
