MODEL 1
REMARK minimizedAffinity -3.18056011
REMARK minimizedRMSD -1
REMARK  0 active torsions:
REMARK  status: ('A' for Active; 'I' for Inactive)
ROOT
ATOM      1  C   UNL d   1       2.353  -1.060  -0.213  0.00  0.00    -0.002 A 
ATOM      2  C1  UNL d   1       1.478  -0.106  -0.711  0.00  0.00     0.010 A 
ATOM      3  C2  UNL d   1       0.280   0.173  -0.050  0.00  0.00     0.041 A 
ATOM      4  C3  UNL d   1      -0.026  -0.529   1.132  0.00  0.00    -0.075 A 
ATOM      5  S   UNL d   1      -1.435  -0.354   2.110  0.00  0.00     0.015 SA
ATOM      6  C4  UNL d   1      -0.908  -1.541   3.213  0.00  0.00     0.022 A 
ATOM      7  C5  UNL d   1       0.311  -2.069   2.859  0.00  0.00     0.026 A 
ATOM      8  C6  UNL d   1       0.840  -1.494   1.654  0.00  0.00    -0.082 A 
ATOM      9  C7  UNL d   1       2.046  -1.755   0.960  0.00  0.00     0.045 A 
ENDROOT
TORSDOF 0
ENDMDL
