MODEL 1
REMARK minimizedAffinity 0.933015585
REMARK minimizedRMSD -1
REMARK  0 active torsions:
REMARK  status: ('A' for Active; 'I' for Inactive)
ROOT
ATOM      1  C   UNL d   1       2.590  -1.851   0.784  0.00  0.00    -0.002 A 
ATOM      2  C1  UNL d   1       1.756  -2.037   1.878  0.00  0.00     0.010 A 
ATOM      3  C2  UNL d   1       0.547  -1.345   1.976  0.00  0.00     0.041 A 
ATOM      4  C3  UNL d   1       0.186  -0.456   0.945  0.00  0.00    -0.075 A 
ATOM      5  S   UNL d   1      -1.247   0.499   0.851  0.00  0.00     0.015 SA
ATOM      6  C4  UNL d   1      -0.787   1.176  -0.645  0.00  0.00     0.022 A 
ATOM      7  C5  UNL d   1       0.428   0.697  -1.076  0.00  0.00     0.026 A 
ATOM      8  C6  UNL d   1       1.008  -0.252  -0.167  0.00  0.00    -0.082 A 
ATOM      9  C7  UNL d   1       2.227  -0.968  -0.237  0.00  0.00     0.045 A 
ENDROOT
TORSDOF 0
ENDMDL
