MODEL 1
REMARK minimizedAffinity -0.8483904
REMARK minimizedRMSD -1
REMARK  0 active torsions:
REMARK  status: ('A' for Active; 'I' for Inactive)
ROOT
ATOM      1  C   UNL d   1       2.472  -0.146  -0.808  0.00  0.00    -0.002 A 
ATOM      2  C1  UNL d   1       2.590  -0.890   0.357  0.00  0.00     0.010 A 
ATOM      3  C2  UNL d   1       1.492  -1.069   1.201  0.00  0.00     0.041 A 
ATOM      4  C3  UNL d   1       0.260  -0.482   0.849  0.00  0.00    -0.075 A 
ATOM      5  S   UNL d   1      -1.220  -0.568   1.729  0.00  0.00     0.015 SA
ATOM      6  C4  UNL d   1      -2.045   0.381   0.578  0.00  0.00     0.022 A 
ATOM      7  C5  UNL d   1      -1.226   0.762  -0.458  0.00  0.00     0.026 A 
ATOM      8  C6  UNL d   1       0.116   0.271  -0.319  0.00  0.00    -0.082 A 
ATOM      9  C7  UNL d   1       1.248   0.434  -1.153  0.00  0.00     0.045 A 
ENDROOT
TORSDOF 0
ENDMDL
