MODEL 1
REMARK minimizedAffinity -3.54195452
REMARK minimizedRMSD -1
REMARK  0 active torsions:
REMARK  status: ('A' for Active; 'I' for Inactive)
ROOT
ATOM      1  C   UNL d   1       1.390  -1.375   0.769  0.00  0.00    -0.002 A 
ATOM      2  C1  UNL d   1       1.682  -1.223  -0.579  0.00  0.00     0.010 A 
ATOM      3  C2  UNL d   1       0.855  -0.457  -1.403  0.00  0.00     0.041 A 
ATOM      4  C3  UNL d   1      -0.281   0.162  -0.844  0.00  0.00    -0.075 A 
ATOM      5  S   UNL d   1      -1.436   1.147  -1.660  0.00  0.00     0.015 SA
ATOM      6  C4  UNL d   1      -2.344   1.391  -0.239  0.00  0.00     0.022 A 
ATOM      7  C5  UNL d   1      -1.793   0.743   0.842  0.00  0.00     0.026 A 
ATOM      8  C6  UNL d   1      -0.595   0.025   0.511  0.00  0.00    -0.082 A 
ATOM      9  C7  UNL d   1       0.262  -0.759   1.320  0.00  0.00     0.045 A 
ENDROOT
TORSDOF 0
ENDMDL
