MODEL 1
REMARK minimizedAffinity -2.97987604
REMARK minimizedRMSD -1
REMARK  0 active torsions:
REMARK  status: ('A' for Active; 'I' for Inactive)
ROOT
ATOM      1  C   UNL d   1       1.911  -1.899   1.113  0.00  0.00    -0.002 A 
ATOM      2  C1  UNL d   1       2.072  -1.580  -0.228  0.00  0.00     0.010 A 
ATOM      3  C2  UNL d   1       1.189  -0.703  -0.861  0.00  0.00     0.041 A 
ATOM      4  C3  UNL d   1       0.132  -0.145  -0.116  0.00  0.00    -0.075 A 
ATOM      5  S   UNL d   1      -1.071   0.954  -0.680  0.00  0.00     0.015 SA
ATOM      6  C4  UNL d   1      -1.827   1.027   0.846  0.00  0.00     0.022 A 
ATOM      7  C5  UNL d   1      -1.190   0.238   1.775  0.00  0.00     0.026 A 
ATOM      8  C6  UNL d   1      -0.051  -0.450   1.236  0.00  0.00    -0.082 A 
ATOM      9  C7  UNL d   1       0.861  -1.343   1.849  0.00  0.00     0.045 A 
ENDROOT
TORSDOF 0
ENDMDL
