MODEL 1
REMARK minimizedAffinity 0.256090432
REMARK minimizedRMSD -1
REMARK  0 active torsions:
REMARK  status: ('A' for Active; 'I' for Inactive)
ROOT
ATOM      1  C   UNL d   1       0.278   1.088   0.395  0.00  0.00    -0.002 A 
ATOM      2  C1  UNL d   1      -0.582   0.130   0.912  0.00  0.00     0.010 A 
ATOM      3  C2  UNL d   1      -1.678  -0.315   0.170  0.00  0.00     0.041 A 
ATOM      4  C3  UNL d   1      -1.894   0.222  -1.114  0.00  0.00    -0.075 A 
ATOM      5  S   UNL d   1      -3.170  -0.173  -2.205  0.00  0.00     0.015 SA
ATOM      6  C4  UNL d   1      -2.601   0.920  -3.383  0.00  0.00     0.022 A 
ATOM      7  C5  UNL d   1      -1.468   1.579  -2.971  0.00  0.00     0.026 A 
ATOM      8  C6  UNL d   1      -1.041   1.187  -1.657  0.00  0.00    -0.082 A 
ATOM      9  C7  UNL d   1       0.060   1.619  -0.879  0.00  0.00     0.045 A 
ENDROOT
TORSDOF 0
ENDMDL
