MODEL 1
REMARK minimizedAffinity -5.47914457
REMARK minimizedRMSD -1
REMARK  0 active torsions:
REMARK  status: ('A' for Active; 'I' for Inactive)
ROOT
ATOM      1  C   UNL d   1       0.059  -1.463   0.351  0.00  0.00    -0.002 A 
ATOM      2  C1  UNL d   1       1.034  -0.712  -0.291  0.00  0.00     0.010 A 
ATOM      3  C2  UNL d   1       0.682   0.398  -1.061  0.00  0.00     0.041 A 
ATOM      4  C3  UNL d   1      -0.679   0.746  -1.175  0.00  0.00    -0.075 A 
ATOM      5  S   UNL d   1      -1.344   2.065  -2.064  0.00  0.00     0.015 SA
ATOM      6  C4  UNL d   1      -2.937   1.663  -1.611  0.00  0.00     0.022 A 
ATOM      7  C5  UNL d   1      -2.979   0.552  -0.803  0.00  0.00     0.026 A 
ATOM      8  C6  UNL d   1      -1.678   0.005  -0.537  0.00  0.00    -0.082 A 
ATOM      9  C7  UNL d   1      -1.289  -1.115   0.236  0.00  0.00     0.045 A 
ENDROOT
TORSDOF 0
ENDMDL
