MODEL 1
REMARK minimizedAffinity 9.80346584
REMARK minimizedRMSD -1
REMARK  0 active torsions:
REMARK  status: ('A' for Active; 'I' for Inactive)
ROOT
ATOM      1  C   UNL d   1      -4.670  -4.590   1.692  0.00  0.00    -0.002 A 
ATOM      2  C1  UNL d   1      -3.429  -4.174   1.230  0.00  0.00     0.010 A 
ATOM      3  C2  UNL d   1      -3.070  -4.358  -0.107  0.00  0.00     0.041 A 
ATOM      4  C3  UNL d   1      -3.989  -4.972  -0.980  0.00  0.00    -0.075 A 
ATOM      5  S   UNL d   1      -3.768  -5.300  -2.658  0.00  0.00     0.015 SA
ATOM      6  C4  UNL d   1      -5.315  -6.000  -2.802  0.00  0.00     0.022 A 
ATOM      7  C5  UNL d   1      -5.997  -5.992  -1.609  0.00  0.00     0.026 A 
ATOM      8  C6  UNL d   1      -5.245  -5.399  -0.539  0.00  0.00    -0.082 A 
ATOM      9  C7  UNL d   1      -5.578  -5.199   0.822  0.00  0.00     0.045 A 
ENDROOT
TORSDOF 0
ENDMDL
