MODEL 1
REMARK minimizedAffinity 9.09463882
REMARK minimizedRMSD -1
REMARK  0 active torsions:
REMARK  status: ('A' for Active; 'I' for Inactive)
ROOT
ATOM      1  C   UNL d   1       0.771   0.370   0.850  0.00  0.00    -0.002 A 
ATOM      2  C1  UNL d   1       1.450  -0.822   0.646  0.00  0.00     0.010 A 
ATOM      3  C2  UNL d   1       2.588  -0.863  -0.162  0.00  0.00     0.041 A 
ATOM      4  C3  UNL d   1       3.037   0.328  -0.767  0.00  0.00    -0.075 A 
ATOM      5  S   UNL d   1       4.406   0.518  -1.797  0.00  0.00     0.015 SA
ATOM      6  C4  UNL d   1       4.123   2.188  -1.990  0.00  0.00     0.022 A 
ATOM      7  C5  UNL d   1       3.014   2.606  -1.293  0.00  0.00     0.026 A 
ATOM      8  C6  UNL d   1       2.370   1.541  -0.576  0.00  0.00    -0.082 A 
ATOM      9  C7  UNL d   1       1.220   1.549   0.248  0.00  0.00     0.045 A 
ENDROOT
TORSDOF 0
ENDMDL
