MODEL 1
REMARK minimizedAffinity 7.18424749
REMARK minimizedRMSD -1
REMARK  0 active torsions:
REMARK  status: ('A' for Active; 'I' for Inactive)
ROOT
ATOM      1  C   UNL d   1      -6.000  -5.999  -2.019  0.00  0.00    -0.002 A 
ATOM      2  C1  UNL d   1      -5.018  -5.318  -2.724  0.00  0.00     0.010 A 
ATOM      3  C2  UNL d   1      -4.015  -4.619  -2.050  0.00  0.00     0.041 A 
ATOM      4  C3  UNL d   1      -4.014  -4.618  -0.641  0.00  0.00    -0.075 A 
ATOM      5  S   UNL d   1      -2.885  -3.832   0.397  0.00  0.00     0.015 SA
ATOM      6  C4  UNL d   1      -3.678  -4.383   1.801  0.00  0.00     0.022 A 
ATOM      7  C5  UNL d   1      -4.780  -5.149   1.504  0.00  0.00     0.026 A 
ATOM      8  C6  UNL d   1      -4.992  -5.297   0.091  0.00  0.00    -0.082 A 
ATOM      9  C7  UNL d   1      -5.996  -5.996  -0.622  0.00  0.00     0.045 A 
ENDROOT
TORSDOF 0
ENDMDL
