MODEL 1
REMARK minimizedAffinity 2.48125958
REMARK minimizedRMSD -1
REMARK  0 active torsions:
REMARK  status: ('A' for Active; 'I' for Inactive)
ROOT
ATOM      1  C   UNL d   1       0.028  -0.436  -0.140  0.00  0.00    -0.002 A 
ATOM      2  C1  UNL d   1       0.471   0.697   0.528  0.00  0.00     0.010 A 
ATOM      3  C2  UNL d   1       0.188   1.971   0.031  0.00  0.00     0.041 A 
ATOM      4  C3  UNL d   1      -0.556   2.088  -1.159  0.00  0.00    -0.075 A 
ATOM      5  S   UNL d   1      -1.023   3.546  -1.953  0.00  0.00     0.015 SA
ATOM      6  C4  UNL d   1      -1.823   2.699  -3.198  0.00  0.00     0.022 A 
ATOM      7  C5  UNL d   1      -1.745   1.337  -3.027  0.00  0.00     0.026 A 
ATOM      8  C6  UNL d   1      -1.015   0.963  -1.849  0.00  0.00    -0.082 A 
ATOM      9  C7  UNL d   1      -0.711  -0.315  -1.320  0.00  0.00     0.045 A 
ENDROOT
TORSDOF 0
ENDMDL
