MODEL 1
REMARK minimizedAffinity -0.193344831
REMARK minimizedRMSD -1
REMARK  0 active torsions:
REMARK  status: ('A' for Active; 'I' for Inactive)
ROOT
ATOM      1  C   UNL d   1      -0.865   0.291   1.075  0.00  0.00    -0.002 A 
ATOM      2  C1  UNL d   1      -1.951  -0.437   0.611  0.00  0.00     0.010 A 
ATOM      3  C2  UNL d   1      -2.475  -0.198  -0.662  0.00  0.00     0.041 A 
ATOM      4  C3  UNL d   1      -1.881   0.793  -1.468  0.00  0.00    -0.075 A 
ATOM      5  S   UNL d   1      -2.352   1.258  -3.060  0.00  0.00     0.015 SA
ATOM      6  C4  UNL d   1      -1.121   2.433  -3.161  0.00  0.00     0.022 A 
ATOM      7  C5  UNL d   1      -0.361   2.483  -2.017  0.00  0.00     0.026 A 
ATOM      8  C6  UNL d   1      -0.785   1.539  -1.022  0.00  0.00    -0.082 A 
ATOM      9  C7  UNL d   1      -0.279   1.273   0.273  0.00  0.00     0.045 A 
ENDROOT
TORSDOF 0
ENDMDL
