MODEL 1
REMARK minimizedAffinity -0.272303015
REMARK minimizedRMSD -1
REMARK  0 active torsions:
REMARK  status: ('A' for Active; 'I' for Inactive)
ROOT
ATOM      1  C   UNL d   1       1.420  -0.831   3.510  0.00  0.00    -0.002 A 
ATOM      2  C1  UNL d   1       1.988  -0.896   2.246  0.00  0.00     0.010 A 
ATOM      3  C2  UNL d   1       1.217  -0.657   1.107  0.00  0.00     0.041 A 
ATOM      4  C3  UNL d   1      -0.149  -0.347   1.262  0.00  0.00    -0.075 A 
ATOM      5  S   UNL d   1      -1.288  -0.016   0.011  0.00  0.00     0.015 SA
ATOM      6  C4  UNL d   1      -2.556   0.221   1.125  0.00  0.00     0.022 A 
ATOM      7  C5  UNL d   1      -2.138   0.055   2.424  0.00  0.00     0.026 A 
ATOM      8  C6  UNL d   1      -0.744  -0.275   2.525  0.00  0.00    -0.082 A 
ATOM      9  C7  UNL d   1       0.065  -0.523   3.660  0.00  0.00     0.045 A 
ENDROOT
TORSDOF 0
ENDMDL
