MODEL 1
REMARK minimizedAffinity 0.991818845
REMARK minimizedRMSD -1
REMARK  0 active torsions:
REMARK  status: ('A' for Active; 'I' for Inactive)
ROOT
ATOM      1  C   UNL d   1       0.899  -1.345   4.102  0.00  0.00    -0.002 A 
ATOM      2  C1  UNL d   1       1.553  -1.012   2.925  0.00  0.00     0.010 A 
ATOM      3  C2  UNL d   1       0.834  -0.572   1.812  0.00  0.00     0.041 A 
ATOM      4  C3  UNL d   1      -0.568  -0.469   1.904  0.00  0.00    -0.075 A 
ATOM      5  S   UNL d   1      -1.656   0.047   0.670  0.00  0.00     0.015 SA
ATOM      6  C4  UNL d   1      -3.015  -0.161   1.677  0.00  0.00     0.022 A 
ATOM      7  C5  UNL d   1      -2.666  -0.614   2.927  0.00  0.00     0.026 A 
ATOM      8  C6  UNL d   1      -1.250  -0.798   3.079  0.00  0.00    -0.082 A 
ATOM      9  C7  UNL d   1      -0.492  -1.242   4.190  0.00  0.00     0.045 A 
ENDROOT
TORSDOF 0
ENDMDL
