MODEL 1
REMARK minimizedAffinity 2.07091808
REMARK minimizedRMSD -1
REMARK  0 active torsions:
REMARK  status: ('A' for Active; 'I' for Inactive)
ROOT
ATOM      1  C   UNL d   1      -2.754  -0.011   0.737  0.00  0.00    -0.002 A 
ATOM      2  C1  UNL d   1      -2.078  -0.178  -0.464  0.00  0.00     0.010 A 
ATOM      3  C2  UNL d   1      -0.721  -0.504  -0.476  0.00  0.00     0.041 A 
ATOM      4  C3  UNL d   1      -0.047  -0.663   0.751  0.00  0.00    -0.075 A 
ATOM      5  S   UNL d   1       1.614  -1.063   0.981  0.00  0.00     0.015 SA
ATOM      6  C4  UNL d   1       1.467  -1.023   2.678  0.00  0.00     0.022 A 
ATOM      7  C5  UNL d   1       0.188  -0.713   3.077  0.00  0.00     0.026 A 
ATOM      8  C6  UNL d   1      -0.706  -0.502   1.974  0.00  0.00    -0.082 A 
ATOM      9  C7  UNL d   1      -2.082  -0.170   1.952  0.00  0.00     0.045 A 
ENDROOT
TORSDOF 0
ENDMDL
