MODEL 1
REMARK minimizedAffinity 0.561392248
REMARK minimizedRMSD -1
REMARK  0 active torsions:
REMARK  status: ('A' for Active; 'I' for Inactive)
ROOT
ATOM      1  C   UNL d   1       1.373  -1.499   4.181  0.00  0.00    -0.002 A 
ATOM      2  C1  UNL d   1       1.957  -1.185   2.961  0.00  0.00     0.010 A 
ATOM      3  C2  UNL d   1       1.173  -0.757   1.888  0.00  0.00     0.041 A 
ATOM      4  C3  UNL d   1      -0.220  -0.647   2.063  0.00  0.00    -0.075 A 
ATOM      5  S   UNL d   1      -1.379  -0.142   0.890  0.00  0.00     0.015 SA
ATOM      6  C4  UNL d   1      -2.675  -0.330   1.980  0.00  0.00     0.022 A 
ATOM      7  C5  UNL d   1      -2.253  -0.767   3.213  0.00  0.00     0.026 A 
ATOM      8  C6  UNL d   1      -0.831  -0.956   3.282  0.00  0.00    -0.082 A 
ATOM      9  C7  UNL d   1      -0.009  -1.388   4.351  0.00  0.00     0.045 A 
ENDROOT
TORSDOF 0
ENDMDL
