MODEL 1
REMARK minimizedAffinity 7.11044645
REMARK minimizedRMSD -1
REMARK  0 active torsions:
REMARK  status: ('A' for Active; 'I' for Inactive)
ROOT
ATOM      1  C   UNL d   1      -3.264  -0.529   0.583  0.00  0.00    -0.002 A 
ATOM      2  C1  UNL d   1      -2.974  -0.198   1.899  0.00  0.00     0.010 A 
ATOM      3  C2  UNL d   1      -1.650  -0.132   2.339  0.00  0.00     0.041 A 
ATOM      4  C3  UNL d   1      -0.614  -0.405   1.425  0.00  0.00    -0.075 A 
ATOM      5  S   UNL d   1       1.081  -0.383   1.739  0.00  0.00     0.015 SA
ATOM      6  C4  UNL d   1       1.460  -0.812   0.133  0.00  0.00     0.022 A 
ATOM      7  C5  UNL d   1       0.333  -0.972  -0.637  0.00  0.00     0.026 A 
ATOM      8  C6  UNL d   1      -0.881  -0.739   0.094  0.00  0.00    -0.082 A 
ATOM      9  C7  UNL d   1      -2.233  -0.799  -0.321  0.00  0.00     0.045 A 
ENDROOT
TORSDOF 0
ENDMDL
