MODEL 1
REMARK minimizedAffinity 10.960742
REMARK minimizedRMSD -1
REMARK  0 active torsions:
REMARK  status: ('A' for Active; 'I' for Inactive)
ROOT
ATOM      1  C   UNL d   1       1.341  -1.255   3.729  0.00  0.00    -0.002 A 
ATOM      2  C1  UNL d   1       1.848  -0.800   2.520  0.00  0.00     0.010 A 
ATOM      3  C2  UNL d   1       0.990  -0.356   1.512  0.00  0.00     0.041 A 
ATOM      4  C3  UNL d   1      -0.399  -0.374   1.743  0.00  0.00    -0.075 A 
ATOM      5  S   UNL d   1      -1.640   0.123   0.654  0.00  0.00     0.015 SA
ATOM      6  C4  UNL d   1      -2.873  -0.255   1.769  0.00  0.00     0.022 A 
ATOM      7  C5  UNL d   1      -2.368  -0.751   2.948  0.00  0.00     0.026 A 
ATOM      8  C6  UNL d   1      -0.934  -0.827   2.952  0.00  0.00    -0.082 A 
ATOM      9  C7  UNL d   1      -0.038  -1.272   3.954  0.00  0.00     0.045 A 
ENDROOT
TORSDOF 0
ENDMDL
