MODEL 1
REMARK minimizedAffinity 6.35963583
REMARK minimizedRMSD -1
REMARK  0 active torsions:
REMARK  status: ('A' for Active; 'I' for Inactive)
ROOT
ATOM      1  C   UNL d   1      -4.148   0.702   0.068  0.00  0.00    -0.002 A 
ATOM      2  C1  UNL d   1      -3.597   0.249  -1.122  0.00  0.00     0.010 A 
ATOM      3  C2  UNL d   1      -2.266  -0.170  -1.174  0.00  0.00     0.041 A 
ATOM      4  C3  UNL d   1      -1.492  -0.128   0.002  0.00  0.00    -0.075 A 
ATOM      5  S   UNL d   1       0.159  -0.593   0.177  0.00  0.00     0.015 SA
ATOM      6  C4  UNL d   1       0.171  -0.203   1.836  0.00  0.00     0.022 A 
ATOM      7  C5  UNL d   1      -1.046   0.273   2.262  0.00  0.00     0.026 A 
ATOM      8  C6  UNL d   1      -2.025   0.323   1.213  0.00  0.00    -0.082 A 
ATOM      9  C7  UNL d   1      -3.377   0.742   1.233  0.00  0.00     0.045 A 
ENDROOT
TORSDOF 0
ENDMDL
