MODEL 1
REMARK minimizedAffinity 8.59151936
REMARK minimizedRMSD -1
REMARK  0 active torsions:
REMARK  status: ('A' for Active; 'I' for Inactive)
ROOT
ATOM      1  C   UNL d   1      -1.983   0.020   1.258  0.00  0.00    -0.002 A 
ATOM      2  C1  UNL d   1      -0.932  -0.131   0.365  0.00  0.00     0.010 A 
ATOM      3  C2  UNL d   1       0.322  -0.555   0.809  0.00  0.00     0.041 A 
ATOM      4  C3  UNL d   1       0.503  -0.830   2.179  0.00  0.00    -0.075 A 
ATOM      5  S   UNL d   1       1.950  -1.362   2.950  0.00  0.00     0.015 SA
ATOM      6  C4  UNL d   1       1.207  -1.404   4.483  0.00  0.00     0.022 A 
ATOM      7  C5  UNL d   1      -0.113  -1.024   4.426  0.00  0.00     0.026 A 
ATOM      8  C6  UNL d   1      -0.541  -0.687   3.097  0.00  0.00    -0.082 A 
ATOM      9  C7  UNL d   1      -1.800  -0.254   2.616  0.00  0.00     0.045 A 
ENDROOT
TORSDOF 0
ENDMDL
