MODEL 1
REMARK minimizedAffinity 6.39661551
REMARK minimizedRMSD -1
REMARK  1 active torsions:
REMARK  status: ('A' for Active; 'I' for Inactive)
REMARK    1  A    between atoms: N_2  and  C1_3 
ROOT
ATOM      1  C1  UNL d   1      -0.931  -2.713  -4.195  0.00  0.00     0.143 A 
ATOM      2  C2  UNL d   1       0.035  -2.021  -4.932  0.00  0.00    -0.057 A 
ATOM      3  C3  UNL d   1       0.519  -0.777  -4.508  0.00  0.00     0.033 A 
ATOM      4  C4  UNL d   1       0.021  -0.188  -3.350  0.00  0.00    -0.042 A 
ATOM      5  C5  UNL d   1      -0.958  -0.847  -2.615  0.00  0.00     0.033 A 
ATOM      6  C6  UNL d   1      -1.432  -2.092  -3.040  0.00  0.00    -0.057 A 
ENDROOT
BRANCH   1   7
ATOM      7  N   UNL d   1      -1.523  -3.906  -4.616  0.00  0.00    -0.732 N 
ATOM      8  C   UNL d   1      -1.905  -4.092  -5.999  0.00  0.00     0.284 C 
ATOM      9  H3  UNL d   1      -1.093  -4.724  -4.189  0.00  0.00     0.395 HD
ENDBRANCH   1   7
TORSDOF 1
ENDMDL
