MODEL 1
REMARK minimizedAffinity 9.87755966
REMARK minimizedRMSD -1
REMARK  1 active torsions:
REMARK  status: ('A' for Active; 'I' for Inactive)
REMARK    1  A    between atoms: N_2  and  C1_3 
ROOT
ATOM      1  C1  UNL d   1      -0.238   1.203   3.674  0.00  0.00     0.143 A 
ATOM      2  C2  UNL d   1       0.896   0.440   3.974  0.00  0.00    -0.057 A 
ATOM      3  C3  UNL d   1       1.070  -0.842   3.440  0.00  0.00     0.033 A 
ATOM      4  C4  UNL d   1       0.096  -1.397   2.617  0.00  0.00    -0.042 A 
ATOM      5  C5  UNL d   1      -1.051  -0.667   2.325  0.00  0.00     0.033 A 
ATOM      6  C6  UNL d   1      -1.216   0.616   2.857  0.00  0.00    -0.057 A 
ENDROOT
BRANCH   1   7
ATOM      7  N   UNL d   1      -0.515   2.444   4.253  0.00  0.00    -0.732 N 
ATOM      8  C   UNL d   1      -0.328   2.655   5.672  0.00  0.00     0.284 C 
ATOM      9  H3  UNL d   1      -0.205   3.221   3.673  0.00  0.00     0.395 HD
ENDBRANCH   1   7
TORSDOF 1
ENDMDL
