MODEL 1
REMARK minimizedAffinity 0.673592329
REMARK minimizedRMSD -1
REMARK  1 active torsions:
REMARK  status: ('A' for Active; 'I' for Inactive)
REMARK    1  A    between atoms: N_2  and  C1_3 
ROOT
ATOM      1  C1  UNL d   1      -0.716  -2.933  -4.922  0.00  0.00     0.143 A 
ATOM      2  C2  UNL d   1       0.183  -1.968  -5.388  0.00  0.00    -0.057 A 
ATOM      3  C3  UNL d   1       0.481  -0.828  -4.632  0.00  0.00     0.033 A 
ATOM      4  C4  UNL d   1      -0.140  -0.618  -3.405  0.00  0.00    -0.042 A 
ATOM      5  C5  UNL d   1      -1.055  -1.552  -2.933  0.00  0.00     0.033 A 
ATOM      6  C6  UNL d   1      -1.343  -2.692  -3.690  0.00  0.00    -0.057 A 
ENDROOT
BRANCH   1   7
ATOM      7  N   UNL d   1      -1.128  -4.038  -5.671  0.00  0.00    -0.732 N 
ATOM      8  C   UNL d   1      -2.168  -4.915  -5.179  0.00  0.00     0.284 C 
ATOM      9  H3  UNL d   1      -1.194  -3.831  -6.665  0.00  0.00     0.395 HD
ENDBRANCH   1   7
TORSDOF 1
ENDMDL
