MODEL 1
REMARK minimizedAffinity 5.27377462
REMARK minimizedRMSD -1
REMARK  1 active torsions:
REMARK  status: ('A' for Active; 'I' for Inactive)
REMARK    1  A    between atoms: N_2  and  C1_3 
ROOT
ATOM      1  C1  UNL d   1       1.437  -2.128   4.612  0.00  0.00     0.143 A 
ATOM      2  C2  UNL d   1       0.670  -2.498   3.502  0.00  0.00    -0.057 A 
ATOM      3  C3  UNL d   1       0.189  -1.541   2.600  0.00  0.00     0.033 A 
ATOM      4  C4  UNL d   1       0.442  -0.189   2.811  0.00  0.00    -0.042 A 
ATOM      5  C5  UNL d   1       1.180   0.204   3.922  0.00  0.00     0.033 A 
ATOM      6  C6  UNL d   1       1.664  -0.758   4.814  0.00  0.00    -0.057 A 
ENDROOT
BRANCH   1   7
ATOM      7  N   UNL d   1       1.860  -3.023   5.598  0.00  0.00    -0.732 N 
ATOM      8  C   UNL d   1       3.252  -3.083   5.990  0.00  0.00     0.284 C 
ATOM      9  H3  UNL d   1       1.206  -3.083   6.375  0.00  0.00     0.395 HD
ENDBRANCH   1   7
TORSDOF 1
ENDMDL
