MODEL 1
REMARK minimizedAffinity 9.79866982
REMARK minimizedRMSD -1
REMARK  1 active torsions:
REMARK  status: ('A' for Active; 'I' for Inactive)
REMARK    1  A    between atoms: N_2  and  C1_3 
ROOT
ATOM      1  C1  UNL d   1       3.563   0.466  -4.822  0.00  0.00     0.143 A 
ATOM      2  C2  UNL d   1       4.016  -0.811  -4.471  0.00  0.00    -0.057 A 
ATOM      3  C3  UNL d   1       3.121  -1.825  -4.110  0.00  0.00     0.033 A 
ATOM      4  C4  UNL d   1       1.754  -1.570  -4.065  0.00  0.00    -0.042 A 
ATOM      5  C5  UNL d   1       1.283  -0.302  -4.385  0.00  0.00     0.033 A 
ATOM      6  C6  UNL d   1       2.182   0.704  -4.752  0.00  0.00    -0.057 A 
ENDROOT
BRANCH   1   7
ATOM      7  N   UNL d   1       4.410   1.543  -5.094  0.00  0.00    -0.732 N 
ATOM      8  C   UNL d   1       5.532   1.390  -5.995  0.00  0.00     0.284 C 
ATOM      9  H3  UNL d   1       3.901   2.417  -5.209  0.00  0.00     0.395 HD
ENDBRANCH   1   7
TORSDOF 1
ENDMDL
