MODEL 1
REMARK minimizedAffinity 7.74321365
REMARK minimizedRMSD -1
REMARK  1 active torsions:
REMARK  status: ('A' for Active; 'I' for Inactive)
REMARK    1  A    between atoms: N_2  and  C1_3 
ROOT
ATOM      1  C1  UNL d   1       2.566  -0.403  -5.397  0.00  0.00     0.143 A 
ATOM      2  C2  UNL d   1       1.422   0.400  -5.325  0.00  0.00    -0.057 A 
ATOM      3  C3  UNL d   1       0.222  -0.093  -4.800  0.00  0.00     0.033 A 
ATOM      4  C4  UNL d   1       0.135  -1.410  -4.363  0.00  0.00    -0.042 A 
ATOM      5  C5  UNL d   1       1.252  -2.234  -4.448  0.00  0.00     0.033 A 
ATOM      6  C6  UNL d   1       2.451  -1.734  -4.967  0.00  0.00    -0.057 A 
ENDROOT
BRANCH   1   7
ATOM      7  N   UNL d   1       3.761  -0.002  -5.999  0.00  0.00    -0.732 N 
ATOM      8  C   UNL d   1       4.500   1.133  -5.487  0.00  0.00     0.284 C 
ATOM      9  H3  UNL d   1       4.345  -0.791  -6.267  0.00  0.00     0.395 HD
ENDBRANCH   1   7
TORSDOF 1
ENDMDL
