MODEL 1
REMARK minimizedAffinity 6.03664112
REMARK minimizedRMSD -1
REMARK  1 active torsions:
REMARK  status: ('A' for Active; 'I' for Inactive)
REMARK    1  A    between atoms: N_2  and  C1_3 
ROOT
ATOM      1  C1  UNL d   1      -0.007  -1.016  -3.553  0.00  0.00     0.143 A 
ATOM      2  C2  UNL d   1       0.005  -0.870  -2.162  0.00  0.00    -0.057 A 
ATOM      3  C3  UNL d   1      -0.792  -1.676  -1.340  0.00  0.00     0.033 A 
ATOM      4  C4  UNL d   1      -1.639  -2.627  -1.899  0.00  0.00    -0.042 A 
ATOM      5  C5  UNL d   1      -1.686  -2.773  -3.281  0.00  0.00     0.033 A 
ATOM      6  C6  UNL d   1      -0.883  -1.969  -4.096  0.00  0.00    -0.057 A 
ENDROOT
BRANCH   1   7
ATOM      7  N   UNL d   1       0.688  -0.179  -4.429  0.00  0.00    -0.732 N 
ATOM      8  C   UNL d   1       1.965   0.387  -4.051  0.00  0.00     0.284 C 
ATOM      9  H3  UNL d   1       0.646  -0.504  -5.392  0.00  0.00     0.395 HD
ENDBRANCH   1   7
TORSDOF 1
ENDMDL
