MODEL 1
REMARK minimizedAffinity 6.93339109
REMARK minimizedRMSD -1
REMARK  1 active torsions:
REMARK  status: ('A' for Active; 'I' for Inactive)
REMARK    1  A    between atoms: N_2  and  C1_3 
ROOT
ATOM      1  C1  UNL d   1       1.260  -2.006   4.038  0.00  0.00     0.143 A 
ATOM      2  C2  UNL d   1       0.370  -1.830   2.973  0.00  0.00    -0.057 A 
ATOM      3  C3  UNL d   1       0.244  -0.593   2.328  0.00  0.00     0.033 A 
ATOM      4  C4  UNL d   1       0.989   0.500   2.758  0.00  0.00    -0.042 A 
ATOM      5  C5  UNL d   1       1.861   0.355   3.831  0.00  0.00     0.033 A 
ATOM      6  C6  UNL d   1       1.987  -0.884   4.466  0.00  0.00    -0.057 A 
ENDROOT
BRANCH   1   7
ATOM      7  N   UNL d   1       1.358  -3.184   4.783  0.00  0.00    -0.732 N 
ATOM      8  C   UNL d   1       2.579  -3.511   5.487  0.00  0.00     0.284 C 
ATOM      9  H3  UNL d   1       0.509  -3.383   5.308  0.00  0.00     0.395 HD
ENDBRANCH   1   7
TORSDOF 1
ENDMDL
