MODEL 1
REMARK minimizedAffinity 4.46997547
REMARK minimizedRMSD -1
REMARK  1 active torsions:
REMARK  status: ('A' for Active; 'I' for Inactive)
REMARK    1  A    between atoms: N_2  and  C1_3 
ROOT
ATOM      1  C1  UNL d   1       0.665  -1.111   3.056  0.00  0.00     0.143 A 
ATOM      2  C2  UNL d   1      -0.483  -1.221   2.264  0.00  0.00    -0.057 A 
ATOM      3  C3  UNL d   1      -1.317  -0.119   2.038  0.00  0.00     0.033 A 
ATOM      4  C4  UNL d   1      -1.032   1.109   2.626  0.00  0.00    -0.042 A 
ATOM      5  C5  UNL d   1       0.090   1.235   3.437  0.00  0.00     0.033 A 
ATOM      6  C6  UNL d   1       0.923   0.132   3.654  0.00  0.00    -0.057 A 
ENDROOT
BRANCH   1   7
ATOM      7  N   UNL d   1       1.480  -2.193   3.399  0.00  0.00    -0.732 N 
ATOM      8  C   UNL d   1       1.485  -2.713   4.749  0.00  0.00     0.284 C 
ATOM      9  H3  UNL d   1       1.497  -2.910   2.677  0.00  0.00     0.395 HD
ENDBRANCH   1   7
TORSDOF 1
ENDMDL
