MODEL 1
REMARK minimizedAffinity 14.3358727
REMARK minimizedRMSD -1
REMARK  1 active torsions:
REMARK  status: ('A' for Active; 'I' for Inactive)
REMARK    1  A    between atoms: N_2  and  C1_3 
ROOT
ATOM      1  C1  UNL d   1      -0.461  -1.435  -2.927  0.00  0.00     0.143 A 
ATOM      2  C2  UNL d   1       0.707  -0.692  -3.133  0.00  0.00    -0.057 A 
ATOM      3  C3  UNL d   1       1.014  -0.155  -4.389  0.00  0.00     0.033 A 
ATOM      4  C4  UNL d   1       0.170  -0.377  -5.472  0.00  0.00    -0.042 A 
ATOM      5  C5  UNL d   1      -0.984  -1.133  -5.296  0.00  0.00     0.033 A 
ATOM      6  C6  UNL d   1      -1.288  -1.661  -4.038  0.00  0.00    -0.057 A 
ENDROOT
BRANCH   1   7
ATOM      7  N   UNL d   1      -0.772  -2.077  -1.726  0.00  0.00    -0.732 N 
ATOM      8  C   UNL d   1       0.145  -2.034  -0.607  0.00  0.00     0.284 C 
ATOM      9  H3  UNL d   1      -1.750  -1.964  -1.467  0.00  0.00     0.395 HD
ENDBRANCH   1   7
TORSDOF 1
ENDMDL
