MODEL 1
REMARK minimizedAffinity -3.2008779
REMARK minimizedRMSD -1
REMARK  0 active torsions:
REMARK  status: ('A' for Active; 'I' for Inactive)
ROOT
ATOM      1  C   UNL d   1      -1.323   3.800   0.449  0.00  0.00     0.023 A 
ATOM      2  C1  UNL d   1      -0.469   3.607  -0.637  0.00  0.00     0.003 A 
ATOM      3  C2  UNL d   1       0.053   2.339  -0.900  0.00  0.00     0.048 A 
ATOM      4  C3  UNL d   1      -0.284   1.268  -0.074  0.00  0.00     0.023 A 
ATOM      5  C4  UNL d   1      -1.139   1.456   1.014  0.00  0.00     0.048 A 
ATOM      6  C5  UNL d   1      -1.658   2.726   1.273  0.00  0.00     0.003 A 
ATOM      7  I   UNL d   1       0.492  -0.621  -0.463  0.00  0.00    -0.146 I 
ENDROOT
TORSDOF 0
ENDMDL
