MODEL 1
REMARK minimizedAffinity -5.46242285
REMARK minimizedRMSD -1
REMARK  0 active torsions:
REMARK  status: ('A' for Active; 'I' for Inactive)
ROOT
ATOM      1  C   UNL d   1      -2.224   3.049   1.506  0.00  0.00     0.023 A 
ATOM      2  C1  UNL d   1      -2.290   1.730   1.954  0.00  0.00     0.003 A 
ATOM      3  C2  UNL d   1      -1.517   0.743   1.339  0.00  0.00     0.048 A 
ATOM      4  C3  UNL d   1      -0.679   1.083   0.277  0.00  0.00     0.023 A 
ATOM      5  C4  UNL d   1      -0.609   2.402  -0.174  0.00  0.00     0.048 A 
ATOM      6  C5  UNL d   1      -1.384   3.385   0.444  0.00  0.00     0.003 A 
ATOM      7  I   UNL d   1       0.473  -0.385  -0.639  0.00  0.00    -0.146 I 
ENDROOT
TORSDOF 0
ENDMDL
