MODEL 1
REMARK minimizedAffinity -5.22209549
REMARK minimizedRMSD -1
REMARK  0 active torsions:
REMARK  status: ('A' for Active; 'I' for Inactive)
ROOT
ATOM      1  C   UNL d   1      -2.240   3.648   0.271  0.00  0.00     0.023 A 
ATOM      2  C1  UNL d   1      -1.080   3.703  -0.502  0.00  0.00     0.003 A 
ATOM      3  C2  UNL d   1      -0.329   2.546  -0.719  0.00  0.00     0.048 A 
ATOM      4  C3  UNL d   1      -0.744   1.337  -0.161  0.00  0.00     0.023 A 
ATOM      5  C4  UNL d   1      -1.904   1.277   0.612  0.00  0.00     0.048 A 
ATOM      6  C5  UNL d   1      -2.651   2.436   0.828  0.00  0.00     0.003 A 
ATOM      7  I   UNL d   1       0.373  -0.386  -0.484  0.00  0.00    -0.146 I 
ENDROOT
TORSDOF 0
ENDMDL
