MODEL 1
REMARK minimizedAffinity -3.34514952
REMARK minimizedRMSD -1
REMARK  0 active torsions:
REMARK  status: ('A' for Active; 'I' for Inactive)
ROOT
ATOM      1  C   UNL d   1      -0.722   2.741   0.599  0.00  0.00     0.023 A 
ATOM      2  C1  UNL d   1      -0.029   2.606  -0.604  0.00  0.00     0.003 A 
ATOM      3  C2  UNL d   1       0.355   1.340  -1.052  0.00  0.00     0.048 A 
ATOM      4  C3  UNL d   1       0.041   0.213  -0.292  0.00  0.00     0.023 A 
ATOM      5  C4  UNL d   1      -0.654   0.344   0.912  0.00  0.00     0.048 A 
ATOM      6  C5  UNL d   1      -1.034   1.611   1.356  0.00  0.00     0.003 A 
ATOM      7  I   UNL d   1       0.610  -1.672  -0.957  0.00  0.00    -0.146 I 
ENDROOT
TORSDOF 0
ENDMDL
