MODEL 1
REMARK minimizedAffinity -1.21559262
REMARK minimizedRMSD -1
REMARK  0 active torsions:
REMARK  status: ('A' for Active; 'I' for Inactive)
ROOT
ATOM      1  C   UNL d   1      -1.319   2.181   2.035  0.00  0.00     0.023 A 
ATOM      2  C1  UNL d   1      -1.479   0.828   2.336  0.00  0.00     0.003 A 
ATOM      3  C2  UNL d   1      -0.931  -0.145   1.497  0.00  0.00     0.048 A 
ATOM      4  C3  UNL d   1      -0.223   0.243   0.360  0.00  0.00     0.023 A 
ATOM      5  C4  UNL d   1      -0.060   1.595   0.055  0.00  0.00     0.048 A 
ATOM      6  C5  UNL d   1      -0.610   2.564   0.897  0.00  0.00     0.003 A 
ATOM      7  I   UNL d   1       0.593  -1.203  -0.891  0.00  0.00    -0.146 I 
ENDROOT
TORSDOF 0
ENDMDL
