MODEL 1
REMARK minimizedAffinity -3.71148872
REMARK minimizedRMSD -1
REMARK  0 active torsions:
REMARK  status: ('A' for Active; 'I' for Inactive)
ROOT
ATOM      1  C   UNL d   1      -0.894   1.845   1.804  0.00  0.00     0.023 A 
ATOM      2  C1  UNL d   1      -0.394   2.187   0.547  0.00  0.00     0.003 A 
ATOM      3  C2  UNL d   1       0.080   1.193  -0.312  0.00  0.00     0.048 A 
ATOM      4  C3  UNL d   1       0.050  -0.142   0.092  0.00  0.00     0.023 A 
ATOM      5  C4  UNL d   1      -0.450  -0.489   1.348  0.00  0.00     0.048 A 
ATOM      6  C5  UNL d   1      -0.922   0.509   2.204  0.00  0.00     0.003 A 
ATOM      7  I   UNL d   1       0.754  -1.623  -1.184  0.00  0.00    -0.146 I 
ENDROOT
TORSDOF 0
ENDMDL
