MODEL 1
REMARK minimizedAffinity -5.40819216
REMARK minimizedRMSD -1
REMARK  0 active torsions:
REMARK  status: ('A' for Active; 'I' for Inactive)
ROOT
ATOM      1  C   UNL d   1      -2.095   3.786   0.747  0.00  0.00     0.023 A 
ATOM      2  C1  UNL d   1      -0.911   3.603   0.032  0.00  0.00     0.003 A 
ATOM      3  C2  UNL d   1      -0.272   2.362   0.044  0.00  0.00     0.048 A 
ATOM      4  C3  UNL d   1      -0.822   1.307   0.771  0.00  0.00     0.023 A 
ATOM      5  C4  UNL d   1      -2.007   1.486   1.487  0.00  0.00     0.048 A 
ATOM      6  C5  UNL d   1      -2.642   2.729   1.474  0.00  0.00     0.003 A 
ATOM      7  I   UNL d   1       0.128  -0.541   0.790  0.00  0.00    -0.146 I 
ENDROOT
TORSDOF 0
ENDMDL
