MODEL 1
REMARK minimizedAffinity -1.79405355
REMARK minimizedRMSD -1
REMARK  0 active torsions:
REMARK  status: ('A' for Active; 'I' for Inactive)
ROOT
ATOM      1  C   UNL d   1       0.093  -3.987  -2.449  0.00  0.00     0.023 A 
ATOM      2  C1  UNL d   1      -0.011  -2.687  -2.944  0.00  0.00     0.003 A 
ATOM      3  C2  UNL d   1       0.242  -1.598  -2.108  0.00  0.00     0.048 A 
ATOM      4  C3  UNL d   1       0.599  -1.815  -0.778  0.00  0.00     0.023 A 
ATOM      5  C4  UNL d   1       0.706  -3.114  -0.278  0.00  0.00     0.048 A 
ATOM      6  C5  UNL d   1       0.451  -4.200  -1.118  0.00  0.00     0.003 A 
ATOM      7  I   UNL d   1       0.977  -0.195   0.468  0.00  0.00    -0.146 I 
ENDROOT
TORSDOF 0
ENDMDL
