MODEL 1
REMARK minimizedAffinity -0.687159598
REMARK minimizedRMSD -1
REMARK  0 active torsions:
REMARK  status: ('A' for Active; 'I' for Inactive)
ROOT
ATOM      1  C   UNL d   1       0.123  -4.263  -3.121  0.00  0.00     0.023 A 
ATOM      2  C1  UNL d   1      -0.372  -3.037  -3.566  0.00  0.00     0.003 A 
ATOM      3  C2  UNL d   1      -0.143  -1.878  -2.822  0.00  0.00     0.048 A 
ATOM      4  C3  UNL d   1       0.583  -1.952  -1.634  0.00  0.00     0.023 A 
ATOM      5  C4  UNL d   1       1.081  -3.176  -1.184  0.00  0.00     0.048 A 
ATOM      6  C5  UNL d   1       0.848  -4.332  -1.931  0.00  0.00     0.003 A 
ATOM      7  I   UNL d   1       0.925  -0.228  -0.524  0.00  0.00    -0.146 I 
ENDROOT
TORSDOF 0
ENDMDL
