MODEL 1
REMARK minimizedAffinity -4.71655416
REMARK minimizedRMSD -1
REMARK  0 active torsions:
REMARK  status: ('A' for Active; 'I' for Inactive)
ROOT
ATOM      1  C   UNL d   1      -2.185   2.664   0.803  0.00  0.00     0.023 A 
ATOM      2  C1  UNL d   1      -1.571   3.040  -0.391  0.00  0.00     0.003 A 
ATOM      3  C2  UNL d   1      -0.629   2.200  -0.988  0.00  0.00     0.048 A 
ATOM      4  C3  UNL d   1      -0.306   0.984  -0.386  0.00  0.00     0.023 A 
ATOM      5  C4  UNL d   1      -0.919   0.603   0.809  0.00  0.00     0.048 A 
ATOM      6  C5  UNL d   1      -1.860   1.447   1.403  0.00  0.00     0.003 A 
ATOM      7  I   UNL d   1       1.096  -0.268  -1.272  0.00  0.00    -0.146 I 
ENDROOT
TORSDOF 0
ENDMDL
