MODEL 1
REMARK minimizedAffinity -2.5441463
REMARK minimizedRMSD -1
REMARK  0 active torsions:
REMARK  status: ('A' for Active; 'I' for Inactive)
ROOT
ATOM      1  C   UNL d   1      -0.368   2.742   0.747  0.00  0.00     0.023 A 
ATOM      2  C1  UNL d   1      -0.607   1.507   1.348  0.00  0.00     0.003 A 
ATOM      3  C2  UNL d   1      -0.214   0.330   0.707  0.00  0.00     0.048 A 
ATOM      4  C3  UNL d   1       0.418   0.396  -0.534  0.00  0.00     0.023 A 
ATOM      5  C4  UNL d   1       0.659   1.630  -1.139  0.00  0.00     0.048 A 
ATOM      6  C5  UNL d   1       0.264   2.804  -0.495  0.00  0.00     0.003 A 
ATOM      7  I   UNL d   1       1.004  -1.355  -1.489  0.00  0.00    -0.146 I 
ENDROOT
TORSDOF 0
ENDMDL
