MODEL 1
REMARK minimizedAffinity -4.63228989
REMARK minimizedRMSD -1
REMARK  0 active torsions:
REMARK  status: ('A' for Active; 'I' for Inactive)
ROOT
ATOM      1  C   UNL d   1      -0.423   3.662  -0.848  0.00  0.00     0.023 A 
ATOM      2  C1  UNL d   1       0.516   2.630  -0.843  0.00  0.00     0.003 A 
ATOM      3  C2  UNL d   1       0.352   1.540   0.014  0.00  0.00     0.048 A 
ATOM      4  C3  UNL d   1      -0.753   1.487   0.862  0.00  0.00     0.023 A 
ATOM      5  C4  UNL d   1      -1.696   2.516   0.859  0.00  0.00     0.048 A 
ATOM      6  C5  UNL d   1      -1.528   3.605   0.002  0.00  0.00     0.003 A 
ATOM      7  I   UNL d   1      -0.999  -0.136   2.137  0.00  0.00    -0.146 I 
ENDROOT
TORSDOF 0
ENDMDL
