MODEL 1
REMARK minimizedAffinity -1.3151263
REMARK minimizedRMSD -1
REMARK  0 active torsions:
REMARK  status: ('A' for Active; 'I' for Inactive)
ROOT
ATOM      1  C1  BNZ d   1       0.792   0.020   1.649  0.00  0.00     0.000 A 
ATOM      2  C2  BNZ d   1       0.701   1.360   1.913  0.00  0.00     0.000 A 
ATOM      3  C3  BNZ d   1      -0.448   2.050   1.643  0.00  0.00     0.000 A 
ATOM      4  C4  BNZ d   1      -1.488   1.409   1.072  0.00  0.00     0.000 A 
ATOM      5  C5  BNZ d   1      -1.408   0.059   0.791  0.00  0.00     0.000 A 
ATOM      6  C6  BNZ d   1      -0.264  -0.640   1.100  0.00  0.00     0.000 A 
ENDROOT
TORSDOF 0
ENDMDL
