MODEL 1
REMARK minimizedAffinity -2.55550218
REMARK minimizedRMSD -1
REMARK  0 active torsions:
REMARK  status: ('A' for Active; 'I' for Inactive)
ROOT
ATOM      1  C1  BNZ d   1      -3.246   1.166   3.243  0.00  0.00     0.000 A 
ATOM      2  C2  BNZ d   1      -2.551   2.312   2.962  0.00  0.00     0.000 A 
ATOM      3  C3  BNZ d   1      -1.370   2.264   2.275  0.00  0.00     0.000 A 
ATOM      4  C4  BNZ d   1      -0.866   1.069   1.906  0.00  0.00     0.000 A 
ATOM      5  C5  BNZ d   1      -1.549  -0.096   2.191  0.00  0.00     0.000 A 
ATOM      6  C6  BNZ d   1      -2.757  -0.041   2.848  0.00  0.00     0.000 A 
ENDROOT
TORSDOF 0
ENDMDL
