MODEL 1
REMARK minimizedAffinity -3.31000376
REMARK minimizedRMSD -1
REMARK  0 active torsions:
REMARK  status: ('A' for Active; 'I' for Inactive)
ROOT
ATOM      1  C1  BNZ d   1      -0.912  -0.145   1.529  0.00  0.00     0.000 A 
ATOM      2  C2  BNZ d   1      -2.027   0.088   2.289  0.00  0.00     0.000 A 
ATOM      3  C3  BNZ d   1      -2.343   1.353   2.701  0.00  0.00     0.000 A 
ATOM      4  C4  BNZ d   1      -1.522   2.376   2.387  0.00  0.00     0.000 A 
ATOM      5  C5  BNZ d   1      -0.389   2.156   1.629  0.00  0.00     0.000 A 
ATOM      6  C6  BNZ d   1      -0.096   0.888   1.184  0.00  0.00     0.000 A 
ENDROOT
TORSDOF 0
ENDMDL
