MODEL 1
REMARK minimizedAffinity -1.09543586
REMARK minimizedRMSD -1
REMARK  0 active torsions:
REMARK  status: ('A' for Active; 'I' for Inactive)
ROOT
ATOM      1  C1  BNZ d   1       0.042   1.826   0.299  0.00  0.00     0.000 A 
ATOM      2  C2  BNZ d   1      -0.594   2.804   1.016  0.00  0.00     0.000 A 
ATOM      3  C3  BNZ d   1      -0.725   2.703   2.373  0.00  0.00     0.000 A 
ATOM      4  C4  BNZ d   1      -0.255   1.608   3.005  0.00  0.00     0.000 A 
ATOM      5  C5  BNZ d   1       0.381   0.610   2.294  0.00  0.00     0.000 A 
ATOM      6  C6  BNZ d   1       0.545   0.733   0.933  0.00  0.00     0.000 A 
ENDROOT
TORSDOF 0
ENDMDL
