MODEL 1
REMARK minimizedAffinity -1.0596112
REMARK minimizedRMSD -1
REMARK  0 active torsions:
REMARK  status: ('A' for Active; 'I' for Inactive)
ROOT
ATOM      1  C1  BNZ d   1      -0.130  -1.206   2.942  0.00  0.00     0.000 A 
ATOM      2  C2  BNZ d   1       0.703  -0.267   2.396  0.00  0.00     0.000 A 
ATOM      3  C3  BNZ d   1       0.198   0.821   1.741  0.00  0.00     0.000 A 
ATOM      4  C4  BNZ d   1      -1.137   0.948   1.598  0.00  0.00     0.000 A 
ATOM      5  C5  BNZ d   1      -1.990   0.005   2.136  0.00  0.00     0.000 A 
ATOM      6  C6  BNZ d   1      -1.479  -1.068   2.828  0.00  0.00     0.000 A 
ENDROOT
TORSDOF 0
ENDMDL
