MODEL 1
REMARK minimizedAffinity 1.93908751
REMARK minimizedRMSD -1
REMARK  0 active torsions:
REMARK  status: ('A' for Active; 'I' for Inactive)
ROOT
ATOM      1  C1  BNZ d   1      -1.121   2.148   1.590  0.00  0.00     0.000 A 
ATOM      2  C2  BNZ d   1      -0.922   1.100   2.448  0.00  0.00     0.000 A 
ATOM      3  C3  BNZ d   1       0.239   0.378   2.414  0.00  0.00     0.000 A 
ATOM      4  C4  BNZ d   1       1.180   0.679   1.496  0.00  0.00     0.000 A 
ATOM      5  C5  BNZ d   1       0.989   1.727   0.617  0.00  0.00     0.000 A 
ATOM      6  C6  BNZ d   1      -0.163   2.476   0.681  0.00  0.00     0.000 A 
ENDROOT
TORSDOF 0
ENDMDL
