MODEL 1
REMARK minimizedAffinity -0.991375506
REMARK minimizedRMSD -1
REMARK  0 active torsions:
REMARK  status: ('A' for Active; 'I' for Inactive)
ROOT
ATOM      1  C1  BNZ d   1      -0.413   2.895   0.620  0.00  0.00     0.000 A 
ATOM      2  C2  BNZ d   1       0.770   2.212   0.524  0.00  0.00     0.000 A 
ATOM      3  C3  BNZ d   1       1.001   1.102   1.288  0.00  0.00     0.000 A 
ATOM      4  C4  BNZ d   1       0.066   0.700   2.173  0.00  0.00     0.000 A 
ATOM      5  C5  BNZ d   1      -1.128   1.384   2.288  0.00  0.00     0.000 A 
ATOM      6  C6  BNZ d   1      -1.373   2.478   1.490  0.00  0.00     0.000 A 
ENDROOT
TORSDOF 0
ENDMDL
