MODEL 1
REMARK minimizedAffinity -1.22307539
REMARK minimizedRMSD -1
REMARK  0 active torsions:
REMARK  status: ('A' for Active; 'I' for Inactive)
ROOT
ATOM      1  C1  BNZ d   1       0.199   1.803   1.474  0.00  0.00     0.000 A 
ATOM      2  C2  BNZ d   1      -1.110   1.428   1.335  0.00  0.00     0.000 A 
ATOM      3  C3  BNZ d   1      -1.600   0.335   1.994  0.00  0.00     0.000 A 
ATOM      4  C4  BNZ d   1      -0.770  -0.404   2.758  0.00  0.00     0.000 A 
ATOM      5  C5  BNZ d   1       0.555  -0.045   2.901  0.00  0.00     0.000 A 
ATOM      6  C6  BNZ d   1       1.035   1.078   2.267  0.00  0.00     0.000 A 
ENDROOT
TORSDOF 0
ENDMDL
