MODEL 1
REMARK minimizedAffinity -3.25229454
REMARK minimizedRMSD -1
REMARK  0 active torsions:
REMARK  status: ('A' for Active; 'I' for Inactive)
ROOT
ATOM      1  C1  BNZ d   1       0.240   0.165   1.744  0.00  0.00     0.000 A 
ATOM      2  C2  BNZ d   1       0.015   1.507   1.595  0.00  0.00     0.000 A 
ATOM      3  C3  BNZ d   1      -1.250   2.018   1.680  0.00  0.00     0.000 A 
ATOM      4  C4  BNZ d   1      -2.291   1.183   1.874  0.00  0.00     0.000 A 
ATOM      5  C5  BNZ d   1      -2.081  -0.174   2.018  0.00  0.00     0.000 A 
ATOM      6  C6  BNZ d   1      -0.802  -0.680   1.970  0.00  0.00     0.000 A 
ENDROOT
TORSDOF 0
ENDMDL
