MODEL 1
REMARK minimizedAffinity -0.666585863
REMARK minimizedRMSD -1
REMARK  0 active torsions:
REMARK  status: ('A' for Active; 'I' for Inactive)
ROOT
ATOM      1  C1  BNZ d   1      -1.978  -0.383   2.653  0.00  0.00     0.000 A 
ATOM      2  C2  BNZ d   1      -3.205  -0.242   3.245  0.00  0.00     0.000 A 
ATOM      3  C3  BNZ d   1      -3.610   0.968   3.735  0.00  0.00     0.000 A 
ATOM      4  C4  BNZ d   1      -2.773   2.024   3.669  0.00  0.00     0.000 A 
ATOM      5  C5  BNZ d   1      -1.529   1.895   3.084  0.00  0.00     0.000 A 
ATOM      6  C6  BNZ d   1      -1.140   0.685   2.556  0.00  0.00     0.000 A 
ENDROOT
TORSDOF 0
ENDMDL
