MODEL 1
REMARK minimizedAffinity -2.9163425
REMARK minimizedRMSD -1
REMARK  0 active torsions:
REMARK  status: ('A' for Active; 'I' for Inactive)
ROOT
ATOM      1  C1  BNZ d   1       0.185   1.843   1.037  0.00  0.00     0.000 A 
ATOM      2  C2  BNZ d   1      -0.612   2.811   1.586  0.00  0.00     0.000 A 
ATOM      3  C3  BNZ d   1      -1.704   2.477   2.337  0.00  0.00     0.000 A 
ATOM      4  C4  BNZ d   1      -2.021   1.176   2.504  0.00  0.00     0.000 A 
ATOM      5  C5  BNZ d   1      -1.232   0.188   1.949  0.00  0.00     0.000 A 
ATOM      6  C6  BNZ d   1      -0.112   0.528   1.227  0.00  0.00     0.000 A 
ENDROOT
TORSDOF 0
ENDMDL
