MODEL 1
REMARK minimizedAffinity -2.1578002
REMARK minimizedRMSD -1
REMARK  0 active torsions:
REMARK  status: ('A' for Active; 'I' for Inactive)
ROOT
ATOM      1  C1  BNZ d   1      -1.786   1.878   2.448  0.00  0.00     0.000 A 
ATOM      2  C2  BNZ d   1      -1.345   2.788   1.525  0.00  0.00     0.000 A 
ATOM      3  C3  BNZ d   1      -0.227   2.542   0.778  0.00  0.00     0.000 A 
ATOM      4  C4  BNZ d   1       0.470   1.406   0.983  0.00  0.00     0.000 A 
ATOM      5  C5  BNZ d   1       0.044   0.482   1.917  0.00  0.00     0.000 A 
ATOM      6  C6  BNZ d   1      -1.104   0.716   2.639  0.00  0.00     0.000 A 
ENDROOT
TORSDOF 0
ENDMDL
