MODEL 1
REMARK minimizedAffinity -2.00123572
REMARK minimizedRMSD -1
REMARK  0 active torsions:
REMARK  status: ('A' for Active; 'I' for Inactive)
ROOT
ATOM      1  C1  BNZ d   1      -0.751  -0.607   1.406  0.00  0.00     0.000 A 
ATOM      2  C2  BNZ d   1      -1.822   0.055   1.946  0.00  0.00     0.000 A 
ATOM      3  C3  BNZ d   1      -1.825   1.419   2.044  0.00  0.00     0.000 A 
ATOM      4  C4  BNZ d   1      -0.743   2.115   1.640  0.00  0.00     0.000 A 
ATOM      5  C5  BNZ d   1       0.348   1.461   1.102  0.00  0.00     0.000 A 
ATOM      6  C6  BNZ d   1       0.332   0.092   0.969  0.00  0.00     0.000 A 
ENDROOT
TORSDOF 0
ENDMDL
