MODEL 1
REMARK minimizedAffinity -5.21023178
REMARK minimizedRMSD -1
REMARK  0 active torsions:
REMARK  status: ('A' for Active; 'I' for Inactive)
ROOT
ATOM      1  C1  BNZ d   1       0.020   2.065   1.939  0.00  0.00     0.000 A 
ATOM      2  C2  BNZ d   1       0.750   1.089   1.315  0.00  0.00     0.000 A 
ATOM      3  C3  BNZ d   1       0.208  -0.142   1.071  0.00  0.00     0.000 A 
ATOM      4  C4  BNZ d   1      -1.047  -0.407   1.485  0.00  0.00     0.000 A 
ATOM      5  C5  BNZ d   1      -1.793   0.563   2.124  0.00  0.00     0.000 A 
ATOM      6  C6  BNZ d   1      -1.258   1.814   2.334  0.00  0.00     0.000 A 
ENDROOT
TORSDOF 0
ENDMDL
