MODEL 1
REMARK minimizedAffinity -2.56374907
REMARK minimizedRMSD -1
REMARK  0 active torsions:
REMARK  status: ('A' for Active; 'I' for Inactive)
ROOT
ATOM      1  C1  BNZ d   1      -1.914   2.469   2.602  0.00  0.00     0.000 A 
ATOM      2  C2  BNZ d   1      -0.797   2.218   1.852  0.00  0.00     0.000 A 
ATOM      3  C3  BNZ d   1      -0.467   0.941   1.494  0.00  0.00     0.000 A 
ATOM      4  C4  BNZ d   1      -1.231  -0.086   1.920  0.00  0.00     0.000 A 
ATOM      5  C5  BNZ d   1      -2.355   0.151   2.686  0.00  0.00     0.000 A 
ATOM      6  C6  BNZ d   1      -2.706   1.441   3.011  0.00  0.00     0.000 A 
ENDROOT
TORSDOF 0
ENDMDL
