MODEL 1
REMARK minimizedAffinity 1.93499172
REMARK minimizedRMSD -1
REMARK  0 active torsions:
REMARK  status: ('A' for Active; 'I' for Inactive)
ROOT
ATOM      1  C1  BNZ d   1      -3.614   1.755   3.949  0.00  0.00     0.000 A 
ATOM      2  C2  BNZ d   1      -2.704   2.663   3.475  0.00  0.00     0.000 A 
ATOM      3  C3  BNZ d   1      -1.700   2.273   2.633  0.00  0.00     0.000 A 
ATOM      4  C4  BNZ d   1      -1.584   0.972   2.298  0.00  0.00     0.000 A 
ATOM      5  C5  BNZ d   1      -2.487   0.043   2.775  0.00  0.00     0.000 A 
ATOM      6  C6  BNZ d   1      -3.519   0.446   3.592  0.00  0.00     0.000 A 
ENDROOT
TORSDOF 0
ENDMDL
