MODEL 1
REMARK minimizedAffinity -1.0249114
REMARK minimizedRMSD -1
REMARK  0 active torsions:
REMARK  status: ('A' for Active; 'I' for Inactive)
ROOT
ATOM      1  C1  BNZ d   1      -2.632  -4.138  -2.443  0.00  0.00     0.000 A 
ATOM      2  C2  BNZ d   1      -2.698  -3.004  -3.207  0.00  0.00     0.000 A 
ATOM      3  C3  BNZ d   1      -3.116  -1.819  -2.668  0.00  0.00     0.000 A 
ATOM      4  C4  BNZ d   1      -3.505  -1.779  -1.377  0.00  0.00     0.000 A 
ATOM      5  C5  BNZ d   1      -3.452  -2.916  -0.596  0.00  0.00     0.000 A 
ATOM      6  C6  BNZ d   1      -2.995  -4.098  -1.132  0.00  0.00     0.000 A 
ENDROOT
TORSDOF 0
ENDMDL
