MODEL 1
REMARK minimizedAffinity -0.698907256
REMARK minimizedRMSD -1
REMARK  0 active torsions:
REMARK  status: ('A' for Active; 'I' for Inactive)
ROOT
ATOM      1  C1  BNZ d   1      -2.290  -3.233   4.221  0.00  0.00     0.000 A 
ATOM      2  C2  BNZ d   1      -1.235  -2.794   3.466  0.00  0.00     0.000 A 
ATOM      3  C3  BNZ d   1      -1.394  -1.775   2.568  0.00  0.00     0.000 A 
ATOM      4  C4  BNZ d   1      -2.613  -1.225   2.399  0.00  0.00     0.000 A 
ATOM      5  C5  BNZ d   1      -3.688  -1.663   3.146  0.00  0.00     0.000 A 
ATOM      6  C6  BNZ d   1      -3.517  -2.662   4.076  0.00  0.00     0.000 A 
ENDROOT
TORSDOF 0
ENDMDL
