MODEL 1
REMARK minimizedAffinity -2.61501718
REMARK minimizedRMSD -1
REMARK  1 active torsions:
REMARK  status: ('A' for Active; 'I' for Inactive)
REMARK    1  A    between atoms: C1_2  and  C2_3 
ROOT
ATOM      1  C2  UNL d   1       1.071  -1.500   1.157  0.00  0.00    -0.076 A 
ATOM      2  C3  UNL d   1      -0.170  -1.681   1.793  0.00  0.00     0.004 A 
ATOM      3  C4  UNL d   1      -1.221  -0.791   1.582  0.00  0.00    -0.003 A 
ATOM      4  C5  UNL d   1      -1.050   0.294   0.729  0.00  0.00     0.000 A 
ATOM      5  C6  UNL d   1       0.168   0.479   0.076  0.00  0.00     0.000 A 
ATOM      6  C7  UNL d   1       1.233  -0.418   0.265  0.00  0.00    -0.073 A 
ATOM      7  C8  UNL d   1       2.526  -0.167  -0.460  0.00  0.00     0.078 C 
ENDROOT
BRANCH   1   8
ATOM      8  C1  UNL d   1       2.183  -2.482   1.446  0.00  0.00     0.053 C 
ATOM      9  C   UNL d   1       1.664  -3.814   1.964  0.00  0.00     0.018 C 
ENDBRANCH   1   8
TORSDOF 1
ENDMDL
