MODEL 1
REMARK minimizedAffinity -0.991445839
REMARK minimizedRMSD -1
REMARK  1 active torsions:
REMARK  status: ('A' for Active; 'I' for Inactive)
REMARK    1  A    between atoms: C1_2  and  C2_3 
ROOT
ATOM      1  C2  UNL d   1       0.629  -1.093   0.883  0.00  0.00    -0.076 A 
ATOM      2  C3  UNL d   1       1.577  -1.743   1.692  0.00  0.00     0.004 A 
ATOM      3  C4  UNL d   1       2.925  -1.391   1.643  0.00  0.00    -0.003 A 
ATOM      4  C5  UNL d   1       3.346  -0.381   0.784  0.00  0.00     0.000 A 
ATOM      5  C6  UNL d   1       2.417   0.287  -0.013  0.00  0.00     0.000 A 
ATOM      6  C7  UNL d   1       1.052  -0.045   0.037  0.00  0.00    -0.073 A 
ATOM      7  C8  UNL d   1       0.095   0.704  -0.849  0.00  0.00     0.078 C 
ENDROOT
BRANCH   1   8
ATOM      8  C1  UNL d   1      -0.814  -1.536   0.960  0.00  0.00     0.053 C 
ATOM      9  C   UNL d   1      -1.586  -0.822   2.058  0.00  0.00     0.018 C 
ENDBRANCH   1   8
TORSDOF 1
ENDMDL
