MODEL 1
REMARK minimizedAffinity -5.43808031
REMARK minimizedRMSD -1
REMARK  1 active torsions:
REMARK  status: ('A' for Active; 'I' for Inactive)
REMARK    1  A    between atoms: C1_2  and  C2_3 
ROOT
ATOM      1  C2  UNL d   1       0.321   0.799   0.512  0.00  0.00    -0.076 A 
ATOM      2  C3  UNL d   1       1.581   0.831  -0.111  0.00  0.00     0.004 A 
ATOM      3  C4  UNL d   1       2.465  -0.240   0.002  0.00  0.00    -0.003 A 
ATOM      4  C5  UNL d   1       2.104  -1.362   0.740  0.00  0.00     0.000 A 
ATOM      5  C6  UNL d   1       0.851  -1.419   1.349  0.00  0.00     0.000 A 
ATOM      6  C7  UNL d   1      -0.059  -0.354   1.231  0.00  0.00    -0.073 A 
ATOM      7  C8  UNL d   1      -1.394  -0.467   1.915  0.00  0.00     0.078 C 
ENDROOT
BRANCH   1   8
ATOM      8  C1  UNL d   1      -0.585   2.001   0.377  0.00  0.00     0.053 C 
ATOM      9  C   UNL d   1      -0.280   2.824  -0.866  0.00  0.00     0.018 C 
ENDBRANCH   1   8
TORSDOF 1
ENDMDL
