MODEL 1
REMARK minimizedAffinity -5.89186525
REMARK minimizedRMSD -1
REMARK  1 active torsions:
REMARK  status: ('A' for Active; 'I' for Inactive)
REMARK    1  A    between atoms: C1_2  and  C2_3 
ROOT
ATOM      1  C2  UNL d   1       0.465  -0.545   0.046  0.00  0.00    -0.076 A 
ATOM      2  C3  UNL d   1      -0.242  -1.553   0.724  0.00  0.00     0.004 A 
ATOM      3  C4  UNL d   1       0.423  -2.487   1.516  0.00  0.00    -0.003 A 
ATOM      4  C5  UNL d   1       1.806  -2.429   1.643  0.00  0.00     0.000 A 
ATOM      5  C6  UNL d   1       2.523  -1.426   0.991  0.00  0.00     0.000 A 
ATOM      6  C7  UNL d   1       1.866  -0.466   0.202  0.00  0.00    -0.073 A 
ATOM      7  C8  UNL d   1       2.688   0.590  -0.483  0.00  0.00     0.078 C 
ENDROOT
BRANCH   1   8
ATOM      8  C1  UNL d   1      -0.307   0.424  -0.821  0.00  0.00     0.053 C 
ATOM      9  C   UNL d   1      -1.259   1.295  -0.015  0.00  0.00     0.018 C 
ENDBRANCH   1   8
TORSDOF 1
ENDMDL
