MODEL 1
REMARK minimizedAffinity -3.52486753
REMARK minimizedRMSD -1
REMARK  1 active torsions:
REMARK  status: ('A' for Active; 'I' for Inactive)
REMARK    1  A    between atoms: C1_2  and  C2_3 
ROOT
ATOM      1  C2  UNL d   1      -0.105  -0.155   0.415  0.00  0.00    -0.076 A 
ATOM      2  C3  UNL d   1      -0.918  -0.890   1.296  0.00  0.00     0.004 A 
ATOM      3  C4  UNL d   1      -0.456  -2.066   1.885  0.00  0.00    -0.003 A 
ATOM      4  C5  UNL d   1       0.826  -2.525   1.604  0.00  0.00     0.000 A 
ATOM      5  C6  UNL d   1       1.652  -1.799   0.746  0.00  0.00     0.000 A 
ATOM      6  C7  UNL d   1       1.208  -0.603   0.157  0.00  0.00    -0.073 A 
ATOM      7  C8  UNL d   1       2.139   0.136  -0.765  0.00  0.00     0.078 C 
ENDROOT
BRANCH   1   8
ATOM      8  C1  UNL d   1      -0.669   1.099  -0.215  0.00  0.00     0.053 C 
ATOM      9  C   UNL d   1      -1.365   0.823  -1.539  0.00  0.00     0.018 C 
ENDBRANCH   1   8
TORSDOF 1
ENDMDL
