MODEL 1
REMARK minimizedAffinity -1.18785596
REMARK minimizedRMSD -1
REMARK  1 active torsions:
REMARK  status: ('A' for Active; 'I' for Inactive)
REMARK    1  A    between atoms: C1_2  and  C2_3 
ROOT
ATOM      1  C2  UNL d   1      -1.484   1.645  -1.623  0.00  0.00    -0.076 A 
ATOM      2  C3  UNL d   1      -0.716   2.661  -2.217  0.00  0.00     0.004 A 
ATOM      3  C4  UNL d   1      -1.063   3.190  -3.460  0.00  0.00    -0.003 A 
ATOM      4  C5  UNL d   1      -2.184   2.711  -4.128  0.00  0.00     0.000 A 
ATOM      5  C6  UNL d   1      -2.968   1.716  -3.545  0.00  0.00     0.000 A 
ATOM      6  C7  UNL d   1      -2.642   1.184  -2.286  0.00  0.00    -0.073 A 
ATOM      7  C8  UNL d   1      -3.519   0.108  -1.707  0.00  0.00     0.078 C 
ENDROOT
BRANCH   1   8
ATOM      8  C1  UNL d   1      -1.044   1.092  -0.287  0.00  0.00     0.053 C 
ATOM      9  C   UNL d   1       0.250   0.299  -0.382  0.00  0.00     0.018 C 
ENDBRANCH   1   8
TORSDOF 1
ENDMDL
