MODEL 1
REMARK minimizedAffinity -5.47776318
REMARK minimizedRMSD -1
REMARK  1 active torsions:
REMARK  status: ('A' for Active; 'I' for Inactive)
REMARK    1  A    between atoms: C1_2  and  C2_3 
ROOT
ATOM      1  C2  UNL d   1       0.307  -0.141   0.100  0.00  0.00    -0.076 A 
ATOM      2  C3  UNL d   1      -0.528  -1.146   0.620  0.00  0.00     0.004 A 
ATOM      3  C4  UNL d   1      -0.026  -2.409   0.925  0.00  0.00    -0.003 A 
ATOM      4  C5  UNL d   1       1.320  -2.690   0.714  0.00  0.00     0.000 A 
ATOM      5  C6  UNL d   1       2.166  -1.700   0.215  0.00  0.00     0.000 A 
ATOM      6  C7  UNL d   1       1.679  -0.416  -0.082  0.00  0.00    -0.073 A 
ATOM      7  C8  UNL d   1       2.635   0.612  -0.623  0.00  0.00     0.078 C 
ENDROOT
BRANCH   1   8
ATOM      8  C1  UNL d   1      -0.300   1.202  -0.237  0.00  0.00     0.053 C 
ATOM      9  C   UNL d   1      -1.415   1.096  -1.266  0.00  0.00     0.018 C 
ENDBRANCH   1   8
TORSDOF 1
ENDMDL
