MODEL 1
REMARK minimizedAffinity 3.36047292
REMARK minimizedRMSD -1
REMARK  1 active torsions:
REMARK  status: ('A' for Active; 'I' for Inactive)
REMARK    1  A    between atoms: C1_2  and  C2_3 
ROOT
ATOM      1  C2  UNL d   1      -1.210   0.358  -0.662  0.00  0.00    -0.076 A 
ATOM      2  C3  UNL d   1      -2.487   0.258  -1.242  0.00  0.00     0.004 A 
ATOM      3  C4  UNL d   1      -2.907   1.166  -2.213  0.00  0.00    -0.003 A 
ATOM      4  C5  UNL d   1      -2.056   2.187  -2.621  0.00  0.00     0.000 A 
ATOM      5  C6  UNL d   1      -0.779   2.291  -2.069  0.00  0.00     0.000 A 
ATOM      6  C7  UNL d   1      -0.335   1.374  -1.101  0.00  0.00    -0.073 A 
ATOM      7  C8  UNL d   1       1.050   1.536  -0.535  0.00  0.00     0.078 C 
ENDROOT
BRANCH   1   8
ATOM      8  C1  UNL d   1      -0.820  -0.639   0.406  0.00  0.00     0.053 C 
ATOM      9  C   UNL d   1      -1.662  -0.502   1.665  0.00  0.00     0.018 C 
ENDBRANCH   1   8
TORSDOF 1
ENDMDL
