MODEL 1
REMARK minimizedAffinity -5.49279451
REMARK minimizedRMSD -1
REMARK  1 active torsions:
REMARK  status: ('A' for Active; 'I' for Inactive)
REMARK    1  A    between atoms: C1_2  and  C2_3 
ROOT
ATOM      1  C2  UNL d   1      -0.082  -0.522   0.553  0.00  0.00    -0.076 A 
ATOM      2  C3  UNL d   1       1.109  -1.227   0.309  0.00  0.00     0.004 A 
ATOM      3  C4  UNL d   1       1.483  -2.303   1.111  0.00  0.00    -0.003 A 
ATOM      4  C5  UNL d   1       0.671  -2.693   2.170  0.00  0.00     0.000 A 
ATOM      5  C6  UNL d   1      -0.523  -2.016   2.417  0.00  0.00     0.000 A 
ATOM      6  C7  UNL d   1      -0.923  -0.939   1.608  0.00  0.00    -0.073 A 
ATOM      7  C8  UNL d   1      -2.217  -0.241   1.923  0.00  0.00     0.078 C 
ENDROOT
BRANCH   1   8
ATOM      8  C1  UNL d   1      -0.423   0.655  -0.333  0.00  0.00     0.053 C 
ATOM      9  C   UNL d   1      -1.196   0.243  -1.577  0.00  0.00     0.018 C 
ENDBRANCH   1   8
TORSDOF 1
ENDMDL
