MODEL 1
REMARK minimizedAffinity -3.12318134
REMARK minimizedRMSD -1
REMARK  1 active torsions:
REMARK  status: ('A' for Active; 'I' for Inactive)
REMARK    1  A    between atoms: C1_2  and  C2_3 
ROOT
ATOM      1  C2  UNL d   1      -0.319  -1.211   0.635  0.00  0.00    -0.076 A 
ATOM      2  C3  UNL d   1       0.276  -0.312  -0.268  0.00  0.00     0.004 A 
ATOM      3  C4  UNL d   1      -0.154   1.011  -0.351  0.00  0.00    -0.003 A 
ATOM      4  C5  UNL d   1      -1.185   1.458   0.467  0.00  0.00     0.000 A 
ATOM      5  C6  UNL d   1      -1.775   0.585   1.381  0.00  0.00     0.000 A 
ATOM      6  C7  UNL d   1      -1.343  -0.748   1.489  0.00  0.00    -0.073 A 
ATOM      7  C8  UNL d   1      -2.019  -1.647   2.487  0.00  0.00     0.078 C 
ENDROOT
BRANCH   1   8
ATOM      8  C1  UNL d   1       0.170  -2.641   0.661  0.00  0.00     0.053 C 
ATOM      9  C   UNL d   1       1.463  -2.800   1.446  0.00  0.00     0.018 C 
ENDBRANCH   1   8
TORSDOF 1
ENDMDL
