MODEL 1
REMARK minimizedAffinity -5.44352055
REMARK minimizedRMSD -1
REMARK  1 active torsions:
REMARK  status: ('A' for Active; 'I' for Inactive)
REMARK    1  A    between atoms: C1_2  and  C2_3 
ROOT
ATOM      1  C2  UNL d   1       1.125  -0.682   0.457  0.00  0.00    -0.076 A 
ATOM      2  C3  UNL d   1      -0.166  -0.833   0.991  0.00  0.00     0.004 A 
ATOM      3  C4  UNL d   1      -1.163   0.107   0.734  0.00  0.00    -0.003 A 
ATOM      4  C5  UNL d   1      -0.884   1.212  -0.063  0.00  0.00     0.000 A 
ATOM      5  C6  UNL d   1       0.387   1.368  -0.616  0.00  0.00     0.000 A 
ATOM      6  C7  UNL d   1       1.398   0.421  -0.379  0.00  0.00    -0.073 A 
ATOM      7  C8  UNL d   1       2.752   0.642  -0.995  0.00  0.00     0.078 C 
ENDROOT
BRANCH   1   8
ATOM      8  C1  UNL d   1       2.173  -1.719   0.794  0.00  0.00     0.053 C 
ATOM      9  C   UNL d   1       1.565  -3.063   1.165  0.00  0.00     0.018 C 
ENDBRANCH   1   8
TORSDOF 1
ENDMDL
