MODEL 1
REMARK minimizedAffinity -6.09562254
REMARK minimizedRMSD -1
REMARK  1 active torsions:
REMARK  status: ('A' for Active; 'I' for Inactive)
REMARK    1  A    between atoms: C1_2  and  C2_3 
ROOT
ATOM      1  C2  UNL d   1       0.684  -0.628   0.288  0.00  0.00    -0.076 A 
ATOM      2  C3  UNL d   1       1.177  -1.692   1.063  0.00  0.00     0.004 A 
ATOM      3  C4  UNL d   1       0.490  -2.136   2.192  0.00  0.00    -0.003 A 
ATOM      4  C5  UNL d   1      -0.702  -1.524   2.563  0.00  0.00     0.000 A 
ATOM      5  C6  UNL d   1      -1.214  -0.478   1.796  0.00  0.00     0.000 A 
ATOM      6  C7  UNL d   1      -0.543  -0.029   0.646  0.00  0.00    -0.073 A 
ATOM      7  C8  UNL d   1      -1.138   1.106  -0.141  0.00  0.00     0.078 C 
ENDROOT
BRANCH   1   8
ATOM      8  C1  UNL d   1       1.487  -0.172  -0.909  0.00  0.00     0.053 C 
ATOM      9  C   UNL d   1       2.717   0.630  -0.515  0.00  0.00     0.018 C 
ENDBRANCH   1   8
TORSDOF 1
ENDMDL
