MODEL 1
REMARK minimizedAffinity -3.90040231
REMARK minimizedRMSD -1
REMARK  1 active torsions:
REMARK  status: ('A' for Active; 'I' for Inactive)
REMARK    1  A    between atoms: C1_2  and  C2_3 
ROOT
ATOM      1  C2  UNL d   1      -0.167   0.579  -0.282  0.00  0.00    -0.076 A 
ATOM      2  C3  UNL d   1       0.932   0.792  -1.133  0.00  0.00     0.004 A 
ATOM      3  C4  UNL d   1       2.041  -0.052  -1.098  0.00  0.00    -0.003 A 
ATOM      4  C5  UNL d   1       2.069  -1.123  -0.212  0.00  0.00     0.000 A 
ATOM      5  C6  UNL d   1       0.980  -1.359   0.627  0.00  0.00     0.000 A 
ATOM      6  C7  UNL d   1      -0.152  -0.528   0.593  0.00  0.00    -0.073 A 
ATOM      7  C8  UNL d   1      -1.295  -0.826   1.524  0.00  0.00     0.078 C 
ENDROOT
BRANCH   1   8
ATOM      8  C1  UNL d   1      -1.330   1.544  -0.346  0.00  0.00     0.053 C 
ATOM      9  C   UNL d   1      -1.910   1.665  -1.747  0.00  0.00     0.018 C 
ENDBRANCH   1   8
TORSDOF 1
ENDMDL
