MODEL 1
REMARK minimizedAffinity -3.48331952
REMARK minimizedRMSD -1
REMARK  1 active torsions:
REMARK  status: ('A' for Active; 'I' for Inactive)
REMARK    1  A    between atoms: C1_2  and  C2_3 
ROOT
ATOM      1  C2  UNL d   1       0.202   0.110   0.077  0.00  0.00    -0.076 A 
ATOM      2  C3  UNL d   1       1.370   0.421  -0.640  0.00  0.00     0.004 A 
ATOM      3  C4  UNL d   1       2.513  -0.369  -0.528  0.00  0.00    -0.003 A 
ATOM      4  C5  UNL d   1       2.506  -1.484   0.303  0.00  0.00     0.000 A 
ATOM      5  C6  UNL d   1       1.350  -1.817   1.008  0.00  0.00     0.000 A 
ATOM      6  C7  UNL d   1       0.185  -1.041   0.894  0.00  0.00    -0.073 A 
ATOM      7  C8  UNL d   1      -1.031  -1.443   1.682  0.00  0.00     0.078 C 
ENDROOT
BRANCH   1   8
ATOM      8  C1  UNL d   1      -0.998   1.019  -0.063  0.00  0.00     0.053 C 
ATOM      9  C   UNL d   1      -1.441   1.181  -1.509  0.00  0.00     0.018 C 
ENDBRANCH   1   8
TORSDOF 1
ENDMDL
