MODEL 1
REMARK minimizedAffinity -4.47867584
REMARK minimizedRMSD -1
REMARK  1 active torsions:
REMARK  status: ('A' for Active; 'I' for Inactive)
REMARK    1  A    between atoms: C1_2  and  C2_3 
ROOT
ATOM      1  C2  UNL d   1      -1.101   3.040  -3.729  0.00  0.00    -0.076 A 
ATOM      2  C3  UNL d   1      -0.960   3.868  -4.856  0.00  0.00     0.004 A 
ATOM      3  C4  UNL d   1      -0.479   5.170  -4.734  0.00  0.00    -0.003 A 
ATOM      4  C5  UNL d   1      -0.130   5.666  -3.482  0.00  0.00     0.000 A 
ATOM      5  C6  UNL d   1      -0.247   4.853  -2.356  0.00  0.00     0.000 A 
ATOM      6  C7  UNL d   1      -0.715   3.532  -2.463  0.00  0.00    -0.073 A 
ATOM      7  C8  UNL d   1      -0.827   2.702  -1.214  0.00  0.00     0.078 C 
ENDROOT
BRANCH   1   8
ATOM      8  C1  UNL d   1      -1.654   1.646  -3.919  0.00  0.00     0.053 C 
ATOM      9  C   UNL d   1      -3.136   1.556  -3.590  0.00  0.00     0.018 C 
ENDBRANCH   1   8
TORSDOF 1
ENDMDL
