MODEL 1
REMARK minimizedAffinity 3.26122189
REMARK minimizedRMSD -1
REMARK  0 active torsions:
REMARK  status: ('A' for Active; 'I' for Inactive)
ROOT
ATOM      1  C   UNL d   1       1.235  -0.697   1.420  0.00  0.00     0.172 C 
ATOM      2  N   UNL d   1       2.417  -0.740   0.592  0.00  0.00    -0.070 N 
ATOM      3  C1  UNL d   1       3.686  -1.020   1.025  0.00  0.00    -0.004 A 
ATOM      4  C2  UNL d   1       4.527  -0.962  -0.065  0.00  0.00    -0.047 A 
ATOM      5  C3  UNL d   1       3.736  -0.635  -1.193  0.00  0.00    -0.047 A 
ATOM      6  C4  UNL d   1       2.435  -0.503  -0.757  0.00  0.00    -0.004 A 
ENDROOT
TORSDOF 0
ENDMDL
