MODEL 1
REMARK minimizedAffinity 5.46990728
REMARK minimizedRMSD -1
REMARK  0 active torsions:
REMARK  status: ('A' for Active; 'I' for Inactive)
ROOT
ATOM      1  C   UNL d   1       0.727  -0.184   2.126  0.00  0.00     0.172 C 
ATOM      2  N   UNL d   1       1.383   0.114   0.875  0.00  0.00    -0.070 N 
ATOM      3  C1  UNL d   1       1.343   1.316   0.219  0.00  0.00    -0.004 A 
ATOM      4  C2  UNL d   1       2.092   1.194  -0.931  0.00  0.00    -0.047 A 
ATOM      5  C3  UNL d   1       2.598  -0.127  -0.969  0.00  0.00    -0.047 A 
ATOM      6  C4  UNL d   1       2.144  -0.774   0.161  0.00  0.00    -0.004 A 
ENDROOT
TORSDOF 0
ENDMDL
