MODEL 1
REMARK minimizedAffinity 2.03167176
REMARK minimizedRMSD -1
REMARK  0 active torsions:
REMARK  status: ('A' for Active; 'I' for Inactive)
ROOT
ATOM      1  C   UNL d   1      -0.182   1.162   2.995  0.00  0.00     0.172 C 
ATOM      2  N   UNL d   1       0.980   0.430   2.547  0.00  0.00    -0.070 N 
ATOM      3  C1  UNL d   1       1.265   0.100   1.249  0.00  0.00    -0.004 A 
ATOM      4  C2  UNL d   1       2.456  -0.592   1.241  0.00  0.00    -0.047 A 
ATOM      5  C3  UNL d   1       2.902  -0.683   2.581  0.00  0.00    -0.047 A 
ATOM      6  C4  UNL d   1       1.969  -0.042   3.369  0.00  0.00    -0.004 A 
ENDROOT
TORSDOF 0
ENDMDL
