MODEL 1
REMARK minimizedAffinity 5.15900517
REMARK minimizedRMSD -1
REMARK  0 active torsions:
REMARK  status: ('A' for Active; 'I' for Inactive)
ROOT
ATOM      1  C   UNL d   1       3.120  -1.668   6.000  0.00  0.00     0.172 C 
ATOM      2  N   UNL d   1       2.245  -1.147   4.976  0.00  0.00    -0.070 N 
ATOM      3  C1  UNL d   1       1.472  -1.896   4.130  0.00  0.00    -0.004 A 
ATOM      4  C2  UNL d   1       0.786  -1.030   3.306  0.00  0.00    -0.047 A 
ATOM      5  C3  UNL d   1       1.160   0.286   3.671  0.00  0.00    -0.047 A 
ATOM      6  C4  UNL d   1       2.064   0.184   4.707  0.00  0.00    -0.004 A 
ENDROOT
TORSDOF 0
ENDMDL
