MODEL 1
REMARK minimizedAffinity 5.80096531
REMARK minimizedRMSD -1
REMARK  0 active torsions:
REMARK  status: ('A' for Active; 'I' for Inactive)
ROOT
ATOM      1  C   UNL d   1       1.840  -0.009   1.743  0.00  0.00     0.172 C 
ATOM      2  N   UNL d   1       0.702   0.529   2.451  0.00  0.00    -0.070 N 
ATOM      3  C1  UNL d   1       0.663   1.735   3.099  0.00  0.00    -0.004 A 
ATOM      4  C2  UNL d   1      -0.595   1.880   3.644  0.00  0.00    -0.047 A 
ATOM      5  C3  UNL d   1      -1.336   0.721   3.313  0.00  0.00    -0.047 A 
ATOM      6  C4  UNL d   1      -0.509  -0.098   2.575  0.00  0.00    -0.004 A 
ENDROOT
TORSDOF 0
ENDMDL
