MODEL 1
REMARK minimizedAffinity 1.91468394
REMARK minimizedRMSD -1
REMARK  0 active torsions:
REMARK  status: ('A' for Active; 'I' for Inactive)
ROOT
ATOM      1  C   UNL d   1       2.003   3.484   0.101  0.00  0.00     0.172 C 
ATOM      2  N   UNL d   1       1.981   2.050  -0.071  0.00  0.00    -0.070 N 
ATOM      3  C1  UNL d   1       1.747   1.131   0.916  0.00  0.00    -0.004 A 
ATOM      4  C2  UNL d   1       1.812  -0.124   0.349  0.00  0.00    -0.047 A 
ATOM      5  C3  UNL d   1       2.095   0.048  -1.027  0.00  0.00    -0.047 A 
ATOM      6  C4  UNL d   1       2.195   1.403  -1.260  0.00  0.00    -0.004 A 
ENDROOT
TORSDOF 0
ENDMDL
