MODEL 1
REMARK minimizedAffinity 5.51989937
REMARK minimizedRMSD -1
REMARK  0 active torsions:
REMARK  status: ('A' for Active; 'I' for Inactive)
ROOT
ATOM      1  C   UNL d   1      -4.776  -3.753  -5.998  0.00  0.00     0.172 C 
ATOM      2  N   UNL d   1      -3.610  -3.926  -5.163  0.00  0.00    -0.070 N 
ATOM      3  C1  UNL d   1      -2.914  -5.093  -4.997  0.00  0.00    -0.004 A 
ATOM      4  C2  UNL d   1      -1.874  -4.844  -4.127  0.00  0.00    -0.047 A 
ATOM      5  C3  UNL d   1      -1.949  -3.480  -3.757  0.00  0.00    -0.047 A 
ATOM      6  C4  UNL d   1      -3.033  -2.936  -4.413  0.00  0.00    -0.004 A 
ENDROOT
TORSDOF 0
ENDMDL
