MODEL 1
REMARK minimizedAffinity 6.93877602
REMARK minimizedRMSD -1
REMARK  0 active torsions:
REMARK  status: ('A' for Active; 'I' for Inactive)
ROOT
ATOM      1  C   UNL d   1       4.140   5.104   3.168  0.00  0.00     0.172 C 
ATOM      2  N   UNL d   1       4.619   4.113   4.103  0.00  0.00    -0.070 N 
ATOM      3  C1  UNL d   1       3.844   3.402   4.979  0.00  0.00    -0.004 A 
ATOM      4  C2  UNL d   1       4.674   2.564   5.692  0.00  0.00    -0.047 A 
ATOM      5  C3  UNL d   1       5.994   2.780   5.228  0.00  0.00    -0.047 A 
ATOM      6  C4  UNL d   1       5.931   3.744   4.245  0.00  0.00    -0.004 A 
ENDROOT
TORSDOF 0
ENDMDL
