MODEL 1
REMARK minimizedAffinity -0.657204509
REMARK minimizedRMSD -1
REMARK  0 active torsions:
REMARK  status: ('A' for Active; 'I' for Inactive)
ROOT
ATOM      1  C4' PXY d   1       2.363  -5.925  -5.999  0.00  0.00     0.077 C 
ATOM      2  C1' PXY d   1       4.094  -5.988  -0.484  0.00  0.00     0.077 C 
ATOM      3  C1  PXY d   1       3.651  -5.966  -1.934  0.00  0.00    -0.082 A 
ATOM      4  C2  PXY d   1       2.361  -5.982  -2.224  0.00  0.00     0.003 A 
ATOM      5  C3  PXY d   1       1.943  -5.995  -3.530  0.00  0.00     0.003 A 
ATOM      6  C4  PXY d   1       2.856  -5.937  -4.550  0.00  0.00    -0.082 A 
ATOM      7  C5  PXY d   1       4.174  -5.909  -4.261  0.00  0.00     0.003 A 
ATOM      8  C6  PXY d   1       4.578  -5.939  -2.930  0.00  0.00     0.003 A 
ENDROOT
TORSDOF 0
ENDMDL
