MODEL 1
REMARK minimizedAffinity 6.20435476
REMARK minimizedRMSD -1
REMARK  0 active torsions:
REMARK  status: ('A' for Active; 'I' for Inactive)
ROOT
ATOM      1  C4' PXY d   1      -1.138   0.325  -1.884  0.00  0.00     0.077 C 
ATOM      2  C1' PXY d   1      -5.326   3.486   0.541  0.00  0.00     0.077 C 
ATOM      3  C1  PXY d   1      -4.235   2.656  -0.106  0.00  0.00    -0.082 A 
ATOM      4  C2  PXY d   1      -3.409   1.954   0.654  0.00  0.00     0.003 A 
ATOM      5  C3  PXY d   1      -2.397   1.224   0.086  0.00  0.00     0.003 A 
ATOM      6  C4  PXY d   1      -2.261   1.169  -1.275  0.00  0.00    -0.082 A 
ATOM      7  C5  PXY d   1      -3.105   1.874  -2.057  0.00  0.00     0.003 A 
ATOM      8  C6  PXY d   1      -4.101   2.642  -1.460  0.00  0.00     0.003 A 
ENDROOT
TORSDOF 0
ENDMDL
