MODEL 1
REMARK minimizedAffinity 11.852356
REMARK minimizedRMSD -1
REMARK  0 active torsions:
REMARK  status: ('A' for Active; 'I' for Inactive)
ROOT
ATOM      1  C4' PXY d   1      -5.973   1.170  -1.984  0.00  0.00     0.077 C 
ATOM      2  C1' PXY d   1      -5.938   4.458   2.770  0.00  0.00     0.077 C 
ATOM      3  C1  PXY d   1      -5.942   3.586   1.530  0.00  0.00    -0.082 A 
ATOM      4  C2  PXY d   1      -5.950   4.150   0.334  0.00  0.00     0.003 A 
ATOM      5  C3  PXY d   1      -5.986   3.377  -0.798  0.00  0.00     0.003 A 
ATOM      6  C4  PXY d   1      -5.959   2.011  -0.705  0.00  0.00    -0.082 A 
ATOM      7  C5  PXY d   1      -5.940   1.427   0.512  0.00  0.00     0.003 A 
ATOM      8  C6  PXY d   1      -5.946   2.230   1.649  0.00  0.00     0.003 A 
ENDROOT
TORSDOF 0
ENDMDL
