MODEL 1
REMARK minimizedAffinity 3.400702
REMARK minimizedRMSD -1
REMARK  0 active torsions:
REMARK  status: ('A' for Active; 'I' for Inactive)
ROOT
ATOM      1  C4' PXY d   1      -3.021  -5.666  -1.329  0.00  0.00     0.077 C 
ATOM      2  C1' PXY d   1      -2.820  -0.144  -3.025  0.00  0.00     0.077 C 
ATOM      3  C1  PXY d   1      -2.860  -1.591  -2.576  0.00  0.00    -0.082 A 
ATOM      4  C2  PXY d   1      -3.690  -2.436  -3.165  0.00  0.00     0.003 A 
ATOM      5  C3  PXY d   1      -3.763  -3.741  -2.750  0.00  0.00     0.003 A 
ATOM      6  C4  PXY d   1      -2.939  -4.198  -1.756  0.00  0.00    -0.082 A 
ATOM      7  C5  PXY d   1      -2.082  -3.345  -1.157  0.00  0.00     0.003 A 
ATOM      8  C6  PXY d   1      -2.053  -2.014  -1.566  0.00  0.00     0.003 A 
ENDROOT
TORSDOF 0
ENDMDL
