MODEL 1
REMARK minimizedAffinity -0.181624711
REMARK minimizedRMSD -1
REMARK  0 active torsions:
REMARK  status: ('A' for Active; 'I' for Inactive)
ROOT
ATOM      1  C4' PXY d   1       0.937  -5.206   5.629  0.00  0.00     0.077 C 
ATOM      2  C1' PXY d   1       2.708  -0.852   2.263  0.00  0.00     0.077 C 
ATOM      3  C1  PXY d   1       2.244  -2.002   3.136  0.00  0.00    -0.082 A 
ATOM      4  C2  PXY d   1       1.548  -1.751   4.233  0.00  0.00     0.003 A 
ATOM      5  C3  PXY d   1       1.148  -2.777   5.050  0.00  0.00     0.003 A 
ATOM      6  C4  PXY d   1       1.418  -4.077   4.713  0.00  0.00    -0.082 A 
ATOM      7  C5  PXY d   1       2.118  -4.341   3.590  0.00  0.00     0.003 A 
ATOM      8  C6  PXY d   1       2.551  -3.283   2.795  0.00  0.00     0.003 A 
ENDROOT
TORSDOF 0
ENDMDL
