MODEL 1
REMARK minimizedAffinity -1.78895116
REMARK minimizedRMSD -1
REMARK  2 active torsions:
REMARK  status: ('A' for Active; 'I' for Inactive)
REMARK    1  A    between atoms: C1_2  and  C2_3 
REMARK    2  A    between atoms: C2_3  and  C3_4 
ROOT
ATOM      1  C3  UNL d   1      -0.241  -4.064  -2.692  0.00  0.00    -0.075 A 
ATOM      2  C4  UNL d   1       0.010  -2.944  -3.498  0.00  0.00     0.002 A 
ATOM      3  C5  UNL d   1      -0.174  -1.655  -2.997  0.00  0.00     0.002 A 
ATOM      4  C6  UNL d   1      -0.621  -1.470  -1.690  0.00  0.00    -0.004 A 
ATOM      5  C7  UNL d   1      -0.890  -2.575  -0.886  0.00  0.00     0.002 A 
ATOM      6  C8  UNL d   1      -0.702  -3.866  -1.383  0.00  0.00     0.002 A 
ENDROOT
BRANCH   1   7
ATOM      7  C2  UNL d   1      -0.015  -5.461  -3.219  0.00  0.00     0.056 C 
BRANCH   7   8
ATOM      8  C1  UNL d   1      -1.150  -5.984  -4.106  0.00  0.00     0.007 C 
ATOM      9  C   UNL d   1      -0.803  -5.980  -5.589  0.00  0.00     0.009 C 
ENDBRANCH   7   8
ENDBRANCH   1   7
TORSDOF 2
ENDMDL
