MODEL 1
REMARK minimizedAffinity -0.0436257794
REMARK minimizedRMSD -1
REMARK  2 active torsions:
REMARK  status: ('A' for Active; 'I' for Inactive)
REMARK    1  A    between atoms: C1_2  and  C2_3 
REMARK    2  A    between atoms: C2_3  and  C3_4 
ROOT
ATOM      1  C3  UNL d   1       4.348  -3.175   3.737  0.00  0.00    -0.075 A 
ATOM      2  C4  UNL d   1       5.502  -3.032   4.521  0.00  0.00     0.002 A 
ATOM      3  C5  UNL d   1       5.701  -3.837   5.643  0.00  0.00     0.002 A 
ATOM      4  C6  UNL d   1       4.747  -4.787   6.000  0.00  0.00    -0.004 A 
ATOM      5  C7  UNL d   1       3.589  -4.927   5.238  0.00  0.00     0.002 A 
ATOM      6  C8  UNL d   1       3.389  -4.125   4.113  0.00  0.00     0.002 A 
ENDROOT
BRANCH   1   7
ATOM      7  C2  UNL d   1       4.140  -2.326   2.506  0.00  0.00     0.056 C 
BRANCH   7   8
ATOM      8  C1  UNL d   1       4.906  -2.818   1.273  0.00  0.00     0.007 C 
ATOM      9  C   UNL d   1       4.910  -1.814   0.128  0.00  0.00     0.009 C 
ENDBRANCH   7   8
ENDBRANCH   1   7
TORSDOF 2
ENDMDL
