MODEL 1
REMARK minimizedAffinity 3.77787232
REMARK minimizedRMSD -1
REMARK  2 active torsions:
REMARK  status: ('A' for Active; 'I' for Inactive)
REMARK    1  A    between atoms: C1_2  and  C2_3 
REMARK    2  A    between atoms: C2_3  and  C3_4 
ROOT
ATOM      1  C3  UNL d   1       5.697   5.294  -3.450  0.00  0.00    -0.075 A 
ATOM      2  C4  UNL d   1       6.000   3.936  -3.623  0.00  0.00     0.002 A 
ATOM      3  C5  UNL d   1       5.746   3.303  -4.840  0.00  0.00     0.002 A 
ATOM      4  C6  UNL d   1       5.178   4.015  -5.894  0.00  0.00    -0.004 A 
ATOM      5  C7  UNL d   1       4.858   5.361  -5.728  0.00  0.00     0.002 A 
ATOM      6  C8  UNL d   1       5.115   5.998  -4.513  0.00  0.00     0.002 A 
ENDROOT
BRANCH   1   7
ATOM      7  C2  UNL d   1       5.997   5.993  -2.145  0.00  0.00     0.056 C 
BRANCH   7   8
ATOM      8  C1  UNL d   1       5.559   5.209  -0.903  0.00  0.00     0.007 C 
ATOM      9  C   UNL d   1       4.047   5.075  -0.779  0.00  0.00     0.009 C 
ENDBRANCH   7   8
ENDBRANCH   1   7
TORSDOF 2
ENDMDL
