MODEL 1
REMARK minimizedAffinity 8.62280941
REMARK minimizedRMSD -1
REMARK  2 active torsions:
REMARK  status: ('A' for Active; 'I' for Inactive)
REMARK    1  A    between atoms: C1_2  and  C2_3 
REMARK    2  A    between atoms: C2_3  and  C3_4 
ROOT
ATOM      1  C3  UNL d   1       2.738  -2.505  -1.995  0.00  0.00    -0.075 A 
ATOM      2  C4  UNL d   1       2.858  -2.964  -3.315  0.00  0.00     0.002 A 
ATOM      3  C5  UNL d   1       1.741  -3.020  -4.150  0.00  0.00     0.002 A 
ATOM      4  C6  UNL d   1       0.492  -2.629  -3.674  0.00  0.00    -0.004 A 
ATOM      5  C7  UNL d   1       0.358  -2.187  -2.360  0.00  0.00     0.002 A 
ATOM      6  C8  UNL d   1       1.474  -2.125  -1.524  0.00  0.00     0.002 A 
ENDROOT
BRANCH   1   7
ATOM      7  C2  UNL d   1       3.948  -2.414  -1.096  0.00  0.00     0.056 C 
BRANCH   7   8
ATOM      8  C1  UNL d   1       3.666  -2.774   0.366  0.00  0.00     0.007 C 
ATOM      9  C   UNL d   1       3.365  -1.561   1.236  0.00  0.00     0.009 C 
ENDBRANCH   7   8
ENDBRANCH   1   7
TORSDOF 2
ENDMDL
