MODEL 1
REMARK minimizedAffinity 10.9129372
REMARK minimizedRMSD -1
REMARK  2 active torsions:
REMARK  status: ('A' for Active; 'I' for Inactive)
REMARK    1  A    between atoms: C1_2  and  C2_3 
REMARK    2  A    between atoms: C2_3  and  C3_4 
ROOT
ATOM      1  C3  UNL d   1       5.346   5.380  -3.346  0.00  0.00    -0.075 A 
ATOM      2  C4  UNL d   1       5.999   5.449  -4.585  0.00  0.00     0.002 A 
ATOM      3  C5  UNL d   1       5.388   4.953  -5.737  0.00  0.00     0.002 A 
ATOM      4  C6  UNL d   1       4.123   4.375  -5.664  0.00  0.00    -0.004 A 
ATOM      5  C7  UNL d   1       3.471   4.286  -4.436  0.00  0.00     0.002 A 
ATOM      6  C8  UNL d   1       4.079   4.785  -3.282  0.00  0.00     0.002 A 
ENDROOT
BRANCH   1   7
ATOM      7  C2  UNL d   1       5.990   5.941  -2.101  0.00  0.00     0.056 C 
BRANCH   7   8
ATOM      8  C1  UNL d   1       5.158   5.748  -0.828  0.00  0.00     0.007 C 
ATOM      9  C   UNL d   1       5.994   5.351   0.381  0.00  0.00     0.009 C 
ENDBRANCH   7   8
ENDBRANCH   1   7
TORSDOF 2
ENDMDL
