MODEL 1
REMARK minimizedAffinity 0.97056973
REMARK minimizedRMSD -1
REMARK  2 active torsions:
REMARK  status: ('A' for Active; 'I' for Inactive)
REMARK    1  A    between atoms: C1_2  and  C2_3 
REMARK    2  A    between atoms: C2_3  and  C3_4 
ROOT
ATOM      1  C3  UNL d   1       4.826   4.974  -3.864  0.00  0.00    -0.075 A 
ATOM      2  C4  UNL d   1       4.770   3.574  -3.823  0.00  0.00     0.002 A 
ATOM      3  C5  UNL d   1       5.322   2.812  -4.853  0.00  0.00     0.002 A 
ATOM      4  C6  UNL d   1       5.927   3.438  -5.940  0.00  0.00    -0.004 A 
ATOM      5  C7  UNL d   1       5.974   4.830  -6.000  0.00  0.00     0.002 A 
ATOM      6  C8  UNL d   1       5.427   5.595  -4.968  0.00  0.00     0.002 A 
ENDROOT
BRANCH   1   7
ATOM      7  C2  UNL d   1       4.257   5.804  -2.739  0.00  0.00     0.056 C 
BRANCH   7   8
ATOM      8  C1  UNL d   1       5.205   5.972  -1.546  0.00  0.00     0.007 C 
ATOM      9  C   UNL d   1       5.997   4.711  -1.227  0.00  0.00     0.009 C 
ENDBRANCH   7   8
ENDBRANCH   1   7
TORSDOF 2
ENDMDL
