MODEL 1
REMARK minimizedAffinity 3.14949346
REMARK minimizedRMSD -1
REMARK  2 active torsions:
REMARK  status: ('A' for Active; 'I' for Inactive)
REMARK    1  A    between atoms: C1_2  and  C2_3 
REMARK    2  A    between atoms: C2_3  and  C3_4 
ROOT
ATOM      1  C3  UNL d   1       4.523   4.855  -3.328  0.00  0.00    -0.075 A 
ATOM      2  C4  UNL d   1       5.348   3.798  -3.740  0.00  0.00     0.002 A 
ATOM      3  C5  UNL d   1       6.000   3.847  -4.972  0.00  0.00     0.002 A 
ATOM      4  C6  UNL d   1       5.828   4.946  -5.811  0.00  0.00    -0.004 A 
ATOM      5  C7  UNL d   1       4.998   5.994  -5.420  0.00  0.00     0.002 A 
ATOM      6  C8  UNL d   1       4.348   5.949  -4.185  0.00  0.00     0.002 A 
ENDROOT
BRANCH   1   7
ATOM      7  C2  UNL d   1       3.838   4.821  -1.983  0.00  0.00     0.056 C 
BRANCH   7   8
ATOM      8  C1  UNL d   1       4.638   5.485  -0.858  0.00  0.00     0.007 C 
ATOM      9  C   UNL d   1       5.999   5.997  -1.311  0.00  0.00     0.009 C 
ENDBRANCH   7   8
ENDBRANCH   1   7
TORSDOF 2
ENDMDL
