MODEL 1
REMARK minimizedAffinity 4.57131815
REMARK minimizedRMSD -1
REMARK  2 active torsions:
REMARK  status: ('A' for Active; 'I' for Inactive)
REMARK    1  A    between atoms: C1_2  and  C2_3 
REMARK    2  A    between atoms: C2_3  and  C3_4 
ROOT
ATOM      1  C3  UNL d   1      -0.047  -2.451  -2.304  0.00  0.00    -0.075 A 
ATOM      2  C4  UNL d   1      -0.359  -1.647  -1.198  0.00  0.00     0.002 A 
ATOM      3  C5  UNL d   1      -0.880  -2.214  -0.035  0.00  0.00     0.002 A 
ATOM      4  C6  UNL d   1      -1.105  -3.587   0.034  0.00  0.00    -0.004 A 
ATOM      5  C7  UNL d   1      -0.814  -4.393  -1.064  0.00  0.00     0.002 A 
ATOM      6  C8  UNL d   1      -0.288  -3.829  -2.228  0.00  0.00     0.002 A 
ENDROOT
BRANCH   1   7
ATOM      7  C2  UNL d   1       0.545  -1.848  -3.556  0.00  0.00     0.056 C 
BRANCH   7   8
ATOM      8  C1  UNL d   1       1.891  -2.455  -3.964  0.00  0.00     0.007 C 
ATOM      9  C   UNL d   1       3.047  -2.002  -3.082  0.00  0.00     0.009 C 
ENDBRANCH   7   8
ENDBRANCH   1   7
TORSDOF 2
ENDMDL
