MODEL 1
REMARK minimizedAffinity 0.138834178
REMARK minimizedRMSD -1
REMARK  2 active torsions:
REMARK  status: ('A' for Active; 'I' for Inactive)
REMARK    1  A    between atoms: C1_2  and  C2_3 
REMARK    2  A    between atoms: C2_3  and  C3_4 
ROOT
ATOM      1  C3  UNL d   1       4.155  -2.340   3.374  0.00  0.00    -0.075 A 
ATOM      2  C4  UNL d   1       3.743  -1.459   4.383  0.00  0.00     0.002 A 
ATOM      3  C5  UNL d   1       4.219  -1.602   5.687  0.00  0.00     0.002 A 
ATOM      4  C6  UNL d   1       5.103  -2.632   5.999  0.00  0.00    -0.004 A 
ATOM      5  C7  UNL d   1       5.507  -3.524   5.008  0.00  0.00     0.002 A 
ATOM      6  C8  UNL d   1       5.036  -3.380   3.701  0.00  0.00     0.002 A 
ENDROOT
BRANCH   1   7
ATOM      7  C2  UNL d   1       3.667  -2.172   1.955  0.00  0.00     0.056 C 
BRANCH   7   8
ATOM      8  C1  UNL d   1       4.661  -2.651   0.892  0.00  0.00     0.007 C 
ATOM      9  C   UNL d   1       4.452  -1.994  -0.466  0.00  0.00     0.009 C 
ENDBRANCH   7   8
ENDBRANCH   1   7
TORSDOF 2
ENDMDL
