MODEL 1
REMARK minimizedAffinity 3.03586078
REMARK minimizedRMSD -1
REMARK  2 active torsions:
REMARK  status: ('A' for Active; 'I' for Inactive)
REMARK    1  A    between atoms: C1_2  and  C2_3 
REMARK    2  A    between atoms: C2_3  and  C3_4 
ROOT
ATOM      1  C3  UNL d   1      -1.271  -2.256  -0.836  0.00  0.00    -0.075 A 
ATOM      2  C4  UNL d   1      -2.672  -2.316  -0.814  0.00  0.00     0.002 A 
ATOM      3  C5  UNL d   1      -3.345  -2.722   0.338  0.00  0.00     0.002 A 
ATOM      4  C6  UNL d   1      -2.629  -3.082   1.477  0.00  0.00    -0.004 A 
ATOM      5  C7  UNL d   1      -1.236  -3.042   1.461  0.00  0.00     0.002 A 
ATOM      6  C8  UNL d   1      -0.559  -2.632   0.311  0.00  0.00     0.002 A 
ENDROOT
BRANCH   1   7
ATOM      7  C2  UNL d   1      -0.537  -1.789  -2.070  0.00  0.00     0.056 C 
BRANCH   7   8
ATOM      8  C1  UNL d   1       0.989  -1.801  -1.931  0.00  0.00     0.007 C 
ATOM      9  C   UNL d   1       1.709  -2.113  -3.236  0.00  0.00     0.009 C 
ENDBRANCH   7   8
ENDBRANCH   1   7
TORSDOF 2
ENDMDL
