MODEL 1
REMARK minimizedAffinity 2.30407119
REMARK minimizedRMSD -1
REMARK  2 active torsions:
REMARK  status: ('A' for Active; 'I' for Inactive)
REMARK    1  A    between atoms: C1_2  and  C2_3 
REMARK    2  A    between atoms: C2_3  and  C3_4 
ROOT
ATOM      1  C3  UNL d   1      -0.095  -2.922  -1.863  0.00  0.00    -0.075 A 
ATOM      2  C4  UNL d   1       0.317  -2.316  -3.058  0.00  0.00     0.002 A 
ATOM      3  C5  UNL d   1       0.535  -3.083  -4.203  0.00  0.00     0.002 A 
ATOM      4  C6  UNL d   1       0.354  -4.463  -4.165  0.00  0.00    -0.004 A 
ATOM      5  C7  UNL d   1      -0.039  -5.078  -2.978  0.00  0.00     0.002 A 
ATOM      6  C8  UNL d   1      -0.262  -4.313  -1.833  0.00  0.00     0.002 A 
ENDROOT
BRANCH   1   7
ATOM      7  C2  UNL d   1      -0.361  -2.094  -0.628  0.00  0.00     0.056 C 
BRANCH   7   8
ATOM      8  C1  UNL d   1      -0.453  -2.913   0.664  0.00  0.00     0.007 C 
ATOM      9  C   UNL d   1      -1.562  -2.441   1.595  0.00  0.00     0.009 C 
ENDBRANCH   7   8
ENDBRANCH   1   7
TORSDOF 2
ENDMDL
