MODEL 1
REMARK minimizedAffinity 3.87507367
REMARK minimizedRMSD -1
REMARK  2 active torsions:
REMARK  status: ('A' for Active; 'I' for Inactive)
REMARK    1  A    between atoms: C1_2  and  C2_3 
REMARK    2  A    between atoms: C2_3  and  C3_4 
ROOT
ATOM      1  C3  UNL d   1      -0.318  -1.757  -1.279  0.00  0.00    -0.075 A 
ATOM      2  C4  UNL d   1      -0.124  -1.216   0.000  0.00  0.00     0.002 A 
ATOM      3  C5  UNL d   1      -0.930  -1.614   1.067  0.00  0.00     0.002 A 
ATOM      4  C6  UNL d   1      -1.944  -2.548   0.867  0.00  0.00    -0.004 A 
ATOM      5  C7  UNL d   1      -2.157  -3.079  -0.403  0.00  0.00     0.002 A 
ATOM      6  C8  UNL d   1      -1.350  -2.686  -1.472  0.00  0.00     0.002 A 
ENDROOT
BRANCH   1   7
ATOM      7  C2  UNL d   1       0.569  -1.352  -2.432  0.00  0.00     0.056 C 
BRANCH   7   8
ATOM      8  C1  UNL d   1       1.708  -2.338  -2.718  0.00  0.00     0.007 C 
ATOM      9  C   UNL d   1       3.090  -1.737  -2.502  0.00  0.00     0.009 C 
ENDBRANCH   7   8
ENDBRANCH   1   7
TORSDOF 2
ENDMDL
