MODEL 1
REMARK minimizedAffinity -2.65460658
REMARK minimizedRMSD -1
REMARK  2 active torsions:
REMARK  status: ('A' for Active; 'I' for Inactive)
REMARK    1  A    between atoms: C1_2  and  C2_3 
REMARK    2  A    between atoms: C2_3  and  C3_4 
ROOT
ATOM      1  C3  UNL d   1      -0.649  -3.093  -0.708  0.00  0.00    -0.075 A 
ATOM      2  C4  UNL d   1      -0.271  -4.223  -1.448  0.00  0.00     0.002 A 
ATOM      3  C5  UNL d   1       0.287  -4.083  -2.719  0.00  0.00     0.002 A 
ATOM      4  C6  UNL d   1       0.465  -2.815  -3.269  0.00  0.00    -0.004 A 
ATOM      5  C7  UNL d   1       0.077  -1.687  -2.550  0.00  0.00     0.002 A 
ATOM      6  C8  UNL d   1      -0.478  -1.824  -1.276  0.00  0.00     0.002 A 
ENDROOT
BRANCH   1   7
ATOM      7  C2  UNL d   1      -1.227  -3.237   0.680  0.00  0.00     0.056 C 
BRANCH   7   8
ATOM      8  C1  UNL d   1      -2.387  -2.280   0.975  0.00  0.00     0.007 C 
ATOM      9  C   UNL d   1      -3.751  -2.953   0.908  0.00  0.00     0.009 C 
ENDBRANCH   7   8
ENDBRANCH   1   7
TORSDOF 2
ENDMDL
