MODEL 1
REMARK minimizedAffinity -1.04399133
REMARK minimizedRMSD -1
REMARK  0 active torsions:
REMARK  status: ('A' for Active; 'I' for Inactive)
ROOT
ATOM      1  C2' OXE d   1       4.495  -3.223  -4.943  0.00  0.00     0.078 C 
ATOM      2  C1' OXE d   1       1.774  -2.861  -5.531  0.00  0.00     0.078 C 
ATOM      3  C1  OXE d   1       2.131  -3.475  -4.200  0.00  0.00    -0.078 A 
ATOM      4  C2  OXE d   1       3.462  -3.691  -3.940  0.00  0.00    -0.078 A 
ATOM      5  C3  OXE d   1       3.849  -4.204  -2.705  0.00  0.00     0.003 A 
ATOM      6  C4  OXE d   1       2.887  -4.643  -1.787  0.00  0.00    -0.002 A 
ATOM      7  C5  OXE d   1       1.524  -4.469  -2.049  0.00  0.00    -0.002 A 
ATOM      8  C6  OXE d   1       1.131  -3.849  -3.230  0.00  0.00     0.003 A 
ENDROOT
TORSDOF 0
ENDMDL
