MODEL 1
REMARK minimizedAffinity 3.10731387
REMARK minimizedRMSD -1
REMARK  0 active torsions:
REMARK  status: ('A' for Active; 'I' for Inactive)
ROOT
ATOM      1  C2' OXE d   1       4.894  -4.888  -4.927  0.00  0.00     0.078 C 
ATOM      2  C1' OXE d   1       6.000  -2.542  -6.000  0.00  0.00     0.078 C 
ATOM      3  C1  OXE d   1       4.843  -2.400  -5.043  0.00  0.00    -0.078 A 
ATOM      4  C2  OXE d   1       4.278  -3.556  -4.559  0.00  0.00    -0.078 A 
ATOM      5  C3  OXE d   1       3.244  -3.481  -3.630  0.00  0.00     0.003 A 
ATOM      6  C4  OXE d   1       2.673  -2.245  -3.303  0.00  0.00    -0.002 A 
ATOM      7  C5  OXE d   1       3.207  -1.058  -3.815  0.00  0.00    -0.002 A 
ATOM      8  C6  OXE d   1       4.317  -1.116  -4.651  0.00  0.00     0.003 A 
ENDROOT
TORSDOF 0
ENDMDL
