MODEL 1
REMARK minimizedAffinity 3.71109796
REMARK minimizedRMSD -1
REMARK  0 active torsions:
REMARK  status: ('A' for Active; 'I' for Inactive)
ROOT
ATOM      1  C2' OXE d   1       3.241  -2.382  -4.533  0.00  0.00     0.078 C 
ATOM      2  C1' OXE d   1       5.612  -2.053  -5.999  0.00  0.00     0.078 C 
ATOM      3  C1  OXE d   1       5.218  -3.454  -5.604  0.00  0.00    -0.078 A 
ATOM      4  C2  OXE d   1       4.081  -3.601  -4.847  0.00  0.00    -0.078 A 
ATOM      5  C3  OXE d   1       3.642  -4.876  -4.502  0.00  0.00     0.003 A 
ATOM      6  C4  OXE d   1       4.430  -5.998  -4.788  0.00  0.00    -0.002 A 
ATOM      7  C5  OXE d   1       5.612  -5.867  -5.524  0.00  0.00    -0.002 A 
ATOM      8  C6  OXE d   1       5.997  -4.609  -5.976  0.00  0.00     0.003 A 
ENDROOT
TORSDOF 0
ENDMDL
