MODEL 1
REMARK minimizedAffinity 6.69691181
REMARK minimizedRMSD -1
REMARK  0 active torsions:
REMARK  status: ('A' for Active; 'I' for Inactive)
ROOT
ATOM      1  C2' OXE d   1       1.635  -0.562   2.895  0.00  0.00     0.078 C 
ATOM      2  C1' OXE d   1       2.031  -2.243   5.108  0.00  0.00     0.078 C 
ATOM      3  C1  OXE d   1       2.802  -2.546   3.848  0.00  0.00    -0.078 A 
ATOM      4  C2  OXE d   1       2.567  -1.746   2.755  0.00  0.00    -0.078 A 
ATOM      5  C3  OXE d   1       3.292  -1.949   1.584  0.00  0.00     0.003 A 
ATOM      6  C4  OXE d   1       4.145  -3.053   1.460  0.00  0.00    -0.002 A 
ATOM      7  C5  OXE d   1       4.368  -3.903   2.549  0.00  0.00    -0.002 A 
ATOM      8  C6  OXE d   1       3.738  -3.639   3.760  0.00  0.00     0.003 A 
ENDROOT
TORSDOF 0
ENDMDL
