MODEL 1
REMARK minimizedAffinity 12.1168814
REMARK minimizedRMSD -1
REMARK  0 active torsions:
REMARK  status: ('A' for Active; 'I' for Inactive)
ROOT
ATOM      1  C2' OXE d   1       1.594  -0.941   2.432  0.00  0.00     0.078 C 
ATOM      2  C1' OXE d   1       1.970  -2.247   4.888  0.00  0.00     0.078 C 
ATOM      3  C1  OXE d   1       2.795  -2.708   3.712  0.00  0.00    -0.078 A 
ATOM      4  C2  OXE d   1       2.571  -2.094   2.503  0.00  0.00    -0.078 A 
ATOM      5  C3  OXE d   1       3.344  -2.443   1.399  0.00  0.00     0.003 A 
ATOM      6  C4  OXE d   1       4.238  -3.518   1.471  0.00  0.00    -0.002 A 
ATOM      7  C5  OXE d   1       4.453  -4.183   2.683  0.00  0.00    -0.002 A 
ATOM      8  C6  OXE d   1       3.772  -3.763   3.821  0.00  0.00     0.003 A 
ENDROOT
TORSDOF 0
ENDMDL
