MODEL 1
REMARK minimizedAffinity 11.1194773
REMARK minimizedRMSD -1
REMARK  0 active torsions:
REMARK  status: ('A' for Active; 'I' for Inactive)
ROOT
ATOM      1  C2' OXE d   1       1.443  -1.731  -3.108  0.00  0.00     0.078 C 
ATOM      2  C1' OXE d   1      -0.621   0.121  -2.670  0.00  0.00     0.078 C 
ATOM      3  C1  OXE d   1      -0.420  -0.965  -1.642  0.00  0.00    -0.078 A 
ATOM      4  C2  OXE d   1       0.562  -1.895  -1.888  0.00  0.00    -0.078 A 
ATOM      5  C3  OXE d   1       0.824  -2.885  -0.946  0.00  0.00     0.003 A 
ATOM      6  C4  OXE d   1      -0.002  -3.036   0.174  0.00  0.00    -0.002 A 
ATOM      7  C5  OXE d   1      -1.033  -2.123   0.423  0.00  0.00    -0.002 A 
ATOM      8  C6  OXE d   1      -1.228  -1.060  -0.451  0.00  0.00     0.003 A 
ENDROOT
TORSDOF 0
ENDMDL
