MODEL 1
REMARK minimizedAffinity 7.92969418
REMARK minimizedRMSD -1
REMARK  0 active torsions:
REMARK  status: ('A' for Active; 'I' for Inactive)
ROOT
ATOM      1  C2' OXE d   1      -5.489  -1.095  -3.076  0.00  0.00     0.078 C 
ATOM      2  C1' OXE d   1      -5.670  -0.964  -5.874  0.00  0.00     0.078 C 
ATOM      3  C1  OXE d   1      -5.759  -2.323  -5.226  0.00  0.00    -0.078 A 
ATOM      4  C2  OXE d   1      -5.623  -2.382  -3.860  0.00  0.00    -0.078 A 
ATOM      5  C3  OXE d   1      -5.751  -3.605  -3.207  0.00  0.00     0.003 A 
ATOM      6  C4  OXE d   1      -5.864  -4.792  -3.941  0.00  0.00    -0.002 A 
ATOM      7  C5  OXE d   1      -5.965  -4.758  -5.335  0.00  0.00    -0.002 A 
ATOM      8  C6  OXE d   1      -5.957  -3.530  -5.989  0.00  0.00     0.003 A 
ENDROOT
TORSDOF 0
ENDMDL
