MODEL 1
REMARK minimizedAffinity -5.47126436
REMARK minimizedRMSD -1
REMARK  0 active torsions:
REMARK  status: ('A' for Active; 'I' for Inactive)
ROOT
ATOM      1  C2' OXE d   1       1.122   2.178  -0.267  0.00  0.00     0.078 C 
ATOM      2  C1' OXE d   1      -0.597  -0.034  -0.434  0.00  0.00     0.078 C 
ATOM      3  C1  OXE d   1       0.694  -0.203   0.327  0.00  0.00    -0.078 A 
ATOM      4  C2  OXE d   1       1.551   0.871   0.363  0.00  0.00    -0.078 A 
ATOM      5  C3  OXE d   1       2.731   0.787   1.097  0.00  0.00     0.003 A 
ATOM      6  C4  OXE d   1       3.125  -0.429   1.669  0.00  0.00    -0.002 A 
ATOM      7  C5  OXE d   1       2.285  -1.547   1.609  0.00  0.00    -0.002 A 
ATOM      8  C6  OXE d   1       1.050  -1.438   0.980  0.00  0.00     0.003 A 
ENDROOT
TORSDOF 0
ENDMDL
