MODEL 1
REMARK minimizedAffinity -3.41578293
REMARK minimizedRMSD -1
REMARK  0 active torsions:
REMARK  status: ('A' for Active; 'I' for Inactive)
ROOT
ATOM      1  C1  BNZ d   1      -2.218  -0.127  -1.380  0.00  0.00     0.000 A 
ATOM      2  C2  BNZ d   1      -1.056   0.582  -1.531  0.00  0.00     0.000 A 
ATOM      3  C3  BNZ d   1      -0.099   0.573  -0.556  0.00  0.00     0.000 A 
ATOM      4  C4  BNZ d   1      -0.320  -0.112   0.585  0.00  0.00     0.000 A 
ATOM      5  C5  BNZ d   1      -1.490  -0.825   0.756  0.00  0.00     0.000 A 
ATOM      6  C6  BNZ d   1      -2.435  -0.845  -0.244  0.00  0.00     0.000 A 
ENDROOT
TORSDOF 0
ENDMDL
