MODEL 1
REMARK minimizedAffinity -3.83943415
REMARK minimizedRMSD -1
REMARK  0 active torsions:
REMARK  status: ('A' for Active; 'I' for Inactive)
ROOT
ATOM      1  C1  BNZ d   1       0.682  -0.008  -0.019  0.00  0.00     0.000 A 
ATOM      2  C2  BNZ d   1      -0.507   0.312  -0.619  0.00  0.00     0.000 A 
ATOM      3  C3  BNZ d   1      -1.665  -0.315  -0.256  0.00  0.00     0.000 A 
ATOM      4  C4  BNZ d   1      -1.628  -1.289   0.677  0.00  0.00     0.000 A 
ATOM      5  C5  BNZ d   1      -0.435  -1.630   1.284  0.00  0.00     0.000 A 
ATOM      6  C6  BNZ d   1       0.723  -0.969   0.943  0.00  0.00     0.000 A 
ENDROOT
TORSDOF 0
ENDMDL
