MODEL 1
REMARK minimizedAffinity -3.76964593
REMARK minimizedRMSD -1
REMARK  0 active torsions:
REMARK  status: ('A' for Active; 'I' for Inactive)
ROOT
ATOM      1  C1  BNZ d   1      -1.214  -0.910   0.783  0.00  0.00     0.000 A 
ATOM      2  C2  BNZ d   1       0.062  -0.451   0.590  0.00  0.00     0.000 A 
ATOM      3  C3  BNZ d   1       0.433   0.105  -0.602  0.00  0.00     0.000 A 
ATOM      4  C4  BNZ d   1      -0.460   0.166  -1.612  0.00  0.00     0.000 A 
ATOM      5  C5  BNZ d   1      -1.747  -0.301  -1.435  0.00  0.00     0.000 A 
ATOM      6  C6  BNZ d   1      -2.128  -0.825  -0.221  0.00  0.00     0.000 A 
ENDROOT
TORSDOF 0
ENDMDL
