MODEL 1
REMARK minimizedAffinity -5.04767227
REMARK minimizedRMSD -1
REMARK  0 active torsions:
REMARK  status: ('A' for Active; 'I' for Inactive)
ROOT
ATOM      1  C1  BNZ d   1      -2.893  -0.764  -0.389  0.00  0.00     0.000 A 
ATOM      2  C2  BNZ d   1      -2.583   0.119   0.612  0.00  0.00     0.000 A 
ATOM      3  C3  BNZ d   1      -1.359   0.725   0.655  0.00  0.00     0.000 A 
ATOM      4  C4  BNZ d   1      -0.433   0.419  -0.277  0.00  0.00     0.000 A 
ATOM      5  C5  BNZ d   1      -0.728  -0.476  -1.286  0.00  0.00     0.000 A 
ATOM      6  C6  BNZ d   1      -1.974  -1.055  -1.349  0.00  0.00     0.000 A 
ENDROOT
TORSDOF 0
ENDMDL
