MODEL 1
REMARK minimizedAffinity -3.02265263
REMARK minimizedRMSD -1
REMARK  0 active torsions:
REMARK  status: ('A' for Active; 'I' for Inactive)
ROOT
ATOM      1  C1  BNZ d   1       0.023   0.044  -0.330  0.00  0.00     0.000 A 
ATOM      2  C2  BNZ d   1      -0.599   0.324  -1.518  0.00  0.00     0.000 A 
ATOM      3  C3  BNZ d   1      -1.942   0.122  -1.669  0.00  0.00     0.000 A 
ATOM      4  C4  BNZ d   1      -2.654  -0.396  -0.647  0.00  0.00     0.000 A 
ATOM      5  C5  BNZ d   1      -2.040  -0.692   0.554  0.00  0.00     0.000 A 
ATOM      6  C6  BNZ d   1      -0.695  -0.451   0.715  0.00  0.00     0.000 A 
ENDROOT
TORSDOF 0
ENDMDL
