MODEL 1
REMARK minimizedAffinity -4.77764368
REMARK minimizedRMSD -1
REMARK  0 active torsions:
REMARK  status: ('A' for Active; 'I' for Inactive)
ROOT
ATOM      1  C1  BNZ d   1      -0.490  -0.213  -1.653  0.00  0.00     0.000 A 
ATOM      2  C2  BNZ d   1       0.065   0.203  -0.472  0.00  0.00     0.000 A 
ATOM      3  C3  BNZ d   1      -0.711   0.389   0.638  0.00  0.00     0.000 A 
ATOM      4  C4  BNZ d   1      -2.043   0.198   0.556  0.00  0.00     0.000 A 
ATOM      5  C5  BNZ d   1      -2.619  -0.213  -0.630  0.00  0.00     0.000 A 
ATOM      6  C6  BNZ d   1      -1.830  -0.437  -1.735  0.00  0.00     0.000 A 
ENDROOT
TORSDOF 0
ENDMDL
