MODEL 1
REMARK minimizedAffinity -2.39716959
REMARK minimizedRMSD -1
REMARK  0 active torsions:
REMARK  status: ('A' for Active; 'I' for Inactive)
ROOT
ATOM      1  C1  BNZ d   1      -0.214   0.075  -1.244  0.00  0.00     0.000 A 
ATOM      2  C2  BNZ d   1      -1.525  -0.121  -1.588  0.00  0.00     0.000 A 
ATOM      3  C3  BNZ d   1      -2.478  -0.323  -0.629  0.00  0.00     0.000 A 
ATOM      4  C4  BNZ d   1      -2.113  -0.369   0.668  0.00  0.00     0.000 A 
ATOM      5  C5  BNZ d   1      -0.794  -0.183   1.031  0.00  0.00     0.000 A 
ATOM      6  C6  BNZ d   1       0.156   0.059   0.065  0.00  0.00     0.000 A 
ENDROOT
TORSDOF 0
ENDMDL
