MODEL 1
REMARK minimizedAffinity -4.52762318
REMARK minimizedRMSD -1
REMARK  0 active torsions:
REMARK  status: ('A' for Active; 'I' for Inactive)
ROOT
ATOM      1  C1  BNZ d   1      -2.286   0.005  -1.120  0.00  0.00     0.000 A 
ATOM      2  C2  BNZ d   1      -1.059   0.485  -1.494  0.00  0.00     0.000 A 
ATOM      3  C3  BNZ d   1       0.034   0.311  -0.693  0.00  0.00     0.000 A 
ATOM      4  C4  BNZ d   1      -0.108  -0.307   0.498  0.00  0.00     0.000 A 
ATOM      5  C5  BNZ d   1      -1.340  -0.788   0.893  0.00  0.00     0.000 A 
ATOM      6  C6  BNZ d   1      -2.431  -0.646   0.066  0.00  0.00     0.000 A 
ENDROOT
TORSDOF 0
ENDMDL
