MODEL 1
REMARK minimizedAffinity -3.80713177
REMARK minimizedRMSD -1
REMARK  0 active torsions:
REMARK  status: ('A' for Active; 'I' for Inactive)
ROOT
ATOM      1  C1  BNZ d   1      -0.912   0.104  -1.221  0.00  0.00     0.000 A 
ATOM      2  C2  BNZ d   1      -2.020  -0.699  -1.283  0.00  0.00     0.000 A 
ATOM      3  C3  BNZ d   1      -2.419  -1.426  -0.196  0.00  0.00     0.000 A 
ATOM      4  C4  BNZ d   1      -1.687  -1.381   0.937  0.00  0.00     0.000 A 
ATOM      5  C5  BNZ d   1      -0.563  -0.584   1.011  0.00  0.00     0.000 A 
ATOM      6  C6  BNZ d   1      -0.186   0.177  -0.072  0.00  0.00     0.000 A 
ENDROOT
TORSDOF 0
ENDMDL
