MODEL 1
REMARK minimizedAffinity -3.5110147
REMARK minimizedRMSD -1
REMARK  0 active torsions:
REMARK  status: ('A' for Active; 'I' for Inactive)
ROOT
ATOM      1  C1  BNZ d   1       1.800   0.118   0.033  0.00  0.00     0.000 A 
ATOM      2  C2  BNZ d   1       0.816  -0.434  -0.743  0.00  0.00     0.000 A 
ATOM      3  C3  BNZ d   1      -0.503  -0.203  -0.470  0.00  0.00     0.000 A 
ATOM      4  C4  BNZ d   1      -0.837   0.545   0.601  0.00  0.00     0.000 A 
ATOM      5  C5  BNZ d   1       0.143   1.101   1.399  0.00  0.00     0.000 A 
ATOM      6  C6  BNZ d   1       1.470   0.899   1.098  0.00  0.00     0.000 A 
ENDROOT
TORSDOF 0
ENDMDL
