MODEL 1
REMARK minimizedAffinity -3.39668703
REMARK minimizedRMSD -1
REMARK  0 active torsions:
REMARK  status: ('A' for Active; 'I' for Inactive)
ROOT
ATOM      1  C1  BNZ d   1       0.899   0.041  -0.007  0.00  0.00     0.000 A 
ATOM      2  C2  BNZ d   1      -0.315   0.288  -0.589  0.00  0.00     0.000 A 
ATOM      3  C3  BNZ d   1      -1.474  -0.131   0.003  0.00  0.00     0.000 A 
ATOM      4  C4  BNZ d   1      -1.414  -0.832   1.154  0.00  0.00     0.000 A 
ATOM      5  C5  BNZ d   1      -0.197  -1.098   1.748  0.00  0.00     0.000 A 
ATOM      6  C6  BNZ d   1       0.965  -0.640   1.169  0.00  0.00     0.000 A 
ENDROOT
TORSDOF 0
ENDMDL
