MODEL 1
REMARK minimizedAffinity -5.02838612
REMARK minimizedRMSD -1
REMARK  0 active torsions:
REMARK  status: ('A' for Active; 'I' for Inactive)
ROOT
ATOM      1  C1  BNZ d   1      -1.172   0.409  -1.667  0.00  0.00     0.000 A 
ATOM      2  C2  BNZ d   1      -2.337  -0.293  -1.826  0.00  0.00     0.000 A 
ATOM      3  C3  BNZ d   1      -2.948  -0.886  -0.756  0.00  0.00     0.000 A 
ATOM      4  C4  BNZ d   1      -2.373  -0.810   0.462  0.00  0.00     0.000 A 
ATOM      5  C5  BNZ d   1      -1.194  -0.113   0.636  0.00  0.00     0.000 A 
ATOM      6  C6  BNZ d   1      -0.602   0.515  -0.436  0.00  0.00     0.000 A 
ENDROOT
TORSDOF 0
ENDMDL
