MODEL 1
REMARK minimizedAffinity -4.43252611
REMARK minimizedRMSD -1
REMARK  0 active torsions:
REMARK  status: ('A' for Active; 'I' for Inactive)
ROOT
ATOM      1  C1  BNZ d   1      -2.258  -1.020  -0.462  0.00  0.00     0.000 A 
ATOM      2  C2  BNZ d   1      -2.119  -0.397   0.750  0.00  0.00     0.000 A 
ATOM      3  C3  BNZ d   1      -1.065   0.440   0.989  0.00  0.00     0.000 A 
ATOM      4  C4  BNZ d   1      -0.133   0.623   0.032  0.00  0.00     0.000 A 
ATOM      5  C5  BNZ d   1      -0.254  -0.005  -1.191  0.00  0.00     0.000 A 
ATOM      6  C6  BNZ d   1      -1.337  -0.817  -1.442  0.00  0.00     0.000 A 
ENDROOT
TORSDOF 0
ENDMDL
