MODEL 1
REMARK minimizedAffinity -3.74926138
REMARK minimizedRMSD -1
REMARK  0 active torsions:
REMARK  status: ('A' for Active; 'I' for Inactive)
ROOT
ATOM      1  C1  BNZ d   1      -1.341  -0.982   1.242  0.00  0.00     0.000 A 
ATOM      2  C2  BNZ d   1      -1.272   0.028   0.319  0.00  0.00     0.000 A 
ATOM      3  C3  BNZ d   1      -0.077   0.385  -0.239  0.00  0.00     0.000 A 
ATOM      4  C4  BNZ d   1       1.052  -0.239   0.156  0.00  0.00     0.000 A 
ATOM      5  C5  BNZ d   1       1.000  -1.252   1.092  0.00  0.00     0.000 A 
ATOM      6  C6  BNZ d   1      -0.210  -1.636   1.623  0.00  0.00     0.000 A 
ENDROOT
TORSDOF 0
ENDMDL
