MODEL 1
REMARK minimizedAffinity -3.98645306
REMARK minimizedRMSD -1
REMARK  0 active torsions:
REMARK  status: ('A' for Active; 'I' for Inactive)
ROOT
ATOM      1  C1  BNZ d   1      -0.426   0.219   0.349  0.00  0.00     0.000 A 
ATOM      2  C2  BNZ d   1      -1.790   0.107   0.408  0.00  0.00     0.000 A 
ATOM      3  C3  BNZ d   1      -2.496  -0.403  -0.645  0.00  0.00     0.000 A 
ATOM      4  C4  BNZ d   1      -1.843  -0.763  -1.769  0.00  0.00     0.000 A 
ATOM      5  C5  BNZ d   1      -0.470  -0.647  -1.848  0.00  0.00     0.000 A 
ATOM      6  C6  BNZ d   1       0.242  -0.169  -0.771  0.00  0.00     0.000 A 
ENDROOT
TORSDOF 0
ENDMDL
