MODEL 1
REMARK minimizedAffinity 2.29079437
REMARK minimizedRMSD -1
REMARK  0 active torsions:
REMARK  status: ('A' for Active; 'I' for Inactive)
ROOT
ATOM      1  C   UNL d   1      -5.972   4.048   5.265  0.00  0.00     0.020 A 
ATOM      2  C1  UNL d   1      -5.974   5.434   5.115  0.00  0.00     0.020 A 
ATOM      3  C2  UNL d   1      -5.963   5.998   3.837  0.00  0.00     0.034 A 
ATOM      4  C3  UNL d   1      -5.950   5.175   2.705  0.00  0.00     0.017 A 
ATOM      5  C4  UNL d   1      -5.948   3.784   2.857  0.00  0.00     0.017 A 
ATOM      6  C5  UNL d   1      -5.959   3.224   4.138  0.00  0.00     0.034 A 
ATOM      7 Cl   UNL d   1      -5.932   2.704   1.507  0.00  0.00    -0.070 Cl
ATOM      8 Cl1  UNL d   1      -5.937   5.940   1.156  0.00  0.00    -0.070 Cl
ENDROOT
TORSDOF 0
ENDMDL
