MODEL 1
REMARK minimizedAffinity -0.698552847
REMARK minimizedRMSD -1
REMARK  0 active torsions:
REMARK  status: ('A' for Active; 'I' for Inactive)
ROOT
ATOM      1  C   UNL d   1      -6.000   5.894   2.940  0.00  0.00     0.020 A 
ATOM      2  C1  UNL d   1      -6.000   4.790   3.792  0.00  0.00     0.020 A 
ATOM      3  C2  UNL d   1      -5.524   3.558   3.339  0.00  0.00     0.034 A 
ATOM      4  C3  UNL d   1      -5.048   3.425   2.030  0.00  0.00     0.017 A 
ATOM      5  C4  UNL d   1      -5.049   4.533   1.175  0.00  0.00     0.017 A 
ATOM      6  C5  UNL d   1      -5.525   5.765   1.634  0.00  0.00     0.034 A 
ATOM      7 Cl   UNL d   1      -4.476   4.448  -0.454  0.00  0.00    -0.070 Cl
ATOM      8 Cl1  UNL d   1      -4.475   1.872   1.536  0.00  0.00    -0.070 Cl
ENDROOT
TORSDOF 0
ENDMDL
