MODEL 1
REMARK minimizedAffinity -1.71782553
REMARK minimizedRMSD -1
REMARK  0 active torsions:
REMARK  status: ('A' for Active; 'I' for Inactive)
ROOT
ATOM      1  C   UNL d   1      -5.695   5.648   1.920  0.00  0.00     0.020 A 
ATOM      2  C1  UNL d   1      -5.029   4.454   1.645  0.00  0.00     0.020 A 
ATOM      3  C2  UNL d   1      -4.644   3.612   2.690  0.00  0.00     0.034 A 
ATOM      4  C3  UNL d   1      -4.925   3.962   4.016  0.00  0.00     0.017 A 
ATOM      5  C4  UNL d   1      -5.593   5.160   4.292  0.00  0.00     0.017 A 
ATOM      6  C5  UNL d   1      -5.976   6.000   3.241  0.00  0.00     0.034 A 
ATOM      7 Cl   UNL d   1      -5.974   5.660   5.902  0.00  0.00    -0.070 Cl
ATOM      8 Cl1  UNL d   1      -4.420   2.873   5.259  0.00  0.00    -0.070 Cl
ENDROOT
TORSDOF 0
ENDMDL
