MODEL 1
REMARK minimizedAffinity -0.0701881349
REMARK minimizedRMSD -1
REMARK  0 active torsions:
REMARK  status: ('A' for Active; 'I' for Inactive)
ROOT
ATOM      1  C   UNL d   1      -5.708   5.334   1.715  0.00  0.00     0.020 A 
ATOM      2  C1  UNL d   1      -5.016   4.125   1.639  0.00  0.00     0.020 A 
ATOM      3  C2  UNL d   1      -4.615   3.476   2.809  0.00  0.00     0.034 A 
ATOM      4  C3  UNL d   1      -4.906   4.034   4.059  0.00  0.00     0.017 A 
ATOM      5  C4  UNL d   1      -5.601   5.247   4.134  0.00  0.00     0.017 A 
ATOM      6  C5  UNL d   1      -5.999   5.893   2.960  0.00  0.00     0.034 A 
ATOM      7 Cl   UNL d   1      -5.996   5.997   5.640  0.00  0.00    -0.070 Cl
ATOM      8 Cl1  UNL d   1      -4.381   3.176   5.463  0.00  0.00    -0.070 Cl
ENDROOT
TORSDOF 0
ENDMDL
