MODEL 1
REMARK minimizedAffinity -0.216461957
REMARK minimizedRMSD -1
REMARK  0 active torsions:
REMARK  status: ('A' for Active; 'I' for Inactive)
ROOT
ATOM      1  C   UNL d   1      -0.309   0.085   1.555  0.00  0.00     0.020 A 
ATOM      2  C1  UNL d   1       0.537  -0.192   0.483  0.00  0.00     0.020 A 
ATOM      3  C2  UNL d   1       0.006  -0.644  -0.727  0.00  0.00     0.034 A 
ATOM      4  C3  UNL d   1      -1.375  -0.819  -0.868  0.00  0.00     0.017 A 
ATOM      5  C4  UNL d   1      -2.224  -0.540   0.209  0.00  0.00     0.017 A 
ATOM      6  C5  UNL d   1      -1.687  -0.088   1.419  0.00  0.00     0.034 A 
ATOM      7 Cl   UNL d   1      -3.939  -0.732   0.111  0.00  0.00    -0.070 Cl
ATOM      8 Cl1  UNL d   1      -1.963  -1.380  -2.393  0.00  0.00    -0.070 Cl
ENDROOT
TORSDOF 0
ENDMDL
