MODEL 1
REMARK minimizedAffinity 0.173641026
REMARK minimizedRMSD -1
REMARK  0 active torsions:
REMARK  status: ('A' for Active; 'I' for Inactive)
ROOT
ATOM      1  C   UNL d   1      -5.712   5.449   1.968  0.00  0.00     0.020 A 
ATOM      2  C1  UNL d   1      -5.673   4.066   1.801  0.00  0.00     0.020 A 
ATOM      3  C2  UNL d   1      -5.723   3.226   2.915  0.00  0.00     0.034 A 
ATOM      4  C3  UNL d   1      -5.810   3.768   4.202  0.00  0.00     0.017 A 
ATOM      5  C4  UNL d   1      -5.848   5.157   4.370  0.00  0.00     0.017 A 
ATOM      6  C5  UNL d   1      -5.799   5.994   3.250  0.00  0.00     0.034 A 
ATOM      7 Cl   UNL d   1      -5.956   5.901   5.926  0.00  0.00    -0.070 Cl
ATOM      8 Cl1  UNL d   1      -5.867   2.670   5.535  0.00  0.00    -0.070 Cl
ENDROOT
TORSDOF 0
ENDMDL
