MODEL 1
REMARK minimizedAffinity -1.66807616
REMARK minimizedRMSD -1
REMARK  0 active torsions:
REMARK  status: ('A' for Active; 'I' for Inactive)
ROOT
ATOM      1  C   UNL d   1      -5.666   5.666   1.864  0.00  0.00     0.020 A 
ATOM      2  C1  UNL d   1      -4.914   4.523   1.598  0.00  0.00     0.020 A 
ATOM      3  C2  UNL d   1      -4.485   3.710   2.650  0.00  0.00     0.034 A 
ATOM      4  C3  UNL d   1      -4.808   4.040   3.971  0.00  0.00     0.017 A 
ATOM      5  C4  UNL d   1      -5.563   5.188   4.236  0.00  0.00     0.017 A 
ATOM      6  C5  UNL d   1      -5.990   5.998   3.180  0.00  0.00     0.034 A 
ATOM      7 Cl   UNL d   1      -6.000   5.660   5.841  0.00  0.00    -0.070 Cl
ATOM      8 Cl1  UNL d   1      -4.244   2.989   5.222  0.00  0.00    -0.070 Cl
ENDROOT
TORSDOF 0
ENDMDL
