MODEL 1
REMARK minimizedAffinity 0.620275855
REMARK minimizedRMSD -1
REMARK  0 active torsions:
REMARK  status: ('A' for Active; 'I' for Inactive)
ROOT
ATOM      1  C   UNL d   1      -5.741   5.427   1.700  0.00  0.00     0.020 A 
ATOM      2  C1  UNL d   1      -5.616   4.045   1.568  0.00  0.00     0.020 A 
ATOM      3  C2  UNL d   1      -5.607   3.233   2.705  0.00  0.00     0.034 A 
ATOM      4  C3  UNL d   1      -5.724   3.803   3.978  0.00  0.00     0.017 A 
ATOM      5  C4  UNL d   1      -5.850   5.191   4.109  0.00  0.00     0.017 A 
ATOM      6  C5  UNL d   1      -5.858   5.999   2.968  0.00  0.00     0.034 A 
ATOM      7 Cl   UNL d   1      -5.999   5.967   5.646  0.00  0.00    -0.070 Cl
ATOM      8 Cl1  UNL d   1      -5.705   2.740   5.339  0.00  0.00    -0.070 Cl
ENDROOT
TORSDOF 0
ENDMDL
