MODEL 1
REMARK minimizedAffinity -1.29984391
REMARK minimizedRMSD -1
REMARK  0 active torsions:
REMARK  status: ('A' for Active; 'I' for Inactive)
ROOT
ATOM      1  C   UNL d   1      -5.244   5.434   2.007  0.00  0.00     0.020 A 
ATOM      2  C1  UNL d   1      -5.511   4.073   1.864  0.00  0.00     0.020 A 
ATOM      3  C2  UNL d   1      -5.704   3.277   2.995  0.00  0.00     0.034 A 
ATOM      4  C3  UNL d   1      -5.632   3.841   4.274  0.00  0.00     0.017 A 
ATOM      5  C4  UNL d   1      -5.365   5.207   4.417  0.00  0.00     0.017 A 
ATOM      6  C5  UNL d   1      -5.171   6.000   3.281  0.00  0.00     0.034 A 
ATOM      7 Cl   UNL d   1      -5.260   5.975   5.961  0.00  0.00    -0.070 Cl
ATOM      8 Cl1  UNL d   1      -5.882   2.797   5.628  0.00  0.00    -0.070 Cl
ENDROOT
TORSDOF 0
ENDMDL
