MODEL 1
REMARK minimizedAffinity 1.07532358
REMARK minimizedRMSD -1
REMARK  0 active torsions:
REMARK  status: ('A' for Active; 'I' for Inactive)
ROOT
ATOM      1  C   UNL d   1      -5.245   6.000   1.925  0.00  0.00     0.020 A 
ATOM      2  C1  UNL d   1      -5.998   4.918   1.469  0.00  0.00     0.020 A 
ATOM      3  C2  UNL d   1      -5.937   3.694   2.138  0.00  0.00     0.034 A 
ATOM      4  C3  UNL d   1      -5.120   3.547   3.265  0.00  0.00     0.017 A 
ATOM      5  C4  UNL d   1      -4.364   4.633   3.721  0.00  0.00     0.017 A 
ATOM      6  C5  UNL d   1      -4.429   5.857   3.048  0.00  0.00     0.034 A 
ATOM      7 Cl   UNL d   1      -3.333   4.529   5.105  0.00  0.00    -0.070 Cl
ATOM      8 Cl1  UNL d   1      -5.093   2.004   4.042  0.00  0.00    -0.070 Cl
ENDROOT
TORSDOF 0
ENDMDL
