MODEL 1
REMARK minimizedAffinity -1.71363068
REMARK minimizedRMSD -1
REMARK  0 active torsions:
REMARK  status: ('A' for Active; 'I' for Inactive)
ROOT
ATOM      1  C   UNL d   1      -5.999   4.037   5.641  0.00  0.00     0.020 A 
ATOM      2  C1  UNL d   1      -5.859   5.419   5.528  0.00  0.00     0.020 A 
ATOM      3  C2  UNL d   1      -5.647   6.000   4.276  0.00  0.00     0.034 A 
ATOM      4  C3  UNL d   1      -5.576   5.198   3.131  0.00  0.00     0.017 A 
ATOM      5  C4  UNL d   1      -5.717   3.810   3.245  0.00  0.00     0.017 A 
ATOM      6  C5  UNL d   1      -5.929   3.234   4.502  0.00  0.00     0.034 A 
ATOM      7 Cl   UNL d   1      -5.641   2.755   1.878  0.00  0.00    -0.070 Cl
ATOM      8 Cl1  UNL d   1      -5.312   5.983   1.615  0.00  0.00    -0.070 Cl
ENDROOT
TORSDOF 0
ENDMDL
