MODEL 1
REMARK minimizedAffinity -3.04026842
REMARK minimizedRMSD -1
REMARK  0 active torsions:
REMARK  status: ('A' for Active; 'I' for Inactive)
ROOT
ATOM      1  C   UNL d   1      -4.715   5.999   2.352  0.00  0.00     0.020 A 
ATOM      2  C1  UNL d   1      -4.859   4.876   1.539  0.00  0.00     0.020 A 
ATOM      3  C2  UNL d   1      -5.239   3.654   2.098  0.00  0.00     0.034 A 
ATOM      4  C3  UNL d   1      -5.477   3.552   3.474  0.00  0.00     0.017 A 
ATOM      5  C4  UNL d   1      -5.333   4.681   4.289  0.00  0.00     0.017 A 
ATOM      6  C5  UNL d   1      -4.952   5.902   3.724  0.00  0.00     0.034 A 
ATOM      7 Cl   UNL d   1      -5.609   4.634   5.994  0.00  0.00    -0.070 Cl
ATOM      8 Cl1  UNL d   1      -5.945   2.010   4.097  0.00  0.00    -0.070 Cl
ENDROOT
TORSDOF 0
ENDMDL
