MODEL 1
REMARK minimizedAffinity -3.42309237
REMARK minimizedRMSD -1
REMARK  0 active torsions:
REMARK  status: ('A' for Active; 'I' for Inactive)
ROOT
ATOM      1  C   UNL d   1      -5.931   5.660   4.926  0.00  0.00     0.020 A 
ATOM      2  C1  UNL d   1      -5.599   4.374   5.352  0.00  0.00     0.020 A 
ATOM      3  C2  UNL d   1      -5.149   3.428   4.429  0.00  0.00     0.034 A 
ATOM      4  C3  UNL d   1      -5.030   3.765   3.076  0.00  0.00     0.017 A 
ATOM      5  C4  UNL d   1      -5.363   5.056   2.650  0.00  0.00     0.017 A 
ATOM      6  C5  UNL d   1      -5.813   6.000   3.578  0.00  0.00     0.034 A 
ATOM      7 Cl   UNL d   1      -5.242   5.547   0.997  0.00  0.00    -0.070 Cl
ATOM      8 Cl1  UNL d   1      -4.467   2.545   1.990  0.00  0.00    -0.070 Cl
ENDROOT
TORSDOF 0
ENDMDL
