MODEL 1
REMARK minimizedAffinity -2.72813463
REMARK minimizedRMSD -1
REMARK  0 active torsions:
REMARK  status: ('A' for Active; 'I' for Inactive)
ROOT
ATOM      1  C   UNL d   1      -5.471   4.118   1.914  0.00  0.00     0.020 A 
ATOM      2  C1  UNL d   1      -5.036   5.436   2.049  0.00  0.00     0.020 A 
ATOM      3  C2  UNL d   1      -4.892   5.998   3.319  0.00  0.00     0.034 A 
ATOM      4  C3  UNL d   1      -5.182   5.241   4.460  0.00  0.00     0.017 A 
ATOM      5  C4  UNL d   1      -5.619   3.918   4.324  0.00  0.00     0.017 A 
ATOM      6  C5  UNL d   1      -5.762   3.361   3.050  0.00  0.00     0.034 A 
ATOM      7 Cl   UNL d   1      -5.996   2.923   5.686  0.00  0.00    -0.070 Cl
ATOM      8 Cl1  UNL d   1      -4.981   5.999   6.000  0.00  0.00    -0.070 Cl
ENDROOT
TORSDOF 0
ENDMDL
