MODEL 1
REMARK minimizedAffinity -2.78070116
REMARK minimizedRMSD -1
REMARK  0 active torsions:
REMARK  status: ('A' for Active; 'I' for Inactive)
ROOT
ATOM      1  C   UNL d   1      -2.804  -1.656   0.887  0.00  0.00     0.020 A 
ATOM      2  C1  UNL d   1      -2.718  -1.256  -0.446  0.00  0.00     0.020 A 
ATOM      3  C2  UNL d   1      -1.485  -0.878  -0.982  0.00  0.00     0.034 A 
ATOM      4  C3  UNL d   1      -0.334  -0.900  -0.186  0.00  0.00     0.017 A 
ATOM      5  C4  UNL d   1      -0.422  -1.301   1.152  0.00  0.00     0.017 A 
ATOM      6  C5  UNL d   1      -1.659  -1.678   1.684  0.00  0.00     0.034 A 
ATOM      7 Cl   UNL d   1       0.954  -1.353   2.196  0.00  0.00    -0.070 Cl
ATOM      8 Cl1  UNL d   1       1.157  -0.420  -0.916  0.00  0.00    -0.070 Cl
ENDROOT
TORSDOF 0
ENDMDL
