MODEL 1
REMARK minimizedAffinity -3.25450897
REMARK minimizedRMSD -1
REMARK  0 active torsions:
REMARK  status: ('A' for Active; 'I' for Inactive)
ROOT
ATOM      1  C   UNL d   1      -5.748   4.453   1.564  0.00  0.00     0.020 A 
ATOM      2  C1  UNL d   1      -5.914   5.755   2.034  0.00  0.00     0.020 A 
ATOM      3  C2  UNL d   1      -5.990   5.998   3.407  0.00  0.00     0.034 A 
ATOM      4  C3  UNL d   1      -5.899   4.937   4.315  0.00  0.00     0.017 A 
ATOM      5  C4  UNL d   1      -5.732   3.630   3.843  0.00  0.00     0.017 A 
ATOM      6  C5  UNL d   1      -5.657   3.393   2.467  0.00  0.00     0.034 A 
ATOM      7 Cl   UNL d   1      -5.612   2.270   4.903  0.00  0.00    -0.070 Cl
ATOM      8 Cl1  UNL d   1      -6.000   5.311   6.000  0.00  0.00    -0.070 Cl
ENDROOT
TORSDOF 0
ENDMDL
