MODEL 1
REMARK minimizedAffinity -1.60529912
REMARK minimizedRMSD -1
REMARK  1 active torsions:
REMARK  status: ('A' for Active; 'I' for Inactive)
REMARK    1  A    between atoms: C1_2  and  C2_3 
ROOT
ATOM      1  C2  UNL d   1       1.995   1.088   1.052  0.00  0.00    -0.081 A 
ATOM      2  C3  UNL d   1       2.912   1.256   2.097  0.00  0.00     0.006 A 
ATOM      3  C4  UNL d   1       3.034   0.287   3.096  0.00  0.00     0.002 A 
ATOM      4  C5  UNL d   1       2.248  -0.870   3.061  0.00  0.00    -0.080 A 
ATOM      5  C6  UNL d   1       2.391  -1.932   4.110  0.00  0.00     0.076 C 
ATOM      6  C7  UNL d   1       1.320  -1.030   2.027  0.00  0.00     0.002 A 
ATOM      7  C8  UNL d   1       1.197  -0.061   1.029  0.00  0.00     0.006 A 
ENDROOT
BRANCH   1   8
ATOM      8  C1  UNL d   1       1.907   2.100  -0.061  0.00  0.00     0.054 C 
ATOM      9  C   UNL d   1       0.814   3.124   0.208  0.00  0.00     0.018 C 
ENDBRANCH   1   8
TORSDOF 1
ENDMDL
