MODEL 1
REMARK minimizedAffinity 7.26517677
REMARK minimizedRMSD -1
REMARK  1 active torsions:
REMARK  status: ('A' for Active; 'I' for Inactive)
REMARK    1  A    between atoms: C1_2  and  C2_3 
ROOT
ATOM      1  C2  UNL d   1       2.089   0.178   2.357  0.00  0.00    -0.081 A 
ATOM      2  C3  UNL d   1       0.987  -0.485   1.803  0.00  0.00     0.006 A 
ATOM      3  C4  UNL d   1       0.362   0.014   0.658  0.00  0.00     0.002 A 
ATOM      4  C5  UNL d   1       0.833   1.180   0.043  0.00  0.00    -0.080 A 
ATOM      5  C6  UNL d   1       0.190   1.710  -1.204  0.00  0.00     0.076 C 
ATOM      6  C7  UNL d   1       1.923   1.852   0.606  0.00  0.00     0.002 A 
ATOM      7  C8  UNL d   1       2.548   1.353   1.752  0.00  0.00     0.006 A 
ENDROOT
BRANCH   1   8
ATOM      8  C1  UNL d   1       2.805  -0.393   3.554  0.00  0.00     0.054 C 
ATOM      9  C   UNL d   1       2.648   0.505   4.773  0.00  0.00     0.018 C 
ENDBRANCH   1   8
TORSDOF 1
ENDMDL
