MODEL 1
REMARK minimizedAffinity 3.30871654
REMARK minimizedRMSD -1
REMARK  1 active torsions:
REMARK  status: ('A' for Active; 'I' for Inactive)
REMARK    1  A    between atoms: C1_2  and  C2_3 
ROOT
ATOM      1  C2  UNL d   1      -2.517  -1.871  -3.132  0.00  0.00    -0.081 A 
ATOM      2  C3  UNL d   1      -1.483  -2.748  -3.483  0.00  0.00     0.006 A 
ATOM      3  C4  UNL d   1      -1.256  -3.909  -2.740  0.00  0.00     0.002 A 
ATOM      4  C5  UNL d   1      -2.064  -4.216  -1.640  0.00  0.00    -0.080 A 
ATOM      5  C6  UNL d   1      -1.850  -5.474  -0.852  0.00  0.00     0.076 C 
ATOM      6  C7  UNL d   1      -3.085  -3.331  -1.278  0.00  0.00     0.002 A 
ATOM      7  C8  UNL d   1      -3.312  -2.170  -2.020  0.00  0.00     0.006 A 
ENDROOT
BRANCH   1   8
ATOM      8  C1  UNL d   1      -2.805  -0.651  -3.970  0.00  0.00     0.054 C 
ATOM      9  C   UNL d   1      -2.793   0.615  -3.126  0.00  0.00     0.018 C 
ENDBRANCH   1   8
TORSDOF 1
ENDMDL
