MODEL 1
REMARK minimizedAffinity 2.42508173
REMARK minimizedRMSD -1
REMARK  1 active torsions:
REMARK  status: ('A' for Active; 'I' for Inactive)
REMARK    1  A    between atoms: C1_2  and  C2_3 
ROOT
ATOM      1  C2  UNL d   1       2.127   0.549   1.354  0.00  0.00    -0.081 A 
ATOM      2  C3  UNL d   1       2.819   0.246   2.533  0.00  0.00     0.006 A 
ATOM      3  C4  UNL d   1       2.569  -0.948   3.214  0.00  0.00     0.002 A 
ATOM      4  C5  UNL d   1       1.630  -1.862   2.724  0.00  0.00    -0.080 A 
ATOM      5  C6  UNL d   1       1.375  -3.161   3.429  0.00  0.00     0.076 C 
ATOM      6  C7  UNL d   1       0.926  -1.552   1.555  0.00  0.00     0.002 A 
ATOM      7  C8  UNL d   1       1.175  -0.358   0.874  0.00  0.00     0.006 A 
ENDROOT
BRANCH   1   8
ATOM      8  C1  UNL d   1       2.440   1.805   0.583  0.00  0.00     0.054 C 
ATOM      9  C   UNL d   1       1.168   2.497   0.113  0.00  0.00     0.018 C 
ENDBRANCH   1   8
TORSDOF 1
ENDMDL
