MODEL 1
REMARK minimizedAffinity 11.3899641
REMARK minimizedRMSD -1
REMARK  0 active torsions:
REMARK  status: ('A' for Active; 'I' for Inactive)
ROOT
ATOM      1  C2' OXE d   1       3.749  -4.885  -1.156  0.00  0.00     0.078 C 
ATOM      2  C1' OXE d   1       2.765  -3.088   0.763  0.00  0.00     0.078 C 
ATOM      3  C1  OXE d   1       3.806  -4.087   1.203  0.00  0.00    -0.078 A 
ATOM      4  C2  OXE d   1       4.248  -4.992   0.269  0.00  0.00    -0.078 A 
ATOM      5  C3  OXE d   1       5.248  -5.900   0.607  0.00  0.00     0.003 A 
ATOM      6  C4  OXE d   1       5.696  -6.000   1.930  0.00  0.00    -0.002 A 
ATOM      7  C5  OXE d   1       5.230  -5.113   2.906  0.00  0.00    -0.002 A 
ATOM      8  C6  OXE d   1       4.319  -4.125   2.551  0.00  0.00     0.003 A 
ENDROOT
TORSDOF 0
ENDMDL
