MODEL 1
REMARK minimizedAffinity -1.79230154
REMARK minimizedRMSD -1
REMARK  0 active torsions:
REMARK  status: ('A' for Active; 'I' for Inactive)
ROOT
ATOM      1  C2' OXE d   1       0.683  -1.502   2.742  0.00  0.00     0.078 C 
ATOM      2  C1' OXE d   1      -1.259   0.192   1.628  0.00  0.00     0.078 C 
ATOM      3  C1  OXE d   1      -0.225  -0.398   0.702  0.00  0.00    -0.078 A 
ATOM      4  C2  OXE d   1       0.749  -1.188   1.262  0.00  0.00    -0.078 A 
ATOM      5  C3  OXE d   1       1.694  -1.802   0.445  0.00  0.00     0.003 A 
ATOM      6  C4  OXE d   1       1.753  -1.499  -0.921  0.00  0.00    -0.002 A 
ATOM      7  C5  OXE d   1       0.795  -0.665  -1.505  0.00  0.00    -0.002 A 
ATOM      8  C6  OXE d   1      -0.224  -0.141  -0.717  0.00  0.00     0.003 A 
ENDROOT
TORSDOF 0
ENDMDL
