MODEL 1
REMARK minimizedAffinity 10.5635672
REMARK minimizedRMSD -1
REMARK  0 active torsions:
REMARK  status: ('A' for Active; 'I' for Inactive)
ROOT
ATOM      1  C2' OXE d   1      -3.872  -0.645   1.196  0.00  0.00     0.078 C 
ATOM      2  C1' OXE d   1      -1.974  -2.157   2.607  0.00  0.00     0.078 C 
ATOM      3  C1  OXE d   1      -1.477  -0.996   1.783  0.00  0.00    -0.078 A 
ATOM      4  C2  OXE d   1      -2.407  -0.290   1.058  0.00  0.00    -0.078 A 
ATOM      5  C3  OXE d   1      -2.009   0.824   0.325  0.00  0.00     0.003 A 
ATOM      6  C4  OXE d   1      -0.651   1.139   0.195  0.00  0.00    -0.002 A 
ATOM      7  C5  OXE d   1       0.317   0.408   0.892  0.00  0.00    -0.002 A 
ATOM      8  C6  OXE d   1      -0.082  -0.634   1.722  0.00  0.00     0.003 A 
ENDROOT
TORSDOF 0
ENDMDL
