MODEL 1
REMARK minimizedAffinity -2.18720341
REMARK minimizedRMSD -1
REMARK  0 active torsions:
REMARK  status: ('A' for Active; 'I' for Inactive)
ROOT
ATOM      1  C2' OXE d   1      -0.774  -0.621  -1.957  0.00  0.00     0.078 C 
ATOM      2  C1' OXE d   1       1.185   1.224  -2.759  0.00  0.00     0.078 C 
ATOM      3  C1  OXE d   1      -0.262   1.630  -2.894  0.00  0.00    -0.078 A 
ATOM      4  C2  OXE d   1      -1.214   0.703  -2.543  0.00  0.00    -0.078 A 
ATOM      5  C3  OXE d   1      -2.562   1.046  -2.597  0.00  0.00     0.003 A 
ATOM      6  C4  OXE d   1      -2.961   2.269  -3.150  0.00  0.00    -0.002 A 
ATOM      7  C5  OXE d   1      -2.008   3.211  -3.551  0.00  0.00    -0.002 A 
ATOM      8  C6  OXE d   1      -0.657   2.925  -3.390  0.00  0.00     0.003 A 
ENDROOT
TORSDOF 0
ENDMDL
