MODEL 1
REMARK minimizedAffinity 4.18288422
REMARK minimizedRMSD -1
REMARK  0 active torsions:
REMARK  status: ('A' for Active; 'I' for Inactive)
ROOT
ATOM      1  C2' OXE d   1      -3.446  -1.004   0.696  0.00  0.00     0.078 C 
ATOM      2  C1' OXE d   1      -1.610  -0.930   2.818  0.00  0.00     0.078 C 
ATOM      3  C1  OXE d   1      -1.072  -0.783   1.417  0.00  0.00    -0.078 A 
ATOM      4  C2  OXE d   1      -1.972  -0.868   0.382  0.00  0.00    -0.078 A 
ATOM      5  C3  OXE d   1      -1.536  -0.684  -0.927  0.00  0.00     0.003 A 
ATOM      6  C4  OXE d   1      -0.170  -0.568  -1.210  0.00  0.00    -0.002 A 
ATOM      7  C5  OXE d   1       0.768  -0.520  -0.173  0.00  0.00    -0.002 A 
ATOM      8  C6  OXE d   1       0.330  -0.583   1.145  0.00  0.00     0.003 A 
ENDROOT
TORSDOF 0
ENDMDL
