MODEL 1
REMARK minimizedAffinity -1.63383842
REMARK minimizedRMSD -1
REMARK  0 active torsions:
REMARK  status: ('A' for Active; 'I' for Inactive)
ROOT
ATOM      1  C2' OXE d   1       1.627  -0.968   0.225  0.00  0.00     0.078 C 
ATOM      2  C1' OXE d   1       0.887  -0.850   2.930  0.00  0.00     0.078 C 
ATOM      3  C1  OXE d   1      -0.200  -0.691   1.896  0.00  0.00    -0.078 A 
ATOM      4  C2  OXE d   1       0.178  -0.704   0.575  0.00  0.00    -0.078 A 
ATOM      5  C3  OXE d   1      -0.791  -0.616  -0.420  0.00  0.00     0.003 A 
ATOM      6  C4  OXE d   1      -2.127  -0.361  -0.088  0.00  0.00    -0.002 A 
ATOM      7  C5  OXE d   1      -2.527  -0.305   1.252  0.00  0.00    -0.002 A 
ATOM      8  C6  OXE d   1      -1.585  -0.511   2.253  0.00  0.00     0.003 A 
ENDROOT
TORSDOF 0
ENDMDL
