MODEL 1
REMARK minimizedAffinity -0.342218488
REMARK minimizedRMSD -1
REMARK  0 active torsions:
REMARK  status: ('A' for Active; 'I' for Inactive)
ROOT
ATOM      1  C2' OXE d   1       0.222  -0.823   2.152  0.00  0.00     0.078 C 
ATOM      2  C1' OXE d   1      -1.861   0.266   0.617  0.00  0.00     0.078 C 
ATOM      3  C1  OXE d   1      -2.216  -0.781   1.643  0.00  0.00    -0.078 A 
ATOM      4  C2  OXE d   1      -1.185  -1.342   2.357  0.00  0.00    -0.078 A 
ATOM      5  C3  OXE d   1      -1.463  -2.272   3.354  0.00  0.00     0.003 A 
ATOM      6  C4  OXE d   1      -2.766  -2.754   3.531  0.00  0.00    -0.002 A 
ATOM      7  C5  OXE d   1      -3.826  -2.225   2.786  0.00  0.00    -0.002 A 
ATOM      8  C6  OXE d   1      -3.574  -1.209   1.870  0.00  0.00     0.003 A 
ENDROOT
TORSDOF 0
ENDMDL
