MODEL 1
REMARK minimizedAffinity 7.86271191
REMARK minimizedRMSD -1
REMARK  0 active torsions:
REMARK  status: ('A' for Active; 'I' for Inactive)
ROOT
ATOM      1  C2' OXE d   1       0.649   5.989   4.399  0.00  0.00     0.078 C 
ATOM      2  C1' OXE d   1       2.956   5.992   5.999  0.00  0.00     0.078 C 
ATOM      3  C1  OXE d   1       3.138   5.980   4.502  0.00  0.00    -0.078 A 
ATOM      4  C2  OXE d   1       2.004   5.932   3.728  0.00  0.00    -0.078 A 
ATOM      5  C3  OXE d   1       2.114   5.974   2.341  0.00  0.00     0.003 A 
ATOM      6  C4  OXE d   1       3.371   5.911   1.727  0.00  0.00    -0.002 A 
ATOM      7  C5  OXE d   1       4.539   5.920   2.498  0.00  0.00    -0.002 A 
ATOM      8  C6  OXE d   1       4.440   5.997   3.883  0.00  0.00     0.003 A 
ENDROOT
TORSDOF 0
ENDMDL
