MODEL 1
REMARK minimizedAffinity 6.23762083
REMARK minimizedRMSD -1
REMARK  0 active torsions:
REMARK  status: ('A' for Active; 'I' for Inactive)
ROOT
ATOM      1  C2' OXE d   1       2.814  -1.515   0.902  0.00  0.00     0.078 C 
ATOM      2  C1' OXE d   1       1.336  -0.730   3.156  0.00  0.00     0.078 C 
ATOM      3  C1  OXE d   1       0.659  -0.656   1.810  0.00  0.00    -0.078 A 
ATOM      4  C2  OXE d   1       1.405  -0.997   0.708  0.00  0.00    -0.078 A 
ATOM      5  C3  OXE d   1       0.813  -0.999  -0.552  0.00  0.00     0.003 A 
ATOM      6  C4  OXE d   1      -0.488  -0.510  -0.724  0.00  0.00    -0.002 A 
ATOM      7  C5  OXE d   1      -1.252  -0.120   0.381  0.00  0.00    -0.002 A 
ATOM      8  C6  OXE d   1      -0.709  -0.226   1.656  0.00  0.00     0.003 A 
ENDROOT
TORSDOF 0
ENDMDL
