MODEL 1
REMARK minimizedAffinity 0.822166979
REMARK minimizedRMSD -1
REMARK  0 active torsions:
REMARK  status: ('A' for Active; 'I' for Inactive)
ROOT
ATOM      1  C2' OXE d   1       2.986   1.311  -0.833  0.00  0.00     0.078 C 
ATOM      2  C1' OXE d   1       2.469  -1.448  -0.754  0.00  0.00     0.078 C 
ATOM      3  C1  OXE d   1       1.430  -0.520  -0.176  0.00  0.00    -0.078 A 
ATOM      4  C2  OXE d   1       1.712   0.825  -0.177  0.00  0.00    -0.078 A 
ATOM      5  C3  OXE d   1       0.763   1.728   0.294  0.00  0.00     0.003 A 
ATOM      6  C4  OXE d   1      -0.408   1.270   0.909  0.00  0.00    -0.002 A 
ATOM      7  C5  OXE d   1      -0.697  -0.098   0.956  0.00  0.00    -0.002 A 
ATOM      8  C6  OXE d   1       0.190  -1.002   0.381  0.00  0.00     0.003 A 
ENDROOT
TORSDOF 0
ENDMDL
