MODEL 1
REMARK minimizedAffinity -2.18581343
REMARK minimizedRMSD -1
REMARK  0 active torsions:
REMARK  status: ('A' for Active; 'I' for Inactive)
ROOT
ATOM      1  C1  DEN d   1      -1.625   0.775   0.919  0.00  0.00     0.130 A 
ATOM      2  C2  DEN d   1      -1.578   1.433   2.222  0.00  0.00    -0.031 A 
ATOM      3  C3  DEN d   1      -0.205   1.302   2.750  0.00  0.00     0.027 A 
ATOM      4  C4  DEN d   1       1.843   0.157   1.679  0.00  0.00     0.027 A 
ATOM      5  C5  DEN d   1       2.288  -0.550   0.584  0.00  0.00    -0.003 A 
ATOM      6  C6  DEN d   1       1.459  -0.892  -0.452  0.00  0.00     0.001 A 
ATOM      7  C7  DEN d   1       0.151  -0.487  -0.435  0.00  0.00     0.017 A 
ATOM      8  C8  DEN d   1      -0.308   0.220   0.669  0.00  0.00    -0.094 A 
ATOM      9  C9  DEN d   1       0.549   0.566   1.700  0.00  0.00    -0.072 A 
ENDROOT
TORSDOF 0
ENDMDL
