MODEL 1
REMARK minimizedAffinity -4.32435751
REMARK minimizedRMSD -1
REMARK  0 active torsions:
REMARK  status: ('A' for Active; 'I' for Inactive)
ROOT
ATOM      1  C1  DEN d   1       1.245  -0.553  -0.167  0.00  0.00     0.130 A 
ATOM      2  C2  DEN d   1       0.759  -0.915  -1.496  0.00  0.00    -0.031 A 
ATOM      3  C3  DEN d   1      -0.694  -0.652  -1.537  0.00  0.00     0.027 A 
ATOM      4  C4  DEN d   1      -2.228   0.279   0.315  0.00  0.00     0.027 A 
ATOM      5  C5  DEN d   1      -2.273   0.722   1.618  0.00  0.00    -0.003 A 
ATOM      6  C6  DEN d   1      -1.164   0.739   2.422  0.00  0.00     0.001 A 
ATOM      7  C7  DEN d   1       0.047   0.347   1.916  0.00  0.00     0.017 A 
ATOM      8  C8  DEN d   1       0.099  -0.108   0.605  0.00  0.00    -0.094 A 
ATOM      9  C9  DEN d   1      -1.031  -0.105  -0.195  0.00  0.00    -0.072 A 
ENDROOT
TORSDOF 0
ENDMDL
