MODEL 1
REMARK minimizedAffinity -5.46822262
REMARK minimizedRMSD -1
REMARK  0 active torsions:
REMARK  status: ('A' for Active; 'I' for Inactive)
ROOT
ATOM      1  C1  DEN d   1      -0.986  -0.893  -0.978  0.00  0.00     0.130 A 
ATOM      2  C2  DEN d   1       0.361  -0.716  -1.514  0.00  0.00    -0.031 A 
ATOM      3  C3  DEN d   1       1.125   0.115  -0.562  0.00  0.00     0.027 A 
ATOM      4  C4  DEN d   1       0.360   1.134   1.681  0.00  0.00     0.027 A 
ATOM      5  C5  DEN d   1      -0.700   1.267   2.550  0.00  0.00    -0.003 A 
ATOM      6  C6  DEN d   1      -1.930   0.723   2.290  0.00  0.00     0.001 A 
ATOM      7  C7  DEN d   1      -2.117  -0.019   1.153  0.00  0.00     0.017 A 
ATOM      8  C8  DEN d   1      -1.055  -0.151   0.269  0.00  0.00    -0.094 A 
ATOM      9  C9  DEN d   1       0.184   0.396   0.556  0.00  0.00    -0.072 A 
ENDROOT
TORSDOF 0
ENDMDL
