MODEL 1
REMARK minimizedAffinity -5.16423225
REMARK minimizedRMSD -1
REMARK  0 active torsions:
REMARK  status: ('A' for Active; 'I' for Inactive)
ROOT
ATOM      1  C1  DEN d   1      -1.449   1.163   1.084  0.00  0.00     0.130 A 
ATOM      2  C2  DEN d   1      -1.188   1.895   2.321  0.00  0.00    -0.031 A 
ATOM      3  C3  DEN d   1       0.152   1.510   2.806  0.00  0.00     0.027 A 
ATOM      4  C4  DEN d   1       1.842  -0.138   1.765  0.00  0.00     0.027 A 
ATOM      5  C5  DEN d   1       2.063  -1.010   0.722  0.00  0.00    -0.003 A 
ATOM      6  C6  DEN d   1       1.123  -1.242  -0.247  0.00  0.00     0.001 A 
ATOM      7  C7  DEN d   1      -0.065  -0.561  -0.218  0.00  0.00     0.017 A 
ATOM      8  C8  DEN d   1      -0.298   0.315   0.835  0.00  0.00    -0.094 A 
ATOM      9  C9  DEN d   1       0.670   0.545   1.798  0.00  0.00    -0.072 A 
ENDROOT
TORSDOF 0
ENDMDL
