MODEL 1
REMARK minimizedAffinity -3.83263159
REMARK minimizedRMSD -1
REMARK  0 active torsions:
REMARK  status: ('A' for Active; 'I' for Inactive)
ROOT
ATOM      1  C1  DEN d   1       1.001  -0.258  -0.276  0.00  0.00     0.130 A 
ATOM      2  C2  DEN d   1       0.115  -1.131  -1.041  0.00  0.00    -0.031 A 
ATOM      3  C3  DEN d   1      -1.196  -1.160  -0.362  0.00  0.00     0.027 A 
ATOM      4  C4  DEN d   1      -1.937   0.060   1.786  0.00  0.00     0.027 A 
ATOM      5  C5  DEN d   1      -1.529   0.905   2.795  0.00  0.00    -0.003 A 
ATOM      6  C6  DEN d   1      -0.251   1.391   2.868  0.00  0.00     0.001 A 
ATOM      7  C7  DEN d   1       0.654   1.071   1.891  0.00  0.00     0.017 A 
ATOM      8  C8  DEN d   1       0.253   0.213   0.875  0.00  0.00    -0.094 A 
ATOM      9  C9  DEN d   1      -1.048  -0.257   0.812  0.00  0.00    -0.072 A 
ENDROOT
TORSDOF 0
ENDMDL
