MODEL 1
REMARK minimizedAffinity -4.06133842
REMARK minimizedRMSD -1
REMARK  0 active torsions:
REMARK  status: ('A' for Active; 'I' for Inactive)
ROOT
ATOM      1  C1  DEN d   1       1.502  -0.261  -0.147  0.00  0.00     0.130 A 
ATOM      2  C2  DEN d   1       0.756  -1.040  -1.131  0.00  0.00    -0.031 A 
ATOM      3  C3  DEN d   1      -0.678  -0.952  -0.791  0.00  0.00     0.027 A 
ATOM      4  C4  DEN d   1      -1.811   0.313   1.150  0.00  0.00     0.027 A 
ATOM      5  C5  DEN d   1      -1.589   1.107   2.253  0.00  0.00    -0.003 A 
ATOM      6  C6  DEN d   1      -0.330   1.470   2.650  0.00  0.00     0.001 A 
ATOM      7  C7  DEN d   1       0.755   1.076   1.912  0.00  0.00     0.017 A 
ATOM      8  C8  DEN d   1       0.540   0.268   0.803  0.00  0.00    -0.094 A 
ATOM      9  C9  DEN d   1      -0.742  -0.078   0.411  0.00  0.00    -0.072 A 
ENDROOT
TORSDOF 0
ENDMDL
