MODEL 1
REMARK minimizedAffinity -2.93134618
REMARK minimizedRMSD -1
REMARK  0 active torsions:
REMARK  status: ('A' for Active; 'I' for Inactive)
ROOT
ATOM      1  C1  DEN d   1      -0.820  -0.105  -0.763  0.00  0.00     0.130 A 
ATOM      2  C2  DEN d   1       0.454  -0.415  -1.406  0.00  0.00    -0.031 A 
ATOM      3  C3  DEN d   1       1.535  -0.115  -0.446  0.00  0.00     0.027 A 
ATOM      4  C4  DEN d   1       1.360   0.792   1.963  0.00  0.00     0.027 A 
ATOM      5  C5  DEN d   1       0.489   1.219   2.941  0.00  0.00    -0.003 A 
ATOM      6  C6  DEN d   1      -0.865   1.265   2.743  0.00  0.00     0.001 A 
ATOM      7  C7  DEN d   1      -1.393   0.836   1.554  0.00  0.00     0.017 A 
ATOM      8  C8  DEN d   1      -0.521   0.412   0.560  0.00  0.00    -0.094 A 
ATOM      9  C9  DEN d   1       0.845   0.361   0.784  0.00  0.00    -0.072 A 
ENDROOT
TORSDOF 0
ENDMDL
