MODEL 1
REMARK minimizedAffinity -3.56676221
REMARK minimizedRMSD -1
REMARK  0 active torsions:
REMARK  status: ('A' for Active; 'I' for Inactive)
ROOT
ATOM      1  C1  DEN d   1      -0.122  -0.477  -5.911  0.00  0.00     0.130 A 
ATOM      2  C2  DEN d   1      -1.118  -1.247  -5.171  0.00  0.00    -0.031 A 
ATOM      3  C3  DEN d   1      -1.032  -0.857  -3.749  0.00  0.00     0.027 A 
ATOM      4  C4  DEN d   1       0.535   0.857  -2.628  0.00  0.00     0.027 A 
ATOM      5  C5  DEN d   1       1.560   1.751  -2.846  0.00  0.00    -0.003 A 
ATOM      6  C6  DEN d   1       2.114   1.939  -4.084  0.00  0.00     0.001 A 
ATOM      7  C7  DEN d   1       1.616   1.255  -5.162  0.00  0.00     0.017 A 
ATOM      8  C8  DEN d   1       0.588   0.346  -4.949  0.00  0.00    -0.094 A 
ATOM      9  C9  DEN d   1       0.033   0.180  -3.691  0.00  0.00    -0.072 A 
ENDROOT
TORSDOF 0
ENDMDL
