MODEL 1
REMARK minimizedAffinity -5.16910887
REMARK minimizedRMSD -1
REMARK  0 active torsions:
REMARK  status: ('A' for Active; 'I' for Inactive)
ROOT
ATOM      1  C1  DEN d   1       1.083   0.048  -0.357  0.00  0.00     0.130 A 
ATOM      2  C2  DEN d   1       0.339  -0.737  -1.338  0.00  0.00    -0.031 A 
ATOM      3  C3  DEN d   1      -1.048  -0.880  -0.850  0.00  0.00     0.027 A 
ATOM      4  C4  DEN d   1      -2.110   0.037   1.314  0.00  0.00     0.027 A 
ATOM      5  C5  DEN d   1      -1.870   0.752   2.466  0.00  0.00    -0.003 A 
ATOM      6  C6  DEN d   1      -0.631   1.251   2.772  0.00  0.00     0.001 A 
ATOM      7  C7  DEN d   1       0.405   1.078   1.893  0.00  0.00     0.017 A 
ATOM      8  C8  DEN d   1       0.173   0.351   0.733  0.00  0.00    -0.094 A 
ATOM      9  C9  DEN d   1      -1.089  -0.134   0.436  0.00  0.00    -0.072 A 
ENDROOT
TORSDOF 0
ENDMDL
