MODEL 1
REMARK minimizedAffinity -2.26134992
REMARK minimizedRMSD -1
REMARK  0 active torsions:
REMARK  status: ('A' for Active; 'I' for Inactive)
ROOT
ATOM      1  C1  DEN d   1       1.136  -0.022   0.166  0.00  0.00     0.130 A 
ATOM      2  C2  DEN d   1       0.315  -1.016  -0.520  0.00  0.00    -0.031 A 
ATOM      3  C3  DEN d   1      -1.059  -0.918   0.011  0.00  0.00     0.027 A 
ATOM      4  C4  DEN d   1      -1.992   0.670   1.817  0.00  0.00     0.027 A 
ATOM      5  C5  DEN d   1      -1.673   1.682   2.695  0.00  0.00    -0.003 A 
ATOM      6  C6  DEN d   1      -0.399   2.169   2.816  0.00  0.00     0.001 A 
ATOM      7  C7  DEN d   1       0.596   1.676   2.012  0.00  0.00     0.017 A 
ATOM      8  C8  DEN d   1       0.283   0.651   1.129  0.00  0.00    -0.094 A 
ATOM      9  C9  DEN d   1      -1.014   0.180   1.014  0.00  0.00    -0.072 A 
ENDROOT
TORSDOF 0
ENDMDL
