MODEL 1
REMARK minimizedAffinity -5.66686392
REMARK minimizedRMSD -1
REMARK  0 active torsions:
REMARK  status: ('A' for Active; 'I' for Inactive)
ROOT
ATOM      1  C1  DEN d   1       2.121  -1.102   0.856  0.00  0.00     0.130 A 
ATOM      2  C2  DEN d   1       1.589  -1.294  -0.491  0.00  0.00    -0.031 A 
ATOM      3  C3  DEN d   1       0.238  -0.701  -0.537  0.00  0.00     0.027 A 
ATOM      4  C4  DEN d   1      -1.074   0.494   1.336  0.00  0.00     0.027 A 
ATOM      5  C5  DEN d   1      -1.040   0.887   2.655  0.00  0.00    -0.003 A 
ATOM      6  C6  DEN d   1       0.028   0.618   3.470  0.00  0.00     0.001 A 
ATOM      7  C7  DEN d   1       1.125  -0.025   2.961  0.00  0.00     0.017 A 
ATOM      8  C8  DEN d   1       1.094  -0.432   1.633  0.00  0.00    -0.094 A 
ATOM      9  C9  DEN d   1       0.011  -0.139   0.823  0.00  0.00    -0.072 A 
ENDROOT
TORSDOF 0
ENDMDL
