MODEL 1
REMARK minimizedAffinity 3.14497805
REMARK minimizedRMSD -1
REMARK  0 active torsions:
REMARK  status: ('A' for Active; 'I' for Inactive)
ROOT
ATOM      1  C   UNL d   1       3.044   0.268  -0.007  0.00  0.00     0.172 C 
ATOM      2  N   UNL d   1       4.111   1.001  -0.647  0.00  0.00    -0.070 N 
ATOM      3  C1  UNL d   1       5.222   1.502  -0.022  0.00  0.00    -0.004 A 
ATOM      4  C2  UNL d   1       5.994   2.132  -0.975  0.00  0.00    -0.047 A 
ATOM      5  C3  UNL d   1       5.323   2.006  -2.214  0.00  0.00    -0.047 A 
ATOM      6  C4  UNL d   1       4.160   1.302  -1.982  0.00  0.00    -0.004 A 
ENDROOT
TORSDOF 0
ENDMDL
