MODEL 1
REMARK minimizedAffinity 7.39285898
REMARK minimizedRMSD -1
REMARK  0 active torsions:
REMARK  status: ('A' for Active; 'I' for Inactive)
ROOT
ATOM      1  C   UNL d   1      -3.752  -2.995  -5.033  0.00  0.00     0.172 C 
ATOM      2  N   UNL d   1      -2.699  -3.001  -4.045  0.00  0.00    -0.070 N 
ATOM      3  C1  UNL d   1      -2.000  -1.904  -3.617  0.00  0.00    -0.004 A 
ATOM      4  C2  UNL d   1      -1.088  -2.327  -2.674  0.00  0.00    -0.047 A 
ATOM      5  C3  UNL d   1      -1.243  -3.726  -2.532  0.00  0.00    -0.047 A 
ATOM      6  C4  UNL d   1      -2.247  -4.117  -3.392  0.00  0.00    -0.004 A 
ENDROOT
TORSDOF 0
ENDMDL
