MODEL 1
REMARK minimizedAffinity 10.6982555
REMARK minimizedRMSD -1
REMARK  0 active torsions:
REMARK  status: ('A' for Active; 'I' for Inactive)
ROOT
ATOM      1  C   UNL d   1      -2.439   2.112   1.191  0.00  0.00     0.172 C 
ATOM      2  N   UNL d   1      -1.399   3.000   1.654  0.00  0.00    -0.070 N 
ATOM      3  C1  UNL d   1      -0.769   2.927   2.868  0.00  0.00    -0.004 A 
ATOM      4  C2  UNL d   1       0.155   3.948   2.926  0.00  0.00    -0.047 A 
ATOM      5  C3  UNL d   1       0.077   4.659   1.706  0.00  0.00    -0.047 A 
ATOM      6  C4  UNL d   1      -0.893   4.052   0.937  0.00  0.00    -0.004 A 
ENDROOT
TORSDOF 0
ENDMDL
