MODEL 1
REMARK minimizedAffinity 1.89591336
REMARK minimizedRMSD -1
REMARK  0 active torsions:
REMARK  status: ('A' for Active; 'I' for Inactive)
ROOT
ATOM      1  C   UNL d   1       5.658   1.973  -2.481  0.00  0.00     0.172 C 
ATOM      2  N   UNL d   1       4.693   1.498  -1.517  0.00  0.00    -0.070 N 
ATOM      3  C1  UNL d   1       3.634   0.674  -1.788  0.00  0.00    -0.004 A 
ATOM      4  C2  UNL d   1       2.957   0.456  -0.608  0.00  0.00    -0.047 A 
ATOM      5  C3  UNL d   1       3.632   1.175   0.407  0.00  0.00    -0.047 A 
ATOM      6  C4  UNL d   1       4.703   1.811  -0.184  0.00  0.00    -0.004 A 
ENDROOT
TORSDOF 0
ENDMDL
