MODEL 1
REMARK minimizedAffinity 13.6902742
REMARK minimizedRMSD -1
REMARK  0 active torsions:
REMARK  status: ('A' for Active; 'I' for Inactive)
ROOT
ATOM      1  C   UNL d   1       5.745   5.777  -3.869  0.00  0.00     0.172 C 
ATOM      2  N   UNL d   1       5.848   4.449  -3.312  0.00  0.00    -0.070 N 
ATOM      3  C1  UNL d   1       5.903   4.144  -1.978  0.00  0.00    -0.004 A 
ATOM      4  C2  UNL d   1       5.997   2.774  -1.861  0.00  0.00    -0.047 A 
ATOM      5  C3  UNL d   1       6.000   2.237  -3.170  0.00  0.00    -0.047 A 
ATOM      6  C4  UNL d   1       5.907   3.295  -4.049  0.00  0.00    -0.004 A 
ENDROOT
TORSDOF 0
ENDMDL
