MODEL 1
REMARK minimizedAffinity 3.41947556
REMARK minimizedRMSD -1
REMARK  0 active torsions:
REMARK  status: ('A' for Active; 'I' for Inactive)
ROOT
ATOM      1  C   UNL d   1       4.284   1.082  -1.887  0.00  0.00     0.172 C 
ATOM      2  N   UNL d   1       3.450   0.712  -0.768  0.00  0.00    -0.070 N 
ATOM      3  C1  UNL d   1       3.683   1.034   0.542  0.00  0.00    -0.004 A 
ATOM      4  C2  UNL d   1       2.662   0.498   1.297  0.00  0.00    -0.047 A 
ATOM      5  C3  UNL d   1       1.786  -0.170   0.409  0.00  0.00    -0.047 A 
ATOM      6  C4  UNL d   1       2.297  -0.022  -0.863  0.00  0.00    -0.004 A 
ENDROOT
TORSDOF 0
ENDMDL
