MODEL 1
REMARK minimizedAffinity 8.12846088
REMARK minimizedRMSD -1
REMARK  0 active torsions:
REMARK  status: ('A' for Active; 'I' for Inactive)
ROOT
ATOM      1  C   UNL d   1       0.656   2.801   4.121  0.00  0.00     0.172 C 
ATOM      2  N   UNL d   1       0.236   3.685   3.059  0.00  0.00    -0.070 N 
ATOM      3  C1  UNL d   1      -0.128   4.997   3.209  0.00  0.00    -0.004 A 
ATOM      4  C2  UNL d   1      -0.460   5.488   1.964  0.00  0.00    -0.047 A 
ATOM      5  C3  UNL d   1      -0.290   4.435   1.035  0.00  0.00    -0.047 A 
ATOM      6  C4  UNL d   1       0.141   3.330   1.739  0.00  0.00    -0.004 A 
ENDROOT
TORSDOF 0
ENDMDL
