MODEL 1
REMARK minimizedAffinity 5.50894737
REMARK minimizedRMSD -1
REMARK  0 active torsions:
REMARK  status: ('A' for Active; 'I' for Inactive)
ROOT
ATOM      1  C   UNL d   1       4.817   1.846  -2.155  0.00  0.00     0.172 C 
ATOM      2  N   UNL d   1       4.124   1.343  -0.991  0.00  0.00    -0.070 N 
ATOM      3  C1  UNL d   1       4.373   1.707   0.305  0.00  0.00    -0.004 A 
ATOM      4  C2  UNL d   1       3.504   1.007   1.114  0.00  0.00    -0.047 A 
ATOM      5  C3  UNL d   1       2.706   0.194   0.275  0.00  0.00    -0.047 A 
ATOM      6  C4  UNL d   1       3.111   0.422  -1.024  0.00  0.00    -0.004 A 
ENDROOT
TORSDOF 0
ENDMDL
