MODEL 1
REMARK minimizedAffinity -3.04663849
REMARK minimizedRMSD -1
REMARK  0 active torsions:
REMARK  status: ('A' for Active; 'I' for Inactive)
ROOT
ATOM      1  C   UNL d   1       1.926  -1.226   0.263  0.00  0.00     0.077 C 
ATOM      2  C1  UNL d   1       0.613  -0.533   0.477  0.00  0.00    -0.074 A 
ATOM      3  C2  UNL d   1      -0.540  -0.954  -0.192  0.00  0.00    -0.005 A 
ATOM      4  C3  UNL d   1      -1.756  -0.305   0.025  0.00  0.00     0.006 A 
ATOM      5  C4  UNL d   1      -1.830   0.770   0.911  0.00  0.00    -0.005 A 
ATOM      6  C5  UNL d   1      -0.687   1.205   1.590  0.00  0.00    -0.074 A 
ATOM      7  C6  UNL d   1      -0.751   2.353   2.553  0.00  0.00     0.077 C 
ATOM      8  C7  UNL d   1       0.529   0.543   1.372  0.00  0.00    -0.001 A 
ENDROOT
TORSDOF 0
ENDMDL
