MODEL 1
REMARK minimizedAffinity -3.88981366
REMARK minimizedRMSD -1
REMARK  0 active torsions:
REMARK  status: ('A' for Active; 'I' for Inactive)
ROOT
ATOM      1  C   UNL d   1       0.945  -0.569  -1.485  0.00  0.00     0.077 C 
ATOM      2  C1  UNL d   1       0.015  -0.104  -0.404  0.00  0.00    -0.074 A 
ATOM      3  C2  UNL d   1      -1.357  -0.362  -0.475  0.00  0.00    -0.005 A 
ATOM      4  C3  UNL d   1      -2.208   0.068   0.543  0.00  0.00     0.006 A 
ATOM      5  C4  UNL d   1      -1.695   0.760   1.641  0.00  0.00    -0.005 A 
ATOM      6  C5  UNL d   1      -0.325   1.026   1.731  0.00  0.00    -0.074 A 
ATOM      7  C6  UNL d   1       0.243   1.759   2.909  0.00  0.00     0.077 C 
ATOM      8  C7  UNL d   1       0.524   0.584   0.707  0.00  0.00    -0.001 A 
ENDROOT
TORSDOF 0
ENDMDL
