MODEL 1
REMARK minimizedAffinity -3.57160211
REMARK minimizedRMSD -1
REMARK  0 active torsions:
REMARK  status: ('A' for Active; 'I' for Inactive)
ROOT
ATOM      1  C   UNL d   1       0.173  -0.599  -2.628  0.00  0.00     0.077 C 
ATOM      2  C1  UNL d   1       0.607  -0.452  -1.200  0.00  0.00    -0.074 A 
ATOM      3  C2  UNL d   1       1.828  -0.976  -0.762  0.00  0.00    -0.005 A 
ATOM      4  C3  UNL d   1       2.223  -0.823   0.567  0.00  0.00     0.006 A 
ATOM      5  C4  UNL d   1       1.402  -0.146   1.470  0.00  0.00    -0.005 A 
ATOM      6  C5  UNL d   1       0.179   0.386   1.051  0.00  0.00    -0.074 A 
ATOM      7  C6  UNL d   1      -0.710   1.125   2.006  0.00  0.00     0.077 C 
ATOM      8  C7  UNL d   1      -0.208   0.234  -0.288  0.00  0.00    -0.001 A 
ENDROOT
TORSDOF 0
ENDMDL
