MODEL 1
REMARK minimizedAffinity -1.26217484
REMARK minimizedRMSD -1
REMARK  0 active torsions:
REMARK  status: ('A' for Active; 'I' for Inactive)
ROOT
ATOM      1  C   UNL d   1      -0.369   2.608   1.856  0.00  0.00     0.077 C 
ATOM      2  C1  UNL d   1      -0.495   1.404   0.970  0.00  0.00    -0.074 A 
ATOM      3  C2  UNL d   1      -1.482   0.440   1.204  0.00  0.00    -0.005 A 
ATOM      4  C3  UNL d   1      -1.594  -0.669   0.365  0.00  0.00     0.006 A 
ATOM      5  C4  UNL d   1      -0.722  -0.825  -0.713  0.00  0.00    -0.005 A 
ATOM      6  C5  UNL d   1       0.270   0.129  -0.963  0.00  0.00    -0.074 A 
ATOM      7  C6  UNL d   1       1.208  -0.019  -2.123  0.00  0.00     0.077 C 
ATOM      8  C7  UNL d   1       0.371   1.244  -0.120  0.00  0.00    -0.001 A 
ENDROOT
TORSDOF 0
ENDMDL
