MODEL 1
REMARK minimizedAffinity -3.97145581
REMARK minimizedRMSD -1
REMARK  0 active torsions:
REMARK  status: ('A' for Active; 'I' for Inactive)
ROOT
ATOM      1  C   UNL d   1      -0.327   2.298   2.530  0.00  0.00     0.077 C 
ATOM      2  C1  UNL d   1      -0.511   1.315   1.413  0.00  0.00    -0.074 A 
ATOM      3  C2  UNL d   1      -1.402   0.244   1.537  0.00  0.00    -0.005 A 
ATOM      4  C3  UNL d   1      -1.570  -0.657   0.485  0.00  0.00     0.006 A 
ATOM      5  C4  UNL d   1      -0.849  -0.497  -0.699  0.00  0.00    -0.005 A 
ATOM      6  C5  UNL d   1       0.045   0.568  -0.842  0.00  0.00    -0.074 A 
ATOM      7  C6  UNL d   1       0.820   0.761  -2.111  0.00  0.00     0.077 C 
ATOM      8  C7  UNL d   1       0.203   1.473   0.217  0.00  0.00    -0.001 A 
ENDROOT
TORSDOF 0
ENDMDL
