MODEL 1
REMARK minimizedAffinity -4.48986864
REMARK minimizedRMSD -1
REMARK  0 active torsions:
REMARK  status: ('A' for Active; 'I' for Inactive)
ROOT
ATOM      1  C   UNL d   1       1.731  -1.285  -0.121  0.00  0.00     0.077 C 
ATOM      2  C1  UNL d   1       0.502  -0.490   0.205  0.00  0.00    -0.074 A 
ATOM      3  C2  UNL d   1      -0.511  -0.312  -0.743  0.00  0.00    -0.005 A 
ATOM      4  C3  UNL d   1      -1.653   0.422  -0.423  0.00  0.00     0.006 A 
ATOM      5  C4  UNL d   1      -1.794   0.984   0.846  0.00  0.00    -0.005 A 
ATOM      6  C5  UNL d   1      -0.792   0.816   1.808  0.00  0.00    -0.074 A 
ATOM      7  C6  UNL d   1      -0.933   1.405   3.180  0.00  0.00     0.077 C 
ATOM      8  C7  UNL d   1       0.349   0.071   1.480  0.00  0.00    -0.001 A 
ENDROOT
TORSDOF 0
ENDMDL
