MODEL 1
REMARK minimizedAffinity -4.2383194
REMARK minimizedRMSD -1
REMARK  1 active torsions:
REMARK  status: ('A' for Active; 'I' for Inactive)
REMARK    1  A    between atoms: C1_2  and  C2_3 
ROOT
ATOM      1  C2  UNL d   1       1.823  -2.100   0.288  0.00  0.00    -0.077 A 
ATOM      2  C3  UNL d   1       1.362  -0.780   0.181  0.00  0.00     0.002 A 
ATOM      3  C4  UNL d   1       0.017  -0.481   0.403  0.00  0.00     0.002 A 
ATOM      4  C5  UNL d   1      -0.878  -1.495   0.738  0.00  0.00    -0.004 A 
ATOM      5  C6  UNL d   1      -0.430  -2.811   0.846  0.00  0.00     0.002 A 
ATOM      6  C7  UNL d   1       0.914  -3.112   0.623  0.00  0.00     0.002 A 
ENDROOT
BRANCH   1   7
ATOM      7  C1  UNL d   1       3.283  -2.417   0.097  0.00  0.00     0.055 C 
ATOM      8  C   UNL d   1       3.531  -3.918   0.124  0.00  0.00     0.019 C 
ENDBRANCH   1   7
TORSDOF 1
ENDMDL
