MODEL 1
REMARK minimizedAffinity 0.112440087
REMARK minimizedRMSD -1
REMARK  1 active torsions:
REMARK  status: ('A' for Active; 'I' for Inactive)
REMARK    1  A    between atoms: C1_2  and  C2_3 
ROOT
ATOM      1  C2  UNL d   1       2.893  -3.044  -0.080  0.00  0.00    -0.077 A 
ATOM      2  C3  UNL d   1       2.983  -1.747   0.445  0.00  0.00     0.002 A 
ATOM      3  C4  UNL d   1       1.852  -1.116   0.968  0.00  0.00     0.002 A 
ATOM      4  C5  UNL d   1       0.625  -1.775   0.974  0.00  0.00    -0.004 A 
ATOM      5  C6  UNL d   1       0.524  -3.064   0.452  0.00  0.00     0.002 A 
ATOM      6  C7  UNL d   1       1.653  -3.696  -0.071  0.00  0.00     0.002 A 
ENDROOT
BRANCH   1   7
ATOM      7  C1  UNL d   1       4.121  -3.745  -0.599  0.00  0.00     0.055 C 
ATOM      8  C   UNL d   1       4.204  -5.173  -0.080  0.00  0.00     0.019 C 
ENDBRANCH   1   7
TORSDOF 1
ENDMDL
