MODEL 1
REMARK minimizedAffinity -4.74457264
REMARK minimizedRMSD -1
REMARK  1 active torsions:
REMARK  status: ('A' for Active; 'I' for Inactive)
REMARK    1  A    between atoms: C1_2  and  C2_3 
ROOT
ATOM      1  C2  UNL d   1       0.873  -2.461   0.316  0.00  0.00    -0.077 A 
ATOM      2  C3  UNL d   1       1.648  -1.542   1.037  0.00  0.00     0.002 A 
ATOM      3  C4  UNL d   1       1.076  -0.365   1.523  0.00  0.00     0.002 A 
ATOM      4  C5  UNL d   1      -0.273  -0.098   1.297  0.00  0.00    -0.004 A 
ATOM      5  C6  UNL d   1      -1.051  -1.006   0.579  0.00  0.00     0.002 A 
ATOM      6  C7  UNL d   1      -0.481  -2.182   0.091  0.00  0.00     0.002 A 
ENDROOT
BRANCH   1   7
ATOM      7  C1  UNL d   1       1.476  -3.755  -0.167  0.00  0.00     0.055 C 
ATOM      8  C   UNL d   1       2.880  -3.952   0.387  0.00  0.00     0.019 C 
ENDBRANCH   1   7
TORSDOF 1
ENDMDL
