MODEL 1
REMARK minimizedAffinity -1.64586282
REMARK minimizedRMSD -1
REMARK  1 active torsions:
REMARK  status: ('A' for Active; 'I' for Inactive)
REMARK    1  A    between atoms: C1_2  and  C2_3 
ROOT
ATOM      1  C2  UNL d   1       0.706  -2.508   0.530  0.00  0.00    -0.077 A 
ATOM      2  C3  UNL d   1       1.843  -1.716   0.741  0.00  0.00     0.002 A 
ATOM      3  C4  UNL d   1       1.713  -0.362   1.055  0.00  0.00     0.002 A 
ATOM      4  C5  UNL d   1       0.447   0.210   1.166  0.00  0.00    -0.004 A 
ATOM      5  C6  UNL d   1      -0.690  -0.569   0.956  0.00  0.00     0.002 A 
ATOM      6  C7  UNL d   1      -0.561  -1.922   0.641  0.00  0.00     0.002 A 
ENDROOT
BRANCH   1   7
ATOM      7  C1  UNL d   1       0.844  -3.980   0.240  0.00  0.00     0.055 C 
ATOM      8  C   UNL d   1       2.240  -4.483   0.577  0.00  0.00     0.019 C 
ENDBRANCH   1   7
TORSDOF 1
ENDMDL
