MODEL 1
REMARK minimizedAffinity -1.09099543
REMARK minimizedRMSD -1
REMARK  1 active torsions:
REMARK  status: ('A' for Active; 'I' for Inactive)
REMARK    1  A    between atoms: C1_2  and  C2_3 
ROOT
ATOM      1  C2  UNL d   1       1.242  -2.840   0.473  0.00  0.00    -0.077 A 
ATOM      2  C3  UNL d   1       2.074  -1.744   0.740  0.00  0.00     0.002 A 
ATOM      3  C4  UNL d   1       1.533  -0.465   0.881  0.00  0.00     0.002 A 
ATOM      4  C5  UNL d   1       0.159  -0.270   0.761  0.00  0.00    -0.004 A 
ATOM      5  C6  UNL d   1      -0.677  -1.354   0.493  0.00  0.00     0.002 A 
ATOM      6  C7  UNL d   1      -0.138  -2.633   0.350  0.00  0.00     0.002 A 
ENDROOT
BRANCH   1   7
ATOM      7  C1  UNL d   1       1.817  -4.229   0.369  0.00  0.00     0.055 C 
ATOM      8  C   UNL d   1       3.339  -4.199   0.372  0.00  0.00     0.019 C 
ENDBRANCH   1   7
TORSDOF 1
ENDMDL
