MODEL 1
REMARK minimizedAffinity -2.23329139
REMARK minimizedRMSD -1
REMARK  1 active torsions:
REMARK  status: ('A' for Active; 'I' for Inactive)
REMARK    1  A    between atoms: C1_2  and  C2_3 
ROOT
ATOM      1  C2  UNL d   1       2.519  -3.318  -0.078  0.00  0.00    -0.077 A 
ATOM      2  C3  UNL d   1       2.713  -1.965   0.236  0.00  0.00     0.002 A 
ATOM      3  C4  UNL d   1       1.670  -1.208   0.771  0.00  0.00     0.002 A 
ATOM      4  C5  UNL d   1       0.427  -1.794   1.000  0.00  0.00    -0.004 A 
ATOM      5  C6  UNL d   1       0.223  -3.138   0.689  0.00  0.00     0.002 A 
ATOM      6  C7  UNL d   1       1.265  -3.897   0.153  0.00  0.00     0.002 A 
ENDROOT
BRANCH   1   7
ATOM      7  C1  UNL d   1       3.658  -4.149  -0.610  0.00  0.00     0.055 C 
ATOM      8  C   UNL d   1       3.990  -5.298   0.331  0.00  0.00     0.019 C 
ENDBRANCH   1   7
TORSDOF 1
ENDMDL
