MODEL 1
REMARK minimizedAffinity -3.98058009
REMARK minimizedRMSD -1
REMARK  1 active torsions:
REMARK  status: ('A' for Active; 'I' for Inactive)
REMARK    1  A    between atoms: C1_2  and  C2_3 
ROOT
ATOM      1  C2  UNL d   1       0.837  -1.374   0.497  0.00  0.00    -0.077 A 
ATOM      2  C3  UNL d   1       0.103  -2.561   0.361  0.00  0.00     0.002 A 
ATOM      3  C4  UNL d   1       0.721  -3.723  -0.106  0.00  0.00     0.002 A 
ATOM      4  C5  UNL d   1       2.075  -3.710  -0.435  0.00  0.00    -0.004 A 
ATOM      5  C6  UNL d   1       2.812  -2.534  -0.304  0.00  0.00     0.002 A 
ATOM      6  C7  UNL d   1       2.196  -1.371   0.161  0.00  0.00     0.002 A 
ENDROOT
BRANCH   1   7
ATOM      7  C1  UNL d   1       0.184  -0.132   1.047  0.00  0.00     0.055 C 
ATOM      8  C   UNL d   1      -1.290  -0.367   1.345  0.00  0.00     0.019 C 
ENDBRANCH   1   7
TORSDOF 1
ENDMDL
