MODEL 1
REMARK minimizedAffinity -3.38475728
REMARK minimizedRMSD -1
REMARK  1 active torsions:
REMARK  status: ('A' for Active; 'I' for Inactive)
REMARK    1  A    between atoms: C1_2  and  C2_3 
ROOT
ATOM      1  C2  UNL d   1       1.924  -1.899   0.096  0.00  0.00    -0.077 A 
ATOM      2  C3  UNL d   1       1.797  -0.628   0.674  0.00  0.00     0.002 A 
ATOM      3  C4  UNL d   1       0.538  -0.130   1.015  0.00  0.00     0.002 A 
ATOM      4  C5  UNL d   1      -0.602  -0.897   0.785  0.00  0.00    -0.004 A 
ATOM      5  C6  UNL d   1      -0.486  -2.162   0.209  0.00  0.00     0.002 A 
ATOM      6  C7  UNL d   1       0.771  -2.661  -0.133  0.00  0.00     0.002 A 
ENDROOT
BRANCH   1   7
ATOM      7  C1  UNL d   1       3.285  -2.459  -0.227  0.00  0.00     0.055 C 
ATOM      8  C   UNL d   1       3.244  -3.974  -0.359  0.00  0.00     0.019 C 
ENDBRANCH   1   7
TORSDOF 1
ENDMDL
