MODEL 1
REMARK minimizedAffinity -4.27239418
REMARK minimizedRMSD -1
REMARK  1 active torsions:
REMARK  status: ('A' for Active; 'I' for Inactive)
REMARK    1  A    between atoms: C1_2  and  C2_3 
ROOT
ATOM      1  C2  UNL d   1       0.752  -1.879   0.308  0.00  0.00    -0.077 A 
ATOM      2  C3  UNL d   1       0.608  -3.263   0.140  0.00  0.00     0.002 A 
ATOM      3  C4  UNL d   1       1.733  -4.087   0.074  0.00  0.00     0.002 A 
ATOM      4  C5  UNL d   1       3.009  -3.537   0.179  0.00  0.00    -0.004 A 
ATOM      5  C6  UNL d   1       3.162  -2.161   0.344  0.00  0.00     0.002 A 
ATOM      6  C7  UNL d   1       2.039  -1.336   0.409  0.00  0.00     0.002 A 
ENDROOT
BRANCH   1   7
ATOM      7  C1  UNL d   1      -0.462  -0.994   0.428  0.00  0.00     0.055 C 
ATOM      8  C   UNL d   1      -0.265   0.072   1.496  0.00  0.00     0.019 C 
ENDBRANCH   1   7
TORSDOF 1
ENDMDL
