MODEL 1
REMARK minimizedAffinity -4.02654886
REMARK minimizedRMSD -1
REMARK  1 active torsions:
REMARK  status: ('A' for Active; 'I' for Inactive)
REMARK    1  A    between atoms: C1_2  and  C2_3 
ROOT
ATOM      1  C2  UNL d   1       1.316  -2.373   0.081  0.00  0.00    -0.077 A 
ATOM      2  C3  UNL d   1       2.035  -1.284   0.593  0.00  0.00     0.002 A 
ATOM      3  C4  UNL d   1       1.376  -0.266   1.286  0.00  0.00     0.002 A 
ATOM      4  C5  UNL d   1      -0.002  -0.329   1.476  0.00  0.00    -0.004 A 
ATOM      5  C6  UNL d   1      -0.727  -1.407   0.968  0.00  0.00     0.002 A 
ATOM      6  C7  UNL d   1      -0.071  -2.425   0.274  0.00  0.00     0.002 A 
ENDROOT
BRANCH   1   7
ATOM      7  C1  UNL d   1       2.031  -3.496  -0.624  0.00  0.00     0.055 C 
ATOM      8  C   UNL d   1       3.381  -3.781   0.017  0.00  0.00     0.019 C 
ENDBRANCH   1   7
TORSDOF 1
ENDMDL
