MODEL 1
REMARK minimizedAffinity -3.75597596
REMARK minimizedRMSD -1
REMARK  1 active torsions:
REMARK  status: ('A' for Active; 'I' for Inactive)
REMARK    1  A    between atoms: C1_2  and  C2_3 
ROOT
ATOM      1  C2  UNL d   1       0.855  -1.385   0.750  0.00  0.00    -0.077 A 
ATOM      2  C3  UNL d   1       0.345  -2.691   0.764  0.00  0.00     0.002 A 
ATOM      3  C4  UNL d   1       1.167  -3.774   0.450  0.00  0.00     0.002 A 
ATOM      4  C5  UNL d   1       2.505  -3.564   0.124  0.00  0.00    -0.004 A 
ATOM      5  C6  UNL d   1       3.022  -2.269   0.105  0.00  0.00     0.002 A 
ATOM      6  C7  UNL d   1       2.201  -1.185   0.418  0.00  0.00     0.002 A 
ENDROOT
BRANCH   1   7
ATOM      7  C1  UNL d   1      -0.017  -0.220   1.136  0.00  0.00     0.055 C 
ATOM      8  C   UNL d   1      -1.493  -0.561   0.990  0.00  0.00     0.019 C 
ENDBRANCH   1   7
TORSDOF 1
ENDMDL
