MODEL 1
REMARK minimizedAffinity -3.6045177
REMARK minimizedRMSD -1
REMARK  0 active torsions:
REMARK  status: ('A' for Active; 'I' for Inactive)
ROOT
ATOM      1  C   UNL d   1      -1.036   1.303   0.322  0.00  0.00     0.020 A 
ATOM      2  C1  UNL d   1      -1.073   0.158  -0.472  0.00  0.00     0.020 A 
ATOM      3  C2  UNL d   1       0.082  -0.606  -0.650  0.00  0.00     0.034 A 
ATOM      4  C3  UNL d   1       1.280  -0.226  -0.033  0.00  0.00     0.017 A 
ATOM      5  C4  UNL d   1       1.316   0.924   0.764  0.00  0.00     0.017 A 
ATOM      6  C5  UNL d   1       0.156   1.685   0.939  0.00  0.00     0.034 A 
ATOM      7 Cl   UNL d   1       2.756   1.457   1.557  0.00  0.00    -0.070 Cl
ATOM      8 Cl1  UNL d   1       2.670  -1.218  -0.296  0.00  0.00    -0.070 Cl
ENDROOT
TORSDOF 0
ENDMDL
