MODEL 1
REMARK minimizedAffinity -6.18123293
REMARK minimizedRMSD -1
REMARK  0 active torsions:
REMARK  status: ('A' for Active; 'I' for Inactive)
ROOT
ATOM      1  C   UNL d   1       2.914  -1.163   1.406  0.00  0.00     0.020 A 
ATOM      2  C1  UNL d   1       1.919  -2.137   1.478  0.00  0.00     0.020 A 
ATOM      3  C2  UNL d   1       0.601  -1.815   1.146  0.00  0.00     0.034 A 
ATOM      4  C3  UNL d   1       0.275  -0.516   0.740  0.00  0.00     0.017 A 
ATOM      5  C4  UNL d   1       1.275   0.461   0.668  0.00  0.00     0.017 A 
ATOM      6  C5  UNL d   1       2.592   0.133   1.002  0.00  0.00     0.034 A 
ATOM      7 Cl   UNL d   1       0.949   2.085   0.175  0.00  0.00    -0.070 Cl
ATOM      8 Cl1  UNL d   1      -1.374  -0.188   0.344  0.00  0.00    -0.070 Cl
ENDROOT
TORSDOF 0
ENDMDL
