MODEL 1
REMARK minimizedAffinity -4.41707516
REMARK minimizedRMSD -1
REMARK  0 active torsions:
REMARK  status: ('A' for Active; 'I' for Inactive)
ROOT
ATOM      1  C   UNL d   1       3.028   0.783   0.815  0.00  0.00     0.020 A 
ATOM      2  C1  UNL d   1       2.035   1.571   0.235  0.00  0.00     0.020 A 
ATOM      3  C2  UNL d   1       0.715   1.116   0.199  0.00  0.00     0.034 A 
ATOM      4  C3  UNL d   1       0.385  -0.130   0.744  0.00  0.00     0.017 A 
ATOM      5  C4  UNL d   1       1.383  -0.920   1.326  0.00  0.00     0.017 A 
ATOM      6  C5  UNL d   1       2.703  -0.460   1.360  0.00  0.00     0.034 A 
ATOM      7 Cl   UNL d   1       1.053  -2.469   2.019  0.00  0.00    -0.070 Cl
ATOM      8 Cl1  UNL d   1      -1.267  -0.630   0.665  0.00  0.00    -0.070 Cl
ENDROOT
TORSDOF 0
ENDMDL
