MODEL 1
REMARK minimizedAffinity -6.27798128
REMARK minimizedRMSD -1
REMARK  0 active torsions:
REMARK  status: ('A' for Active; 'I' for Inactive)
ROOT
ATOM      1  C   UNL d   1       2.093  -1.716   1.637  0.00  0.00     0.020 A 
ATOM      2  C1  UNL d   1       3.002  -0.665   1.746  0.00  0.00     0.020 A 
ATOM      3  C2  UNL d   1       2.706   0.576   1.178  0.00  0.00     0.034 A 
ATOM      4  C3  UNL d   1       1.498   0.769   0.498  0.00  0.00     0.017 A 
ATOM      5  C4  UNL d   1       0.586  -0.288   0.388  0.00  0.00     0.017 A 
ATOM      6  C5  UNL d   1       0.888  -1.528   0.959  0.00  0.00     0.034 A 
ATOM      7 Cl   UNL d   1      -0.924  -0.126  -0.436  0.00  0.00    -0.070 Cl
ATOM      8 Cl1  UNL d   1       1.198   2.329  -0.180  0.00  0.00    -0.070 Cl
ENDROOT
TORSDOF 0
ENDMDL
