MODEL 1
REMARK minimizedAffinity -1.76840973
REMARK minimizedRMSD -1
REMARK  0 active torsions:
REMARK  status: ('A' for Active; 'I' for Inactive)
ROOT
ATOM      1  C   UNL d   1      -2.383  -1.106  -2.131  0.00  0.00     0.020 A 
ATOM      2  C1  UNL d   1      -2.900   0.187  -2.073  0.00  0.00     0.020 A 
ATOM      3  C2  UNL d   1      -2.323   1.132  -1.222  0.00  0.00     0.034 A 
ATOM      4  C3  UNL d   1      -1.226   0.786  -0.425  0.00  0.00     0.017 A 
ATOM      5  C4  UNL d   1      -0.707  -0.513  -0.484  0.00  0.00     0.017 A 
ATOM      6  C5  UNL d   1      -1.289  -1.455  -1.338  0.00  0.00     0.034 A 
ATOM      7 Cl   UNL d   1       0.645  -1.015   0.468  0.00  0.00    -0.070 Cl
ATOM      8 Cl1  UNL d   1      -0.563   2.005   0.604  0.00  0.00    -0.070 Cl
ENDROOT
TORSDOF 0
ENDMDL
