MODEL 1
REMARK minimizedAffinity 1.88118279
REMARK minimizedRMSD -1
REMARK  0 active torsions:
REMARK  status: ('A' for Active; 'I' for Inactive)
ROOT
ATOM      1  C   UNL d   1      -1.048  -1.087   0.596  0.00  0.00     0.020 A 
ATOM      2  C1  UNL d   1      -0.838   0.195   0.090  0.00  0.00     0.020 A 
ATOM      3  C2  UNL d   1      -1.675   0.698  -0.908  0.00  0.00     0.034 A 
ATOM      4  C3  UNL d   1      -2.727  -0.081  -1.402  0.00  0.00     0.017 A 
ATOM      5  C4  UNL d   1      -2.938  -1.368  -0.894  0.00  0.00     0.017 A 
ATOM      6  C5  UNL d   1      -2.096  -1.866   0.105  0.00  0.00     0.034 A 
ATOM      7 Cl   UNL d   1      -4.215  -2.388  -1.454  0.00  0.00    -0.070 Cl
ATOM      8 Cl1  UNL d   1      -3.724   0.605  -2.636  0.00  0.00    -0.070 Cl
ENDROOT
TORSDOF 0
ENDMDL
