MODEL 1
REMARK minimizedAffinity -5.98055506
REMARK minimizedRMSD -1
REMARK  0 active torsions:
REMARK  status: ('A' for Active; 'I' for Inactive)
ROOT
ATOM      1  C2' OXE d   1      -0.464  -1.023   2.159  0.00  0.00     0.078 C 
ATOM      2  C1' OXE d   1       0.499  -1.018  -0.478  0.00  0.00     0.078 C 
ATOM      3  C1  OXE d   1      -0.422   0.102  -0.063  0.00  0.00    -0.078 A 
ATOM      4  C2  OXE d   1      -0.925   0.066   1.216  0.00  0.00    -0.078 A 
ATOM      5  C3  OXE d   1      -1.735   1.104   1.667  0.00  0.00     0.003 A 
ATOM      6  C4  OXE d   1      -2.165   2.103   0.785  0.00  0.00    -0.002 A 
ATOM      7  C5  OXE d   1      -1.696   2.136  -0.533  0.00  0.00    -0.002 A 
ATOM      8  C6  OXE d   1      -0.792   1.169  -0.959  0.00  0.00     0.003 A 
ENDROOT
TORSDOF 0
ENDMDL
