MODEL 1
REMARK minimizedAffinity -3.38861489
REMARK minimizedRMSD -1
REMARK  0 active torsions:
REMARK  status: ('A' for Active; 'I' for Inactive)
ROOT
ATOM      1  C2' OXE d   1      -1.444   1.493   1.616  0.00  0.00     0.078 C 
ATOM      2  C1' OXE d   1      -0.245  -1.018   1.986  0.00  0.00     0.078 C 
ATOM      3  C1  OXE d   1       0.073  -0.266   0.718  0.00  0.00    -0.078 A 
ATOM      4  C2  OXE d   1      -0.554   0.941   0.524  0.00  0.00    -0.078 A 
ATOM      5  C3  OXE d   1      -0.254   1.701  -0.603  0.00  0.00     0.003 A 
ATOM      6  C4  OXE d   1       0.562   1.178  -1.614  0.00  0.00    -0.002 A 
ATOM      7  C5  OXE d   1       1.180  -0.066  -1.455  0.00  0.00    -0.002 A 
ATOM      8  C6  OXE d   1       0.980  -0.781  -0.278  0.00  0.00     0.003 A 
ENDROOT
TORSDOF 0
ENDMDL
