MODEL 1
REMARK minimizedAffinity -4.32347584
REMARK minimizedRMSD -1
REMARK  0 active torsions:
REMARK  status: ('A' for Active; 'I' for Inactive)
ROOT
ATOM      1  C2' OXE d   1       0.793  -5.668  -0.710  0.00  0.00     0.078 C 
ATOM      2  C1' OXE d   1      -0.676  -4.596  -2.848  0.00  0.00     0.078 C 
ATOM      3  C1  OXE d   1       0.201  -3.658  -2.058  0.00  0.00    -0.078 A 
ATOM      4  C2  OXE d   1       0.880  -4.182  -0.984  0.00  0.00    -0.078 A 
ATOM      5  C3  OXE d   1       1.746  -3.372  -0.255  0.00  0.00     0.003 A 
ATOM      6  C4  OXE d   1       1.813  -1.997  -0.509  0.00  0.00    -0.002 A 
ATOM      7  C5  OXE d   1       1.099  -1.435  -1.573  0.00  0.00    -0.002 A 
ATOM      8  C6  OXE d   1       0.323  -2.258  -2.382  0.00  0.00     0.003 A 
ENDROOT
TORSDOF 0
ENDMDL
