MODEL 1
REMARK minimizedAffinity -2.85242033
REMARK minimizedRMSD -1
REMARK  0 active torsions:
REMARK  status: ('A' for Active; 'I' for Inactive)
ROOT
ATOM      1  C2' OXE d   1       0.524   1.898  -1.697  0.00  0.00     0.078 C 
ATOM      2  C1' OXE d   1       0.899  -0.719  -0.753  0.00  0.00     0.078 C 
ATOM      3  C1  OXE d   1       0.089   0.226   0.098  0.00  0.00    -0.078 A 
ATOM      4  C2  OXE d   1      -0.050   1.518  -0.349  0.00  0.00    -0.078 A 
ATOM      5  C3  OXE d   1      -0.832   2.416   0.372  0.00  0.00     0.003 A 
ATOM      6  C4  OXE d   1      -1.351   2.060   1.623  0.00  0.00    -0.002 A 
ATOM      7  C5  OXE d   1      -1.187   0.761   2.115  0.00  0.00    -0.002 A 
ATOM      8  C6  OXE d   1      -0.507  -0.178   1.347  0.00  0.00     0.003 A 
ENDROOT
TORSDOF 0
ENDMDL
