MODEL 1
REMARK minimizedAffinity -5.79811668
REMARK minimizedRMSD -1
REMARK  0 active torsions:
REMARK  status: ('A' for Active; 'I' for Inactive)
ROOT
ATOM      1  C2' OXE d   1      -0.446  -0.922   2.304  0.00  0.00     0.078 C 
ATOM      2  C1' OXE d   1      -1.787   1.544   2.305  0.00  0.00     0.078 C 
ATOM      3  C1  OXE d   1      -0.994   1.175   1.076  0.00  0.00    -0.078 A 
ATOM      4  C2  OXE d   1      -0.303  -0.012   1.102  0.00  0.00    -0.078 A 
ATOM      5  C3  OXE d   1       0.399  -0.426  -0.026  0.00  0.00     0.003 A 
ATOM      6  C4  OXE d   1       0.534   0.426  -1.129  0.00  0.00    -0.002 A 
ATOM      7  C5  OXE d   1      -0.129   1.657  -1.160  0.00  0.00    -0.002 A 
ATOM      8  C6  OXE d   1      -0.930   2.027  -0.086  0.00  0.00     0.003 A 
ENDROOT
TORSDOF 0
ENDMDL
