MODEL 1
REMARK minimizedAffinity -4.41484451
REMARK minimizedRMSD -1
REMARK  0 active torsions:
REMARK  status: ('A' for Active; 'I' for Inactive)
ROOT
ATOM      1  C2' OXE d   1       1.051  -0.469  -0.799  0.00  0.00     0.078 C 
ATOM      2  C1' OXE d   1       0.200   2.140  -1.393  0.00  0.00     0.078 C 
ATOM      3  C1  OXE d   1      -0.431   1.446  -0.211  0.00  0.00    -0.078 A 
ATOM      4  C2  OXE d   1      -0.042   0.152   0.043  0.00  0.00    -0.078 A 
ATOM      5  C3  OXE d   1      -0.553  -0.515   1.154  0.00  0.00     0.003 A 
ATOM      6  C4  OXE d   1      -1.570   0.063   1.922  0.00  0.00    -0.002 A 
ATOM      7  C5  OXE d   1      -2.009   1.365   1.655  0.00  0.00    -0.002 A 
ATOM      8  C6  OXE d   1      -1.421   2.084   0.621  0.00  0.00     0.003 A 
ENDROOT
TORSDOF 0
ENDMDL
