MODEL 1
REMARK minimizedAffinity -3.33099222
REMARK minimizedRMSD -1
REMARK  0 active torsions:
REMARK  status: ('A' for Active; 'I' for Inactive)
ROOT
ATOM      1  C2' OXE d   1       0.251   2.721  -0.740  0.00  0.00     0.078 C 
ATOM      2  C1' OXE d   1      -1.085   2.056   1.638  0.00  0.00     0.078 C 
ATOM      3  C1  OXE d   1      -0.361   0.954   0.906  0.00  0.00    -0.078 A 
ATOM      4  C2  OXE d   1       0.250   1.279  -0.281  0.00  0.00    -0.078 A 
ATOM      5  C3  OXE d   1       0.978   0.312  -0.968  0.00  0.00     0.003 A 
ATOM      6  C4  OXE d   1       0.965  -1.022  -0.542  0.00  0.00    -0.002 A 
ATOM      7  C5  OXE d   1       0.315  -1.382   0.643  0.00  0.00    -0.002 A 
ATOM      8  C6  OXE d   1      -0.316  -0.400   1.400  0.00  0.00     0.003 A 
ENDROOT
TORSDOF 0
ENDMDL
