MODEL 1
REMARK minimizedAffinity 1.71841514
REMARK minimizedRMSD -1
REMARK  0 active torsions:
REMARK  status: ('A' for Active; 'I' for Inactive)
ROOT
ATOM      1  C2' OXE d   1       5.882  -0.507  -5.279  0.00  0.00     0.078 C 
ATOM      2  C1' OXE d   1       3.515  -1.838  -5.988  0.00  0.00     0.078 C 
ATOM      3  C1  OXE d   1       4.181  -2.230  -4.693  0.00  0.00    -0.078 A 
ATOM      4  C2  OXE d   1       5.365  -1.606  -4.377  0.00  0.00    -0.078 A 
ATOM      5  C3  OXE d   1       5.992  -1.891  -3.168  0.00  0.00     0.003 A 
ATOM      6  C4  OXE d   1       5.512  -2.916  -2.344  0.00  0.00    -0.002 A 
ATOM      7  C5  OXE d   1       4.330  -3.591  -2.666  0.00  0.00    -0.002 A 
ATOM      8  C6  OXE d   1       3.631  -3.232  -3.813  0.00  0.00     0.003 A 
ENDROOT
TORSDOF 0
ENDMDL
