MODEL 1
REMARK minimizedAffinity -3.26512694
REMARK minimizedRMSD -1
REMARK  0 active torsions:
REMARK  status: ('A' for Active; 'I' for Inactive)
ROOT
ATOM      1  C2' OXE d   1      -0.361  -1.780  -3.658  0.00  0.00     0.078 C 
ATOM      2  C1' OXE d   1       0.125  -3.632  -1.605  0.00  0.00     0.078 C 
ATOM      3  C1  OXE d   1       0.222  -2.165  -1.267  0.00  0.00    -0.078 A 
ATOM      4  C2  OXE d   1       0.028  -1.267  -2.288  0.00  0.00    -0.078 A 
ATOM      5  C3  OXE d   1       0.052   0.099  -2.019  0.00  0.00     0.003 A 
ATOM      6  C4  OXE d   1       0.423   0.565  -0.752  0.00  0.00    -0.002 A 
ATOM      7  C5  OXE d   1       0.663  -0.333   0.293  0.00  0.00    -0.002 A 
ATOM      8  C6  OXE d   1       0.525  -1.698   0.063  0.00  0.00     0.003 A 
ENDROOT
TORSDOF 0
ENDMDL
