MODEL 1
REMARK minimizedAffinity -6.33251429
REMARK minimizedRMSD -1
REMARK  0 active torsions:
REMARK  status: ('A' for Active; 'I' for Inactive)
ROOT
ATOM      1  C2' OXE d   1       0.238  -0.602   2.135  0.00  0.00     0.078 C 
ATOM      2  C1' OXE d   1       0.823  -0.634  -0.610  0.00  0.00     0.078 C 
ATOM      3  C1  OXE d   1      -0.127   0.423  -0.106  0.00  0.00    -0.078 A 
ATOM      4  C2  OXE d   1      -0.444   0.402   1.231  0.00  0.00    -0.078 A 
ATOM      5  C3  OXE d   1      -1.273   1.388   1.759  0.00  0.00     0.003 A 
ATOM      6  C4  OXE d   1      -1.908   2.307   0.914  0.00  0.00    -0.002 A 
ATOM      7  C5  OXE d   1      -1.630   2.321  -0.457  0.00  0.00    -0.002 A 
ATOM      8  C6  OXE d   1      -0.711   1.415  -0.975  0.00  0.00     0.003 A 
ENDROOT
TORSDOF 0
ENDMDL
