MODEL 1
REMARK minimizedAffinity -6.26001453
REMARK minimizedRMSD -1
REMARK  0 active torsions:
REMARK  status: ('A' for Active; 'I' for Inactive)
ROOT
ATOM      1  C2' OXE d   1       0.969   1.411  -1.391  0.00  0.00     0.078 C 
ATOM      2  C1' OXE d   1      -0.939   3.353  -0.710  0.00  0.00     0.078 C 
ATOM      3  C1  OXE d   1      -0.887   2.096   0.122  0.00  0.00    -0.078 A 
ATOM      4  C2  OXE d   1       0.019   1.131  -0.247  0.00  0.00    -0.078 A 
ATOM      5  C3  OXE d   1       0.146  -0.024   0.519  0.00  0.00     0.003 A 
ATOM      6  C4  OXE d   1      -0.744  -0.280   1.569  0.00  0.00    -0.002 A 
ATOM      7  C5  OXE d   1      -1.700   0.673   1.937  0.00  0.00    -0.002 A 
ATOM      8  C6  OXE d   1      -1.756   1.882   1.252  0.00  0.00     0.003 A 
ENDROOT
TORSDOF 0
ENDMDL
