MODEL 1
REMARK minimizedAffinity -5.98935986
REMARK minimizedRMSD -1
REMARK  0 active torsions:
REMARK  status: ('A' for Active; 'I' for Inactive)
ROOT
ATOM      1  C2' OXE d   1      -2.038   1.636   1.286  0.00  0.00     0.078 C 
ATOM      2  C1' OXE d   1      -0.452  -0.670   1.510  0.00  0.00     0.078 C 
ATOM      3  C1  OXE d   1      -0.094   0.329   0.438  0.00  0.00    -0.078 A 
ATOM      4  C2  OXE d   1      -0.903   1.431   0.305  0.00  0.00    -0.078 A 
ATOM      5  C3  OXE d   1      -0.586   2.410  -0.632  0.00  0.00     0.003 A 
ATOM      6  C4  OXE d   1       0.459   2.208  -1.542  0.00  0.00    -0.002 A 
ATOM      7  C5  OXE d   1       1.271   1.073  -1.450  0.00  0.00    -0.002 A 
ATOM      8  C6  OXE d   1       1.035   0.146  -0.440  0.00  0.00     0.003 A 
ENDROOT
TORSDOF 0
ENDMDL
