MODEL 1
REMARK minimizedAffinity -3.61491752
REMARK minimizedRMSD -1
REMARK  0 active torsions:
REMARK  status: ('A' for Active; 'I' for Inactive)
ROOT
ATOM      1  C2' OXE d   1       0.573  -0.515  -0.801  0.00  0.00     0.078 C 
ATOM      2  C1' OXE d   1      -1.134   1.704  -1.009  0.00  0.00     0.078 C 
ATOM      3  C1  OXE d   1      -0.919   1.107   0.360  0.00  0.00    -0.078 A 
ATOM      4  C2  OXE d   1      -0.119  -0.007   0.445  0.00  0.00    -0.078 A 
ATOM      5  C3  OXE d   1       0.156  -0.564   1.691  0.00  0.00     0.003 A 
ATOM      6  C4  OXE d   1      -0.496  -0.094   2.837  0.00  0.00    -0.002 A 
ATOM      7  C5  OXE d   1      -1.346   1.015   2.766  0.00  0.00    -0.002 A 
ATOM      8  C6  OXE d   1      -1.534   1.652   1.545  0.00  0.00     0.003 A 
ENDROOT
TORSDOF 0
ENDMDL
