MODEL 1
REMARK minimizedAffinity -3.8326242
REMARK minimizedRMSD -1
REMARK  0 active torsions:
REMARK  status: ('A' for Active; 'I' for Inactive)
ROOT
ATOM      1  C2' OXE d   1       0.526  -1.501  -0.618  0.00  0.00     0.078 C 
ATOM      2  C1' OXE d   1       1.088   1.218  -1.033  0.00  0.00     0.078 C 
ATOM      3  C1  OXE d   1       0.192   0.853   0.124  0.00  0.00    -0.078 A 
ATOM      4  C2  OXE d   1      -0.116  -0.476   0.291  0.00  0.00    -0.078 A 
ATOM      5  C3  OXE d   1      -0.894  -0.872   1.375  0.00  0.00     0.003 A 
ATOM      6  C4  OXE d   1      -1.492   0.084   2.206  0.00  0.00    -0.002 A 
ATOM      7  C5  OXE d   1      -1.223   1.445   2.029  0.00  0.00    -0.002 A 
ATOM      8  C6  OXE d   1      -0.352   1.843   1.022  0.00  0.00     0.003 A 
ENDROOT
TORSDOF 0
ENDMDL
