MODEL 1
REMARK minimizedAffinity -5.41870499
REMARK minimizedRMSD -1
REMARK  0 active torsions:
REMARK  status: ('A' for Active; 'I' for Inactive)
ROOT
ATOM      1  C2' OXE d   1       0.453  -0.303  -1.064  0.00  0.00     0.078 C 
ATOM      2  C1' OXE d   1      -0.634  -0.029   1.509  0.00  0.00     0.078 C 
ATOM      3  C1  OXE d   1      -0.314   1.230   0.743  0.00  0.00    -0.078 A 
ATOM      4  C2  OXE d   1       0.261   1.087  -0.497  0.00  0.00    -0.078 A 
ATOM      5  C3  OXE d   1       0.526   2.214  -1.269  0.00  0.00     0.003 A 
ATOM      6  C4  OXE d   1       0.355   3.496  -0.733  0.00  0.00    -0.002 A 
ATOM      7  C5  OXE d   1      -0.192   3.665   0.544  0.00  0.00    -0.002 A 
ATOM      8  C6  OXE d   1      -0.570   2.545   1.276  0.00  0.00     0.003 A 
ENDROOT
TORSDOF 0
ENDMDL
