MODEL 1
REMARK minimizedAffinity -3.52541208
REMARK minimizedRMSD -1
REMARK  0 active torsions:
REMARK  status: ('A' for Active; 'I' for Inactive)
ROOT
ATOM      1  C2' OXE d   1       0.486  -0.774   1.163  0.00  0.00     0.078 C 
ATOM      2  C1' OXE d   1       0.128   0.955  -1.019  0.00  0.00     0.078 C 
ATOM      3  C1  OXE d   1       0.023  -0.528  -1.273  0.00  0.00    -0.078 A 
ATOM      4  C2  OXE d   1       0.245  -1.368  -0.208  0.00  0.00    -0.078 A 
ATOM      5  C3  OXE d   1       0.107  -2.743  -0.375  0.00  0.00     0.003 A 
ATOM      6  C4  OXE d   1      -0.106  -3.285  -1.649  0.00  0.00    -0.002 A 
ATOM      7  C5  OXE d   1      -0.296  -2.448  -2.753  0.00  0.00    -0.002 A 
ATOM      8  C6  OXE d   1      -0.277  -1.069  -2.575  0.00  0.00     0.003 A 
ENDROOT
TORSDOF 0
ENDMDL
