MODEL 1
REMARK minimizedAffinity 1.16949308
REMARK minimizedRMSD -1
REMARK  0 active torsions:
REMARK  status: ('A' for Active; 'I' for Inactive)
ROOT
ATOM      1  C2' OXE d   1      -2.546   1.049  -1.375  0.00  0.00     0.078 C 
ATOM      2  C1' OXE d   1      -4.682   0.697  -3.162  0.00  0.00     0.078 C 
ATOM      3  C1  OXE d   1      -3.948   2.014  -3.194  0.00  0.00    -0.078 A 
ATOM      4  C2  OXE d   1      -2.934   2.195  -2.284  0.00  0.00    -0.078 A 
ATOM      5  C3  OXE d   1      -2.189   3.370  -2.308  0.00  0.00     0.003 A 
ATOM      6  C4  OXE d   1      -2.560   4.429  -3.145  0.00  0.00    -0.002 A 
ATOM      7  C5  OXE d   1      -3.615   4.281  -4.052  0.00  0.00    -0.002 A 
ATOM      8  C6  OXE d   1      -4.290   3.067  -4.119  0.00  0.00     0.003 A 
ENDROOT
TORSDOF 0
ENDMDL
