MODEL 1
REMARK minimizedAffinity -3.3748219
REMARK minimizedRMSD -1
REMARK  0 active torsions:
REMARK  status: ('A' for Active; 'I' for Inactive)
ROOT
ATOM      1  C2' OXE d   1      -0.231   1.243  -1.932  0.00  0.00     0.078 C 
ATOM      2  C1' OXE d   1       0.699  -0.466   0.091  0.00  0.00     0.078 C 
ATOM      3  C1  OXE d   1      -0.203   0.674   0.493  0.00  0.00    -0.078 A 
ATOM      4  C2  OXE d   1      -0.616   1.533  -0.497  0.00  0.00    -0.078 A 
ATOM      5  C3  OXE d   1      -1.493   2.569  -0.190  0.00  0.00     0.003 A 
ATOM      6  C4  OXE d   1      -1.836   2.836   1.141  0.00  0.00    -0.002 A 
ATOM      7  C5  OXE d   1      -1.394   1.997   2.170  0.00  0.00    -0.002 A 
ATOM      8  C6  OXE d   1      -0.614   0.890   1.858  0.00  0.00     0.003 A 
ENDROOT
TORSDOF 0
ENDMDL
