MODEL 1
REMARK minimizedAffinity 2.29034591
REMARK minimizedRMSD -1
REMARK  0 active torsions:
REMARK  status: ('A' for Active; 'I' for Inactive)
ROOT
ATOM      1  C2' OXE d   1       0.006   0.764  -2.776  0.00  0.00     0.078 C 
ATOM      2  C1' OXE d   1      -2.647   1.003  -1.893  0.00  0.00     0.078 C 
ATOM      3  C1  OXE d   1      -1.589   0.690  -0.864  0.00  0.00    -0.078 A 
ATOM      4  C2  OXE d   1      -0.300   0.529  -1.313  0.00  0.00    -0.078 A 
ATOM      5  C3  OXE d   1       0.723   0.294  -0.399  0.00  0.00     0.003 A 
ATOM      6  C4  OXE d   1       0.430   0.067   0.951  0.00  0.00    -0.002 A 
ATOM      7  C5  OXE d   1      -0.882   0.187   1.423  0.00  0.00    -0.002 A 
ATOM      8  C6  OXE d   1      -1.895   0.539   0.537  0.00  0.00     0.003 A 
ENDROOT
TORSDOF 0
ENDMDL
