MODEL 1
REMARK minimizedAffinity -1.46876323
REMARK minimizedRMSD -1
REMARK  0 active torsions:
REMARK  status: ('A' for Active; 'I' for Inactive)
ROOT
ATOM      1  C   UNL d   1      -5.988  -0.520  -3.849  0.00  0.00     0.023 A 
ATOM      2  C1  UNL d   1      -5.990  -1.689  -3.087  0.00  0.00     0.003 A 
ATOM      3  C2  UNL d   1      -5.782  -2.925  -3.703  0.00  0.00     0.048 A 
ATOM      4  C3  UNL d   1      -5.572  -2.985  -5.080  0.00  0.00     0.023 A 
ATOM      5  C4  UNL d   1      -5.569  -1.818  -5.846  0.00  0.00     0.048 A 
ATOM      6  C5  UNL d   1      -5.778  -0.584  -5.226  0.00  0.00     0.003 A 
ATOM      7  I   UNL d   1      -5.262  -4.823  -5.998  0.00  0.00    -0.146 I 
ENDROOT
TORSDOF 0
ENDMDL
