MODEL 1
REMARK minimizedAffinity -3.24211073
REMARK minimizedRMSD -1
REMARK  0 active torsions:
REMARK  status: ('A' for Active; 'I' for Inactive)
ROOT
ATOM      1  C   UNL d   1      -5.601  -4.141  -5.608  0.00  0.00     0.023 A 
ATOM      2  C1  UNL d   1      -4.520  -3.348  -5.226  0.00  0.00     0.003 A 
ATOM      3  C2  UNL d   1      -3.228  -3.877  -5.228  0.00  0.00     0.048 A 
ATOM      4  C3  UNL d   1      -3.025  -5.201  -5.616  0.00  0.00     0.023 A 
ATOM      5  C4  UNL d   1      -4.104  -5.999  -6.000  0.00  0.00     0.048 A 
ATOM      6  C5  UNL d   1      -5.394  -5.465  -5.995  0.00  0.00     0.003 A 
ATOM      7  I   UNL d   1      -1.102  -5.992  -5.621  0.00  0.00    -0.146 I 
ENDROOT
TORSDOF 0
ENDMDL
