MODEL 1
REMARK minimizedAffinity -3.05105114
REMARK minimizedRMSD -1
REMARK  0 active torsions:
REMARK  status: ('A' for Active; 'I' for Inactive)
ROOT
ATOM      1  C   UNL d   1      -3.006  -5.590  -5.496  0.00  0.00     0.023 A 
ATOM      2  C1  UNL d   1      -4.303  -5.478  -5.998  0.00  0.00     0.003 A 
ATOM      3  C2  UNL d   1      -5.163  -4.499  -5.498  0.00  0.00     0.048 A 
ATOM      4  C3  UNL d   1      -4.721  -3.635  -4.497  0.00  0.00     0.023 A 
ATOM      5  C4  UNL d   1      -3.423  -3.743  -3.993  0.00  0.00     0.048 A 
ATOM      6  C5  UNL d   1      -2.567  -4.724  -4.495  0.00  0.00     0.003 A 
ATOM      7  I   UNL d   1      -6.000  -2.176  -3.751  0.00  0.00    -0.146 I 
ENDROOT
TORSDOF 0
ENDMDL
