MODEL 1
REMARK minimizedAffinity -2.24128151
REMARK minimizedRMSD -1
REMARK  0 active torsions:
REMARK  status: ('A' for Active; 'I' for Inactive)
ROOT
ATOM      1  C   UNL d   1      -2.592  -5.637  -5.976  0.00  0.00     0.023 A 
ATOM      2  C1  UNL d   1      -3.947  -5.968  -5.966  0.00  0.00     0.003 A 
ATOM      3  C2  UNL d   1      -4.913  -4.960  -5.971  0.00  0.00     0.048 A 
ATOM      4  C3  UNL d   1      -4.517  -3.623  -5.988  0.00  0.00     0.023 A 
ATOM      5  C4  UNL d   1      -3.162  -3.287  -6.000  0.00  0.00     0.048 A 
ATOM      6  C5  UNL d   1      -2.200  -4.299  -5.993  0.00  0.00     0.003 A 
ATOM      7  I   UNL d   1      -5.953  -2.120  -5.997  0.00  0.00    -0.146 I 
ENDROOT
TORSDOF 0
ENDMDL
