MODEL 1
REMARK minimizedAffinity 0.680162728
REMARK minimizedRMSD -1
REMARK  0 active torsions:
REMARK  status: ('A' for Active; 'I' for Inactive)
ROOT
ATOM      1  C   UNL d   1      -5.998  -1.838  -3.936  0.00  0.00     0.023 A 
ATOM      2  C1  UNL d   1      -5.699  -2.948  -3.145  0.00  0.00     0.003 A 
ATOM      3  C2  UNL d   1      -5.222  -4.119  -3.736  0.00  0.00     0.048 A 
ATOM      4  C3  UNL d   1      -5.044  -4.174  -5.118  0.00  0.00     0.023 A 
ATOM      5  C4  UNL d   1      -5.341  -3.066  -5.913  0.00  0.00     0.048 A 
ATOM      6  C5  UNL d   1      -5.819  -1.897  -5.318  0.00  0.00     0.003 A 
ATOM      7  I   UNL d   1      -4.334  -5.917  -5.999  0.00  0.00    -0.146 I 
ENDROOT
TORSDOF 0
ENDMDL
