MODEL 1
REMARK minimizedAffinity 0.911749959
REMARK minimizedRMSD -1
REMARK  0 active torsions:
REMARK  status: ('A' for Active; 'I' for Inactive)
ROOT
ATOM      1  C   UNL d   1      -1.881  -6.000  -5.101  0.00  0.00     0.023 A 
ATOM      2  C1  UNL d   1      -1.472  -4.835  -4.452  0.00  0.00     0.003 A 
ATOM      3  C2  UNL d   1      -2.223  -3.664  -4.576  0.00  0.00     0.048 A 
ATOM      4  C3  UNL d   1      -3.383  -3.666  -5.349  0.00  0.00     0.023 A 
ATOM      5  C4  UNL d   1      -3.797  -4.829  -6.000  0.00  0.00     0.048 A 
ATOM      6  C5  UNL d   1      -3.042  -5.997  -5.874  0.00  0.00     0.003 A 
ATOM      7  I   UNL d   1      -4.502  -1.924  -5.535  0.00  0.00    -0.146 I 
ENDROOT
TORSDOF 0
ENDMDL
