MODEL 1
REMARK minimizedAffinity -2.26918387
REMARK minimizedRMSD -1
REMARK  0 active torsions:
REMARK  status: ('A' for Active; 'I' for Inactive)
ROOT
ATOM      1  C   UNL d   1      -5.999  -4.200  -5.024  0.00  0.00     0.023 A 
ATOM      2  C1  UNL d   1      -4.868  -3.520  -4.572  0.00  0.00     0.003 A 
ATOM      3  C2  UNL d   1      -3.595  -4.032  -4.830  0.00  0.00     0.048 A 
ATOM      4  C3  UNL d   1      -3.460  -5.223  -5.542  0.00  0.00     0.023 A 
ATOM      5  C4  UNL d   1      -4.588  -5.906  -5.998  0.00  0.00     0.048 A 
ATOM      6  C5  UNL d   1      -5.860  -5.391  -5.736  0.00  0.00     0.003 A 
ATOM      7  I   UNL d   1      -1.565  -5.987  -5.928  0.00  0.00    -0.146 I 
ENDROOT
TORSDOF 0
ENDMDL
