MODEL 1
REMARK minimizedAffinity -3.25000525
REMARK minimizedRMSD -1
REMARK  0 active torsions:
REMARK  status: ('A' for Active; 'I' for Inactive)
ROOT
ATOM      1  C   UNL d   1      -5.999  -2.600  -4.710  0.00  0.00     0.023 A 
ATOM      2  C1  UNL d   1      -5.837  -3.921  -4.295  0.00  0.00     0.003 A 
ATOM      3  C2  UNL d   1      -4.617  -4.571  -4.489  0.00  0.00     0.048 A 
ATOM      4  C3  UNL d   1      -3.562  -3.893  -5.099  0.00  0.00     0.023 A 
ATOM      5  C4  UNL d   1      -3.719  -2.570  -5.515  0.00  0.00     0.048 A 
ATOM      6  C5  UNL d   1      -4.941  -1.925  -5.319  0.00  0.00     0.003 A 
ATOM      7  I   UNL d   1      -1.744  -4.858  -5.389  0.00  0.00    -0.146 I 
ENDROOT
TORSDOF 0
ENDMDL
