MODEL 1
REMARK minimizedAffinity -3.53334045
REMARK minimizedRMSD -1
REMARK  0 active torsions:
REMARK  status: ('A' for Active; 'I' for Inactive)
ROOT
ATOM      1  C   UNL d   1      -1.629  -5.484  -4.711  0.00  0.00     0.023 A 
ATOM      2  C1  UNL d   1      -1.875  -4.686  -5.828  0.00  0.00     0.003 A 
ATOM      3  C2  UNL d   1      -3.111  -4.054  -5.977  0.00  0.00     0.048 A 
ATOM      4  C3  UNL d   1      -4.096  -4.224  -5.005  0.00  0.00     0.023 A 
ATOM      5  C4  UNL d   1      -3.854  -5.021  -3.886  0.00  0.00     0.048 A 
ATOM      6  C5  UNL d   1      -2.617  -5.652  -3.741  0.00  0.00     0.003 A 
ATOM      7  I   UNL d   1      -5.937  -3.284  -5.225  0.00  0.00    -0.146 I 
ENDROOT
TORSDOF 0
ENDMDL
