MODEL 1
REMARK minimizedAffinity -2.40150809
REMARK minimizedRMSD -1
REMARK  0 active torsions:
REMARK  status: ('A' for Active; 'I' for Inactive)
ROOT
ATOM      1  C   UNL d   1      -3.858  -5.965  -5.629  0.00  0.00     0.023 A 
ATOM      2  C1  UNL d   1      -3.147  -4.994  -4.923  0.00  0.00     0.003 A 
ATOM      3  C2  UNL d   1      -3.760  -3.785  -4.586  0.00  0.00     0.048 A 
ATOM      4  C3  UNL d   1      -5.085  -3.555  -4.957  0.00  0.00     0.023 A 
ATOM      5  C4  UNL d   1      -5.800  -4.524  -5.662  0.00  0.00     0.048 A 
ATOM      6  C5  UNL d   1      -5.182  -5.731  -5.998  0.00  0.00     0.003 A 
ATOM      7  I   UNL d   1      -5.999  -1.757  -4.457  0.00  0.00    -0.146 I 
ENDROOT
TORSDOF 0
ENDMDL
