MODEL 1
REMARK minimizedAffinity -2.89154124
REMARK minimizedRMSD -1
REMARK  0 active torsions:
REMARK  status: ('A' for Active; 'I' for Inactive)
ROOT
ATOM      1  C   UNL d   1      -3.013  -6.000  -5.019  0.00  0.00     0.023 A 
ATOM      2  C1  UNL d   1      -4.021  -5.766  -5.955  0.00  0.00     0.003 A 
ATOM      3  C2  UNL d   1      -4.879  -4.676  -5.801  0.00  0.00     0.048 A 
ATOM      4  C3  UNL d   1      -4.724  -3.822  -4.710  0.00  0.00     0.023 A 
ATOM      5  C4  UNL d   1      -3.716  -4.051  -3.772  0.00  0.00     0.048 A 
ATOM      6  C5  UNL d   1      -2.861  -5.143  -3.929  0.00  0.00     0.003 A 
ATOM      7  I   UNL d   1      -6.000  -2.198  -4.479  0.00  0.00    -0.146 I 
ENDROOT
TORSDOF 0
ENDMDL
