MODEL 1
REMARK minimizedAffinity -1.29111052
REMARK minimizedRMSD -1
REMARK  0 active torsions:
REMARK  status: ('A' for Active; 'I' for Inactive)
ROOT
ATOM      1  C   UNL d   1      -1.626  -5.999  -4.955  0.00  0.00     0.023 A 
ATOM      2  C1  UNL d   1      -1.555  -5.100  -3.891  0.00  0.00     0.003 A 
ATOM      3  C2  UNL d   1      -2.381  -3.974  -3.871  0.00  0.00     0.048 A 
ATOM      4  C3  UNL d   1      -3.276  -3.754  -4.918  0.00  0.00     0.023 A 
ATOM      5  C4  UNL d   1      -3.350  -4.652  -5.984  0.00  0.00     0.048 A 
ATOM      6  C5  UNL d   1      -2.522  -5.775  -6.000  0.00  0.00     0.003 A 
ATOM      7  I   UNL d   1      -4.506  -2.079  -4.890  0.00  0.00    -0.146 I 
ENDROOT
TORSDOF 0
ENDMDL
