MODEL 1
REMARK minimizedAffinity -1.47140801
REMARK minimizedRMSD -1
REMARK  0 active torsions:
REMARK  status: ('A' for Active; 'I' for Inactive)
ROOT
ATOM      1  C   UNL d   1      -5.820  -3.773  -5.605  0.00  0.00     0.023 A 
ATOM      2  C1  UNL d   1      -4.670  -3.070  -5.244  0.00  0.00     0.003 A 
ATOM      3  C2  UNL d   1      -3.428  -3.707  -5.259  0.00  0.00     0.048 A 
ATOM      4  C3  UNL d   1      -3.342  -5.046  -5.637  0.00  0.00     0.023 A 
ATOM      5  C4  UNL d   1      -4.489  -5.753  -6.000  0.00  0.00     0.048 A 
ATOM      6  C5  UNL d   1      -5.729  -5.113  -5.983  0.00  0.00     0.003 A 
ATOM      7  I   UNL d   1      -1.493  -5.996  -5.660  0.00  0.00    -0.146 I 
ENDROOT
TORSDOF 0
ENDMDL
