MODEL 1
REMARK minimizedAffinity 0.644957542
REMARK minimizedRMSD -1
REMARK  0 active torsions:
REMARK  status: ('A' for Active; 'I' for Inactive)
ROOT
ATOM      1  C   UNL d   1      -4.063  -5.985  -5.840  0.00  0.00     0.023 A 
ATOM      2  C1  UNL d   1      -5.446  -5.823  -5.933  0.00  0.00     0.003 A 
ATOM      3  C2  UNL d   1      -6.000  -4.542  -5.958  0.00  0.00     0.048 A 
ATOM      4  C3  UNL d   1      -5.166  -3.427  -5.890  0.00  0.00     0.023 A 
ATOM      5  C4  UNL d   1      -3.782  -3.584  -5.797  0.00  0.00     0.048 A 
ATOM      6  C5  UNL d   1      -3.232  -4.867  -5.772  0.00  0.00     0.003 A 
ATOM      7  I   UNL d   1      -5.988  -1.518  -5.927  0.00  0.00    -0.146 I 
ENDROOT
TORSDOF 0
ENDMDL
