MODEL 1
REMARK minimizedAffinity -0.399288297
REMARK minimizedRMSD -1
REMARK  0 active torsions:
REMARK  status: ('A' for Active; 'I' for Inactive)
ROOT
ATOM      1  C   UNL d   1      -1.355  -5.527  -3.366  0.00  0.00     0.023 A 
ATOM      2  C1  UNL d   1      -2.529  -6.000  -2.779  0.00  0.00     0.003 A 
ATOM      3  C2  UNL d   1      -3.755  -5.821  -3.425  0.00  0.00     0.048 A 
ATOM      4  C3  UNL d   1      -3.798  -5.170  -4.657  0.00  0.00     0.023 A 
ATOM      5  C4  UNL d   1      -2.626  -4.696  -5.248  0.00  0.00     0.048 A 
ATOM      6  C5  UNL d   1      -1.403  -4.876  -4.599  0.00  0.00     0.003 A 
ATOM      7  I   UNL d   1      -5.621  -4.903  -5.620  0.00  0.00    -0.146 I 
ENDROOT
TORSDOF 0
ENDMDL
