MODEL 1
REMARK minimizedAffinity -0.289896041
REMARK minimizedRMSD -1
REMARK  0 active torsions:
REMARK  status: ('A' for Active; 'I' for Inactive)
ROOT
ATOM      1  C   UNL d   1      -2.250  -5.274  -4.496  0.00  0.00     0.023 A 
ATOM      2  C1  UNL d   1      -2.858  -4.645  -3.410  0.00  0.00     0.003 A 
ATOM      3  C2  UNL d   1      -3.933  -3.778  -3.615  0.00  0.00     0.048 A 
ATOM      4  C3  UNL d   1      -4.397  -3.546  -4.910  0.00  0.00     0.023 A 
ATOM      5  C4  UNL d   1      -3.793  -4.175  -6.000  0.00  0.00     0.048 A 
ATOM      6  C5  UNL d   1      -2.717  -5.040  -5.790  0.00  0.00     0.003 A 
ATOM      7  I   UNL d   1      -5.998  -2.257  -5.218  0.00  0.00    -0.146 I 
ENDROOT
TORSDOF 0
ENDMDL
