MODEL 1
REMARK minimizedAffinity 3.63093519
REMARK minimizedRMSD -1
REMARK  1 active torsions:
REMARK  status: ('A' for Active; 'I' for Inactive)
REMARK    1  A    between atoms: C1_2  and  C2_3 
ROOT
ATOM      1  C2  UNL d   1       0.317   1.995   0.370  0.00  0.00    -0.073 A 
ATOM      2  C3  UNL d   1      -0.171   1.137   1.362  0.00  0.00    -0.002 A 
ATOM      3  C4  UNL d   1      -0.367  -0.217   1.089  0.00  0.00     0.004 A 
ATOM      4  C5  UNL d   1      -0.071  -0.728  -0.174  0.00  0.00    -0.004 A 
ATOM      5  C6  UNL d   1       0.429   0.110  -1.175  0.00  0.00    -0.075 A 
ATOM      6  C7  UNL d   1       0.751  -0.424  -2.540  0.00  0.00     0.076 C 
ATOM      7  C8  UNL d   1       0.621   1.470  -0.894  0.00  0.00     0.001 A 
ENDROOT
BRANCH   1   8
ATOM      8  C1  UNL d   1       0.537   3.457   0.662  0.00  0.00     0.053 C 
ATOM      9  C   UNL d   1       0.950   3.694   2.106  0.00  0.00     0.018 C 
ENDBRANCH   1   8
TORSDOF 1
ENDMDL
