MODEL 1
REMARK minimizedAffinity 0.915781975
REMARK minimizedRMSD -1
REMARK  1 active torsions:
REMARK  status: ('A' for Active; 'I' for Inactive)
REMARK    1  A    between atoms: C1_2  and  C2_3 
ROOT
ATOM      1  C2  UNL d   1      -0.944  -0.855   0.348  0.00  0.00    -0.073 A 
ATOM      2  C3  UNL d   1      -0.653   0.147   1.281  0.00  0.00    -0.002 A 
ATOM      3  C4  UNL d   1       0.151   1.231   0.924  0.00  0.00     0.004 A 
ATOM      4  C5  UNL d   1       0.665   1.327  -0.369  0.00  0.00    -0.004 A 
ATOM      5  C6  UNL d   1       0.375   0.343  -1.319  0.00  0.00    -0.075 A 
ATOM      6  C7  UNL d   1       0.922   0.431  -2.714  0.00  0.00     0.076 C 
ATOM      7  C8  UNL d   1      -0.431  -0.744  -0.952  0.00  0.00     0.001 A 
ENDROOT
BRANCH   1   8
ATOM      8  C1  UNL d   1      -1.817  -2.023   0.727  0.00  0.00     0.053 C 
ATOM      9  C   UNL d   1      -1.301  -3.331   0.148  0.00  0.00     0.018 C 
ENDBRANCH   1   8
TORSDOF 1
ENDMDL
