MODEL 1
REMARK minimizedAffinity -0.78072232
REMARK minimizedRMSD -1
REMARK  1 active torsions:
REMARK  status: ('A' for Active; 'I' for Inactive)
REMARK    1  A    between atoms: C1_2  and  C2_3 
ROOT
ATOM      1  C2  UNL d   1       0.386  -0.363  -1.369  0.00  0.00    -0.073 A 
ATOM      2  C3  UNL d   1       0.419   0.698  -0.458  0.00  0.00    -0.002 A 
ATOM      3  C4  UNL d   1      -0.104   0.541   0.826  0.00  0.00     0.004 A 
ATOM      4  C5  UNL d   1      -0.659  -0.679   1.214  0.00  0.00    -0.004 A 
ATOM      5  C6  UNL d   1      -0.690  -1.755   0.321  0.00  0.00    -0.075 A 
ATOM      6  C7  UNL d   1      -1.286  -3.073   0.722  0.00  0.00     0.076 C 
ATOM      7  C8  UNL d   1      -0.166  -1.588  -0.968  0.00  0.00     0.001 A 
ENDROOT
BRANCH   1   8
ATOM      8  C1  UNL d   1       0.955  -0.200  -2.755  0.00  0.00     0.053 C 
ATOM      9  C   UNL d   1       1.210  -1.539  -3.428  0.00  0.00     0.018 C 
ENDBRANCH   1   8
TORSDOF 1
ENDMDL
