MODEL 1
REMARK minimizedAffinity 5.92050028
REMARK minimizedRMSD -1
REMARK  1 active torsions:
REMARK  status: ('A' for Active; 'I' for Inactive)
REMARK    1  A    between atoms: C1_2  and  C2_3 
ROOT
ATOM      1  C2  UNL d   1       1.432   1.216   1.064  0.00  0.00    -0.073 A 
ATOM      2  C3  UNL d   1       1.271   2.315   1.915  0.00  0.00    -0.002 A 
ATOM      3  C4  UNL d   1       2.069   3.450   1.761  0.00  0.00     0.004 A 
ATOM      4  C5  UNL d   1       3.030   3.500   0.751  0.00  0.00    -0.004 A 
ATOM      5  C6  UNL d   1       3.198   2.417  -0.117  0.00  0.00    -0.075 A 
ATOM      6  C7  UNL d   1       4.230   2.454  -1.206  0.00  0.00     0.076 C 
ATOM      7  C8  UNL d   1       2.395   1.280   0.046  0.00  0.00     0.001 A 
ENDROOT
BRANCH   1   8
ATOM      8  C1  UNL d   1       0.569  -0.008   1.222  0.00  0.00     0.053 C 
ATOM      9  C   UNL d   1      -0.903   0.300   0.999  0.00  0.00     0.018 C 
ENDBRANCH   1   8
TORSDOF 1
ENDMDL
