MODEL 1
REMARK minimizedAffinity 1.53971684
REMARK minimizedRMSD -1
REMARK  1 active torsions:
REMARK  status: ('A' for Active; 'I' for Inactive)
REMARK    1  A    between atoms: C1_2  and  C2_3 
ROOT
ATOM      1  C2  UNL d   1      -0.603  -1.819   0.441  0.00  0.00    -0.073 A 
ATOM      2  C3  UNL d   1      -0.410  -0.866   1.447  0.00  0.00    -0.002 A 
ATOM      3  C4  UNL d   1       0.171   0.367   1.148  0.00  0.00     0.004 A 
ATOM      4  C5  UNL d   1       0.556   0.663  -0.160  0.00  0.00    -0.004 A 
ATOM      5  C6  UNL d   1       0.361  -0.272  -1.181  0.00  0.00    -0.075 A 
ATOM      6  C7  UNL d   1       0.772   0.029  -2.593  0.00  0.00     0.076 C 
ATOM      7  C8  UNL d   1      -0.220  -1.509  -0.872  0.00  0.00     0.001 A 
ENDROOT
BRANCH   1   8
ATOM      8  C1  UNL d   1      -1.235  -3.150   0.758  0.00  0.00     0.053 C 
ATOM      9  C   UNL d   1      -0.286  -4.308   0.499  0.00  0.00     0.018 C 
ENDBRANCH   1   8
TORSDOF 1
ENDMDL
