MODEL 1
REMARK minimizedAffinity 1.04744697
REMARK minimizedRMSD -1
REMARK  1 active torsions:
REMARK  status: ('A' for Active; 'I' for Inactive)
REMARK    1  A    between atoms: C1_2  and  C2_3 
ROOT
ATOM      1  C2  UNL d   1       5.487  -2.671   3.419  0.00  0.00    -0.073 A 
ATOM      2  C3  UNL d   1       6.000  -1.543   4.072  0.00  0.00    -0.002 A 
ATOM      3  C4  UNL d   1       5.529  -1.185   5.336  0.00  0.00     0.004 A 
ATOM      4  C5  UNL d   1       4.548  -1.954   5.963  0.00  0.00    -0.004 A 
ATOM      5  C6  UNL d   1       4.032  -3.091   5.332  0.00  0.00    -0.075 A 
ATOM      6  C7  UNL d   1       2.975  -3.926   5.993  0.00  0.00     0.076 C 
ATOM      7  C8  UNL d   1       4.508  -3.442   4.062  0.00  0.00     0.001 A 
ENDROOT
BRANCH   1   8
ATOM      8  C1  UNL d   1       5.997  -3.064   2.057  0.00  0.00     0.053 C 
ATOM      9  C   UNL d   1       5.993  -1.894   1.087  0.00  0.00     0.018 C 
ENDBRANCH   1   8
TORSDOF 1
ENDMDL
