MODEL 1
REMARK minimizedAffinity -6.68087864
REMARK minimizedRMSD -1
REMARK  1 active torsions:
REMARK  status: ('A' for Active; 'I' for Inactive)
REMARK    1  A    between atoms: C1_2  and  C2_3 
ROOT
ATOM      1  C2  UNL d   1       0.052   0.049  -0.407  0.00  0.00    -0.073 A 
ATOM      2  C3  UNL d   1      -0.660   0.092   0.797  0.00  0.00    -0.002 A 
ATOM      3  C4  UNL d   1      -1.105  -1.088   1.395  0.00  0.00     0.004 A 
ATOM      4  C5  UNL d   1      -0.837  -2.320   0.800  0.00  0.00    -0.004 A 
ATOM      5  C6  UNL d   1      -0.117  -2.384  -0.397  0.00  0.00    -0.075 A 
ATOM      6  C7  UNL d   1       0.177  -3.703  -1.051  0.00  0.00     0.076 C 
ATOM      7  C8  UNL d   1       0.324  -1.195  -0.993  0.00  0.00     0.001 A 
ENDROOT
BRANCH   1   8
ATOM      8  C1  UNL d   1       0.540   1.320  -1.053  0.00  0.00     0.053 C 
ATOM      9  C   UNL d   1       1.305   2.199  -0.076  0.00  0.00     0.018 C 
ENDBRANCH   1   8
TORSDOF 1
ENDMDL
