MODEL 1
REMARK minimizedAffinity -4.53544235
REMARK minimizedRMSD -1
REMARK  1 active torsions:
REMARK  status: ('A' for Active; 'I' for Inactive)
REMARK    1  A    between atoms: C1_2  and  C2_3 
ROOT
ATOM      1  C2  UNL d   1      -0.258  -0.702  -0.660  0.00  0.00    -0.073 A 
ATOM      2  C3  UNL d   1      -0.643  -0.896   0.671  0.00  0.00    -0.002 A 
ATOM      3  C4  UNL d   1      -0.820  -2.186   1.173  0.00  0.00     0.004 A 
ATOM      4  C5  UNL d   1      -0.606  -3.294   0.353  0.00  0.00    -0.004 A 
ATOM      5  C6  UNL d   1      -0.210  -3.121  -0.977  0.00  0.00    -0.075 A 
ATOM      6  C7  UNL d   1       0.022  -4.302  -1.873  0.00  0.00     0.076 C 
ATOM      7  C8  UNL d   1      -0.037  -1.822  -1.475  0.00  0.00     0.001 A 
ENDROOT
BRANCH   1   8
ATOM      8  C1  UNL d   1      -0.060   0.689  -1.205  0.00  0.00     0.053 C 
ATOM      9  C   UNL d   1      -0.173   1.748  -0.119  0.00  0.00     0.018 C 
ENDBRANCH   1   8
TORSDOF 1
ENDMDL
