MODEL 1
REMARK minimizedAffinity -6.34557152
REMARK minimizedRMSD -1
REMARK  1 active torsions:
REMARK  status: ('A' for Active; 'I' for Inactive)
REMARK    1  A    between atoms: C1_2  and  C2_3 
ROOT
ATOM      1  C2  UNL d   1       0.294   0.332  -0.886  0.00  0.00    -0.073 A 
ATOM      2  C3  UNL d   1      -0.201  -0.116   0.344  0.00  0.00    -0.002 A 
ATOM      3  C4  UNL d   1      -0.149  -1.471   0.673  0.00  0.00     0.004 A 
ATOM      4  C5  UNL d   1       0.402  -2.390  -0.219  0.00  0.00    -0.004 A 
ATOM      5  C6  UNL d   1       0.912  -1.960  -1.449  0.00  0.00    -0.075 A 
ATOM      6  C7  UNL d   1       1.506  -2.937  -2.421  0.00  0.00     0.076 C 
ATOM      7  C8  UNL d   1       0.855  -0.598  -1.773  0.00  0.00     0.001 A 
ENDROOT
BRANCH   1   8
ATOM      8  C1  UNL d   1       0.246   1.795  -1.244  0.00  0.00     0.053 C 
ATOM      9  C   UNL d   1       0.693   2.678  -0.090  0.00  0.00     0.018 C 
ENDBRANCH   1   8
TORSDOF 1
ENDMDL
