MODEL 1
REMARK minimizedAffinity 10.3360577
REMARK minimizedRMSD -1
REMARK  0 active torsions:
REMARK  status: ('A' for Active; 'I' for Inactive)
ROOT
ATOM      1  C   UNL d   1       2.584  -3.500  -3.107  0.00  0.00     0.020 A 
ATOM      2  C1  UNL d   1       2.300  -3.274  -1.761  0.00  0.00     0.020 A 
ATOM      3  C2  UNL d   1       2.706  -2.086  -1.151  0.00  0.00     0.034 A 
ATOM      4  C3  UNL d   1       3.399  -1.118  -1.888  0.00  0.00     0.017 A 
ATOM      5  C4  UNL d   1       3.683  -1.345  -3.239  0.00  0.00     0.017 A 
ATOM      6  C5  UNL d   1       3.274  -2.537  -3.845  0.00  0.00     0.034 A 
ATOM      7 Cl   UNL d   1       4.534  -0.197  -4.212  0.00  0.00    -0.070 Cl
ATOM      8 Cl1  UNL d   1       3.870   0.329  -1.069  0.00  0.00    -0.070 Cl
ENDROOT
TORSDOF 0
ENDMDL
