MODEL 1
REMARK minimizedAffinity 6.59339046
REMARK minimizedRMSD -1
REMARK  0 active torsions:
REMARK  status: ('A' for Active; 'I' for Inactive)
ROOT
ATOM      1  C   UNL d   1       1.566  -0.693   3.750  0.00  0.00     0.020 A 
ATOM      2  C1  UNL d   1       1.374  -1.794   2.917  0.00  0.00     0.020 A 
ATOM      3  C2  UNL d   1       1.384  -1.632   1.530  0.00  0.00     0.034 A 
ATOM      4  C3  UNL d   1       1.586  -0.365   0.972  0.00  0.00     0.017 A 
ATOM      5  C4  UNL d   1       1.780   0.741   1.808  0.00  0.00     0.017 A 
ATOM      6  C5  UNL d   1       1.769   0.572   3.196  0.00  0.00     0.034 A 
ATOM      7 Cl   UNL d   1       2.036   2.335   1.192  0.00  0.00    -0.070 Cl
ATOM      8 Cl1  UNL d   1       1.587  -0.237  -0.752  0.00  0.00    -0.070 Cl
ENDROOT
TORSDOF 0
ENDMDL
