MODEL 1
REMARK minimizedAffinity 12.8840609
REMARK minimizedRMSD -1
REMARK  0 active torsions:
REMARK  status: ('A' for Active; 'I' for Inactive)
ROOT
ATOM      1  C   UNL d   1       0.929  -1.008   2.760  0.00  0.00     0.020 A 
ATOM      2  C1  UNL d   1       1.418  -1.933   3.681  0.00  0.00     0.020 A 
ATOM      3  C2  UNL d   1       2.785  -2.212   3.732  0.00  0.00     0.034 A 
ATOM      4  C3  UNL d   1       3.668  -1.564   2.860  0.00  0.00     0.017 A 
ATOM      5  C4  UNL d   1       3.176  -0.635   1.936  0.00  0.00     0.017 A 
ATOM      6  C5  UNL d   1       1.806  -0.360   1.890  0.00  0.00     0.034 A 
ATOM      7 Cl   UNL d   1       4.204   0.204   0.829  0.00  0.00    -0.070 Cl
ATOM      8 Cl1  UNL d   1       5.347  -1.957   2.979  0.00  0.00    -0.070 Cl
ENDROOT
TORSDOF 0
ENDMDL
