MODEL 1
REMARK minimizedAffinity 7.70247507
REMARK minimizedRMSD -1
REMARK  0 active torsions:
REMARK  status: ('A' for Active; 'I' for Inactive)
ROOT
ATOM      1  C   UNL d   1       4.437   1.333  -5.214  0.00  0.00     0.020 A 
ATOM      2  C1  UNL d   1       5.532   0.977  -6.000  0.00  0.00     0.020 A 
ATOM      3  C2  UNL d   1       5.999  -0.339  -5.993  0.00  0.00     0.034 A 
ATOM      4  C3  UNL d   1       5.370  -1.304  -5.198  0.00  0.00     0.017 A 
ATOM      5  C4  UNL d   1       4.271  -0.946  -4.409  0.00  0.00     0.017 A 
ATOM      6  C5  UNL d   1       3.807   0.373  -4.421  0.00  0.00     0.034 A 
ATOM      7 Cl   UNL d   1       3.443  -2.082  -3.403  0.00  0.00    -0.070 Cl
ATOM      8 Cl1  UNL d   1       6.000  -2.913  -5.238  0.00  0.00    -0.070 Cl
ENDROOT
TORSDOF 0
ENDMDL
