MODEL 1
REMARK minimizedAffinity 2.60300231
REMARK minimizedRMSD -1
REMARK  0 active torsions:
REMARK  status: ('A' for Active; 'I' for Inactive)
ROOT
ATOM      1  C   UNL d   1      -4.990  -4.950  -5.983  0.00  0.00     0.020 A 
ATOM      2  C1  UNL d   1      -5.694  -3.747  -5.999  0.00  0.00     0.020 A 
ATOM      3  C2  UNL d   1      -5.996  -3.098  -4.800  0.00  0.00     0.034 A 
ATOM      4  C3  UNL d   1      -5.593  -3.652  -3.580  0.00  0.00     0.017 A 
ATOM      5  C4  UNL d   1      -4.886  -4.860  -3.564  0.00  0.00     0.017 A 
ATOM      6  C5  UNL d   1      -4.586  -5.505  -4.768  0.00  0.00     0.034 A 
ATOM      7 Cl   UNL d   1      -4.355  -5.604  -2.098  0.00  0.00    -0.070 Cl
ATOM      8 Cl1  UNL d   1      -6.000  -2.795  -2.135  0.00  0.00    -0.070 Cl
ENDROOT
TORSDOF 0
ENDMDL
