MODEL 1
REMARK minimizedAffinity 5.24797201
REMARK minimizedRMSD -1
REMARK  0 active torsions:
REMARK  status: ('A' for Active; 'I' for Inactive)
ROOT
ATOM      1  C   UNL d   1      -2.042  -0.432   0.531  0.00  0.00     0.020 A 
ATOM      2  C1  UNL d   1      -1.126   0.612   0.410  0.00  0.00     0.020 A 
ATOM      3  C2  UNL d   1       0.244   0.350   0.475  0.00  0.00     0.034 A 
ATOM      4  C3  UNL d   1       0.702  -0.960   0.662  0.00  0.00     0.017 A 
ATOM      5  C4  UNL d   1      -0.218  -2.007   0.783  0.00  0.00     0.017 A 
ATOM      6  C5  UNL d   1      -1.589  -1.739   0.717  0.00  0.00     0.034 A 
ATOM      7 Cl   UNL d   1       0.271  -3.648   1.015  0.00  0.00    -0.070 Cl
ATOM      8 Cl1  UNL d   1       2.410  -1.211   0.732  0.00  0.00    -0.070 Cl
ENDROOT
TORSDOF 0
ENDMDL
