MODEL 1
REMARK minimizedAffinity 4.44537973
REMARK minimizedRMSD -1
REMARK  0 active torsions:
REMARK  status: ('A' for Active; 'I' for Inactive)
ROOT
ATOM      1  C   UNL d   1      -2.307  -0.895   0.963  0.00  0.00     0.020 A 
ATOM      2  C1  UNL d   1      -1.310  -0.228   0.252  0.00  0.00     0.020 A 
ATOM      3  C2  UNL d   1      -0.241  -0.945  -0.291  0.00  0.00     0.034 A 
ATOM      4  C3  UNL d   1      -0.166  -2.332  -0.122  0.00  0.00     0.017 A 
ATOM      5  C4  UNL d   1      -1.167  -3.001   0.592  0.00  0.00     0.017 A 
ATOM      6  C5  UNL d   1      -2.235  -2.278   1.133  0.00  0.00     0.034 A 
ATOM      7 Cl   UNL d   1      -1.143  -4.711   0.841  0.00  0.00    -0.070 Cl
ATOM      8 Cl1  UNL d   1       1.184  -3.154  -0.820  0.00  0.00    -0.070 Cl
ENDROOT
TORSDOF 0
ENDMDL
