MODEL 1
REMARK minimizedAffinity 3.2952764
REMARK minimizedRMSD -1
REMARK  0 active torsions:
REMARK  status: ('A' for Active; 'I' for Inactive)
ROOT
ATOM      1  C   UNL d   1       2.650   2.922  -0.780  0.00  0.00     0.020 A 
ATOM      2  C1  UNL d   1       3.797   2.227  -0.397  0.00  0.00     0.020 A 
ATOM      3  C2  UNL d   1       3.696   1.139   0.472  0.00  0.00     0.034 A 
ATOM      4  C3  UNL d   1       2.446   0.742   0.961  0.00  0.00     0.017 A 
ATOM      5  C4  UNL d   1       1.296   1.440   0.576  0.00  0.00     0.017 A 
ATOM      6  C5  UNL d   1       1.403   2.529  -0.295  0.00  0.00     0.034 A 
ATOM      7 Cl   UNL d   1      -0.281   1.009   1.138  0.00  0.00    -0.070 Cl
ATOM      8 Cl1  UNL d   1       2.396  -0.613   2.032  0.00  0.00    -0.070 Cl
ENDROOT
TORSDOF 0
ENDMDL
