MODEL 1
REMARK minimizedAffinity 10.128643
REMARK minimizedRMSD -1
REMARK  0 active torsions:
REMARK  status: ('A' for Active; 'I' for Inactive)
ROOT
ATOM      1  C   UNL d   1       3.829   1.511  -0.536  0.00  0.00     0.020 A 
ATOM      2  C1  UNL d   1       3.062   2.612  -0.157  0.00  0.00     0.020 A 
ATOM      3  C2  UNL d   1       2.214   2.524   0.949  0.00  0.00     0.034 A 
ATOM      4  C3  UNL d   1       2.131   1.333   1.680  0.00  0.00     0.017 A 
ATOM      5  C4  UNL d   1       2.901   0.229   1.298  0.00  0.00     0.017 A 
ATOM      6  C5  UNL d   1       3.748   0.322   0.190  0.00  0.00     0.034 A 
ATOM      7 Cl   UNL d   1       2.852  -1.274   2.150  0.00  0.00    -0.070 Cl
ATOM      8 Cl1  UNL d   1       1.061   1.296   3.037  0.00  0.00    -0.070 Cl
ENDROOT
TORSDOF 0
ENDMDL
