MODEL 1
REMARK minimizedAffinity 4.06563044
REMARK minimizedRMSD -1
REMARK  0 active torsions:
REMARK  status: ('A' for Active; 'I' for Inactive)
ROOT
ATOM      1  C   UNL d   1       2.299  -0.962   1.498  0.00  0.00     0.020 A 
ATOM      2  C1  UNL d   1       2.486  -2.308   1.813  0.00  0.00     0.020 A 
ATOM      3  C2  UNL d   1       2.295  -2.751   3.124  0.00  0.00     0.034 A 
ATOM      4  C3  UNL d   1       1.918  -1.848   4.124  0.00  0.00     0.017 A 
ATOM      5  C4  UNL d   1       1.731  -0.497   3.807  0.00  0.00     0.017 A 
ATOM      6  C5  UNL d   1       1.923  -0.059   2.493  0.00  0.00     0.034 A 
ATOM      7 Cl   UNL d   1       1.266   0.676   4.987  0.00  0.00    -0.070 Cl
ATOM      8 Cl1  UNL d   1       1.700  -2.465   5.723  0.00  0.00    -0.070 Cl
ENDROOT
TORSDOF 0
ENDMDL
