MODEL 1
REMARK minimizedAffinity 4.0832963
REMARK minimizedRMSD -1
REMARK  0 active torsions:
REMARK  status: ('A' for Active; 'I' for Inactive)
ROOT
ATOM      1  C   UNL d   1       1.761   3.383   0.041  0.00  0.00     0.020 A 
ATOM      2  C1  UNL d   1       2.710   2.451   0.458  0.00  0.00     0.020 A 
ATOM      3  C2  UNL d   1       2.300   1.249   1.038  0.00  0.00     0.034 A 
ATOM      4  C3  UNL d   1       0.938   0.975   1.203  0.00  0.00     0.017 A 
ATOM      5  C4  UNL d   1      -0.015   1.912   0.785  0.00  0.00     0.017 A 
ATOM      6  C5  UNL d   1       0.401   3.114   0.205  0.00  0.00     0.034 A 
ATOM      7 Cl   UNL d   1      -1.714   1.646   0.957  0.00  0.00    -0.070 Cl
ATOM      8 Cl1  UNL d   1       0.503  -0.532   1.928  0.00  0.00    -0.070 Cl
ENDROOT
TORSDOF 0
ENDMDL
