MODEL 1
REMARK minimizedAffinity -4.2133646
REMARK minimizedRMSD -1
REMARK  0 active torsions:
REMARK  status: ('A' for Active; 'I' for Inactive)
ROOT
ATOM      1  C   UNL d   1      -6.000  -4.094  -5.958  0.00  0.00     0.020 A 
ATOM      2  C1  UNL d   1      -5.599  -5.429  -5.972  0.00  0.00     0.020 A 
ATOM      3  C2  UNL d   1      -5.023  -5.998  -4.834  0.00  0.00     0.034 A 
ATOM      4  C3  UNL d   1      -4.845  -5.230  -3.677  0.00  0.00     0.017 A 
ATOM      5  C4  UNL d   1      -5.248  -3.890  -3.664  0.00  0.00     0.017 A 
ATOM      6  C5  UNL d   1      -5.824  -3.326  -4.806  0.00  0.00     0.034 A 
ATOM      7 Cl   UNL d   1      -5.061  -2.880  -2.274  0.00  0.00    -0.070 Cl
ATOM      8 Cl1  UNL d   1      -4.126  -5.998  -2.307  0.00  0.00    -0.070 Cl
ENDROOT
TORSDOF 0
ENDMDL
