MODEL 1
REMARK minimizedAffinity -0.213132545
REMARK minimizedRMSD -1
REMARK  0 active torsions:
REMARK  status: ('A' for Active; 'I' for Inactive)
ROOT
ATOM      1  C   UNL d   1       2.540   0.690   1.994  0.00  0.00     0.020 A 
ATOM      2  C1  UNL d   1       1.743   1.832   1.948  0.00  0.00     0.020 A 
ATOM      3  C2  UNL d   1       0.386   1.725   1.635  0.00  0.00     0.034 A 
ATOM      4  C3  UNL d   1      -0.177   0.472   1.366  0.00  0.00     0.017 A 
ATOM      5  C4  UNL d   1       0.624  -0.674   1.412  0.00  0.00     0.017 A 
ATOM      6  C5  UNL d   1       1.982  -0.561   1.727  0.00  0.00     0.034 A 
ATOM      7 Cl   UNL d   1       0.001  -2.254   1.093  0.00  0.00    -0.070 Cl
ATOM      8 Cl1  UNL d   1      -1.862   0.413   0.986  0.00  0.00    -0.070 Cl
ENDROOT
TORSDOF 0
ENDMDL
