MODEL 1
REMARK minimizedAffinity 5.64184713
REMARK minimizedRMSD -1
REMARK  2 active torsions:
REMARK  status: ('A' for Active; 'I' for Inactive)
REMARK    1  A    between atoms: C1_2  and  C2_3 
REMARK    2  A    between atoms: C2_3  and  C3_4 
ROOT
ATOM      1  C3  UNL d   1      -0.045  -0.913  -0.350  0.00  0.00    -0.075 A 
ATOM      2  C4  UNL d   1      -0.685   0.034  -1.163  0.00  0.00     0.002 A 
ATOM      3  C5  UNL d   1      -0.164   1.321  -1.295  0.00  0.00     0.002 A 
ATOM      4  C6  UNL d   1       0.995   1.681  -0.609  0.00  0.00    -0.004 A 
ATOM      5  C7  UNL d   1       1.629   0.753   0.214  0.00  0.00     0.002 A 
ATOM      6  C8  UNL d   1       1.112  -0.537   0.345  0.00  0.00     0.002 A 
ENDROOT
BRANCH   1   7
ATOM      7  C2  UNL d   1      -0.587  -2.317  -0.226  0.00  0.00     0.056 C 
BRANCH   7   8
ATOM      8  C1  UNL d   1      -2.010  -2.389   0.339  0.00  0.00     0.007 C 
ATOM      9  C   UNL d   1      -3.088  -2.254  -0.728  0.00  0.00     0.009 C 
ENDBRANCH   7   8
ENDBRANCH   1   7
TORSDOF 2
ENDMDL
