MODEL 1
REMARK minimizedAffinity 1.48148704
REMARK minimizedRMSD -1
REMARK  2 active torsions:
REMARK  status: ('A' for Active; 'I' for Inactive)
REMARK    1  A    between atoms: C1_2  and  C2_3 
REMARK    2  A    between atoms: C2_3  and  C3_4 
ROOT
ATOM      1  C3  UNL d   1       3.571  -2.171  -5.937  0.00  0.00    -0.075 A 
ATOM      2  C4  UNL d   1       4.804  -2.839  -5.902  0.00  0.00     0.002 A 
ATOM      3  C5  UNL d   1       5.998  -2.119  -5.870  0.00  0.00     0.002 A 
ATOM      4  C6  UNL d   1       5.976  -0.726  -5.882  0.00  0.00    -0.004 A 
ATOM      5  C7  UNL d   1       4.757  -0.053  -5.933  0.00  0.00     0.002 A 
ATOM      6  C8  UNL d   1       3.560  -0.770  -5.961  0.00  0.00     0.002 A 
ENDROOT
BRANCH   1   7
ATOM      7  C2  UNL d   1       2.273  -2.945  -5.942  0.00  0.00     0.056 C 
BRANCH   7   8
ATOM      8  C1  UNL d   1       1.084  -2.172  -5.361  0.00  0.00     0.007 C 
ATOM      9  C   UNL d   1       0.294  -2.970  -4.333  0.00  0.00     0.009 C 
ENDBRANCH   7   8
ENDBRANCH   1   7
TORSDOF 2
ENDMDL
