MODEL 1
REMARK minimizedAffinity -1.18612719
REMARK minimizedRMSD -1
REMARK  2 active torsions:
REMARK  status: ('A' for Active; 'I' for Inactive)
REMARK    1  A    between atoms: C1_2  and  C2_3 
REMARK    2  A    between atoms: C2_3  and  C3_4 
ROOT
ATOM      1  C3  UNL d   1       5.994  -0.039  -3.540  0.00  0.00    -0.075 A 
ATOM      2  C4  UNL d   1       6.000   0.675  -4.747  0.00  0.00     0.002 A 
ATOM      3  C5  UNL d   1       5.987   0.002  -5.969  0.00  0.00     0.002 A 
ATOM      4  C6  UNL d   1       5.979  -1.391  -6.000  0.00  0.00    -0.004 A 
ATOM      5  C7  UNL d   1       5.990  -2.111  -4.807  0.00  0.00     0.002 A 
ATOM      6  C8  UNL d   1       5.999  -1.440  -3.583  0.00  0.00     0.002 A 
ENDROOT
BRANCH   1   7
ATOM      7  C2  UNL d   1       5.978   0.684  -2.215  0.00  0.00     0.056 C 
BRANCH   7   8
ATOM      8  C1  UNL d   1       5.286   2.050  -2.258  0.00  0.00     0.007 C 
ATOM      9  C   UNL d   1       5.929   3.078  -1.336  0.00  0.00     0.009 C 
ENDBRANCH   7   8
ENDBRANCH   1   7
TORSDOF 2
ENDMDL
