MODEL 1
REMARK minimizedAffinity 9.82874203
REMARK minimizedRMSD -1
REMARK  2 active torsions:
REMARK  status: ('A' for Active; 'I' for Inactive)
REMARK    1  A    between atoms: C1_2  and  C2_3 
REMARK    2  A    between atoms: C2_3  and  C3_4 
ROOT
ATOM      1  C3  UNL d   1       0.619  -3.375   0.632  0.00  0.00    -0.075 A 
ATOM      2  C4  UNL d   1       0.267  -2.028   0.466  0.00  0.00     0.002 A 
ATOM      3  C5  UNL d   1      -0.995  -1.679  -0.016  0.00  0.00     0.002 A 
ATOM      4  C6  UNL d   1      -1.916  -2.671  -0.348  0.00  0.00    -0.004 A 
ATOM      5  C7  UNL d   1      -1.571  -4.013  -0.203  0.00  0.00     0.002 A 
ATOM      6  C8  UNL d   1      -0.310  -4.365   0.283  0.00  0.00     0.002 A 
ENDROOT
BRANCH   1   7
ATOM      7  C2  UNL d   1       1.972  -3.759   1.181  0.00  0.00     0.056 C 
BRANCH   7   8
ATOM      8  C1  UNL d   1       2.791  -2.574   1.704  0.00  0.00     0.007 C 
ATOM      9  C   UNL d   1       3.759  -2.957   2.816  0.00  0.00     0.009 C 
ENDBRANCH   7   8
ENDBRANCH   1   7
TORSDOF 2
ENDMDL
