MODEL 1
REMARK minimizedAffinity 12.0691376
REMARK minimizedRMSD -1
REMARK  2 active torsions:
REMARK  status: ('A' for Active; 'I' for Inactive)
REMARK    1  A    between atoms: C1_2  and  C2_3 
REMARK    2  A    between atoms: C2_3  and  C3_4 
ROOT
ATOM      1  C3  UNL d   1       1.181  -3.157   1.159  0.00  0.00    -0.075 A 
ATOM      2  C4  UNL d   1      -0.092  -2.692   0.799  0.00  0.00     0.002 A 
ATOM      3  C5  UNL d   1      -1.186  -3.557   0.792  0.00  0.00     0.002 A 
ATOM      4  C6  UNL d   1      -1.021  -4.897   1.134  0.00  0.00    -0.004 A 
ATOM      5  C7  UNL d   1       0.243  -5.374   1.477  0.00  0.00     0.002 A 
ATOM      6  C8  UNL d   1       1.339  -4.510   1.489  0.00  0.00     0.002 A 
ENDROOT
BRANCH   1   7
ATOM      7  C2  UNL d   1       2.364  -2.219   1.197  0.00  0.00     0.056 C 
BRANCH   7   8
ATOM      8  C1  UNL d   1       3.285  -2.425   2.405  0.00  0.00     0.007 C 
ATOM      9  C   UNL d   1       2.834  -1.658   3.641  0.00  0.00     0.009 C 
ENDBRANCH   7   8
ENDBRANCH   1   7
TORSDOF 2
ENDMDL
