MODEL 1
REMARK minimizedAffinity 8.28426552
REMARK minimizedRMSD -1
REMARK  2 active torsions:
REMARK  status: ('A' for Active; 'I' for Inactive)
REMARK    1  A    between atoms: C1_2  and  C2_3 
REMARK    2  A    between atoms: C2_3  and  C3_4 
ROOT
ATOM      1  C3  UNL d   1       2.976   3.383  -3.313  0.00  0.00    -0.075 A 
ATOM      2  C4  UNL d   1       1.630   3.684  -3.060  0.00  0.00     0.002 A 
ATOM      3  C5  UNL d   1       1.066   3.412  -1.813  0.00  0.00     0.002 A 
ATOM      4  C6  UNL d   1       1.835   2.828  -0.810  0.00  0.00    -0.004 A 
ATOM      5  C7  UNL d   1       3.169   2.509  -1.055  0.00  0.00     0.002 A 
ATOM      6  C8  UNL d   1       3.737   2.784  -2.300  0.00  0.00     0.002 A 
ENDROOT
BRANCH   1   7
ATOM      7  C2  UNL d   1       3.600   3.702  -4.651  0.00  0.00     0.056 C 
BRANCH   7   8
ATOM      8  C1  UNL d   1       3.315   2.659  -5.737  0.00  0.00     0.007 C 
ATOM      9  C   UNL d   1       4.490   1.727  -5.999  0.00  0.00     0.009 C 
ENDBRANCH   7   8
ENDBRANCH   1   7
TORSDOF 2
ENDMDL
