MODEL 1
REMARK minimizedAffinity 9.10657501
REMARK minimizedRMSD -1
REMARK  2 active torsions:
REMARK  status: ('A' for Active; 'I' for Inactive)
REMARK    1  A    between atoms: C1_2  and  C2_3 
REMARK    2  A    between atoms: C2_3  and  C3_4 
ROOT
ATOM      1  C3  UNL d   1       0.327  -3.364   0.677  0.00  0.00    -0.075 A 
ATOM      2  C4  UNL d   1      -0.718  -4.208   1.081  0.00  0.00     0.002 A 
ATOM      3  C5  UNL d   1      -0.448  -5.488   1.564  0.00  0.00     0.002 A 
ATOM      4  C6  UNL d   1       0.866  -5.945   1.640  0.00  0.00    -0.004 A 
ATOM      5  C7  UNL d   1       1.911  -5.122   1.225  0.00  0.00     0.002 A 
ATOM      6  C8  UNL d   1       1.644  -3.839   0.745  0.00  0.00     0.002 A 
ENDROOT
BRANCH   1   7
ATOM      7  C2  UNL d   1       0.044  -1.967   0.180  0.00  0.00     0.056 C 
BRANCH   7   8
ATOM      8  C1  UNL d   1       1.253  -1.027   0.241  0.00  0.00     0.007 C 
ATOM      9  C   UNL d   1       1.508  -0.465   1.633  0.00  0.00     0.009 C 
ENDBRANCH   7   8
ENDBRANCH   1   7
TORSDOF 2
ENDMDL
