MODEL 1
REMARK minimizedAffinity 0.953290224
REMARK minimizedRMSD -1
REMARK  2 active torsions:
REMARK  status: ('A' for Active; 'I' for Inactive)
REMARK    1  A    between atoms: C1_2  and  C2_3 
REMARK    2  A    between atoms: C2_3  and  C3_4 
ROOT
ATOM      1  C3  UNL d   1       3.289   0.375  -4.664  0.00  0.00    -0.075 A 
ATOM      2  C4  UNL d   1       3.697   1.094  -5.797  0.00  0.00     0.002 A 
ATOM      3  C5  UNL d   1       5.045   1.390  -6.000  0.00  0.00     0.002 A 
ATOM      4  C6  UNL d   1       5.999   0.982  -5.070  0.00  0.00    -0.004 A 
ATOM      5  C7  UNL d   1       5.603   0.282  -3.933  0.00  0.00     0.002 A 
ATOM      6  C8  UNL d   1       4.255  -0.020  -3.729  0.00  0.00     0.002 A 
ENDROOT
BRANCH   1   7
ATOM      7  C2  UNL d   1       1.835   0.025  -4.453  0.00  0.00     0.056 C 
BRANCH   7   8
ATOM      8  C1  UNL d   1       1.518  -0.504  -3.050  0.00  0.00     0.007 C 
ATOM      9  C   UNL d   1       1.122  -1.974  -3.039  0.00  0.00     0.009 C 
ENDBRANCH   7   8
ENDBRANCH   1   7
TORSDOF 2
ENDMDL
