MODEL 1
REMARK minimizedAffinity 2.65697956
REMARK minimizedRMSD -1
REMARK  2 active torsions:
REMARK  status: ('A' for Active; 'I' for Inactive)
REMARK    1  A    between atoms: C1_2  and  C2_3 
REMARK    2  A    between atoms: C2_3  and  C3_4 
ROOT
ATOM      1  C3  UNL d   1       1.167  -0.081  -1.486  0.00  0.00    -0.075 A 
ATOM      2  C4  UNL d   1       1.372   0.681  -2.646  0.00  0.00     0.002 A 
ATOM      3  C5  UNL d   1       1.565   0.056  -3.879  0.00  0.00     0.002 A 
ATOM      4  C6  UNL d   1       1.566  -1.334  -3.966  0.00  0.00    -0.004 A 
ATOM      5  C7  UNL d   1       1.380  -2.101  -2.818  0.00  0.00     0.002 A 
ATOM      6  C8  UNL d   1       1.183  -1.479  -1.584  0.00  0.00     0.002 A 
ENDROOT
BRANCH   1   7
ATOM      7  C2  UNL d   1       0.929   0.589  -0.154  0.00  0.00     0.056 C 
BRANCH   7   8
ATOM      8  C1  UNL d   1       1.084   2.113  -0.186  0.00  0.00     0.007 C 
ATOM      9  C   UNL d   1       1.862   2.662   1.003  0.00  0.00     0.009 C 
ENDBRANCH   7   8
ENDBRANCH   1   7
TORSDOF 2
ENDMDL
