MODEL 1
REMARK minimizedAffinity 3.016294
REMARK minimizedRMSD -1
REMARK  2 active torsions:
REMARK  status: ('A' for Active; 'I' for Inactive)
REMARK    1  A    between atoms: C1_2  and  C2_3 
REMARK    2  A    between atoms: C2_3  and  C3_4 
ROOT
ATOM      1  C3  UNL d   1       0.855   1.194  -1.329  0.00  0.00    -0.075 A 
ATOM      2  C4  UNL d   1       0.710  -0.061  -0.720  0.00  0.00     0.002 A 
ATOM      3  C5  UNL d   1       0.950  -1.231  -1.442  0.00  0.00     0.002 A 
ATOM      4  C6  UNL d   1       1.328  -1.162  -2.781  0.00  0.00    -0.004 A 
ATOM      5  C7  UNL d   1       1.460   0.079  -3.401  0.00  0.00     0.002 A 
ATOM      6  C8  UNL d   1       1.224   1.251  -2.680  0.00  0.00     0.002 A 
ENDROOT
BRANCH   1   7
ATOM      7  C2  UNL d   1       0.625   2.464  -0.546  0.00  0.00     0.056 C 
BRANCH   7   8
ATOM      8  C1  UNL d   1       1.872   2.985   0.177  0.00  0.00     0.007 C 
ATOM      9  C   UNL d   1       2.130   2.289   1.506  0.00  0.00     0.009 C 
ENDBRANCH   7   8
ENDBRANCH   1   7
TORSDOF 2
ENDMDL
