MODEL 1
REMARK minimizedAffinity -2.30930138
REMARK minimizedRMSD -1
REMARK  2 active torsions:
REMARK  status: ('A' for Active; 'I' for Inactive)
REMARK    1  A    between atoms: C1_2  and  C2_3 
REMARK    2  A    between atoms: C2_3  and  C3_4 
ROOT
ATOM      1  C3  UNL d   1       1.269  -0.325  -2.354  0.00  0.00    -0.075 A 
ATOM      2  C4  UNL d   1       1.395   0.546  -3.446  0.00  0.00     0.002 A 
ATOM      3  C5  UNL d   1       1.469   0.046  -4.746  0.00  0.00     0.002 A 
ATOM      4  C6  UNL d   1       1.429  -1.328  -4.971  0.00  0.00    -0.004 A 
ATOM      5  C7  UNL d   1       1.321  -2.204  -3.893  0.00  0.00     0.002 A 
ATOM      6  C8  UNL d   1       1.243  -1.706  -2.591  0.00  0.00     0.002 A 
ENDROOT
BRANCH   1   7
ATOM      7  C2  UNL d   1       1.159   0.210  -0.946  0.00  0.00     0.056 C 
BRANCH   7   8
ATOM      8  C1  UNL d   1       0.980   1.730  -0.870  0.00  0.00     0.007 C 
ATOM      9  C   UNL d   1       1.579   2.342   0.389  0.00  0.00     0.009 C 
ENDBRANCH   7   8
ENDBRANCH   1   7
TORSDOF 2
ENDMDL
