MODEL 1
REMARK minimizedAffinity 5.07466364
REMARK minimizedRMSD -1
REMARK  2 active torsions:
REMARK  status: ('A' for Active; 'I' for Inactive)
REMARK    1  A    between atoms: C1_2  and  C2_3 
REMARK    2  A    between atoms: C2_3  and  C3_4 
ROOT
ATOM      1  C3  UNL d   1       4.354   2.329  -5.663  0.00  0.00    -0.075 A 
ATOM      2  C4  UNL d   1       4.042   3.679  -5.876  0.00  0.00     0.002 A 
ATOM      3  C5  UNL d   1       2.758   4.159  -5.616  0.00  0.00     0.002 A 
ATOM      4  C6  UNL d   1       1.770   3.295  -5.150  0.00  0.00    -0.004 A 
ATOM      5  C7  UNL d   1       2.064   1.948  -4.951  0.00  0.00     0.002 A 
ATOM      6  C8  UNL d   1       3.349   1.466  -5.206  0.00  0.00     0.002 A 
ENDROOT
BRANCH   1   7
ATOM      7  C2  UNL d   1       5.750   1.809  -5.915  0.00  0.00     0.056 C 
BRANCH   7   8
ATOM      8  C1  UNL d   1       5.986   0.383  -5.406  0.00  0.00     0.007 C 
ATOM      9  C   UNL d   1       5.998   0.283  -3.887  0.00  0.00     0.009 C 
ENDBRANCH   7   8
ENDBRANCH   1   7
TORSDOF 2
ENDMDL
