MODEL 1
REMARK minimizedAffinity -4.22835541
REMARK minimizedRMSD -1
REMARK  0 active torsions:
REMARK  status: ('A' for Active; 'I' for Inactive)
ROOT
ATOM      1  O1  BZF d   1       0.577   1.295  -0.576  0.00  0.00    -0.204 OA
ATOM      2  C2  BZF d   1       0.946   0.001  -0.886  0.00  0.00     0.174 A 
ATOM      3  C3  BZF d   1       0.408  -0.873  -0.012  0.00  0.00    -0.012 A 
ATOM      4  C3A BZF d   1      -0.419  -0.084   0.848  0.00  0.00    -0.107 A 
ATOM      5  C4  BZF d   1      -1.227  -0.383   1.908  0.00  0.00     0.055 A 
ATOM      6  C5  BZF d   1      -1.840   0.628   2.577  0.00  0.00    -0.016 A 
ATOM      7  C6  BZF d   1      -1.664   1.949   2.218  0.00  0.00     0.022 A 
ATOM      8  C7  BZF d   1      -0.876   2.294   1.171  0.00  0.00     0.029 A 
ATOM      9  C7A BZF d   1      -0.281   1.272   0.472  0.00  0.00     0.058 A 
ENDROOT
TORSDOF 0
ENDMDL
