MODEL 1
REMARK minimizedAffinity -6.30636835
REMARK minimizedRMSD -1
REMARK  0 active torsions:
REMARK  status: ('A' for Active; 'I' for Inactive)
ROOT
ATOM      1  O1  BZF d   1       0.801   1.133  -0.794  0.00  0.00    -0.204 OA
ATOM      2  C2  BZF d   1       0.802  -0.027  -0.044  0.00  0.00     0.174 A 
ATOM      3  C3  BZF d   1      -0.096   0.051   0.959  0.00  0.00    -0.012 A 
ATOM      4  C3A BZF d   1      -0.762   1.304   0.772  0.00  0.00    -0.107 A 
ATOM      5  C4  BZF d   1      -1.767   1.942   1.441  0.00  0.00     0.055 A 
ATOM      6  C5  BZF d   1      -2.135   3.189   1.046  0.00  0.00    -0.016 A 
ATOM      7  C6  BZF d   1      -1.518   3.828  -0.009  0.00  0.00     0.022 A 
ATOM      8  C7  BZF d   1      -0.519   3.233  -0.706  0.00  0.00     0.029 A 
ATOM      9  C7A BZF d   1      -0.167   1.960  -0.330  0.00  0.00     0.058 A 
ENDROOT
TORSDOF 0
ENDMDL
