MODEL 1
REMARK minimizedAffinity -4.77775145
REMARK minimizedRMSD -1
REMARK  0 active torsions:
REMARK  status: ('A' for Active; 'I' for Inactive)
ROOT
ATOM      1  O1  BZF d   1      -1.252   0.864   2.429  0.00  0.00    -0.204 OA
ATOM      2  C2  BZF d   1      -2.108   1.833   1.940  0.00  0.00     0.174 A 
ATOM      3  C3  BZF d   1      -1.931   2.003   0.614  0.00  0.00    -0.012 A 
ATOM      4  C3A BZF d   1      -0.965   1.018   0.234  0.00  0.00    -0.107 A 
ATOM      5  C4  BZF d   1      -0.390   0.677  -0.956  0.00  0.00     0.055 A 
ATOM      6  C5  BZF d   1       0.572  -0.283  -0.975  0.00  0.00    -0.016 A 
ATOM      7  C6  BZF d   1       0.986  -0.918   0.178  0.00  0.00     0.022 A 
ATOM      8  C7  BZF d   1       0.441  -0.617   1.382  0.00  0.00     0.029 A 
ATOM      9  C7A BZF d   1      -0.554   0.329   1.399  0.00  0.00     0.058 A 
ENDROOT
TORSDOF 0
ENDMDL
