MODEL 1
REMARK minimizedAffinity -2.76155257
REMARK minimizedRMSD -1
REMARK  0 active torsions:
REMARK  status: ('A' for Active; 'I' for Inactive)
ROOT
ATOM      1  O1  BZF d   1       0.746   0.412  -0.688  0.00  0.00    -0.204 OA
ATOM      2  C2  BZF d   1       0.796  -0.839  -0.104  0.00  0.00     0.174 A 
ATOM      3  C3  BZF d   1       0.051  -0.872   1.019  0.00  0.00    -0.012 A 
ATOM      4  C3A BZF d   1      -0.574   0.413   1.095  0.00  0.00    -0.107 A 
ATOM      5  C4  BZF d   1      -1.445   0.982   1.979  0.00  0.00     0.055 A 
ATOM      6  C5  BZF d   1      -1.806   2.281   1.807  0.00  0.00    -0.016 A 
ATOM      7  C6  BZF d   1      -1.311   3.040   0.767  0.00  0.00     0.022 A 
ATOM      8  C7  BZF d   1      -0.448   2.518  -0.138  0.00  0.00     0.029 A 
ATOM      9  C7A BZF d   1      -0.107   1.196   0.014  0.00  0.00     0.058 A 
ENDROOT
TORSDOF 0
ENDMDL
