MODEL 1
REMARK minimizedAffinity -2.75688767
REMARK minimizedRMSD -1
REMARK  0 active torsions:
REMARK  status: ('A' for Active; 'I' for Inactive)
ROOT
ATOM      1  O1  BZF d   1       0.859   0.827  -1.344  0.00  0.00    -0.204 OA
ATOM      2  C2  BZF d   1       1.606  -0.335  -1.348  0.00  0.00     0.174 A 
ATOM      3  C3  BZF d   1       1.386  -1.049  -0.225  0.00  0.00    -0.012 A 
ATOM      4  C3A BZF d   1       0.373  -0.331   0.485  0.00  0.00    -0.107 A 
ATOM      5  C4  BZF d   1      -0.278  -0.547   1.666  0.00  0.00     0.055 A 
ATOM      6  C5  BZF d   1      -1.161   0.385   2.113  0.00  0.00    -0.016 A 
ATOM      7  C6  BZF d   1      -1.412   1.544   1.409  0.00  0.00     0.022 A 
ATOM      8  C7  BZF d   1      -0.794   1.800   0.231  0.00  0.00     0.029 A 
ATOM      9  C7A BZF d   1       0.074   0.846  -0.241  0.00  0.00     0.058 A 
ENDROOT
TORSDOF 0
ENDMDL
