MODEL 1
REMARK minimizedAffinity -5.66335535
REMARK minimizedRMSD -1
REMARK  0 active torsions:
REMARK  status: ('A' for Active; 'I' for Inactive)
ROOT
ATOM      1  O1  BZF d   1       0.728   0.354  -0.740  0.00  0.00    -0.204 OA
ATOM      2  C2  BZF d   1       0.414  -0.717   0.074  0.00  0.00     0.174 A 
ATOM      3  C3  BZF d   1      -0.466  -0.352   1.027  0.00  0.00    -0.012 A 
ATOM      4  C3A BZF d   1      -0.789   1.012   0.738  0.00  0.00    -0.107 A 
ATOM      5  C4  BZF d   1      -1.623   1.923   1.321  0.00  0.00     0.055 A 
ATOM      6  C5  BZF d   1      -1.654   3.193   0.839  0.00  0.00    -0.016 A 
ATOM      7  C6  BZF d   1      -0.863   3.587  -0.220  0.00  0.00     0.022 A 
ATOM      8  C7  BZF d   1      -0.024   2.717  -0.835  0.00  0.00     0.029 A 
ATOM      9  C7A BZF d   1      -0.014   1.425  -0.370  0.00  0.00     0.058 A 
ENDROOT
TORSDOF 0
ENDMDL
