MODEL 1
REMARK minimizedAffinity -4.06180859
REMARK minimizedRMSD -1
REMARK  0 active torsions:
REMARK  status: ('A' for Active; 'I' for Inactive)
ROOT
ATOM      1  O1  BZF d   1       0.648  -0.663   1.510  0.00  0.00    -0.204 OA
ATOM      2  C2  BZF d   1       1.121  -1.018   0.261  0.00  0.00     0.174 A 
ATOM      3  C3  BZF d   1       0.436  -0.378  -0.709  0.00  0.00    -0.012 A 
ATOM      4  C3A BZF d   1      -0.462   0.497  -0.021  0.00  0.00    -0.107 A 
ATOM      5  C4  BZF d   1      -1.394   1.404  -0.440  0.00  0.00     0.055 A 
ATOM      6  C5  BZF d   1      -2.156   2.042   0.487  0.00  0.00    -0.016 A 
ATOM      7  C6  BZF d   1      -2.018   1.794   1.837  0.00  0.00     0.022 A 
ATOM      8  C7  BZF d   1      -1.105   0.907   2.300  0.00  0.00     0.029 A 
ATOM      9  C7A BZF d   1      -0.310   0.284   1.368  0.00  0.00     0.058 A 
ENDROOT
TORSDOF 0
ENDMDL
