MODEL 1
REMARK minimizedAffinity -3.21727657
REMARK minimizedRMSD -1
REMARK  0 active torsions:
REMARK  status: ('A' for Active; 'I' for Inactive)
ROOT
ATOM      1  O1  BZF d   1      -0.631  -0.222  -1.136  0.00  0.00    -0.204 OA
ATOM      2  C2  BZF d   1       0.140   0.177  -0.061  0.00  0.00     0.174 A 
ATOM      3  C3  BZF d   1       1.109  -0.726   0.193  0.00  0.00    -0.012 A 
ATOM      4  C3A BZF d   1       0.990  -1.707  -0.841  0.00  0.00    -0.107 A 
ATOM      5  C4  BZF d   1       1.683  -2.846  -1.139  0.00  0.00     0.055 A 
ATOM      6  C5  BZF d   1       1.266  -3.621  -2.175  0.00  0.00    -0.016 A 
ATOM      7  C6  BZF d   1       0.160  -3.290  -2.930  0.00  0.00     0.022 A 
ATOM      8  C7  BZF d   1      -0.556  -2.167  -2.676  0.00  0.00     0.029 A 
ATOM      9  C7A BZF d   1      -0.118  -1.365  -1.650  0.00  0.00     0.058 A 
ENDROOT
TORSDOF 0
ENDMDL
