MODEL 1
REMARK minimizedAffinity -3.59428787
REMARK minimizedRMSD -1
REMARK  0 active torsions:
REMARK  status: ('A' for Active; 'I' for Inactive)
ROOT
ATOM      1  O1  BZF d   1       0.769  -1.033  -0.113  0.00  0.00    -0.204 OA
ATOM      2  C2  BZF d   1       0.709  -0.658  -1.442  0.00  0.00     0.174 A 
ATOM      3  C3  BZF d   1      -0.160   0.359  -1.613  0.00  0.00    -0.012 A 
ATOM      4  C3A BZF d   1      -0.606   0.698  -0.297  0.00  0.00    -0.107 A 
ATOM      5  C4  BZF d   1      -1.466   1.641   0.189  0.00  0.00     0.055 A 
ATOM      6  C5  BZF d   1      -1.741   1.662   1.520  0.00  0.00    -0.016 A 
ATOM      7  C6  BZF d   1      -1.179   0.752   2.391  0.00  0.00     0.022 A 
ATOM      8  C7  BZF d   1      -0.316  -0.199   1.957  0.00  0.00     0.029 A 
ATOM      9  C7A BZF d   1      -0.011  -0.201   0.618  0.00  0.00     0.058 A 
ENDROOT
TORSDOF 0
ENDMDL
