MODEL 1
REMARK minimizedAffinity -2.28735471
REMARK minimizedRMSD -1
REMARK  0 active torsions:
REMARK  status: ('A' for Active; 'I' for Inactive)
ROOT
ATOM      1  O1  BZF d   1      -1.322   2.228   0.345  0.00  0.00    -0.204 OA
ATOM      2  C2  BZF d   1      -1.915   2.246   1.593  0.00  0.00     0.174 A 
ATOM      3  C3  BZF d   1      -1.724   1.073   2.231  0.00  0.00    -0.012 A 
ATOM      4  C3A BZF d   1      -0.886   0.305   1.362  0.00  0.00    -0.107 A 
ATOM      5  C4  BZF d   1      -0.337  -0.942   1.449  0.00  0.00     0.055 A 
ATOM      6  C5  BZF d   1       0.374  -1.426   0.397  0.00  0.00    -0.016 A 
ATOM      7  C6  BZF d   1       0.551  -0.693  -0.758  0.00  0.00     0.022 A 
ATOM      8  C7  BZF d   1       0.029   0.551  -0.889  0.00  0.00     0.029 A 
ATOM      9  C7A BZF d   1      -0.662   1.056   0.185  0.00  0.00     0.058 A 
ENDROOT
TORSDOF 0
ENDMDL
