MODEL 1
REMARK minimizedAffinity -4.66571903
REMARK minimizedRMSD -1
REMARK  0 active torsions:
REMARK  status: ('A' for Active; 'I' for Inactive)
ROOT
ATOM      1  O1  BZF d   1       0.865   1.297  -1.162  0.00  0.00    -0.204 OA
ATOM      2  C2  BZF d   1       0.861  -0.019  -0.741  0.00  0.00     0.174 A 
ATOM      3  C3  BZF d   1      -0.012  -0.195   0.271  0.00  0.00    -0.012 A 
ATOM      4  C3A BZF d   1      -0.657   1.072   0.436  0.00  0.00    -0.107 A 
ATOM      5  C4  BZF d   1      -1.635   1.525   1.275  0.00  0.00     0.055 A 
ATOM      6  C5  BZF d   1      -1.988   2.837   1.229  0.00  0.00    -0.016 A 
ATOM      7  C6  BZF d   1      -1.382   3.722   0.362  0.00  0.00     0.022 A 
ATOM      8  C7  BZF d   1      -0.412   3.318  -0.493  0.00  0.00     0.029 A 
ATOM      9  C7A BZF d   1      -0.075   1.986  -0.472  0.00  0.00     0.058 A 
ENDROOT
TORSDOF 0
ENDMDL
