MODEL 1
REMARK minimizedAffinity -5.73375225
REMARK minimizedRMSD -1
REMARK  0 active torsions:
REMARK  status: ('A' for Active; 'I' for Inactive)
ROOT
ATOM      1  O1  BZF d   1       0.922   0.790  -0.392  0.00  0.00    -0.204 OA
ATOM      2  C2  BZF d   1       0.692  -0.443   0.185  0.00  0.00     0.174 A 
ATOM      3  C3  BZF d   1      -0.386  -0.399   0.994  0.00  0.00    -0.012 A 
ATOM      4  C3A BZF d   1      -0.914   0.922   0.846  0.00  0.00    -0.107 A 
ATOM      5  C4  BZF d   1      -1.991   1.569   1.382  0.00  0.00     0.055 A 
ATOM      6  C5  BZF d   1      -2.186   2.882   1.089  0.00  0.00    -0.016 A 
ATOM      7  C6  BZF d   1      -1.323   3.579   0.269  0.00  0.00     0.022 A 
ATOM      8  C7  BZF d   1      -0.244   2.979  -0.291  0.00  0.00     0.029 A 
ATOM      9  C7A BZF d   1      -0.063   1.644  -0.023  0.00  0.00     0.058 A 
ENDROOT
TORSDOF 0
ENDMDL
