MODEL 1
REMARK minimizedAffinity -4.4094758
REMARK minimizedRMSD -1
REMARK  0 active torsions:
REMARK  status: ('A' for Active; 'I' for Inactive)
ROOT
ATOM      1  O1  BZF d   1      -0.176   2.511  -0.911  0.00  0.00    -0.204 OA
ATOM      2  C2  BZF d   1      -0.885   3.537  -0.318  0.00  0.00     0.174 A 
ATOM      3  C3  BZF d   1      -1.473   3.117   0.820  0.00  0.00    -0.012 A 
ATOM      4  C3A BZF d   1      -1.033   1.767   0.995  0.00  0.00    -0.107 A 
ATOM      5  C4  BZF d   1      -1.264   0.821   1.952  0.00  0.00     0.055 A 
ATOM      6  C5  BZF d   1      -0.743  -0.424   1.789  0.00  0.00    -0.016 A 
ATOM      7  C6  BZF d   1       0.008  -0.758   0.682  0.00  0.00     0.022 A 
ATOM      8  C7  BZF d   1       0.269   0.149  -0.292  0.00  0.00     0.029 A 
ATOM      9  C7A BZF d   1      -0.229   1.417  -0.114  0.00  0.00     0.058 A 
ENDROOT
TORSDOF 0
ENDMDL
