MODEL 1
REMARK minimizedAffinity -3.24824715
REMARK minimizedRMSD -1
REMARK  0 active torsions:
REMARK  status: ('A' for Active; 'I' for Inactive)
ROOT
ATOM      1  C4' PXY d   1       1.345   3.079   0.320  0.00  0.00     0.077 C 
ATOM      2  C1' PXY d   1      -1.246  -2.059   0.875  0.00  0.00     0.077 C 
ATOM      3  C1  PXY d   1      -0.576  -0.707   0.722  0.00  0.00    -0.082 A 
ATOM      4  C2  PXY d   1       0.737  -0.610   0.849  0.00  0.00     0.003 A 
ATOM      5  C3  PXY d   1       1.355   0.610   0.746  0.00  0.00     0.003 A 
ATOM      6  C4  PXY d   1       0.627   1.733   0.457  0.00  0.00    -0.082 A 
ATOM      7  C5  PXY d   1      -0.712   1.640   0.316  0.00  0.00     0.003 A 
ATOM      8  C6  PXY d   1      -1.325   0.400   0.465  0.00  0.00     0.003 A 
ENDROOT
TORSDOF 0
ENDMDL
