MODEL 1
REMARK minimizedAffinity -3.18139005
REMARK minimizedRMSD -1
REMARK  0 active torsions:
REMARK  status: ('A' for Active; 'I' for Inactive)
ROOT
ATOM      1  C4' PXY d   1       0.983   3.044   0.422  0.00  0.00     0.077 C 
ATOM      2  C1' PXY d   1      -1.289  -2.260   0.770  0.00  0.00     0.077 C 
ATOM      3  C1  PXY d   1      -0.697  -0.868   0.666  0.00  0.00    -0.082 A 
ATOM      4  C2  PXY d   1       0.255  -0.498   1.507  0.00  0.00     0.003 A 
ATOM      5  C3  PXY d   1       0.780   0.767   1.448  0.00  0.00     0.003 A 
ATOM      6  C4  PXY d   1       0.363   1.645   0.484  0.00  0.00    -0.082 A 
ATOM      7  C5  PXY d   1      -0.601   1.272  -0.385  0.00  0.00     0.003 A 
ATOM      8  C6  PXY d   1      -1.149  -0.003  -0.282  0.00  0.00     0.003 A 
ENDROOT
TORSDOF 0
ENDMDL
