MODEL 1
REMARK minimizedAffinity -4.11301851
REMARK minimizedRMSD -1
REMARK  0 active torsions:
REMARK  status: ('A' for Active; 'I' for Inactive)
ROOT
ATOM      1  C4' PXY d   1       1.001   2.951   0.262  0.00  0.00     0.077 C 
ATOM      2  C1' PXY d   1      -0.783  -2.532   0.677  0.00  0.00     0.077 C 
ATOM      3  C1  PXY d   1      -0.311  -1.096   0.556  0.00  0.00    -0.082 A 
ATOM      4  C2  PXY d   1       0.043  -0.430   1.643  0.00  0.00     0.003 A 
ATOM      5  C3  PXY d   1       0.441   0.879   1.555  0.00  0.00     0.003 A 
ATOM      6  C4  PXY d   1       0.528   1.496   0.336  0.00  0.00    -0.082 A 
ATOM      7  C5  PXY d   1       0.178   0.820  -0.779  0.00  0.00     0.003 A 
ATOM      8  C6  PXY d   1      -0.262  -0.495  -0.664  0.00  0.00     0.003 A 
ENDROOT
TORSDOF 0
ENDMDL
