MODEL 1
REMARK minimizedAffinity -4.74852848
REMARK minimizedRMSD -1
REMARK  0 active torsions:
REMARK  status: ('A' for Active; 'I' for Inactive)
ROOT
ATOM      1  C4' PXY d   1      -0.032  -4.428  -0.739  0.00  0.00     0.077 C 
ATOM      2  C1' PXY d   1      -0.147   1.315  -0.088  0.00  0.00     0.077 C 
ATOM      3  C1  PXY d   1      -0.116  -0.193  -0.246  0.00  0.00    -0.082 A 
ATOM      4  C2  PXY d   1       0.348  -0.724  -1.365  0.00  0.00     0.003 A 
ATOM      5  C3  PXY d   1       0.353  -2.084  -1.537  0.00  0.00     0.003 A 
ATOM      6  C4  PXY d   1      -0.073  -2.911  -0.532  0.00  0.00    -0.082 A 
ATOM      7  C5  PXY d   1      -0.538  -2.377   0.617  0.00  0.00     0.003 A 
ATOM      8  C6  PXY d   1      -0.573  -0.993   0.756  0.00  0.00     0.003 A 
ENDROOT
TORSDOF 0
ENDMDL
