MODEL 1
REMARK minimizedAffinity 4.29082727
REMARK minimizedRMSD -1
REMARK  0 active torsions:
REMARK  status: ('A' for Active; 'I' for Inactive)
ROOT
ATOM      1  C4' PXY d   1      -1.444  -0.643   1.525  0.00  0.00     0.077 C 
ATOM      2  C1' PXY d   1      -1.146  -5.956  -0.733  0.00  0.00     0.077 C 
ATOM      3  C1  PXY d   1      -1.225  -4.568  -0.129  0.00  0.00    -0.082 A 
ATOM      4  C2  PXY d   1      -1.652  -3.557  -0.867  0.00  0.00     0.003 A 
ATOM      5  C3  PXY d   1      -1.699  -2.289  -0.347  0.00  0.00     0.003 A 
ATOM      6  C4  PXY d   1      -1.356  -2.063   0.959  0.00  0.00    -0.082 A 
ATOM      7  C5  PXY d   1      -0.930  -3.092   1.723  0.00  0.00     0.003 A 
ATOM      8  C6  PXY d   1      -0.850  -4.364   1.163  0.00  0.00     0.003 A 
ENDROOT
TORSDOF 0
ENDMDL
