MODEL 1
REMARK minimizedAffinity -1.55288458
REMARK minimizedRMSD -1
REMARK  0 active torsions:
REMARK  status: ('A' for Active; 'I' for Inactive)
ROOT
ATOM      1  C4' PXY d   1       0.739   3.029   0.199  0.00  0.00     0.077 C 
ATOM      2  C1' PXY d   1      -1.052  -2.445   0.689  0.00  0.00     0.077 C 
ATOM      3  C1  PXY d   1      -0.579  -1.012   0.548  0.00  0.00    -0.082 A 
ATOM      4  C2  PXY d   1      -0.218  -0.333   1.625  0.00  0.00     0.003 A 
ATOM      5  C3  PXY d   1       0.182   0.974   1.519  0.00  0.00     0.003 A 
ATOM      6  C4  PXY d   1       0.264   1.576   0.292  0.00  0.00    -0.082 A 
ATOM      7  C5  PXY d   1      -0.092   0.888  -0.812  0.00  0.00     0.003 A 
ATOM      8  C6  PXY d   1      -0.535  -0.425  -0.679  0.00  0.00     0.003 A 
ENDROOT
TORSDOF 0
ENDMDL
