MODEL 1
REMARK minimizedAffinity -2.3417542
REMARK minimizedRMSD -1
REMARK  0 active torsions:
REMARK  status: ('A' for Active; 'I' for Inactive)
ROOT
ATOM      1  C4' PXY d   1       1.939   3.406   0.014  0.00  0.00     0.077 C 
ATOM      2  C1' PXY d   1      -1.415  -1.298   0.217  0.00  0.00     0.077 C 
ATOM      3  C1  PXY d   1      -0.538  -0.062   0.151  0.00  0.00    -0.082 A 
ATOM      4  C2  PXY d   1       0.466   0.073   1.001  0.00  0.00     0.003 A 
ATOM      5  C3  PXY d   1       1.249   1.199   0.977  0.00  0.00     0.003 A 
ATOM      6  C4  PXY d   1       1.034   2.172   0.037  0.00  0.00    -0.082 A 
ATOM      7  C5  PXY d   1       0.017   2.036  -0.840  0.00  0.00     0.003 A 
ATOM      8  C6  PXY d   1      -0.791   0.905  -0.772  0.00  0.00     0.003 A 
ENDROOT
TORSDOF 0
ENDMDL
