MODEL 1
REMARK minimizedAffinity 5.04747677
REMARK minimizedRMSD -1
REMARK  0 active torsions:
REMARK  status: ('A' for Active; 'I' for Inactive)
ROOT
ATOM      1  C4' PXY d   1      -2.038  -2.634   0.970  0.00  0.00     0.077 C 
ATOM      2  C1' PXY d   1      -0.028   2.785   0.989  0.00  0.00     0.077 C 
ATOM      3  C1  PXY d   1      -0.551   1.363   0.997  0.00  0.00    -0.082 A 
ATOM      4  C2  PXY d   1      -0.639   0.692  -0.141  0.00  0.00     0.003 A 
ATOM      5  C3  PXY d   1      -1.140  -0.584  -0.156  0.00  0.00     0.003 A 
ATOM      6  C4  PXY d   1      -1.506  -1.199   1.011  0.00  0.00    -0.082 A 
ATOM      7  C5  PXY d   1      -1.410  -0.525   2.177  0.00  0.00     0.003 A 
ATOM      8  C6  PXY d   1      -0.937   0.784   2.166  0.00  0.00     0.003 A 
ENDROOT
TORSDOF 0
ENDMDL
