MODEL 1
REMARK minimizedAffinity 0.571121275
REMARK minimizedRMSD -1
REMARK  0 active torsions:
REMARK  status: ('A' for Active; 'I' for Inactive)
ROOT
ATOM      1  C4' PXY d   1      -2.505  -0.022   2.816  0.00  0.00     0.077 C 
ATOM      2  C1' PXY d   1       0.530  -0.118  -2.103  0.00  0.00     0.077 C 
ATOM      3  C1  PXY d   1      -0.273  -0.102  -0.818  0.00  0.00    -0.082 A 
ATOM      4  C2  PXY d   1      -0.274   0.982  -0.060  0.00  0.00     0.003 A 
ATOM      5  C3  PXY d   1      -0.969   1.002   1.122  0.00  0.00     0.003 A 
ATOM      6  C4  PXY d   1      -1.715  -0.080   1.505  0.00  0.00    -0.082 A 
ATOM      7  C5  PXY d   1      -1.729  -1.186   0.732  0.00  0.00     0.003 A 
ATOM      8  C6  PXY d   1      -0.983  -1.201  -0.443  0.00  0.00     0.003 A 
ENDROOT
TORSDOF 0
ENDMDL
