MODEL 1
REMARK minimizedAffinity -2.01691532
REMARK minimizedRMSD -1
REMARK  0 active torsions:
REMARK  status: ('A' for Active; 'I' for Inactive)
ROOT
ATOM      1  C4' PXY d   1      -1.071  -0.332   1.395  0.00  0.00     0.077 C 
ATOM      2  C1' PXY d   1       1.736   0.706  -3.550  0.00  0.00     0.077 C 
ATOM      3  C1  PXY d   1       1.010   0.438  -2.247  0.00  0.00    -0.082 A 
ATOM      4  C2  PXY d   1       0.031  -0.451  -2.214  0.00  0.00     0.003 A 
ATOM      5  C3  PXY d   1      -0.657  -0.682  -1.051  0.00  0.00     0.003 A 
ATOM      6  C4  PXY d   1      -0.304  -0.036   0.104  0.00  0.00    -0.082 A 
ATOM      7  C5  PXY d   1       0.701   0.865   0.081  0.00  0.00     0.003 A 
ATOM      8  C6  PXY d   1       1.360   1.116  -1.119  0.00  0.00     0.003 A 
ENDROOT
TORSDOF 0
ENDMDL
