MODEL 1
REMARK minimizedAffinity 0.679412723
REMARK minimizedRMSD -1
REMARK  0 active torsions:
REMARK  status: ('A' for Active; 'I' for Inactive)
ROOT
ATOM      1  C4' PXY d   1       0.375  -0.748  -2.843  0.00  0.00     0.077 C 
ATOM      2  C1' PXY d   1      -1.520  -0.842   2.617  0.00  0.00     0.077 C 
ATOM      3  C1  PXY d   1      -1.022  -0.804   1.186  0.00  0.00    -0.082 A 
ATOM      4  C2  PXY d   1      -1.344  -1.782   0.355  0.00  0.00     0.003 A 
ATOM      5  C3  PXY d   1      -0.876  -1.781  -0.934  0.00  0.00     0.003 A 
ATOM      6  C4  PXY d   1      -0.114  -0.740  -1.392  0.00  0.00    -0.082 A 
ATOM      7  C5  PXY d   1       0.210   0.268  -0.554  0.00  0.00     0.003 A 
ATOM      8  C6  PXY d   1      -0.241   0.226   0.762  0.00  0.00     0.003 A 
ENDROOT
TORSDOF 0
ENDMDL
