MODEL 1
REMARK minimizedAffinity -4.80274296
REMARK minimizedRMSD -1
REMARK  0 active torsions:
REMARK  status: ('A' for Active; 'I' for Inactive)
ROOT
ATOM      1  C4' PXY d   1       1.761   3.078   0.311  0.00  0.00     0.077 C 
ATOM      2  C1' PXY d   1      -0.882  -1.996   1.139  0.00  0.00     0.077 C 
ATOM      3  C1  PXY d   1      -0.192  -0.665   0.909  0.00  0.00    -0.082 A 
ATOM      4  C2  PXY d   1       0.785  -0.287   1.717  0.00  0.00     0.003 A 
ATOM      5  C3  PXY d   1       1.398   0.927   1.543  0.00  0.00     0.003 A 
ATOM      6  C4  PXY d   1       1.043   1.739   0.499  0.00  0.00    -0.082 A 
ATOM      7  C5  PXY d   1       0.054   1.355  -0.336  0.00  0.00     0.003 A 
ATOM      8  C6  PXY d   1      -0.583   0.137  -0.117  0.00  0.00     0.003 A 
ENDROOT
TORSDOF 0
ENDMDL
