MODEL 1
REMARK minimizedAffinity -3.01312923
REMARK minimizedRMSD -1
REMARK  0 active torsions:
REMARK  status: ('A' for Active; 'I' for Inactive)
ROOT
ATOM      1  C4' PXY d   1       1.224   3.098   0.432  0.00  0.00     0.077 C 
ATOM      2  C1' PXY d   1      -1.065  -2.168   1.096  0.00  0.00     0.077 C 
ATOM      3  C1  PXY d   1      -0.466  -0.788   0.909  0.00  0.00    -0.082 A 
ATOM      4  C2  PXY d   1       0.266  -0.257   1.875  0.00  0.00     0.003 A 
ATOM      5  C3  PXY d   1       0.790   1.003   1.735  0.00  0.00     0.003 A 
ATOM      6  C4  PXY d   1       0.606   1.704   0.574  0.00  0.00    -0.082 A 
ATOM      7  C5  PXY d   1      -0.131   1.165  -0.420  0.00  0.00     0.003 A 
ATOM      8  C6  PXY d   1      -0.687  -0.098  -0.243  0.00  0.00     0.003 A 
ENDROOT
TORSDOF 0
ENDMDL
