MODEL 1
REMARK minimizedAffinity -3.97688675
REMARK minimizedRMSD -1
REMARK  0 active torsions:
REMARK  status: ('A' for Active; 'I' for Inactive)
ROOT
ATOM      1  C4' PXY d   1      -0.278  -2.225  -2.284  0.00  0.00     0.077 C 
ATOM      2  C1' PXY d   1       0.638   2.809   0.405  0.00  0.00     0.077 C 
ATOM      3  C1  PXY d   1       0.402   1.482  -0.289  0.00  0.00    -0.082 A 
ATOM      4  C2  PXY d   1       0.411   1.425  -1.611  0.00  0.00     0.003 A 
ATOM      5  C3  PXY d   1       0.167   0.240  -2.256  0.00  0.00     0.003 A 
ATOM      6  C4  PXY d   1      -0.035  -0.909  -1.540  0.00  0.00    -0.082 A 
ATOM      7  C5  PXY d   1      -0.035  -0.862  -0.191  0.00  0.00     0.003 A 
ATOM      8  C6  PXY d   1       0.173   0.359   0.444  0.00  0.00     0.003 A 
ENDROOT
TORSDOF 0
ENDMDL
