MODEL 1
REMARK minimizedAffinity -4.20136404
REMARK minimizedRMSD -1
REMARK  0 active torsions:
REMARK  status: ('A' for Active; 'I' for Inactive)
ROOT
ATOM      1  C4' PXY d   1      -0.918  -1.030   0.896  0.00  0.00     0.077 C 
ATOM      2  C1' PXY d   1       2.373   3.516  -0.487  0.00  0.00     0.077 C 
ATOM      3  C1  PXY d   1       1.501   2.328  -0.132  0.00  0.00    -0.082 A 
ATOM      4  C2  PXY d   1       1.677   1.709   1.024  0.00  0.00     0.003 A 
ATOM      5  C3  PXY d   1       0.918   0.613   1.347  0.00  0.00     0.003 A 
ATOM      6  C4  PXY d   1      -0.067   0.179   0.501  0.00  0.00    -0.082 A 
ATOM      7  C5  PXY d   1      -0.260   0.812  -0.676  0.00  0.00     0.003 A 
ATOM      8  C6  PXY d   1       0.548   1.897  -1.003  0.00  0.00     0.003 A 
ENDROOT
TORSDOF 0
ENDMDL
