MODEL 1
REMARK minimizedAffinity -1.77551544
REMARK minimizedRMSD -1
REMARK  0 active torsions:
REMARK  status: ('A' for Active; 'I' for Inactive)
ROOT
ATOM      1  C4' PXY d   1      -0.315  -2.669  -3.109  0.00  0.00     0.077 C 
ATOM      2  C1' PXY d   1      -0.863  -0.085   2.033  0.00  0.00     0.077 C 
ATOM      3  C1  PXY d   1      -0.721  -0.751   0.679  0.00  0.00    -0.082 A 
ATOM      4  C2  PXY d   1      -0.942  -2.051   0.563  0.00  0.00     0.003 A 
ATOM      5  C3  PXY d   1      -0.787  -2.675  -0.649  0.00  0.00     0.003 A 
ATOM      6  C4  PXY d   1      -0.455  -1.952  -1.763  0.00  0.00    -0.082 A 
ATOM      7  C5  PXY d   1      -0.239  -0.624  -1.655  0.00  0.00     0.003 A 
ATOM      8  C6  PXY d   1      -0.361  -0.017  -0.409  0.00  0.00     0.003 A 
ENDROOT
TORSDOF 0
ENDMDL
