MODEL 1
REMARK minimizedAffinity -2.56702185
REMARK minimizedRMSD -1
REMARK  0 active torsions:
REMARK  status: ('A' for Active; 'I' for Inactive)
ROOT
ATOM      1  C4' PXY d   1       0.318   2.715  -0.120  0.00  0.00     0.077 C 
ATOM      2  C1' PXY d   1      -1.055  -2.824   0.799  0.00  0.00     0.077 C 
ATOM      3  C1  PXY d   1      -0.685  -1.375   0.550  0.00  0.00    -0.082 A 
ATOM      4  C2  PXY d   1      -0.991  -0.458   1.453  0.00  0.00     0.003 A 
ATOM      5  C3  PXY d   1      -0.693   0.862   1.229  0.00  0.00     0.003 A 
ATOM      6  C4  PXY d   1      -0.027   1.239   0.094  0.00  0.00    -0.082 A 
ATOM      7  C5  PXY d   1       0.298   0.307  -0.827  0.00  0.00     0.003 A 
ATOM      8  C6  PXY d   1      -0.051  -1.021  -0.600  0.00  0.00     0.003 A 
ENDROOT
TORSDOF 0
ENDMDL
