MODEL 1
REMARK minimizedAffinity -4.61273146
REMARK minimizedRMSD -1
REMARK  0 active torsions:
REMARK  status: ('A' for Active; 'I' for Inactive)
ROOT
ATOM      1  C4' PXY d   1       1.737   3.492   0.587  0.00  0.00     0.077 C 
ATOM      2  C1' PXY d   1      -0.740  -1.730   0.708  0.00  0.00     0.077 C 
ATOM      3  C1  PXY d   1      -0.090  -0.361   0.663  0.00  0.00    -0.082 A 
ATOM      4  C2  PXY d   1       0.631   0.055   1.692  0.00  0.00     0.003 A 
ATOM      5  C3  PXY d   1       1.199   1.303   1.681  0.00  0.00     0.003 A 
ATOM      6  C4  PXY d   1       1.071   2.113   0.585  0.00  0.00    -0.082 A 
ATOM      7  C5  PXY d   1       0.346   1.692  -0.473  0.00  0.00     0.003 A 
ATOM      8  C6  PXY d   1      -0.257   0.438  -0.426  0.00  0.00     0.003 A 
ENDROOT
TORSDOF 0
ENDMDL
