MODEL 1
REMARK minimizedAffinity -3.00240874
REMARK minimizedRMSD -1
REMARK  0 active torsions:
REMARK  status: ('A' for Active; 'I' for Inactive)
ROOT
ATOM      1  C4' PXY d   1       0.657   2.817  -0.235  0.00  0.00     0.077 C 
ATOM      2  C1' PXY d   1      -0.922  -2.676   0.632  0.00  0.00     0.077 C 
ATOM      3  C1  PXY d   1      -0.502  -1.239   0.394  0.00  0.00    -0.082 A 
ATOM      4  C2  PXY d   1      -0.390  -0.411   1.420  0.00  0.00     0.003 A 
ATOM      5  C3  PXY d   1      -0.042   0.900   1.219  0.00  0.00     0.003 A 
ATOM      6  C4  PXY d   1       0.245   1.355  -0.040  0.00  0.00    -0.082 A 
ATOM      7  C5  PXY d   1       0.142   0.514  -1.091  0.00  0.00     0.003 A 
ATOM      8  C6  PXY d   1      -0.252  -0.802  -0.870  0.00  0.00     0.003 A 
ENDROOT
TORSDOF 0
ENDMDL
