MODEL 1
REMARK minimizedAffinity -3.22199941
REMARK minimizedRMSD -1
REMARK  0 active torsions:
REMARK  status: ('A' for Active; 'I' for Inactive)
ROOT
ATOM      1  C4' PXY d   1       1.617   2.604   0.365  0.00  0.00     0.077 C 
ATOM      2  C1' PXY d   1      -1.592  -2.170   0.936  0.00  0.00     0.077 C 
ATOM      3  C1  PXY d   1      -0.752  -0.919   0.773  0.00  0.00    -0.082 A 
ATOM      4  C2  PXY d   1       0.098  -0.573   1.726  0.00  0.00     0.003 A 
ATOM      5  C3  PXY d   1       0.843   0.573   1.610  0.00  0.00     0.003 A 
ATOM      6  C4  PXY d   1       0.755   1.344   0.482  0.00  0.00    -0.082 A 
ATOM      7  C5  PXY d   1      -0.101   0.992  -0.500  0.00  0.00     0.003 A 
ATOM      8  C6  PXY d   1      -0.878  -0.152  -0.344  0.00  0.00     0.003 A 
ENDROOT
TORSDOF 0
ENDMDL
