MODEL 1
REMARK minimizedAffinity -5.46549797
REMARK minimizedRMSD -1
REMARK  0 active torsions:
REMARK  status: ('A' for Active; 'I' for Inactive)
ROOT
ATOM      1  C1  BNZ d   1      -1.122  -0.433   0.435  0.00  0.00     0.000 A 
ATOM      2  C2  BNZ d   1      -0.101   0.458   0.232  0.00  0.00     0.000 A 
ATOM      3  C3  BNZ d   1      -0.334   1.805   0.250  0.00  0.00     0.000 A 
ATOM      4  C4  BNZ d   1      -1.591   2.258   0.430  0.00  0.00     0.000 A 
ATOM      5  C5  BNZ d   1      -2.632   1.373   0.627  0.00  0.00     0.000 A 
ATOM      6  C6  BNZ d   1      -2.388   0.019   0.648  0.00  0.00     0.000 A 
ENDROOT
TORSDOF 0
ENDMDL
