MODEL 1
REMARK minimizedAffinity 1.53505576
REMARK minimizedRMSD -1
REMARK  0 active torsions:
REMARK  status: ('A' for Active; 'I' for Inactive)
ROOT
ATOM      1  C1  BNZ d   1      -3.697  -2.831  -1.144  0.00  0.00     0.000 A 
ATOM      2  C2  BNZ d   1      -3.424  -4.121  -0.773  0.00  0.00     0.000 A 
ATOM      3  C3  BNZ d   1      -2.586  -4.901  -1.519  0.00  0.00     0.000 A 
ATOM      4  C4  BNZ d   1      -2.054  -4.405  -2.655  0.00  0.00     0.000 A 
ATOM      5  C5  BNZ d   1      -2.327  -3.110  -3.048  0.00  0.00     0.000 A 
ATOM      6  C6  BNZ d   1      -3.141  -2.315  -2.274  0.00  0.00     0.000 A 
ENDROOT
TORSDOF 0
ENDMDL
