MODEL 1
REMARK minimizedAffinity -1.09762907
REMARK minimizedRMSD -1
REMARK  0 active torsions:
REMARK  status: ('A' for Active; 'I' for Inactive)
ROOT
ATOM      1  C1  BNZ d   1      -2.618   2.822   0.005  0.00  0.00     0.000 A 
ATOM      2  C2  BNZ d   1      -1.407   2.196  -0.126  0.00  0.00     0.000 A 
ATOM      3  C3  BNZ d   1      -1.258   0.880   0.213  0.00  0.00     0.000 A 
ATOM      4  C4  BNZ d   1      -2.309   0.203   0.719  0.00  0.00     0.000 A 
ATOM      5  C5  BNZ d   1      -3.534   0.823   0.867  0.00  0.00     0.000 A 
ATOM      6  C6  BNZ d   1      -3.690   2.136   0.489  0.00  0.00     0.000 A 
ENDROOT
TORSDOF 0
ENDMDL
