MODEL 1
REMARK minimizedAffinity -2.55792856
REMARK minimizedRMSD -1
REMARK  0 active torsions:
REMARK  status: ('A' for Active; 'I' for Inactive)
ROOT
ATOM      1  C1  BNZ d   1      -0.412   1.829  -0.409  0.00  0.00     0.000 A 
ATOM      2  C2  BNZ d   1      -1.325   1.084   0.288  0.00  0.00     0.000 A 
ATOM      3  C3  BNZ d   1      -0.954   0.384   1.402  0.00  0.00     0.000 A 
ATOM      4  C4  BNZ d   1       0.336   0.398   1.794  0.00  0.00     0.000 A 
ATOM      5  C5  BNZ d   1       1.271   1.136   1.096  0.00  0.00     0.000 A 
ATOM      6  C6  BNZ d   1       0.886   1.871  -0.002  0.00  0.00     0.000 A 
ENDROOT
TORSDOF 0
ENDMDL
