MODEL 1
REMARK minimizedAffinity -4.59584808
REMARK minimizedRMSD -1
REMARK  0 active torsions:
REMARK  status: ('A' for Active; 'I' for Inactive)
ROOT
ATOM      1  C1  BNZ d   1      -0.685   1.675   0.351  0.00  0.00     0.000 A 
ATOM      2  C2  BNZ d   1      -0.502   0.359   0.684  0.00  0.00     0.000 A 
ATOM      3  C3  BNZ d   1      -1.570  -0.481   0.828  0.00  0.00     0.000 A 
ATOM      4  C4  BNZ d   1      -2.820   0.003   0.679  0.00  0.00     0.000 A 
ATOM      5  C5  BNZ d   1      -3.021   1.329   0.352  0.00  0.00     0.000 A 
ATOM      6  C6  BNZ d   1      -1.942   2.163   0.170  0.00  0.00     0.000 A 
ENDROOT
TORSDOF 0
ENDMDL
