MODEL 1
REMARK minimizedAffinity -3.30502796
REMARK minimizedRMSD -1
REMARK  0 active torsions:
REMARK  status: ('A' for Active; 'I' for Inactive)
ROOT
ATOM      1  C1  BNZ d   1      -0.490   1.578   1.090  0.00  0.00     0.000 A 
ATOM      2  C2  BNZ d   1      -0.912   0.295   0.863  0.00  0.00     0.000 A 
ATOM      3  C3  BNZ d   1      -2.218   0.032   0.559  0.00  0.00     0.000 A 
ATOM      4  C4  BNZ d   1      -3.107   1.045   0.521  0.00  0.00     0.000 A 
ATOM      5  C5  BNZ d   1      -2.699   2.342   0.757  0.00  0.00     0.000 A 
ATOM      6  C6  BNZ d   1      -1.376   2.608   1.025  0.00  0.00     0.000 A 
ENDROOT
TORSDOF 0
ENDMDL
