MODEL 1
REMARK minimizedAffinity -3.49151421
REMARK minimizedRMSD -1
REMARK  0 active torsions:
REMARK  status: ('A' for Active; 'I' for Inactive)
ROOT
ATOM      1  C1  BNZ d   1       0.163   1.914   0.811  0.00  0.00     0.000 A 
ATOM      2  C2  BNZ d   1      -0.483   1.181   1.771  0.00  0.00     0.000 A 
ATOM      3  C3  BNZ d   1      -1.745   0.704   1.557  0.00  0.00     0.000 A 
ATOM      4  C4  BNZ d   1      -2.376   0.994   0.401  0.00  0.00     0.000 A 
ATOM      5  C5  BNZ d   1      -1.743   1.740  -0.573  0.00  0.00     0.000 A 
ATOM      6  C6  BNZ d   1      -0.457   2.186  -0.369  0.00  0.00     0.000 A 
ENDROOT
TORSDOF 0
ENDMDL
