MODEL 1
REMARK minimizedAffinity -4.01693296
REMARK minimizedRMSD -1
REMARK  0 active torsions:
REMARK  status: ('A' for Active; 'I' for Inactive)
ROOT
ATOM      1  C1  BNZ d   1      -0.519   2.101  -0.097  0.00  0.00     0.000 A 
ATOM      2  C2  BNZ d   1      -1.599   2.919  -0.298  0.00  0.00     0.000 A 
ATOM      3  C3  BNZ d   1      -2.825   2.597   0.215  0.00  0.00     0.000 A 
ATOM      4  C4  BNZ d   1      -2.978   1.441   0.892  0.00  0.00     0.000 A 
ATOM      5  C5  BNZ d   1      -1.901   0.602   1.094  0.00  0.00     0.000 A 
ATOM      6  C6  BNZ d   1      -0.660   0.947   0.611  0.00  0.00     0.000 A 
ENDROOT
TORSDOF 0
ENDMDL
