MODEL 1
REMARK minimizedAffinity -0.279589772
REMARK minimizedRMSD -1
REMARK  0 active torsions:
REMARK  status: ('A' for Active; 'I' for Inactive)
ROOT
ATOM      1  C1  BNZ d   1      -1.725   0.929   1.834  0.00  0.00     0.000 A 
ATOM      2  C2  BNZ d   1      -2.241   2.075   1.289  0.00  0.00     0.000 A 
ATOM      3  C3  BNZ d   1      -1.584   2.728   0.284  0.00  0.00     0.000 A 
ATOM      4  C4  BNZ d   1      -0.395   2.259  -0.146  0.00  0.00     0.000 A 
ATOM      5  C5  BNZ d   1       0.142   1.110   0.400  0.00  0.00     0.000 A 
ATOM      6  C6  BNZ d   1      -0.540   0.433   1.384  0.00  0.00     0.000 A 
ENDROOT
TORSDOF 0
ENDMDL
