MODEL 1
REMARK minimizedAffinity 1.58962774
REMARK minimizedRMSD -1
REMARK  0 active torsions:
REMARK  status: ('A' for Active; 'I' for Inactive)
ROOT
ATOM      1  C1  BNZ d   1       3.976  -2.932  -0.072  0.00  0.00     0.000 A 
ATOM      2  C2  BNZ d   1       3.749  -4.090  -0.766  0.00  0.00     0.000 A 
ATOM      3  C3  BNZ d   1       2.634  -4.844  -0.525  0.00  0.00     0.000 A 
ATOM      4  C4  BNZ d   1       1.770  -4.461   0.436  0.00  0.00     0.000 A 
ATOM      5  C5  BNZ d   1       1.990  -3.301   1.152  0.00  0.00     0.000 A 
ATOM      6  C6  BNZ d   1       3.093  -2.524   0.880  0.00  0.00     0.000 A 
ENDROOT
TORSDOF 0
ENDMDL
