MODEL 1
REMARK minimizedAffinity -3.08868337
REMARK minimizedRMSD -1
REMARK  0 active torsions:
REMARK  status: ('A' for Active; 'I' for Inactive)
ROOT
ATOM      1  C1  BNZ d   1       1.778   1.304   2.918  0.00  0.00     0.000 A 
ATOM      2  C2  BNZ d   1       0.496   1.731   2.697  0.00  0.00     0.000 A 
ATOM      3  C3  BNZ d   1       0.004   1.839   1.426  0.00  0.00     0.000 A 
ATOM      4  C4  BNZ d   1       0.806   1.559   0.378  0.00  0.00     0.000 A 
ATOM      5  C5  BNZ d   1       2.104   1.136   0.585  0.00  0.00     0.000 A 
ATOM      6  C6  BNZ d   1       2.583   0.991   1.867  0.00  0.00     0.000 A 
ENDROOT
TORSDOF 0
ENDMDL
