MODEL 1
REMARK minimizedAffinity -3.41068244
REMARK minimizedRMSD -1
REMARK  0 active torsions:
REMARK  status: ('A' for Active; 'I' for Inactive)
ROOT
ATOM      1  C1  BNZ d   1      -2.637  -0.012   0.903  0.00  0.00     0.000 A 
ATOM      2  C2  BNZ d   1      -1.313  -0.253   1.156  0.00  0.00     0.000 A 
ATOM      3  C3  BNZ d   1      -0.370   0.711   0.930  0.00  0.00     0.000 A 
ATOM      4  C4  BNZ d   1      -0.747   1.899   0.415  0.00  0.00     0.000 A 
ATOM      5  C5  BNZ d   1      -2.077   2.154   0.146  0.00  0.00     0.000 A 
ATOM      6  C6  BNZ d   1      -3.028   1.195   0.411  0.00  0.00     0.000 A 
ENDROOT
TORSDOF 0
ENDMDL
