MODEL 1
REMARK minimizedAffinity -3.81919694
REMARK minimizedRMSD -1
REMARK  0 active torsions:
REMARK  status: ('A' for Active; 'I' for Inactive)
ROOT
ATOM      1  C1  BNZ d   1      -2.444   1.159  -0.074  0.00  0.00     0.000 A 
ATOM      2  C2  BNZ d   1      -1.429   1.914  -0.599  0.00  0.00     0.000 A 
ATOM      3  C3  BNZ d   1      -0.164   1.839  -0.087  0.00  0.00     0.000 A 
ATOM      4  C4  BNZ d   1       0.075   1.041   0.974  0.00  0.00     0.000 A 
ATOM      5  C5  BNZ d   1      -0.940   0.281   1.520  0.00  0.00     0.000 A 
ATOM      6  C6  BNZ d   1      -2.203   0.330   0.977  0.00  0.00     0.000 A 
ENDROOT
TORSDOF 0
ENDMDL
