MODEL 1
REMARK minimizedAffinity -2.95856166
REMARK minimizedRMSD -1
REMARK  0 active torsions:
REMARK  status: ('A' for Active; 'I' for Inactive)
ROOT
ATOM      1  C1  BNZ d   1      -3.717   2.068   0.088  0.00  0.00     0.000 A 
ATOM      2  C2  BNZ d   1      -2.371   2.305  -0.002  0.00  0.00     0.000 A 
ATOM      3  C3  BNZ d   1      -1.468   1.300   0.203  0.00  0.00     0.000 A 
ATOM      4  C4  BNZ d   1      -1.909   0.071   0.538  0.00  0.00     0.000 A 
ATOM      5  C5  BNZ d   1      -3.262  -0.182   0.642  0.00  0.00     0.000 A 
ATOM      6  C6  BNZ d   1      -4.170   0.823   0.396  0.00  0.00     0.000 A 
ENDROOT
TORSDOF 0
ENDMDL
