MODEL 1
REMARK minimizedAffinity -2.99624252
REMARK minimizedRMSD -1
REMARK  0 active torsions:
REMARK  status: ('A' for Active; 'I' for Inactive)
ROOT
ATOM      1  C1  BNZ d   1      -1.092   1.033   1.460  0.00  0.00     0.000 A 
ATOM      2  C2  BNZ d   1      -0.902   2.320   1.031  0.00  0.00     0.000 A 
ATOM      3  C3  BNZ d   1       0.180   2.649   0.264  0.00  0.00     0.000 A 
ATOM      4  C4  BNZ d   1       1.090   1.701  -0.041  0.00  0.00     0.000 A 
ATOM      5  C5  BNZ d   1       0.917   0.402   0.392  0.00  0.00     0.000 A 
ATOM      6  C6  BNZ d   1      -0.193   0.066   1.131  0.00  0.00     0.000 A 
ENDROOT
TORSDOF 0
ENDMDL
