MODEL 1
REMARK minimizedAffinity -1.70383155
REMARK minimizedRMSD -1
REMARK  0 active torsions:
REMARK  status: ('A' for Active; 'I' for Inactive)
ROOT
ATOM      1  C1  BNZ d   1      -0.607   0.393   1.125  0.00  0.00     0.000 A 
ATOM      2  C2  BNZ d   1      -0.563   1.706   0.739  0.00  0.00     0.000 A 
ATOM      3  C3  BNZ d   1      -1.683   2.489   0.790  0.00  0.00     0.000 A 
ATOM      4  C4  BNZ d   1      -2.852   1.947   1.187  0.00  0.00     0.000 A 
ATOM      5  C5  BNZ d   1      -2.915   0.622   1.570  0.00  0.00     0.000 A 
ATOM      6  C6  BNZ d   1      -1.778  -0.152   1.555  0.00  0.00     0.000 A 
ENDROOT
TORSDOF 0
ENDMDL
