MODEL 1
REMARK minimizedAffinity 15.8420238
REMARK minimizedRMSD -1
REMARK  2 active torsions:
REMARK  status: ('A' for Active; 'I' for Inactive)
REMARK    1  A    between atoms: C2'_3  and  C1'_4 
REMARK    2  A    between atoms: C1'_4  and  C1_5 
ROOT
ATOM      1  C1  I4B d   1       2.390  -1.753  -0.696  0.00  0.00    -0.075 A 
ATOM      2  C2  I4B d   1       1.800  -1.781  -1.934  0.00  0.00     0.003 A 
ATOM      3  C3  I4B d   1       1.554  -0.575  -2.635  0.00  0.00     0.002 A 
ATOM      4  C4  I4B d   1       1.866   0.631  -2.042  0.00  0.00    -0.004 A 
ATOM      5  C5  I4B d   1       2.485   0.657  -0.795  0.00  0.00     0.002 A 
ATOM      6  C6  I4B d   1       2.761  -0.543  -0.123  0.00  0.00     0.003 A 
ENDROOT
BRANCH   1   7
ATOM      7  C1' I4B d   1       2.605  -3.043   0.030  0.00  0.00     0.060 C 
BRANCH   7   8
ATOM      8  C2' I4B d   1       4.016  -3.512  -0.260  0.00  0.00    -0.013 C 
ATOM      9  C4' I4B d   1       5.031  -2.672   0.470  0.00  0.00     0.013 C 
ATOM     10  C3' I4B d   1       4.117  -4.953   0.141  0.00  0.00     0.013 C 
ENDBRANCH   7   8
ENDBRANCH   1   7
TORSDOF 2
ENDMDL
