MODEL 1
REMARK minimizedAffinity 2.70837116
REMARK minimizedRMSD -1
REMARK  2 active torsions:
REMARK  status: ('A' for Active; 'I' for Inactive)
REMARK    1  A    between atoms: C2'_3  and  C1'_4 
REMARK    2  A    between atoms: C1'_4  and  C1_5 
ROOT
ATOM      1  C1  I4B d   1      -1.850  -3.775  -3.878  0.00  0.00    -0.075 A 
ATOM      2  C2  I4B d   1      -2.639  -4.597  -3.113  0.00  0.00     0.003 A 
ATOM      3  C3  I4B d   1      -2.056  -5.644  -2.359  0.00  0.00     0.002 A 
ATOM      4  C4  I4B d   1      -0.696  -5.864  -2.439  0.00  0.00    -0.004 A 
ATOM      5  C5  I4B d   1       0.105  -5.015  -3.198  0.00  0.00     0.002 A 
ATOM      6  C6  I4B d   1      -0.474  -3.956  -3.912  0.00  0.00     0.003 A 
ENDROOT
BRANCH   1   7
ATOM      7  C1' I4B d   1      -2.503  -2.699  -4.687  0.00  0.00     0.060 C 
BRANCH   7   8
ATOM      8  C2' I4B d   1      -3.079  -3.338  -5.935  0.00  0.00    -0.013 C 
ATOM      9  C4' I4B d   1      -2.746  -4.805  -6.000  0.00  0.00     0.013 C 
ATOM     10  C3' I4B d   1      -4.563  -3.119  -5.924  0.00  0.00     0.013 C 
ENDBRANCH   7   8
ENDBRANCH   1   7
TORSDOF 2
ENDMDL
