MODEL 1
REMARK minimizedAffinity 7.65898371
REMARK minimizedRMSD -1
REMARK  2 active torsions:
REMARK  status: ('A' for Active; 'I' for Inactive)
REMARK    1  A    between atoms: C2'_3  and  C1'_4 
REMARK    2  A    between atoms: C1'_4  and  C1_5 
ROOT
ATOM      1  C1  I4B d   1       1.012   0.834   0.470  0.00  0.00    -0.075 A 
ATOM      2  C2  I4B d   1      -0.005   0.706   1.384  0.00  0.00     0.003 A 
ATOM      3  C3  I4B d   1       0.145   1.221   2.694  0.00  0.00     0.002 A 
ATOM      4  C4  I4B d   1       1.339   1.808   3.061  0.00  0.00    -0.004 A 
ATOM      5  C5  I4B d   1       2.360   1.958   2.127  0.00  0.00     0.002 A 
ATOM      6  C6  I4B d   1       2.191   1.479   0.820  0.00  0.00     0.003 A 
ENDROOT
BRANCH   1   7
ATOM      7  C1' I4B d   1       0.832   0.249  -0.895  0.00  0.00     0.060 C 
BRANCH   7   8
ATOM      8  C2' I4B d   1       2.206  -0.051  -1.458  0.00  0.00    -0.013 C 
ATOM      9  C4' I4B d   1       2.615  -1.472  -1.168  0.00  0.00     0.013 C 
ATOM     10  C3' I4B d   1       2.169   0.211  -2.934  0.00  0.00     0.013 C 
ENDBRANCH   7   8
ENDBRANCH   1   7
TORSDOF 2
ENDMDL
