MODEL 1
REMARK minimizedAffinity 11.6660557
REMARK minimizedRMSD -1
REMARK  2 active torsions:
REMARK  status: ('A' for Active; 'I' for Inactive)
REMARK    1  A    between atoms: C2'_3  and  C1'_4 
REMARK    2  A    between atoms: C1'_4  and  C1_5 
ROOT
ATOM      1  C1  I4B d   1      -1.094   1.500   2.892  0.00  0.00    -0.075 A 
ATOM      2  C2  I4B d   1      -0.790   2.189   4.039  0.00  0.00     0.003 A 
ATOM      3  C3  I4B d   1       0.525   2.154   4.564  0.00  0.00     0.002 A 
ATOM      4  C4  I4B d   1       1.485   1.382   3.942  0.00  0.00    -0.004 A 
ATOM      5  C5  I4B d   1       1.180   0.702   2.766  0.00  0.00     0.002 A 
ATOM      6  C6  I4B d   1      -0.114   0.771   2.230  0.00  0.00     0.003 A 
ENDROOT
BRANCH   1   7
ATOM      7  C1' I4B d   1      -2.500   1.532   2.383  0.00  0.00     0.060 C 
BRANCH   7   8
ATOM      8  C2' I4B d   1      -3.403   0.986   3.471  0.00  0.00    -0.013 C 
ATOM      9  C4' I4B d   1      -4.467   1.983   3.847  0.00  0.00     0.013 C 
ATOM     10  C3' I4B d   1      -4.009  -0.292   2.972  0.00  0.00     0.013 C 
ENDBRANCH   7   8
ENDBRANCH   1   7
TORSDOF 2
ENDMDL
