MODEL 1
REMARK minimizedAffinity 19.1411533
REMARK minimizedRMSD -1
REMARK  2 active torsions:
REMARK  status: ('A' for Active; 'I' for Inactive)
REMARK    1  A    between atoms: C2'_3  and  C1'_4 
REMARK    2  A    between atoms: C1'_4  and  C1_5 
ROOT
ATOM      1  C1  I4B d   1      -2.335  -3.992  -3.814  0.00  0.00    -0.075 A 
ATOM      2  C2  I4B d   1      -2.734  -2.681  -3.736  0.00  0.00     0.003 A 
ATOM      3  C3  I4B d   1      -3.467  -2.094  -4.796  0.00  0.00     0.002 A 
ATOM      4  C4  I4B d   1      -3.733  -2.834  -5.929  0.00  0.00    -0.004 A 
ATOM      5  C5  I4B d   1      -3.348  -4.170  -5.997  0.00  0.00     0.002 A 
ATOM      6  C6  I4B d   1      -2.655  -4.757  -4.929  0.00  0.00     0.003 A 
ENDROOT
BRANCH   1   7
ATOM      7  C1' I4B d   1      -1.534  -4.570  -2.691  0.00  0.00     0.060 C 
BRANCH   7   8
ATOM      8  C2' I4B d   1      -0.075  -4.245  -2.942  0.00  0.00    -0.013 C 
ATOM      9  C4' I4B d   1       0.510  -3.450  -1.805  0.00  0.00     0.013 C 
ATOM     10  C3' I4B d   1       0.661  -5.537  -3.134  0.00  0.00     0.013 C 
ENDBRANCH   7   8
ENDBRANCH   1   7
TORSDOF 2
ENDMDL
