MODEL 1
REMARK minimizedAffinity 18.4226627
REMARK minimizedRMSD -1
REMARK  2 active torsions:
REMARK  status: ('A' for Active; 'I' for Inactive)
REMARK    1  A    between atoms: C2'_3  and  C1'_4 
REMARK    2  A    between atoms: C1'_4  and  C1_5 
ROOT
ATOM      1  C1  I4B d   1      -3.945  -1.115   3.403  0.00  0.00    -0.075 A 
ATOM      2  C2  I4B d   1      -4.680  -0.861   2.272  0.00  0.00     0.003 A 
ATOM      3  C3  I4B d   1      -5.740  -1.723   1.901  0.00  0.00     0.002 A 
ATOM      4  C4  I4B d   1      -5.996  -2.849   2.657  0.00  0.00    -0.004 A 
ATOM      5  C5  I4B d   1      -5.265  -3.093   3.816  0.00  0.00     0.002 A 
ATOM      6  C6  I4B d   1      -4.241  -2.215   4.199  0.00  0.00     0.003 A 
ENDROOT
BRANCH   1   7
ATOM      7  C1' I4B d   1      -2.811  -0.202   3.747  0.00  0.00     0.060 C 
BRANCH   7   8
ATOM      8  C2' I4B d   1      -2.972   1.068   2.935  0.00  0.00    -0.013 C 
ATOM      9  C4' I4B d   1      -3.784   2.093   3.682  0.00  0.00     0.013 C 
ATOM     10  C3' I4B d   1      -1.603   1.590   2.616  0.00  0.00     0.013 C 
ENDBRANCH   7   8
ENDBRANCH   1   7
TORSDOF 2
ENDMDL
