MODEL 1
REMARK minimizedAffinity 8.16196346
REMARK minimizedRMSD -1
REMARK  2 active torsions:
REMARK  status: ('A' for Active; 'I' for Inactive)
REMARK    1  A    between atoms: C2'_3  and  C1'_4 
REMARK    2  A    between atoms: C1'_4  and  C1_5 
ROOT
ATOM      1  C1  I4B d   1       1.018  -3.341  -2.429  0.00  0.00    -0.075 A 
ATOM      2  C2  I4B d   1       1.814  -4.001  -1.526  0.00  0.00     0.003 A 
ATOM      3  C3  I4B d   1       2.719  -3.278  -0.712  0.00  0.00     0.002 A 
ATOM      4  C4  I4B d   1       2.833  -1.912  -0.869  0.00  0.00    -0.004 A 
ATOM      5  C5  I4B d   1       2.010  -1.241  -1.769  0.00  0.00     0.002 A 
ATOM      6  C6  I4B d   1       1.088  -1.958  -2.546  0.00  0.00     0.003 A 
ENDROOT
BRANCH   1   7
ATOM      7  C1' I4B d   1       0.097  -4.138  -3.296  0.00  0.00     0.060 C 
BRANCH   7   8
ATOM      8  C2' I4B d   1      -1.269  -4.148  -2.640  0.00  0.00    -0.013 C 
ATOM      9  C4' I4B d   1      -2.247  -3.294  -3.403  0.00  0.00     0.013 C 
ATOM     10  C3' I4B d   1      -1.737  -5.571  -2.565  0.00  0.00     0.013 C 
ENDBRANCH   7   8
ENDBRANCH   1   7
TORSDOF 2
ENDMDL
