MODEL 1
REMARK minimizedAffinity 17.203598
REMARK minimizedRMSD -1
REMARK  2 active torsions:
REMARK  status: ('A' for Active; 'I' for Inactive)
REMARK    1  A    between atoms: C2'_3  and  C1'_4 
REMARK    2  A    between atoms: C1'_4  and  C1_5 
ROOT
ATOM      1  C1  I4B d   1      -3.318   1.386   3.890  0.00  0.00    -0.075 A 
ATOM      2  C2  I4B d   1      -2.939   1.686   5.174  0.00  0.00     0.003 A 
ATOM      3  C3  I4B d   1      -3.774   2.479   5.997  0.00  0.00     0.002 A 
ATOM      4  C4  I4B d   1      -4.948   2.991   5.482  0.00  0.00    -0.004 A 
ATOM      5  C5  I4B d   1      -5.342   2.667   4.187  0.00  0.00     0.002 A 
ATOM      6  C6  I4B d   1      -4.528   1.849   3.389  0.00  0.00     0.003 A 
ENDROOT
BRANCH   1   7
ATOM      7  C1' I4B d   1      -2.397   0.572   3.038  0.00  0.00     0.060 C 
BRANCH   7   8
ATOM      8  C2' I4B d   1      -0.978   1.019   3.326  0.00  0.00    -0.013 C 
ATOM      9  C4' I4B d   1       0.013  -0.066   2.997  0.00  0.00     0.013 C 
ATOM     10  C3' I4B d   1      -0.711   2.258   2.525  0.00  0.00     0.013 C 
ENDBRANCH   7   8
ENDBRANCH   1   7
TORSDOF 2
ENDMDL
