MODEL 1
REMARK minimizedAffinity 13.7760363
REMARK minimizedRMSD -1
REMARK  2 active torsions:
REMARK  status: ('A' for Active; 'I' for Inactive)
REMARK    1  A    between atoms: C2'_3  and  C1'_4 
REMARK    2  A    between atoms: C1'_4  and  C1_5 
ROOT
ATOM      1  C1  I4B d   1       2.862   0.183  -1.438  0.00  0.00    -0.075 A 
ATOM      2  C2  I4B d   1       2.942  -0.803  -0.487  0.00  0.00     0.003 A 
ATOM      3  C3  I4B d   1       2.395  -2.084  -0.740  0.00  0.00     0.002 A 
ATOM      4  C4  I4B d   1       1.736  -2.319  -1.930  0.00  0.00    -0.004 A 
ATOM      5  C5  I4B d   1       1.675  -1.325  -2.902  0.00  0.00     0.002 A 
ATOM      6  C6  I4B d   1       2.252  -0.070  -2.660  0.00  0.00     0.003 A 
ENDROOT
BRANCH   1   7
ATOM      7  C1' I4B d   1       3.421   1.534  -1.124  0.00  0.00     0.060 C 
BRANCH   7   8
ATOM      8  C2' I4B d   1       4.317   1.398   0.090  0.00  0.00    -0.013 C 
ATOM      9  C4' I4B d   1       5.736   1.788  -0.233  0.00  0.00     0.013 C 
ATOM     10  C3' I4B d   1       3.754   2.260   1.180  0.00  0.00     0.013 C 
ENDBRANCH   7   8
ENDBRANCH   1   7
TORSDOF 2
ENDMDL
