MODEL 1
REMARK minimizedAffinity 12.0114765
REMARK minimizedRMSD -1
REMARK  2 active torsions:
REMARK  status: ('A' for Active; 'I' for Inactive)
REMARK    1  A    between atoms: C2'_3  and  C1'_4 
REMARK    2  A    between atoms: C1'_4  and  C1_5 
ROOT
ATOM      1  C1  I4B d   1       2.537   2.511   1.060  0.00  0.00    -0.075 A 
ATOM      2  C2  I4B d   1       3.156   1.825   0.045  0.00  0.00     0.003 A 
ATOM      3  C3  I4B d   1       3.140   2.338  -1.275  0.00  0.00     0.002 A 
ATOM      4  C4  I4B d   1       2.455   3.505  -1.542  0.00  0.00    -0.004 A 
ATOM      5  C5  I4B d   1       1.847   4.211  -0.508  0.00  0.00     0.002 A 
ATOM      6  C6  I4B d   1       1.898   3.718   0.804  0.00  0.00     0.003 A 
ENDROOT
BRANCH   1   7
ATOM      7  C1' I4B d   1       2.545   1.924   2.436  0.00  0.00     0.060 C 
BRANCH   7   8
ATOM      8  C2' I4B d   1       1.111   1.853   2.922  0.00  0.00    -0.013 C 
ATOM      9  C4' I4B d   1       0.379   0.697   2.292  0.00  0.00     0.013 C 
ATOM     10  C3' I4B d   1       1.134   1.730   4.416  0.00  0.00     0.013 C 
ENDBRANCH   7   8
ENDBRANCH   1   7
TORSDOF 2
ENDMDL
