MODEL 1
REMARK minimizedAffinity 21.8852921
REMARK minimizedRMSD -1
REMARK  2 active torsions:
REMARK  status: ('A' for Active; 'I' for Inactive)
REMARK    1  A    between atoms: C2'_3  and  C1'_4 
REMARK    2  A    between atoms: C1'_4  and  C1_5 
ROOT
ATOM      1  C1  I4B d   1      -4.136  -1.244   4.826  0.00  0.00    -0.075 A 
ATOM      2  C2  I4B d   1      -4.151  -0.526   3.656  0.00  0.00     0.003 A 
ATOM      3  C3  I4B d   1      -3.705   0.818   3.639  0.00  0.00     0.002 A 
ATOM      4  C4  I4B d   1      -3.303   1.416   4.817  0.00  0.00    -0.004 A 
ATOM      5  C5  I4B d   1      -3.267   0.679   5.997  0.00  0.00     0.002 A 
ATOM      6  C6  I4B d   1      -3.674  -0.663   6.000  0.00  0.00     0.003 A 
ENDROOT
BRANCH   1   7
ATOM      7  C1' I4B d   1      -4.645  -2.650   4.815  0.00  0.00     0.060 C 
BRANCH   7   8
ATOM      8  C2' I4B d   1      -3.450  -3.578   4.727  0.00  0.00    -0.013 C 
ATOM      9  C4' I4B d   1      -3.525  -4.663   5.769  0.00  0.00     0.013 C 
ATOM     10  C3' I4B d   1      -3.414  -4.157   3.344  0.00  0.00     0.013 C 
ENDBRANCH   7   8
ENDBRANCH   1   7
TORSDOF 2
ENDMDL
