MODEL 1
REMARK minimizedAffinity 18.7268791
REMARK minimizedRMSD -1
REMARK  2 active torsions:
REMARK  status: ('A' for Active; 'I' for Inactive)
REMARK    1  A    between atoms: C2'_3  and  C1'_4 
REMARK    2  A    between atoms: C1'_4  and  C1_5 
ROOT
ATOM      1  C1  I4B d   1      -2.647   1.217   4.329  0.00  0.00    -0.075 A 
ATOM      2  C2  I4B d   1      -3.761   1.286   3.529  0.00  0.00     0.003 A 
ATOM      3  C3  I4B d   1      -4.900   2.012   3.954  0.00  0.00     0.002 A 
ATOM      4  C4  I4B d   1      -4.901   2.607   5.200  0.00  0.00    -0.004 A 
ATOM      5  C5  I4B d   1      -3.763   2.554   6.000  0.00  0.00     0.002 A 
ATOM      6  C6  I4B d   1      -2.624   1.865   5.557  0.00  0.00     0.003 A 
ENDROOT
BRANCH   1   7
ATOM      7  C1' I4B d   1      -1.474   0.414   3.863  0.00  0.00     0.060 C 
BRANCH   7   8
ATOM      8  C2' I4B d   1      -0.273   1.335   3.802  0.00  0.00    -0.013 C 
ATOM      9  C4' I4B d   1       0.638   1.121   4.982  0.00  0.00     0.013 C 
ATOM     10  C3' I4B d   1       0.444   1.076   2.511  0.00  0.00     0.013 C 
ENDBRANCH   7   8
ENDBRANCH   1   7
TORSDOF 2
ENDMDL
