MODEL 1
REMARK minimizedAffinity 10.0274115
REMARK minimizedRMSD -1
REMARK  2 active torsions:
REMARK  status: ('A' for Active; 'I' for Inactive)
REMARK    1  A    between atoms: C2'_3  and  C1'_4 
REMARK    2  A    between atoms: C1'_4  and  C1_5 
ROOT
ATOM      1  C1  I4B d   1       2.110  -2.166  -2.016  0.00  0.00    -0.075 A 
ATOM      2  C2  I4B d   1       3.064  -2.134  -3.002  0.00  0.00     0.003 A 
ATOM      3  C3  I4B d   1       2.892  -2.893  -4.185  0.00  0.00     0.002 A 
ATOM      4  C4  I4B d   1       1.782  -3.703  -4.318  0.00  0.00    -0.004 A 
ATOM      5  C5  I4B d   1       0.805  -3.716  -3.327  0.00  0.00     0.002 A 
ATOM      6  C6  I4B d   1       0.963  -2.934  -2.174  0.00  0.00     0.003 A 
ENDROOT
BRANCH   1   7
ATOM      7  C1' I4B d   1       2.340  -1.379  -0.765  0.00  0.00     0.060 C 
BRANCH   7   8
ATOM      8  C2' I4B d   1       2.860  -2.328   0.296  0.00  0.00    -0.013 C 
ATOM      9  C4' I4B d   1       2.331  -3.722   0.086  0.00  0.00     0.013 C 
ATOM     10  C3' I4B d   1       4.358  -2.304   0.244  0.00  0.00     0.013 C 
ENDBRANCH   7   8
ENDBRANCH   1   7
TORSDOF 2
ENDMDL
