MODEL 1
REMARK minimizedAffinity -1.69260228
REMARK minimizedRMSD -1
REMARK  2 active torsions:
REMARK  status: ('A' for Active; 'I' for Inactive)
REMARK    1  A    between atoms: C2'_3  and  C1'_4 
REMARK    2  A    between atoms: C1'_4  and  C1_5 
ROOT
ATOM      1  C1  I4B d   1       1.914  -2.583  -2.042  0.00  0.00    -0.075 A 
ATOM      2  C2  I4B d   1       1.822  -1.237  -2.293  0.00  0.00     0.003 A 
ATOM      3  C3  I4B d   1       2.179  -0.723  -3.563  0.00  0.00     0.002 A 
ATOM      4  C4  I4B d   1       2.668  -1.578  -4.530  0.00  0.00    -0.004 A 
ATOM      5  C5  I4B d   1       2.739  -2.945  -4.281  0.00  0.00     0.002 A 
ATOM      6  C6  I4B d   1       2.348  -3.454  -3.034  0.00  0.00     0.003 A 
ENDROOT
BRANCH   1   7
ATOM      7  C1' I4B d   1       1.560  -3.088  -0.679  0.00  0.00     0.060 C 
BRANCH   7   8
ATOM      8  C2' I4B d   1       2.800  -3.720  -0.079  0.00  0.00    -0.013 C 
ATOM      9  C4' I4B d   1       3.060  -5.080  -0.671  0.00  0.00     0.013 C 
ATOM     10  C3' I4B d   1       3.954  -2.794  -0.320  0.00  0.00     0.013 C 
ENDBRANCH   7   8
ENDBRANCH   1   7
TORSDOF 2
ENDMDL
