MODEL 1
REMARK minimizedAffinity 5.89636278
REMARK minimizedRMSD -1
REMARK  2 active torsions:
REMARK  status: ('A' for Active; 'I' for Inactive)
REMARK    1  A    between atoms: C2'_3  and  C1'_4 
REMARK    2  A    between atoms: C1'_4  and  C1_5 
ROOT
ATOM      1  C1  I4B d   1       2.614   0.244  -1.676  0.00  0.00    -0.075 A 
ATOM      2  C2  I4B d   1       2.254   0.031  -2.984  0.00  0.00     0.003 A 
ATOM      3  C3  I4B d   1       1.900  -1.268  -3.422  0.00  0.00     0.002 A 
ATOM      4  C4  I4B d   1       1.967  -2.326  -2.539  0.00  0.00    -0.004 A 
ATOM      5  C5  I4B d   1       2.310  -2.104  -1.208  0.00  0.00     0.002 A 
ATOM      6  C6  I4B d   1       2.624  -0.809  -0.771  0.00  0.00     0.003 A 
ENDROOT
BRANCH   1   7
ATOM      7  C1' I4B d   1       3.015   1.622  -1.255  0.00  0.00     0.060 C 
BRANCH   7   8
ATOM      8  C2' I4B d   1       3.969   1.494  -0.085  0.00  0.00    -0.013 C 
ATOM      9  C4' I4B d   1       5.313   2.092  -0.410  0.00  0.00     0.013 C 
ATOM     10  C3' I4B d   1       3.346   2.173   1.098  0.00  0.00     0.013 C 
ENDBRANCH   7   8
ENDBRANCH   1   7
TORSDOF 2
ENDMDL
