MODEL 1
REMARK minimizedAffinity 0.0495508313
REMARK minimizedRMSD -1
REMARK  0 active torsions:
REMARK  status: ('A' for Active; 'I' for Inactive)
ROOT
ATOM      1  C4' PXY d   1       2.754  -5.566   5.272  0.00  0.00     0.077 C 
ATOM      2  C1' PXY d   1       2.446  -0.464   2.572  0.00  0.00     0.077 C 
ATOM      3  C1  PXY d   1       2.514  -1.801   3.282  0.00  0.00    -0.082 A 
ATOM      4  C2  PXY d   1       3.652  -2.194   3.831  0.00  0.00     0.003 A 
ATOM      5  C3  PXY d   1       3.740  -3.414   4.449  0.00  0.00     0.003 A 
ATOM      6  C4  PXY d   1       2.637  -4.219   4.553  0.00  0.00    -0.082 A 
ATOM      7  C5  PXY d   1       1.469  -3.821   4.005  0.00  0.00     0.003 A 
ATOM      8  C6  PXY d   1       1.412  -2.596   3.346  0.00  0.00     0.003 A 
ENDROOT
TORSDOF 0
ENDMDL
