MODEL 1
REMARK minimizedAffinity 4.62356472
REMARK minimizedRMSD -1
REMARK  0 active torsions:
REMARK  status: ('A' for Active; 'I' for Inactive)
ROOT
ATOM      1  C4' PXY d   1       2.304  -5.730   5.324  0.00  0.00     0.077 C 
ATOM      2  C1' PXY d   1       2.124  -0.787   2.333  0.00  0.00     0.077 C 
ATOM      3  C1  PXY d   1       2.159  -2.085   3.116  0.00  0.00    -0.082 A 
ATOM      4  C2  PXY d   1       3.139  -2.303   3.977  0.00  0.00     0.003 A 
ATOM      5  C3  PXY d   1       3.203  -3.485   4.670  0.00  0.00     0.003 A 
ATOM      6  C4  PXY d   1       2.224  -4.431   4.519  0.00  0.00    -0.082 A 
ATOM      7  C5  PXY d   1       1.215  -4.210   3.650  0.00  0.00     0.003 A 
ATOM      8  C6  PXY d   1       1.191  -3.022   2.925  0.00  0.00     0.003 A 
ENDROOT
TORSDOF 0
ENDMDL
