MODEL 1
REMARK minimizedAffinity 7.56101131
REMARK minimizedRMSD -1
REMARK  0 active torsions:
REMARK  status: ('A' for Active; 'I' for Inactive)
ROOT
ATOM      1  C4' PXY d   1       1.111  -2.229   1.276  0.00  0.00     0.077 C 
ATOM      2  C1' PXY d   1       3.297   2.829   3.023  0.00  0.00     0.077 C 
ATOM      3  C1  PXY d   1       2.729   1.497   2.575  0.00  0.00    -0.082 A 
ATOM      4  C2  PXY d   1       2.473   1.292   1.294  0.00  0.00     0.003 A 
ATOM      5  C3  PXY d   1       1.928   0.105   0.876  0.00  0.00     0.003 A 
ATOM      6  C4  PXY d   1       1.694  -0.903   1.772  0.00  0.00    -0.082 A 
ATOM      7  C5  PXY d   1       1.963  -0.706   3.080  0.00  0.00     0.003 A 
ATOM      8  C6  PXY d   1       2.477   0.521   3.490  0.00  0.00     0.003 A 
ENDROOT
TORSDOF 0
ENDMDL
