MODEL 1
REMARK minimizedAffinity 14.110837
REMARK minimizedRMSD -1
REMARK  0 active torsions:
REMARK  status: ('A' for Active; 'I' for Inactive)
ROOT
ATOM      1  C4' PXY d   1      -6.000   2.973   0.015  0.00  0.00     0.077 C 
ATOM      2  C1' PXY d   1      -2.619   0.118  -3.704  0.00  0.00     0.077 C 
ATOM      3  C1  PXY d   1      -3.516   0.863  -2.736  0.00  0.00    -0.082 A 
ATOM      4  C2  PXY d   1      -3.026   1.873  -2.035  0.00  0.00     0.003 A 
ATOM      5  C3  PXY d   1      -3.815   2.537  -1.131  0.00  0.00     0.003 A 
ATOM      6  C4  PXY d   1      -5.133   2.198  -0.981  0.00  0.00    -0.082 A 
ATOM      7  C5  PXY d   1      -5.643   1.176  -1.700  0.00  0.00     0.003 A 
ATOM      8  C6  PXY d   1      -4.815   0.488  -2.582  0.00  0.00     0.003 A 
ENDROOT
TORSDOF 0
ENDMDL
