MODEL 1
REMARK minimizedAffinity 12.8200197
REMARK minimizedRMSD -1
REMARK  0 active torsions:
REMARK  status: ('A' for Active; 'I' for Inactive)
ROOT
ATOM      1  C4' PXY d   1      -2.559   2.528  -1.393  0.00  0.00     0.077 C 
ATOM      2  C1' PXY d   1      -3.887  -2.260  -4.348  0.00  0.00     0.077 C 
ATOM      3  C1  PXY d   1      -3.545  -0.997  -3.581  0.00  0.00    -0.082 A 
ATOM      4  C2  PXY d   1      -2.468  -0.969  -2.814  0.00  0.00     0.003 A 
ATOM      5  C3  PXY d   1      -2.162   0.154  -2.089  0.00  0.00     0.003 A 
ATOM      6  C4  PXY d   1      -2.937   1.278  -2.192  0.00  0.00    -0.082 A 
ATOM      7  C5  PXY d   1      -4.032   1.260  -2.981  0.00  0.00     0.003 A 
ATOM      8  C6  PXY d   1      -4.349   0.097  -3.677  0.00  0.00     0.003 A 
ENDROOT
TORSDOF 0
ENDMDL
