MODEL 1
REMARK minimizedAffinity 6.73903322
REMARK minimizedRMSD -1
REMARK  0 active torsions:
REMARK  status: ('A' for Active; 'I' for Inactive)
ROOT
ATOM      1  C4' PXY d   1       2.234  -5.999   5.999  0.00  0.00     0.077 C 
ATOM      2  C1' PXY d   1       2.255  -1.128   2.886  0.00  0.00     0.077 C 
ATOM      3  C1  PXY d   1       2.249  -2.413   3.691  0.00  0.00    -0.082 A 
ATOM      4  C2  PXY d   1       1.799  -2.402   4.935  0.00  0.00     0.003 A 
ATOM      5  C3  PXY d   1       1.817  -3.548   5.689  0.00  0.00     0.003 A 
ATOM      6  C4  PXY d   1       2.250  -4.728   5.146  0.00  0.00    -0.082 A 
ATOM      7  C5  PXY d   1       2.701  -4.749   3.873  0.00  0.00     0.003 A 
ATOM      8  C6  PXY d   1       2.713  -3.566   3.139  0.00  0.00     0.003 A 
ENDROOT
TORSDOF 0
ENDMDL
