MODEL 1
REMARK minimizedAffinity -4.64828444
REMARK minimizedRMSD -1
REMARK  0 active torsions:
REMARK  status: ('A' for Active; 'I' for Inactive)
ROOT
ATOM      1  C1  BNZ d   1      -0.077  -1.231   1.220  0.00  0.00     0.000 A 
ATOM      2  C2  BNZ d   1      -0.367  -2.570   1.227  0.00  0.00     0.000 A 
ATOM      3  C3  BNZ d   1      -0.281  -3.310   0.081  0.00  0.00     0.000 A 
ATOM      4  C4  BNZ d   1       0.057  -2.705  -1.076  0.00  0.00     0.000 A 
ATOM      5  C5  BNZ d   1       0.343  -1.354  -1.101  0.00  0.00     0.000 A 
ATOM      6  C6  BNZ d   1       0.293  -0.620   0.062  0.00  0.00     0.000 A 
ENDROOT
TORSDOF 0
ENDMDL
