MODEL 1
REMARK minimizedAffinity -4.87275267
REMARK minimizedRMSD -1
REMARK  0 active torsions:
REMARK  status: ('A' for Active; 'I' for Inactive)
ROOT
ATOM      1  C1  BNZ d   1      -0.878  -0.341   1.335  0.00  0.00     0.000 A 
ATOM      2  C2  BNZ d   1      -0.481   0.589   0.411  0.00  0.00     0.000 A 
ATOM      3  C3  BNZ d   1       0.293   0.229  -0.656  0.00  0.00     0.000 A 
ATOM      4  C4  BNZ d   1       0.701  -1.051  -0.778  0.00  0.00     0.000 A 
ATOM      5  C5  BNZ d   1       0.317  -1.998   0.150  0.00  0.00     0.000 A 
ATOM      6  C6  BNZ d   1      -0.494  -1.640   1.202  0.00  0.00     0.000 A 
ENDROOT
TORSDOF 0
ENDMDL
