MODEL 1
REMARK minimizedAffinity -0.976067245
REMARK minimizedRMSD -1
REMARK  0 active torsions:
REMARK  status: ('A' for Active; 'I' for Inactive)
ROOT
ATOM      1  C1  BNZ d   1      -0.455  -1.481   0.233  0.00  0.00     0.000 A 
ATOM      2  C2  BNZ d   1       0.121  -0.751  -0.773  0.00  0.00     0.000 A 
ATOM      3  C3  BNZ d   1      -0.009   0.609  -0.813  0.00  0.00     0.000 A 
ATOM      4  C4  BNZ d   1      -0.746   1.233   0.129  0.00  0.00     0.000 A 
ATOM      5  C5  BNZ d   1      -1.340   0.510   1.144  0.00  0.00     0.000 A 
ATOM      6  C6  BNZ d   1      -1.175  -0.855   1.203  0.00  0.00     0.000 A 
ENDROOT
TORSDOF 0
ENDMDL
