MODEL 1
REMARK minimizedAffinity -3.80539536
REMARK minimizedRMSD -1
REMARK  0 active torsions:
REMARK  status: ('A' for Active; 'I' for Inactive)
ROOT
ATOM      1  C1  BNZ d   1       0.544  -0.178  -0.511  0.00  0.00     0.000 A 
ATOM      2  C2  BNZ d   1       0.767  -1.517  -0.692  0.00  0.00     0.000 A 
ATOM      3  C3  BNZ d   1       0.147  -2.443   0.099  0.00  0.00     0.000 A 
ATOM      4  C4  BNZ d   1      -0.663  -2.029   1.094  0.00  0.00     0.000 A 
ATOM      5  C5  BNZ d   1      -0.891  -0.682   1.295  0.00  0.00     0.000 A 
ATOM      6  C6  BNZ d   1      -0.296   0.246   0.472  0.00  0.00     0.000 A 
ENDROOT
TORSDOF 0
ENDMDL
