MODEL 1
REMARK minimizedAffinity -3.83871007
REMARK minimizedRMSD -1
REMARK  0 active torsions:
REMARK  status: ('A' for Active; 'I' for Inactive)
ROOT
ATOM      1  C1  BNZ d   1      -0.690  -0.479   0.951  0.00  0.00     0.000 A 
ATOM      2  C2  BNZ d   1      -0.336  -1.796   0.827  0.00  0.00     0.000 A 
ATOM      3  C3  BNZ d   1       0.558  -2.194  -0.128  0.00  0.00     0.000 A 
ATOM      4  C4  BNZ d   1       1.065  -1.282  -0.982  0.00  0.00     0.000 A 
ATOM      5  C5  BNZ d   1       0.711   0.048  -0.876  0.00  0.00     0.000 A 
ATOM      6  C6  BNZ d   1      -0.159   0.451   0.111  0.00  0.00     0.000 A 
ENDROOT
TORSDOF 0
ENDMDL
