MODEL 1
REMARK minimizedAffinity -4.15819025
REMARK minimizedRMSD -1
REMARK  0 active torsions:
REMARK  status: ('A' for Active; 'I' for Inactive)
ROOT
ATOM      1  C1  BNZ d   1      -0.528  -0.713   1.056  0.00  0.00     0.000 A 
ATOM      2  C2  BNZ d   1       0.181  -1.743   0.497  0.00  0.00     0.000 A 
ATOM      3  C3  BNZ d   1       0.787  -1.596  -0.720  0.00  0.00     0.000 A 
ATOM      4  C4  BNZ d   1       0.652  -0.435  -1.392  0.00  0.00     0.000 A 
ATOM      5  C5  BNZ d   1      -0.067   0.610  -0.846  0.00  0.00     0.000 A 
ATOM      6  C6  BNZ d   1      -0.644   0.471   0.396  0.00  0.00     0.000 A 
ENDROOT
TORSDOF 0
ENDMDL
