MODEL 1
REMARK minimizedAffinity -3.27121496
REMARK minimizedRMSD -1
REMARK  0 active torsions:
REMARK  status: ('A' for Active; 'I' for Inactive)
ROOT
ATOM      1  C1  BNZ d   1      -0.946  -0.211   0.152  0.00  0.00     0.000 A 
ATOM      2  C2  BNZ d   1      -0.267  -1.116  -0.620  0.00  0.00     0.000 A 
ATOM      3  C3  BNZ d   1      -0.130  -2.415  -0.217  0.00  0.00     0.000 A 
ATOM      4  C4  BNZ d   1      -0.635  -2.797   0.973  0.00  0.00     0.000 A 
ATOM      5  C5  BNZ d   1      -1.314  -1.894   1.767  0.00  0.00     0.000 A 
ATOM      6  C6  BNZ d   1      -1.484  -0.597   1.340  0.00  0.00     0.000 A 
ENDROOT
TORSDOF 0
ENDMDL
