MODEL 1
REMARK minimizedAffinity -3.65728879
REMARK minimizedRMSD -1
REMARK  0 active torsions:
REMARK  status: ('A' for Active; 'I' for Inactive)
ROOT
ATOM      1  C1  BNZ d   1       0.819  -1.229   1.598  0.00  0.00     0.000 A 
ATOM      2  C2  BNZ d   1       1.042  -2.553   1.329  0.00  0.00     0.000 A 
ATOM      3  C3  BNZ d   1       0.047  -3.342   0.823  0.00  0.00     0.000 A 
ATOM      4  C4  BNZ d   1      -1.179  -2.816   0.624  0.00  0.00     0.000 A 
ATOM      5  C5  BNZ d   1      -1.422  -1.485   0.898  0.00  0.00     0.000 A 
ATOM      6  C6  BNZ d   1      -0.408  -0.685   1.371  0.00  0.00     0.000 A 
ENDROOT
TORSDOF 0
ENDMDL
