MODEL 1
REMARK minimizedAffinity -4.38095522
REMARK minimizedRMSD -1
REMARK  0 active torsions:
REMARK  status: ('A' for Active; 'I' for Inactive)
ROOT
ATOM      1  C1  BNZ d   1      -0.598  -0.746   1.533  0.00  0.00     0.000 A 
ATOM      2  C2  BNZ d   1      -0.424  -2.104   1.507  0.00  0.00     0.000 A 
ATOM      3  C3  BNZ d   1       0.091  -2.723   0.402  0.00  0.00     0.000 A 
ATOM      4  C4  BNZ d   1       0.394  -1.989  -0.688  0.00  0.00     0.000 A 
ATOM      5  C5  BNZ d   1       0.216  -0.620  -0.681  0.00  0.00     0.000 A 
ATOM      6  C6  BNZ d   1      -0.267   0.004   0.446  0.00  0.00     0.000 A 
ENDROOT
TORSDOF 0
ENDMDL
