MODEL 1
REMARK minimizedAffinity -5.01510096
REMARK minimizedRMSD -1
REMARK  0 active torsions:
REMARK  status: ('A' for Active; 'I' for Inactive)
ROOT
ATOM      1  C1  BNZ d   1      -0.196  -3.285  -0.364  0.00  0.00     0.000 A 
ATOM      2  C2  BNZ d   1      -0.375  -2.530   0.765  0.00  0.00     0.000 A 
ATOM      3  C3  BNZ d   1      -0.125  -1.186   0.754  0.00  0.00     0.000 A 
ATOM      4  C4  BNZ d   1       0.341  -0.607  -0.371  0.00  0.00     0.000 A 
ATOM      5  C5  BNZ d   1       0.536  -1.357  -1.514  0.00  0.00     0.000 A 
ATOM      6  C6  BNZ d   1       0.246  -2.702  -1.511  0.00  0.00     0.000 A 
ENDROOT
TORSDOF 0
ENDMDL
