MODEL 1
REMARK minimizedAffinity -0.341240346
REMARK minimizedRMSD -1
REMARK  0 active torsions:
REMARK  status: ('A' for Active; 'I' for Inactive)
ROOT
ATOM      1  C1  BNZ d   1      -0.451  -1.028   1.432  0.00  0.00     0.000 A 
ATOM      2  C2  BNZ d   1      -0.051   0.259   1.185  0.00  0.00     0.000 A 
ATOM      3  C3  BNZ d   1      -0.039   0.755  -0.089  0.00  0.00     0.000 A 
ATOM      4  C4  BNZ d   1      -0.388  -0.045  -1.116  0.00  0.00     0.000 A 
ATOM      5  C5  BNZ d   1      -0.785  -1.347  -0.884  0.00  0.00     0.000 A 
ATOM      6  C6  BNZ d   1      -0.833  -1.832   0.403  0.00  0.00     0.000 A 
ENDROOT
TORSDOF 0
ENDMDL
