MODEL 1
REMARK minimizedAffinity -2.8159883
REMARK minimizedRMSD -1
REMARK  0 active torsions:
REMARK  status: ('A' for Active; 'I' for Inactive)
ROOT
ATOM      1  C1  BNZ d   1      -1.045  -2.028  -0.130  0.00  0.00     0.000 A 
ATOM      2  C2  BNZ d   1      -0.610  -1.142  -1.079  0.00  0.00     0.000 A 
ATOM      3  C3  BNZ d   1      -0.246   0.130  -0.734  0.00  0.00     0.000 A 
ATOM      4  C4  BNZ d   1      -0.356   0.526   0.550  0.00  0.00     0.000 A 
ATOM      5  C5  BNZ d   1      -0.803  -0.352   1.517  0.00  0.00     0.000 A 
ATOM      6  C6  BNZ d   1      -1.131  -1.644   1.173  0.00  0.00     0.000 A 
ENDROOT
TORSDOF 0
ENDMDL
