MODEL 1
REMARK minimizedAffinity -5.34310913
REMARK minimizedRMSD -1
REMARK  0 active torsions:
REMARK  status: ('A' for Active; 'I' for Inactive)
ROOT
ATOM      1  C1  BNZ d   1       0.129  -3.177   0.231  0.00  0.00     0.000 A 
ATOM      2  C2  BNZ d   1      -0.083  -3.570  -1.064  0.00  0.00     0.000 A 
ATOM      3  C3  BNZ d   1       0.277  -2.764  -2.108  0.00  0.00     0.000 A 
ATOM      4  C4  BNZ d   1       0.810  -1.551  -1.856  0.00  0.00     0.000 A 
ATOM      5  C5  BNZ d   1       1.022  -1.137  -0.556  0.00  0.00     0.000 A 
ATOM      6  C6  BNZ d   1       0.695  -1.967   0.492  0.00  0.00     0.000 A 
ENDROOT
TORSDOF 0
ENDMDL
