MODEL 1
REMARK minimizedAffinity -4.46058702
REMARK minimizedRMSD -1
REMARK  0 active torsions:
REMARK  status: ('A' for Active; 'I' for Inactive)
ROOT
ATOM      1  C1  BNZ d   1       0.111  -0.473  -1.173  0.00  0.00     0.000 A 
ATOM      2  C2  BNZ d   1       0.078  -1.815  -1.442  0.00  0.00     0.000 A 
ATOM      3  C3  BNZ d   1      -0.287  -2.714  -0.479  0.00  0.00     0.000 A 
ATOM      4  C4  BNZ d   1      -0.581  -2.273   0.762  0.00  0.00     0.000 A 
ATOM      5  C5  BNZ d   1      -0.544  -0.924   1.051  0.00  0.00     0.000 A 
ATOM      6  C6  BNZ d   1      -0.213  -0.019   0.068  0.00  0.00     0.000 A 
ENDROOT
TORSDOF 0
ENDMDL
