MODEL 1
REMARK minimizedAffinity -4.59498835
REMARK minimizedRMSD -1
REMARK  0 active torsions:
REMARK  status: ('A' for Active; 'I' for Inactive)
ROOT
ATOM      1  C1  BNZ d   1       0.438  -1.944  -1.370  0.00  0.00     0.000 A 
ATOM      2  C2  BNZ d   1       0.408  -0.605  -1.085  0.00  0.00     0.000 A 
ATOM      3  C3  BNZ d   1      -0.022  -0.158   0.133  0.00  0.00     0.000 A 
ATOM      4  C4  BNZ d   1      -0.460  -1.046   1.048  0.00  0.00     0.000 A 
ATOM      5  C5  BNZ d   1      -0.445  -2.399   0.772  0.00  0.00     0.000 A 
ATOM      6  C6  BNZ d   1       0.025  -2.848  -0.440  0.00  0.00     0.000 A 
ENDROOT
TORSDOF 0
ENDMDL
