MODEL 1
REMARK minimizedAffinity -2.81156492
REMARK minimizedRMSD -1
REMARK  0 active torsions:
REMARK  status: ('A' for Active; 'I' for Inactive)
ROOT
ATOM      1  C1  BNZ d   1       0.107  -0.431  -0.857  0.00  0.00     0.000 A 
ATOM      2  C2  BNZ d   1      -0.130  -1.757  -1.108  0.00  0.00     0.000 A 
ATOM      3  C3  BNZ d   1      -0.771  -2.539  -0.188  0.00  0.00     0.000 A 
ATOM      4  C4  BNZ d   1      -1.139  -2.006   0.995  0.00  0.00     0.000 A 
ATOM      5  C5  BNZ d   1      -0.899  -0.673   1.266  0.00  0.00     0.000 A 
ATOM      6  C6  BNZ d   1      -0.288   0.121   0.322  0.00  0.00     0.000 A 
ENDROOT
TORSDOF 0
ENDMDL
