MODEL 1
REMARK minimizedAffinity -4.67176008
REMARK minimizedRMSD -1
REMARK  0 active torsions:
REMARK  status: ('A' for Active; 'I' for Inactive)
ROOT
ATOM      1  C1  BNZ d   1      -1.366  -2.801   0.445  0.00  0.00     0.000 A 
ATOM      2  C2  BNZ d   1      -1.219  -1.452   0.632  0.00  0.00     0.000 A 
ATOM      3  C3  BNZ d   1      -0.163  -0.780   0.084  0.00  0.00     0.000 A 
ATOM      4  C4  BNZ d   1       0.765  -1.463  -0.617  0.00  0.00     0.000 A 
ATOM      5  C5  BNZ d   1       0.636  -2.824  -0.808  0.00  0.00     0.000 A 
ATOM      6  C6  BNZ d   1      -0.449  -3.491  -0.287  0.00  0.00     0.000 A 
ENDROOT
TORSDOF 0
ENDMDL
