MODEL 1
REMARK minimizedAffinity -4.93170786
REMARK minimizedRMSD -1
REMARK  0 active torsions:
REMARK  status: ('A' for Active; 'I' for Inactive)
ROOT
ATOM      1  C1  BNZ d   1      -0.493  -0.290   0.077  0.00  0.00     0.000 A 
ATOM      2  C2  BNZ d   1      -0.878  -1.055   1.145  0.00  0.00     0.000 A 
ATOM      3  C3  BNZ d   1      -0.778  -2.418   1.103  0.00  0.00     0.000 A 
ATOM      4  C4  BNZ d   1      -0.331  -3.015  -0.021  0.00  0.00     0.000 A 
ATOM      5  C5  BNZ d   1       0.053  -2.258  -1.110  0.00  0.00     0.000 A 
ATOM      6  C6  BNZ d   1      -0.013  -0.885  -1.049  0.00  0.00     0.000 A 
ENDROOT
TORSDOF 0
ENDMDL
