MODEL 1
REMARK minimizedAffinity 5.68897486
REMARK minimizedRMSD -1
REMARK  0 active torsions:
REMARK  status: ('A' for Active; 'I' for Inactive)
ROOT
ATOM      1  C1  BNZ d   1       6.000  -3.313  -0.585  0.00  0.00     0.000 A 
ATOM      2  C2  BNZ d   1       5.999  -3.660   0.740  0.00  0.00     0.000 A 
ATOM      3  C3  BNZ d   1       5.557  -4.889   1.141  0.00  0.00     0.000 A 
ATOM      4  C4  BNZ d   1       5.079  -5.754   0.224  0.00  0.00     0.000 A 
ATOM      5  C5  BNZ d   1       5.064  -5.416  -1.115  0.00  0.00     0.000 A 
ATOM      6  C6  BNZ d   1       5.546  -4.192  -1.519  0.00  0.00     0.000 A 
ENDROOT
TORSDOF 0
ENDMDL
