MODEL 1
REMARK minimizedAffinity -3.07156992
REMARK minimizedRMSD -1
REMARK  0 active torsions:
REMARK  status: ('A' for Active; 'I' for Inactive)
ROOT
ATOM      1  C1  BNZ d   1      -0.328   1.164  -0.478  0.00  0.00     0.000 A 
ATOM      2  C2  BNZ d   1      -1.343   1.823   0.165  0.00  0.00     0.000 A 
ATOM      3  C3  BNZ d   1      -1.706   1.478   1.436  0.00  0.00     0.000 A 
ATOM      4  C4  BNZ d   1      -1.084   0.450   2.048  0.00  0.00     0.000 A 
ATOM      5  C5  BNZ d   1      -0.065  -0.230   1.410  0.00  0.00     0.000 A 
ATOM      6  C6  BNZ d   1       0.324   0.146   0.145  0.00  0.00     0.000 A 
ENDROOT
TORSDOF 0
ENDMDL
