MODEL 1
REMARK minimizedAffinity -4.43918133
REMARK minimizedRMSD -1
REMARK  0 active torsions:
REMARK  status: ('A' for Active; 'I' for Inactive)
ROOT
ATOM      1  C1  BNZ d   1      -0.554   2.484  -1.052  0.00  0.00     0.000 A 
ATOM      2  C2  BNZ d   1      -1.073   3.451  -0.233  0.00  0.00     0.000 A 
ATOM      3  C3  BNZ d   1      -1.460   3.153   1.044  0.00  0.00     0.000 A 
ATOM      4  C4  BNZ d   1      -1.366   1.882   1.486  0.00  0.00     0.000 A 
ATOM      5  C5  BNZ d   1      -0.854   0.894   0.668  0.00  0.00     0.000 A 
ATOM      6  C6  BNZ d   1      -0.429   1.206  -0.603  0.00  0.00     0.000 A 
ENDROOT
TORSDOF 0
ENDMDL
