MODEL 1
REMARK minimizedAffinity -3.94905758
REMARK minimizedRMSD -1
REMARK  0 active torsions:
REMARK  status: ('A' for Active; 'I' for Inactive)
ROOT
ATOM      1  C1  BNZ d   1      -0.150  -0.351   1.521  0.00  0.00     0.000 A 
ATOM      2  C2  BNZ d   1       0.307  -0.343   0.230  0.00  0.00     0.000 A 
ATOM      3  C3  BNZ d   1      -0.107   0.614  -0.653  0.00  0.00     0.000 A 
ATOM      4  C4  BNZ d   1      -1.006   1.538  -0.256  0.00  0.00     0.000 A 
ATOM      5  C5  BNZ d   1      -1.484   1.537   1.039  0.00  0.00     0.000 A 
ATOM      6  C6  BNZ d   1      -1.035   0.595   1.936  0.00  0.00     0.000 A 
ENDROOT
TORSDOF 0
ENDMDL
