MODEL 1
REMARK minimizedAffinity -3.58468366
REMARK minimizedRMSD -1
REMARK  0 active torsions:
REMARK  status: ('A' for Active; 'I' for Inactive)
ROOT
ATOM      1  C1  BNZ d   1       0.060  -0.268   0.845  0.00  0.00     0.000 A 
ATOM      2  C2  BNZ d   1      -0.908   0.700   0.895  0.00  0.00     0.000 A 
ATOM      3  C3  BNZ d   1      -1.029   1.622  -0.107  0.00  0.00     0.000 A 
ATOM      4  C4  BNZ d   1      -0.160   1.599  -1.137  0.00  0.00     0.000 A 
ATOM      5  C5  BNZ d   1       0.827   0.635  -1.198  0.00  0.00     0.000 A 
ATOM      6  C6  BNZ d   1       0.922  -0.314  -0.207  0.00  0.00     0.000 A 
ENDROOT
TORSDOF 0
ENDMDL
