MODEL 1
REMARK minimizedAffinity -3.2527585
REMARK minimizedRMSD -1
REMARK  0 active torsions:
REMARK  status: ('A' for Active; 'I' for Inactive)
ROOT
ATOM      1  C1  BNZ d   1      -0.902   1.426   1.649  0.00  0.00     0.000 A 
ATOM      2  C2  BNZ d   1      -0.529   2.521   0.917  0.00  0.00     0.000 A 
ATOM      3  C3  BNZ d   1       0.194   2.381  -0.234  0.00  0.00     0.000 A 
ATOM      4  C4  BNZ d   1       0.577   1.150  -0.630  0.00  0.00     0.000 A 
ATOM      5  C5  BNZ d   1       0.218   0.036   0.103  0.00  0.00     0.000 A 
ATOM      6  C6  BNZ d   1      -0.543   0.179   1.240  0.00  0.00     0.000 A 
ENDROOT
TORSDOF 0
ENDMDL
