MODEL 1
REMARK minimizedAffinity -2.12938833
REMARK minimizedRMSD -1
REMARK  0 active torsions:
REMARK  status: ('A' for Active; 'I' for Inactive)
ROOT
ATOM      1  C1  BNZ d   1      -0.208  -0.518   0.406  0.00  0.00     0.000 A 
ATOM      2  C2  BNZ d   1      -0.318   0.799   0.049  0.00  0.00     0.000 A 
ATOM      3  C3  BNZ d   1      -0.798   1.726   0.932  0.00  0.00     0.000 A 
ATOM      4  C4  BNZ d   1      -1.204   1.328   2.155  0.00  0.00     0.000 A 
ATOM      5  C5  BNZ d   1      -1.108   0.002   2.526  0.00  0.00     0.000 A 
ATOM      6  C6  BNZ d   1      -0.588  -0.922   1.649  0.00  0.00     0.000 A 
ENDROOT
TORSDOF 0
ENDMDL
