MODEL 1
REMARK minimizedAffinity -4.92317867
REMARK minimizedRMSD -1
REMARK  0 active torsions:
REMARK  status: ('A' for Active; 'I' for Inactive)
ROOT
ATOM      1  C1  BNZ d   1      -0.599  -0.070   1.007  0.00  0.00     0.000 A 
ATOM      2  C2  BNZ d   1      -0.597   0.357  -0.294  0.00  0.00     0.000 A 
ATOM      3  C3  BNZ d   1      -1.016   1.616  -0.619  0.00  0.00     0.000 A 
ATOM      4  C4  BNZ d   1      -1.475   2.433   0.352  0.00  0.00     0.000 A 
ATOM      5  C5  BNZ d   1      -1.492   2.014   1.667  0.00  0.00     0.000 A 
ATOM      6  C6  BNZ d   1      -1.032   0.759   1.995  0.00  0.00     0.000 A 
ENDROOT
TORSDOF 0
ENDMDL
