MODEL 1
REMARK minimizedAffinity 3.54942441
REMARK minimizedRMSD -1
REMARK  0 active torsions:
REMARK  status: ('A' for Active; 'I' for Inactive)
ROOT
ATOM      1  C1  BNZ d   1      -0.129  -0.231   0.745  0.00  0.00     0.000 A 
ATOM      2  C2  BNZ d   1      -0.799  -0.215   1.940  0.00  0.00     0.000 A 
ATOM      3  C3  BNZ d   1      -1.060   0.963   2.580  0.00  0.00     0.000 A 
ATOM      4  C4  BNZ d   1      -0.618   2.120   2.047  0.00  0.00     0.000 A 
ATOM      5  C5  BNZ d   1       0.067   2.120   0.848  0.00  0.00     0.000 A 
ATOM      6  C6  BNZ d   1       0.295   0.935   0.187  0.00  0.00     0.000 A 
ENDROOT
TORSDOF 0
ENDMDL
