MODEL 1
REMARK minimizedAffinity 0.170320064
REMARK minimizedRMSD -1
REMARK  0 active torsions:
REMARK  status: ('A' for Active; 'I' for Inactive)
ROOT
ATOM      1  C1  BNZ d   1      -0.368   2.015   1.613  0.00  0.00     0.000 A 
ATOM      2  C2  BNZ d   1      -0.294   1.529   0.335  0.00  0.00     0.000 A 
ATOM      3  C3  BNZ d   1      -0.624   0.232   0.060  0.00  0.00     0.000 A 
ATOM      4  C4  BNZ d   1      -0.988  -0.588   1.067  0.00  0.00     0.000 A 
ATOM      5  C5  BNZ d   1      -1.059  -0.116   2.362  0.00  0.00     0.000 A 
ATOM      6  C6  BNZ d   1      -0.764   1.201   2.630  0.00  0.00     0.000 A 
ENDROOT
TORSDOF 0
ENDMDL
