MODEL 1
REMARK minimizedAffinity -3.84854913
REMARK minimizedRMSD -1
REMARK  0 active torsions:
REMARK  status: ('A' for Active; 'I' for Inactive)
ROOT
ATOM      1  C1  BNZ d   1      -1.960  -0.427   0.569  0.00  0.00     0.000 A 
ATOM      2  C2  BNZ d   1      -1.064  -0.452  -0.466  0.00  0.00     0.000 A 
ATOM      3  C3  BNZ d   1       0.001   0.405  -0.491  0.00  0.00     0.000 A 
ATOM      4  C4  BNZ d   1       0.146   1.311   0.497  0.00  0.00     0.000 A 
ATOM      5  C5  BNZ d   1      -0.755   1.356   1.543  0.00  0.00     0.000 A 
ATOM      6  C6  BNZ d   1      -1.803   0.466   1.585  0.00  0.00     0.000 A 
ENDROOT
TORSDOF 0
ENDMDL
