MODEL 1
REMARK minimizedAffinity -3.58487177
REMARK minimizedRMSD -1
REMARK  0 active torsions:
REMARK  status: ('A' for Active; 'I' for Inactive)
ROOT
ATOM      1  C1  BNZ d   1      -1.085   0.553   1.949  0.00  0.00     0.000 A 
ATOM      2  C2  BNZ d   1      -0.386  -0.562   1.568  0.00  0.00     0.000 A 
ATOM      3  C3  BNZ d   1       0.378  -0.556   0.435  0.00  0.00     0.000 A 
ATOM      4  C4  BNZ d   1       0.410   0.549  -0.338  0.00  0.00     0.000 A 
ATOM      5  C5  BNZ d   1      -0.296   1.678   0.027  0.00  0.00     0.000 A 
ATOM      6  C6  BNZ d   1      -1.033   1.681   1.190  0.00  0.00     0.000 A 
ENDROOT
TORSDOF 0
ENDMDL
