MODEL 1
REMARK minimizedAffinity -4.3999877
REMARK minimizedRMSD -1
REMARK  0 active torsions:
REMARK  status: ('A' for Active; 'I' for Inactive)
ROOT
ATOM      1  C1  BNZ d   1      -0.226   0.136   1.587  0.00  0.00     0.000 A 
ATOM      2  C2  BNZ d   1      -0.020   0.111   0.234  0.00  0.00     0.000 A 
ATOM      3  C3  BNZ d   1      -0.502   1.109  -0.566  0.00  0.00     0.000 A 
ATOM      4  C4  BNZ d   1      -1.223   2.108  -0.018  0.00  0.00     0.000 A 
ATOM      5  C5  BNZ d   1      -1.447   2.143   1.344  0.00  0.00     0.000 A 
ATOM      6  C6  BNZ d   1      -0.927   1.157   2.151  0.00  0.00     0.000 A 
ENDROOT
TORSDOF 0
ENDMDL
