MODEL 1
REMARK minimizedAffinity -3.23701286
REMARK minimizedRMSD -1
REMARK  0 active torsions:
REMARK  status: ('A' for Active; 'I' for Inactive)
ROOT
ATOM      1  C1  DEN d   1      -1.785  -0.324  -0.288  0.00  0.00     0.130 A 
ATOM      2  C2  DEN d   1      -0.763  -0.236  -1.328  0.00  0.00    -0.031 A 
ATOM      3  C3  DEN d   1       0.405   0.468  -0.762  0.00  0.00     0.027 A 
ATOM      4  C4  DEN d   1       0.731   1.419   1.613  0.00  0.00     0.027 A 
ATOM      5  C5  DEN d   1       0.137   1.595   2.844  0.00  0.00    -0.003 A 
ATOM      6  C6  DEN d   1      -1.141   1.177   3.104  0.00  0.00     0.001 A 
ATOM      7  C7  DEN d   1      -1.851   0.521   2.133  0.00  0.00     0.017 A 
ATOM      8  C8  DEN d   1      -1.262   0.347   0.888  0.00  0.00    -0.094 A 
ATOM      9  C9  DEN d   1       0.036   0.766   0.648  0.00  0.00    -0.072 A 
ENDROOT
TORSDOF 0
ENDMDL
