MODEL 1
REMARK minimizedAffinity -4.23409748
REMARK minimizedRMSD -1
REMARK  0 active torsions:
REMARK  status: ('A' for Active; 'I' for Inactive)
ROOT
ATOM      1  C1  DEN d   1      -1.427  -0.674  -0.208  0.00  0.00     0.130 A 
ATOM      2  C2  DEN d   1      -0.339  -0.764  -1.178  0.00  0.00    -0.031 A 
ATOM      3  C3  DEN d   1       0.846  -0.103  -0.596  0.00  0.00     0.027 A 
ATOM      4  C4  DEN d   1       1.103   1.040   1.701  0.00  0.00     0.027 A 
ATOM      5  C5  DEN d   1       0.451   1.377   2.867  0.00  0.00    -0.003 A 
ATOM      6  C6  DEN d   1      -0.872   1.086   3.073  0.00  0.00     0.001 A 
ATOM      7  C7  DEN d   1      -1.573   0.399   2.118  0.00  0.00     0.017 A 
ATOM      8  C8  DEN d   1      -0.924   0.063   0.937  0.00  0.00    -0.094 A 
ATOM      9  C9  DEN d   1       0.417   0.355   0.752  0.00  0.00    -0.072 A 
ENDROOT
TORSDOF 0
ENDMDL
