MODEL 1
REMARK minimizedAffinity -3.98498917
REMARK minimizedRMSD -1
REMARK  0 active torsions:
REMARK  status: ('A' for Active; 'I' for Inactive)
ROOT
ATOM      1  C1  DEN d   1       0.200   0.372   2.664  0.00  0.00     0.130 A 
ATOM      2  C2  DEN d   1      -0.862   1.201   3.227  0.00  0.00    -0.031 A 
ATOM      3  C3  DEN d   1      -1.659   1.744   2.108  0.00  0.00     0.027 A 
ATOM      4  C4  DEN d   1      -1.355   1.378  -0.427  0.00  0.00     0.027 A 
ATOM      5  C5  DEN d   1      -0.584   0.761  -1.388  0.00  0.00    -0.003 A 
ATOM      6  C6  DEN d   1       0.513   0.005  -1.070  0.00  0.00     0.001 A 
ATOM      7  C7  DEN d   1       0.844  -0.190   0.245  0.00  0.00     0.017 A 
ATOM      8  C8  DEN d   1       0.076   0.434   1.219  0.00  0.00    -0.094 A 
ATOM      9  C9  DEN d   1      -1.036   1.184   0.878  0.00  0.00    -0.072 A 
ENDROOT
TORSDOF 0
ENDMDL
