MODEL 1
REMARK minimizedAffinity -5.97325563
REMARK minimizedRMSD -1
REMARK  0 active torsions:
REMARK  status: ('A' for Active; 'I' for Inactive)
ROOT
ATOM      1  C1  DEN d   1       0.768  -1.249  -0.579  0.00  0.00     0.130 A 
ATOM      2  C2  DEN d   1       1.086  -0.641  -1.868  0.00  0.00    -0.031 A 
ATOM      3  C3  DEN d   1       0.590   0.749  -1.853  0.00  0.00     0.027 A 
ATOM      4  C4  DEN d   1      -0.630   2.016   0.034  0.00  0.00     0.027 A 
ATOM      5  C5  DEN d   1      -1.134   1.913   1.312  0.00  0.00    -0.003 A 
ATOM      6  C6  DEN d   1      -1.070   0.748   2.030  0.00  0.00     0.001 A 
ATOM      7  C7  DEN d   1      -0.449  -0.348   1.493  0.00  0.00     0.017 A 
ATOM      8  C8  DEN d   1       0.055  -0.254   0.202  0.00  0.00    -0.094 A 
ATOM      9  C9  DEN d   1      -0.009   0.936  -0.503  0.00  0.00    -0.072 A 
ENDROOT
TORSDOF 0
ENDMDL
