MODEL 1
REMARK minimizedAffinity -4.5883584
REMARK minimizedRMSD -1
REMARK  0 active torsions:
REMARK  status: ('A' for Active; 'I' for Inactive)
ROOT
ATOM      1  C1  DEN d   1       0.645   0.080   3.535  0.00  0.00     0.130 A 
ATOM      2  C2  DEN d   1       1.811  -0.660   3.062  0.00  0.00    -0.031 A 
ATOM      3  C3  DEN d   1       1.608  -0.967   1.632  0.00  0.00     0.027 A 
ATOM      4  C4  DEN d   1      -0.387  -0.368   0.111  0.00  0.00     0.027 A 
ATOM      5  C5  DEN d   1      -1.620   0.245   0.066  0.00  0.00    -0.003 A 
ATOM      6  C6  DEN d   1      -2.195   0.811   1.173  0.00  0.00     0.001 A 
ATOM      7  C7  DEN d   1      -1.516   0.816   2.363  0.00  0.00     0.017 A 
ATOM      8  C8  DEN d   1      -0.276   0.194   2.418  0.00  0.00    -0.094 A 
ATOM      9  C9  DEN d   1       0.294  -0.362   1.285  0.00  0.00    -0.072 A 
ENDROOT
TORSDOF 0
ENDMDL
