MODEL 1
REMARK minimizedAffinity 8.84311104
REMARK minimizedRMSD -1
REMARK  0 active torsions:
REMARK  status: ('A' for Active; 'I' for Inactive)
ROOT
ATOM      1  C   UNL d   1       0.437   5.346  -1.475  0.00  0.00     0.077 C 
ATOM      2  C1  UNL d   1       0.244   4.164  -0.571  0.00  0.00    -0.074 A 
ATOM      3  C2  UNL d   1       0.038   4.336   0.802  0.00  0.00    -0.005 A 
ATOM      4  C3  UNL d   1      -0.150   3.228   1.628  0.00  0.00     0.006 A 
ATOM      5  C4  UNL d   1      -0.134   1.940   1.092  0.00  0.00    -0.005 A 
ATOM      6  C5  UNL d   1       0.069   1.749  -0.279  0.00  0.00    -0.074 A 
ATOM      7  C6  UNL d   1       0.079   0.372  -0.873  0.00  0.00     0.077 C 
ATOM      8  C7  UNL d   1       0.250   2.868  -1.104  0.00  0.00    -0.001 A 
ENDROOT
TORSDOF 0
ENDMDL
