MODEL 1
REMARK minimizedAffinity 12.8942699
REMARK minimizedRMSD -1
REMARK  0 active torsions:
REMARK  status: ('A' for Active; 'I' for Inactive)
ROOT
ATOM      1  C   UNL d   1       0.715   2.898   1.224  0.00  0.00     0.077 C 
ATOM      2  C1  UNL d   1      -0.030   2.061   2.221  0.00  0.00    -0.074 A 
ATOM      3  C2  UNL d   1      -1.412   2.196   2.383  0.00  0.00    -0.005 A 
ATOM      4  C3  UNL d   1      -2.093   1.405   3.307  0.00  0.00     0.006 A 
ATOM      5  C4  UNL d   1      -1.400   0.472   4.079  0.00  0.00    -0.005 A 
ATOM      6  C5  UNL d   1      -0.017   0.322   3.931  0.00  0.00    -0.074 A 
ATOM      7  C6  UNL d   1       0.742  -0.683   4.745  0.00  0.00     0.077 C 
ATOM      8  C7  UNL d   1       0.659   1.116   2.995  0.00  0.00    -0.001 A 
ENDROOT
TORSDOF 0
ENDMDL
