MODEL 1
REMARK minimizedAffinity 8.11537075
REMARK minimizedRMSD -1
REMARK  0 active torsions:
REMARK  status: ('A' for Active; 'I' for Inactive)
ROOT
ATOM      1  C   UNL d   1       3.161  -2.250   3.699  0.00  0.00     0.077 C 
ATOM      2  C1  UNL d   1       2.012  -1.300   3.868  0.00  0.00    -0.074 A 
ATOM      3  C2  UNL d   1       1.004  -1.551   4.804  0.00  0.00    -0.005 A 
ATOM      4  C3  UNL d   1      -0.053  -0.654   4.957  0.00  0.00     0.006 A 
ATOM      5  C4  UNL d   1      -0.112   0.501   4.176  0.00  0.00    -0.005 A 
ATOM      6  C5  UNL d   1       0.888   0.770   3.236  0.00  0.00    -0.074 A 
ATOM      7  C6  UNL d   1       0.845   2.012   2.397  0.00  0.00     0.077 C 
ATOM      8  C7  UNL d   1       1.950  -0.133   3.094  0.00  0.00    -0.001 A 
ENDROOT
TORSDOF 0
ENDMDL
