MODEL 1
REMARK minimizedAffinity 11.3412228
REMARK minimizedRMSD -1
REMARK  0 active torsions:
REMARK  status: ('A' for Active; 'I' for Inactive)
ROOT
ATOM      1  C   UNL d   1       2.161   3.145   2.202  0.00  0.00     0.077 C 
ATOM      2  C1  UNL d   1       1.189   2.295   2.965  0.00  0.00    -0.074 A 
ATOM      3  C2  UNL d   1      -0.178   2.591   2.966  0.00  0.00    -0.005 A 
ATOM      4  C3  UNL d   1      -1.071   1.786   3.673  0.00  0.00     0.006 A 
ATOM      5  C4  UNL d   1      -0.608   0.679   4.384  0.00  0.00    -0.005 A 
ATOM      6  C5  UNL d   1       0.755   0.366   4.393  0.00  0.00    -0.074 A 
ATOM      7  C6  UNL d   1       1.269  -0.827   5.143  0.00  0.00     0.077 C 
ATOM      8  C7  UNL d   1       1.646   1.176   3.675  0.00  0.00    -0.001 A 
ENDROOT
TORSDOF 0
ENDMDL
