MODEL 1
REMARK minimizedAffinity 11.8846216
REMARK minimizedRMSD -1
REMARK  0 active torsions:
REMARK  status: ('A' for Active; 'I' for Inactive)
ROOT
ATOM      1  C   UNL d   1       0.773   5.989  -2.085  0.00  0.00     0.077 C 
ATOM      2  C1  UNL d   1       0.314   5.283  -0.844  0.00  0.00    -0.074 A 
ATOM      3  C2  UNL d   1       0.756   3.990  -0.547  0.00  0.00    -0.005 A 
ATOM      4  C3  UNL d   1       0.328   3.350   0.616  0.00  0.00     0.006 A 
ATOM      5  C4  UNL d   1      -0.546   3.995   1.492  0.00  0.00    -0.005 A 
ATOM      6  C5  UNL d   1      -0.999   5.288   1.212  0.00  0.00    -0.074 A 
ATOM      7  C6  UNL d   1      -1.930   5.999   2.148  0.00  0.00     0.077 C 
ATOM      8  C7  UNL d   1      -0.558   5.927   0.045  0.00  0.00    -0.001 A 
ENDROOT
TORSDOF 0
ENDMDL
