MODEL 1
REMARK minimizedAffinity 7.85375118
REMARK minimizedRMSD -1
REMARK  0 active torsions:
REMARK  status: ('A' for Active; 'I' for Inactive)
ROOT
ATOM      1  C   UNL d   1      -1.956   5.336  -1.852  0.00  0.00     0.077 C 
ATOM      2  C1  UNL d   1      -0.723   5.160  -1.016  0.00  0.00    -0.074 A 
ATOM      3  C2  UNL d   1       0.383   5.999  -1.183  0.00  0.00    -0.005 A 
ATOM      4  C3  UNL d   1       1.519   5.830  -0.391  0.00  0.00     0.006 A 
ATOM      5  C4  UNL d   1       1.560   4.821   0.572  0.00  0.00    -0.005 A 
ATOM      6  C5  UNL d   1       0.463   3.973   0.753  0.00  0.00    -0.074 A 
ATOM      7  C6  UNL d   1       0.487   2.891   1.791  0.00  0.00     0.077 C 
ATOM      8  C7  UNL d   1      -0.678   4.154  -0.041  0.00  0.00    -0.001 A 
ENDROOT
TORSDOF 0
ENDMDL
