MODEL 1
REMARK minimizedAffinity 9.13953018
REMARK minimizedRMSD -1
REMARK  0 active torsions:
REMARK  status: ('A' for Active; 'I' for Inactive)
ROOT
ATOM      1  C   UNL d   1       0.688   1.850   0.434  0.00  0.00     0.077 C 
ATOM      2  C1  UNL d   1       0.389   3.298   0.184  0.00  0.00    -0.074 A 
ATOM      3  C2  UNL d   1       1.056   4.007  -0.820  0.00  0.00    -0.005 A 
ATOM      4  C3  UNL d   1       0.761   5.351  -1.047  0.00  0.00     0.006 A 
ATOM      5  C4  UNL d   1      -0.204   5.999  -0.275  0.00  0.00    -0.005 A 
ATOM      6  C5  UNL d   1      -0.883   5.306   0.733  0.00  0.00    -0.074 A 
ATOM      7  C6  UNL d   1      -1.930   5.984   1.565  0.00  0.00     0.077 C 
ATOM      8  C7  UNL d   1      -0.585   3.954   0.951  0.00  0.00    -0.001 A 
ENDROOT
TORSDOF 0
ENDMDL
