MODEL 1
REMARK minimizedAffinity 10.4276752
REMARK minimizedRMSD -1
REMARK  0 active torsions:
REMARK  status: ('A' for Active; 'I' for Inactive)
ROOT
ATOM      1  C   UNL d   1       0.883   2.829   1.890  0.00  0.00     0.077 C 
ATOM      2  C1  UNL d   1       0.630   3.941   0.916  0.00  0.00    -0.074 A 
ATOM      3  C2  UNL d   1       1.674   4.758   0.470  0.00  0.00    -0.005 A 
ATOM      4  C3  UNL d   1       1.425   5.782  -0.443  0.00  0.00     0.006 A 
ATOM      5  C4  UNL d   1       0.131   6.000  -0.919  0.00  0.00    -0.005 A 
ATOM      6  C5  UNL d   1      -0.925   5.193  -0.485  0.00  0.00    -0.074 A 
ATOM      7  C6  UNL d   1      -2.320   5.407  -0.994  0.00  0.00     0.077 C 
ATOM      8  C7  UNL d   1      -0.665   4.161   0.427  0.00  0.00    -0.001 A 
ENDROOT
TORSDOF 0
ENDMDL
