MODEL 1
REMARK minimizedAffinity 11.465848
REMARK minimizedRMSD -1
REMARK  0 active torsions:
REMARK  status: ('A' for Active; 'I' for Inactive)
ROOT
ATOM      1  C   UNL d   1       2.956   3.637   2.886  0.00  0.00     0.077 C 
ATOM      2  C1  UNL d   1       1.842   3.655   1.881  0.00  0.00    -0.074 A 
ATOM      3  C2  UNL d   1       0.678   2.908   2.084  0.00  0.00    -0.005 A 
ATOM      4  C3  UNL d   1      -0.353   2.942   1.146  0.00  0.00     0.006 A 
ATOM      5  C4  UNL d   1      -0.230   3.723  -0.005  0.00  0.00    -0.005 A 
ATOM      6  C5  UNL d   1       0.926   4.477  -0.225  0.00  0.00    -0.074 A 
ATOM      7  C6  UNL d   1       1.070   5.329  -1.451  0.00  0.00     0.077 C 
ATOM      8  C7  UNL d   1       1.955   4.443   0.727  0.00  0.00    -0.001 A 
ENDROOT
TORSDOF 0
ENDMDL
