MODEL 1
REMARK minimizedAffinity 10.3472681
REMARK minimizedRMSD -1
REMARK  0 active torsions:
REMARK  status: ('A' for Active; 'I' for Inactive)
ROOT
ATOM      1  C   UNL d   1       2.625  -0.745  -0.368  0.00  0.00     0.077 C 
ATOM      2  C1  UNL d   1       1.330   0.011  -0.326  0.00  0.00    -0.074 A 
ATOM      3  C2  UNL d   1       0.145  -0.568  -0.791  0.00  0.00    -0.005 A 
ATOM      4  C3  UNL d   1      -1.054   0.144  -0.736  0.00  0.00     0.006 A 
ATOM      5  C4  UNL d   1      -1.079   1.439  -0.218  0.00  0.00    -0.005 A 
ATOM      6  C5  UNL d   1       0.096   2.033   0.253  0.00  0.00    -0.074 A 
ATOM      7  C6  UNL d   1       0.085   3.421   0.822  0.00  0.00     0.077 C 
ATOM      8  C7  UNL d   1       1.295   1.309   0.201  0.00  0.00    -0.001 A 
ENDROOT
TORSDOF 0
ENDMDL
