MODEL 1
REMARK minimizedAffinity -4.65872717
REMARK minimizedRMSD -1
REMARK  1 active torsions:
REMARK  status: ('A' for Active; 'I' for Inactive)
REMARK    1  A    between atoms: C1_2  and  C2_3 
ROOT
ATOM      1  C2  UNL d   1      -0.173  -0.565   0.411  0.00  0.00    -0.073 A 
ATOM      2  C3  UNL d   1      -0.768  -1.617   1.116  0.00  0.00    -0.002 A 
ATOM      3  C4  UNL d   1      -0.775  -2.907   0.584  0.00  0.00     0.004 A 
ATOM      4  C5  UNL d   1      -0.181  -3.160  -0.652  0.00  0.00    -0.004 A 
ATOM      5  C6  UNL d   1       0.429  -2.123  -1.366  0.00  0.00    -0.075 A 
ATOM      6  C7  UNL d   1       1.070  -2.378  -2.699  0.00  0.00     0.076 C 
ATOM      7  C8  UNL d   1       0.429  -0.830  -0.827  0.00  0.00     0.001 A 
ENDROOT
BRANCH   1   8
ATOM      8  C1  UNL d   1      -0.158   0.829   0.984  0.00  0.00     0.053 C 
ATOM      9  C   UNL d   1       0.007   1.887  -0.095  0.00  0.00     0.018 C 
ENDBRANCH   1   8
TORSDOF 1
ENDMDL
