MODEL 1
REMARK minimizedAffinity -6.55445194
REMARK minimizedRMSD -1
REMARK  1 active torsions:
REMARK  status: ('A' for Active; 'I' for Inactive)
REMARK    1  A    between atoms: C1_2  and  C2_3 
ROOT
ATOM      1  C2  UNL d   1      -0.209   0.300   0.082  0.00  0.00    -0.073 A 
ATOM      2  C3  UNL d   1      -1.073  -0.242   1.040  0.00  0.00    -0.002 A 
ATOM      3  C4  UNL d   1      -1.335  -1.613   1.057  0.00  0.00     0.004 A 
ATOM      4  C5  UNL d   1      -0.732  -2.455   0.123  0.00  0.00    -0.004 A 
ATOM      5  C6  UNL d   1       0.143  -1.933  -0.835  0.00  0.00    -0.075 A 
ATOM      6  C7  UNL d   1       0.798  -2.825  -1.848  0.00  0.00     0.076 C 
ATOM      7  C8  UNL d   1       0.399  -0.556  -0.848  0.00  0.00     0.001 A 
ENDROOT
BRANCH   1   8
ATOM      8  C1  UNL d   1       0.082   1.778   0.063  0.00  0.00     0.053 C 
ATOM      9  C   UNL d   1       1.559   2.066  -0.150  0.00  0.00     0.018 C 
ENDBRANCH   1   8
TORSDOF 1
ENDMDL
