MODEL 1
REMARK minimizedAffinity -5.84531403
REMARK minimizedRMSD -1
REMARK  1 active torsions:
REMARK  status: ('A' for Active; 'I' for Inactive)
REMARK    1  A    between atoms: C1_2  and  C2_3 
ROOT
ATOM      1  C2  UNL d   1      -0.464  -1.772  -0.537  0.00  0.00    -0.073 A 
ATOM      2  C3  UNL d   1      -1.298  -1.853   0.584  0.00  0.00    -0.002 A 
ATOM      3  C4  UNL d   1      -1.568  -0.715   1.345  0.00  0.00     0.004 A 
ATOM      4  C5  UNL d   1      -1.015   0.515   0.990  0.00  0.00    -0.004 A 
ATOM      5  C6  UNL d   1      -0.188   0.618  -0.134  0.00  0.00    -0.075 A 
ATOM      6  C7  UNL d   1       0.417   1.934  -0.528  0.00  0.00     0.076 C 
ATOM      7  C8  UNL d   1       0.081  -0.529  -0.892  0.00  0.00     0.001 A 
ENDROOT
BRANCH   1   8
ATOM      8  C1  UNL d   1      -0.174  -2.997  -1.366  0.00  0.00     0.053 C 
ATOM      9  C   UNL d   1      -0.100  -2.676  -2.850  0.00  0.00     0.018 C 
ENDBRANCH   1   8
TORSDOF 1
ENDMDL
