MODEL 1
REMARK minimizedAffinity -2.32332015
REMARK minimizedRMSD -1
REMARK  1 active torsions:
REMARK  status: ('A' for Active; 'I' for Inactive)
REMARK    1  A    between atoms: C1_2  and  C2_3 
ROOT
ATOM      1  C2  UNL d   1      -0.456   0.037  -0.094  0.00  0.00    -0.073 A 
ATOM      2  C3  UNL d   1      -1.078  -0.818   0.824  0.00  0.00    -0.002 A 
ATOM      3  C4  UNL d   1      -1.336  -2.147   0.485  0.00  0.00     0.004 A 
ATOM      4  C5  UNL d   1      -0.971  -2.636  -0.769  0.00  0.00    -0.004 A 
ATOM      5  C6  UNL d   1      -0.339  -1.801  -1.695  0.00  0.00    -0.075 A 
ATOM      6  C7  UNL d   1       0.059  -2.311  -3.049  0.00  0.00     0.076 C 
ATOM      7  C8  UNL d   1      -0.085  -0.467  -1.349  0.00  0.00     0.001 A 
ENDROOT
BRANCH   1   8
ATOM      8  C1  UNL d   1      -0.169   1.471   0.269  0.00  0.00     0.053 C 
ATOM      9  C   UNL d   1       1.323   1.754   0.336  0.00  0.00     0.018 C 
ENDBRANCH   1   8
TORSDOF 1
ENDMDL
