MODEL 1
REMARK minimizedAffinity -4.75814581
REMARK minimizedRMSD -1
REMARK  1 active torsions:
REMARK  status: ('A' for Active; 'I' for Inactive)
REMARK    1  A    between atoms: C1_2  and  C2_3 
ROOT
ATOM      1  C2  UNL d   1      -0.141  -0.094   1.230  0.00  0.00    -0.073 A 
ATOM      2  C3  UNL d   1      -0.735   0.618   0.183  0.00  0.00    -0.002 A 
ATOM      3  C4  UNL d   1      -0.076   1.703  -0.396  0.00  0.00     0.004 A 
ATOM      4  C5  UNL d   1       1.186   2.083   0.062  0.00  0.00    -0.004 A 
ATOM      5  C6  UNL d   1       1.802   1.376   1.100  0.00  0.00    -0.075 A 
ATOM      6  C7  UNL d   1       3.158   1.773   1.605  0.00  0.00     0.076 C 
ATOM      7  C8  UNL d   1       1.132   0.289   1.677  0.00  0.00     0.001 A 
ENDROOT
BRANCH   1   8
ATOM      8  C1  UNL d   1      -0.846  -1.271   1.854  0.00  0.00     0.053 C 
ATOM      9  C   UNL d   1      -1.599  -2.096   0.822  0.00  0.00     0.018 C 
ENDBRANCH   1   8
TORSDOF 1
ENDMDL
