MODEL 1
REMARK minimizedAffinity -6.17603445
REMARK minimizedRMSD -1
REMARK  1 active torsions:
REMARK  status: ('A' for Active; 'I' for Inactive)
REMARK    1  A    between atoms: C1_2  and  C2_3 
ROOT
ATOM      1  C2  UNL d   1      -0.063   0.053  -0.536  0.00  0.00    -0.073 A 
ATOM      2  C3  UNL d   1       0.176   0.193  -1.908  0.00  0.00    -0.002 A 
ATOM      3  C4  UNL d   1       0.372  -0.934  -2.708  0.00  0.00     0.004 A 
ATOM      4  C5  UNL d   1       0.324  -2.210  -2.147  0.00  0.00    -0.004 A 
ATOM      5  C6  UNL d   1       0.075  -2.371  -0.780  0.00  0.00    -0.075 A 
ATOM      6  C7  UNL d   1       0.022  -3.737  -0.161  0.00  0.00     0.076 C 
ATOM      7  C8  UNL d   1      -0.119  -1.235   0.017  0.00  0.00     0.001 A 
ENDROOT
BRANCH   1   8
ATOM      8  C1  UNL d   1      -0.282   1.266   0.330  0.00  0.00     0.053 C 
ATOM      9  C   UNL d   1       0.917   2.201   0.316  0.00  0.00     0.018 C 
ENDBRANCH   1   8
TORSDOF 1
ENDMDL
