MODEL 1
REMARK minimizedAffinity -2.63567758
REMARK minimizedRMSD -1
REMARK  1 active torsions:
REMARK  status: ('A' for Active; 'I' for Inactive)
REMARK    1  A    between atoms: C1_2  and  C2_3 
ROOT
ATOM      1  C2  UNL d   1      -0.754  -0.040  -0.182  0.00  0.00    -0.073 A 
ATOM      2  C3  UNL d   1      -1.665   0.062   0.875  0.00  0.00    -0.002 A 
ATOM      3  C4  UNL d   1      -2.116  -1.085   1.530  0.00  0.00     0.004 A 
ATOM      4  C5  UNL d   1      -1.657  -2.342   1.139  0.00  0.00    -0.004 A 
ATOM      5  C6  UNL d   1      -0.737  -2.464   0.093  0.00  0.00    -0.075 A 
ATOM      6  C7  UNL d   1      -0.235  -3.810  -0.341  0.00  0.00     0.076 C 
ATOM      7  C8  UNL d   1      -0.291  -1.308  -0.562  0.00  0.00     0.001 A 
ENDROOT
BRANCH   1   8
ATOM      8  C1  UNL d   1      -0.259   1.196  -0.888  0.00  0.00     0.053 C 
ATOM      9  C   UNL d   1       0.528   2.107   0.042  0.00  0.00     0.018 C 
ENDBRANCH   1   8
TORSDOF 1
ENDMDL
