MODEL 1
REMARK minimizedAffinity -5.77360296
REMARK minimizedRMSD -1
REMARK  1 active torsions:
REMARK  status: ('A' for Active; 'I' for Inactive)
REMARK    1  A    between atoms: C1_2  and  C2_3 
ROOT
ATOM      1  C2  UNL d   1      -0.510  -1.908  -0.762  0.00  0.00    -0.073 A 
ATOM      2  C3  UNL d   1      -1.013  -2.394   0.450  0.00  0.00    -0.002 A 
ATOM      3  C4  UNL d   1      -1.132  -1.549   1.553  0.00  0.00     0.004 A 
ATOM      4  C5  UNL d   1      -0.757  -0.209   1.455  0.00  0.00    -0.004 A 
ATOM      5  C6  UNL d   1      -0.263   0.299   0.249  0.00  0.00    -0.075 A 
ATOM      6  C7  UNL d   1       0.146   1.737   0.127  0.00  0.00     0.076 C 
ATOM      7  C8  UNL d   1      -0.144  -0.558  -0.854  0.00  0.00     0.001 A 
ENDROOT
BRANCH   1   8
ATOM      8  C1  UNL d   1      -0.385  -2.816  -1.958  0.00  0.00     0.053 C 
ATOM      9  C   UNL d   1       0.107  -2.072  -3.190  0.00  0.00     0.018 C 
ENDBRANCH   1   8
TORSDOF 1
ENDMDL
