MODEL 1
REMARK minimizedAffinity -5.86896992
REMARK minimizedRMSD -1
REMARK  1 active torsions:
REMARK  status: ('A' for Active; 'I' for Inactive)
REMARK    1  A    between atoms: C1_2  and  C2_3 
ROOT
ATOM      1  C2  UNL d   1       0.027  -2.261  -0.560  0.00  0.00    -0.073 A 
ATOM      2  C3  UNL d   1      -0.716  -2.717   0.534  0.00  0.00    -0.002 A 
ATOM      3  C4  UNL d   1      -1.117  -1.830   1.534  0.00  0.00     0.004 A 
ATOM      4  C5  UNL d   1      -0.785  -0.478   1.446  0.00  0.00    -0.004 A 
ATOM      5  C6  UNL d   1      -0.054  -0.000   0.353  0.00  0.00    -0.075 A 
ATOM      6  C7  UNL d   1       0.312   1.451   0.245  0.00  0.00     0.076 C 
ATOM      7  C8  UNL d   1       0.347  -0.898  -0.645  0.00  0.00     0.001 A 
ENDROOT
BRANCH   1   8
ATOM      8  C1  UNL d   1       0.456  -3.215  -1.645  0.00  0.00     0.053 C 
ATOM      9  C   UNL d   1       0.887  -2.485  -2.908  0.00  0.00     0.018 C 
ENDBRANCH   1   8
TORSDOF 1
ENDMDL
