MODEL 1
REMARK minimizedAffinity -4.09062004
REMARK minimizedRMSD -1
REMARK  1 active torsions:
REMARK  status: ('A' for Active; 'I' for Inactive)
REMARK    1  A    between atoms: C1_2  and  C2_3 
ROOT
ATOM      1  C2  UNL d   1      -0.421  -0.379  -0.323  0.00  0.00    -0.073 A 
ATOM      2  C3  UNL d   1      -0.352  -1.621  -0.965  0.00  0.00    -0.002 A 
ATOM      3  C4  UNL d   1      -0.828  -2.770  -0.331  0.00  0.00     0.004 A 
ATOM      4  C5  UNL d   1      -1.384  -2.687   0.945  0.00  0.00    -0.004 A 
ATOM      5  C6  UNL d   1      -1.473  -1.454   1.598  0.00  0.00    -0.075 A 
ATOM      6  C7  UNL d   1      -2.066  -1.349   2.972  0.00  0.00     0.076 C 
ATOM      7  C8  UNL d   1      -0.990  -0.306   0.956  0.00  0.00     0.001 A 
ENDROOT
BRANCH   1   8
ATOM      8  C1  UNL d   1       0.087   0.864  -1.006  0.00  0.00     0.053 C 
ATOM      9  C   UNL d   1       0.361   1.986  -0.017  0.00  0.00     0.018 C 
ENDBRANCH   1   8
TORSDOF 1
ENDMDL
