MODEL 1
REMARK minimizedAffinity -2.76413989
REMARK minimizedRMSD -1
REMARK  1 active torsions:
REMARK  status: ('A' for Active; 'I' for Inactive)
REMARK    1  A    between atoms: C1_2  and  C2_3 
ROOT
ATOM      1  C2  UNL d   1       0.462   2.211  -0.343  0.00  0.00    -0.073 A 
ATOM      2  C3  UNL d   1       1.804   2.494  -0.622  0.00  0.00    -0.002 A 
ATOM      3  C4  UNL d   1       2.506   3.418   0.152  0.00  0.00     0.004 A 
ATOM      4  C5  UNL d   1       1.876   4.064   1.217  0.00  0.00    -0.004 A 
ATOM      5  C6  UNL d   1       0.539   3.786   1.519  0.00  0.00    -0.075 A 
ATOM      6  C7  UNL d   1      -0.153   4.473   2.659  0.00  0.00     0.076 C 
ATOM      7  C8  UNL d   1      -0.159   2.858   0.735  0.00  0.00     0.001 A 
ENDROOT
BRANCH   1   8
ATOM      8  C1  UNL d   1      -0.297   1.208  -1.172  0.00  0.00     0.053 C 
ATOM      9  C   UNL d   1       0.552  -0.003  -1.522  0.00  0.00     0.018 C 
ENDBRANCH   1   8
TORSDOF 1
ENDMDL
