MODEL 1
REMARK minimizedAffinity -5.38410473
REMARK minimizedRMSD -1
REMARK  1 active torsions:
REMARK  status: ('A' for Active; 'I' for Inactive)
REMARK    1  A    between atoms: C1_2  and  C2_3 
ROOT
ATOM      1  C2  UNL d   1      -0.055  -0.890  -1.011  0.00  0.00    -0.073 A 
ATOM      2  C3  UNL d   1       0.778  -2.009  -1.130  0.00  0.00    -0.002 A 
ATOM      3  C4  UNL d   1       0.756  -3.010  -0.159  0.00  0.00     0.004 A 
ATOM      4  C5  UNL d   1      -0.102  -2.908   0.936  0.00  0.00    -0.004 A 
ATOM      5  C6  UNL d   1      -0.950  -1.804   1.067  0.00  0.00    -0.075 A 
ATOM      6  C7  UNL d   1      -1.878  -1.679   2.240  0.00  0.00     0.076 C 
ATOM      7  C8  UNL d   1      -0.921  -0.801   0.089  0.00  0.00     0.001 A 
ENDROOT
BRANCH   1   8
ATOM      8  C1  UNL d   1      -0.040   0.191  -2.060  0.00  0.00     0.053 C 
ATOM      9  C   UNL d   1       0.283  -0.359  -3.441  0.00  0.00     0.018 C 
ENDBRANCH   1   8
TORSDOF 1
ENDMDL
