MODEL 1
REMARK minimizedAffinity -1.47359502
REMARK minimizedRMSD -1
REMARK  1 active torsions:
REMARK  status: ('A' for Active; 'I' for Inactive)
REMARK    1  A    between atoms: C1_2  and  C2_3 
ROOT
ATOM      1  C2  UNL d   1       0.020   0.389   0.218  0.00  0.00    -0.073 A 
ATOM      2  C3  UNL d   1      -0.701  -0.423   1.101  0.00  0.00    -0.002 A 
ATOM      3  C4  UNL d   1      -1.107  -1.700   0.713  0.00  0.00     0.004 A 
ATOM      4  C5  UNL d   1      -0.793  -2.181  -0.558  0.00  0.00    -0.004 A 
ATOM      5  C6  UNL d   1      -0.064  -1.389  -1.451  0.00  0.00    -0.075 A 
ATOM      6  C7  UNL d   1       0.281  -1.890  -2.823  0.00  0.00     0.076 C 
ATOM      7  C8  UNL d   1       0.339  -0.107  -1.055  0.00  0.00     0.001 A 
ENDROOT
BRANCH   1   8
ATOM      8  C1  UNL d   1       0.466   1.766   0.635  0.00  0.00     0.053 C 
ATOM      9  C   UNL d   1       1.620   2.273  -0.216  0.00  0.00     0.018 C 
ENDBRANCH   1   8
TORSDOF 1
ENDMDL
