MODEL 1
REMARK minimizedAffinity 0.0748759955
REMARK minimizedRMSD -1
REMARK  0 active torsions:
REMARK  status: ('A' for Active; 'I' for Inactive)
ROOT
ATOM      1  C2' OXE d   1       3.277  -1.070  -3.206  0.00  0.00     0.078 C 
ATOM      2  C1' OXE d   1       6.000  -1.479  -3.754  0.00  0.00     0.078 C 
ATOM      3  C1  OXE d   1       5.307  -0.332  -4.447  0.00  0.00    -0.078 A 
ATOM      4  C2  OXE d   1       3.964  -0.167  -4.208  0.00  0.00    -0.078 A 
ATOM      5  C3  OXE d   1       3.289   0.908  -4.778  0.00  0.00     0.003 A 
ATOM      6  C4  OXE d   1       3.929   1.732  -5.712  0.00  0.00    -0.002 A 
ATOM      7  C5  OXE d   1       5.287   1.558  -6.000  0.00  0.00    -0.002 A 
ATOM      8  C6  OXE d   1       5.999   0.559  -5.345  0.00  0.00     0.003 A 
ENDROOT
TORSDOF 0
ENDMDL
