MODEL 1
REMARK minimizedAffinity -2.31451917
REMARK minimizedRMSD -1
REMARK  0 active torsions:
REMARK  status: ('A' for Active; 'I' for Inactive)
ROOT
ATOM      1  C2' OXE d   1      -5.585  -5.918  -5.998  0.00  0.00     0.078 C 
ATOM      2  C1' OXE d   1      -6.000  -3.146  -5.837  0.00  0.00     0.078 C 
ATOM      3  C1  OXE d   1      -5.777  -3.900  -4.550  0.00  0.00    -0.078 A 
ATOM      4  C2  OXE d   1      -5.622  -5.263  -4.634  0.00  0.00    -0.078 A 
ATOM      5  C3  OXE d   1      -5.359  -5.999  -3.482  0.00  0.00     0.003 A 
ATOM      6  C4  OXE d   1      -5.405  -5.387  -2.224  0.00  0.00    -0.002 A 
ATOM      7  C5  OXE d   1      -5.601  -4.006  -2.113  0.00  0.00    -0.002 A 
ATOM      8  C6  OXE d   1      -5.746  -3.244  -3.267  0.00  0.00     0.003 A 
ENDROOT
TORSDOF 0
ENDMDL
