MODEL 1
REMARK minimizedAffinity -2.41208529
REMARK minimizedRMSD -1
REMARK  0 active torsions:
REMARK  status: ('A' for Active; 'I' for Inactive)
ROOT
ATOM      1  C2' OXE d   1      -5.438  -5.939  -5.647  0.00  0.00     0.078 C 
ATOM      2  C1' OXE d   1      -5.982  -3.201  -5.354  0.00  0.00     0.078 C 
ATOM      3  C1  OXE d   1      -5.406  -3.934  -4.168  0.00  0.00    -0.078 A 
ATOM      4  C2  OXE d   1      -5.187  -5.284  -4.306  0.00  0.00    -0.078 A 
ATOM      5  C3  OXE d   1      -4.606  -5.998  -3.262  0.00  0.00     0.003 A 
ATOM      6  C4  OXE d   1      -4.386  -5.386  -2.021  0.00  0.00    -0.002 A 
ATOM      7  C5  OXE d   1      -4.640  -4.022  -1.848  0.00  0.00    -0.002 A 
ATOM      8  C6  OXE d   1      -5.109  -3.274  -2.922  0.00  0.00     0.003 A 
ENDROOT
TORSDOF 0
ENDMDL
