MODEL 1
REMARK minimizedAffinity -1.30231047
REMARK minimizedRMSD -1
REMARK  0 active torsions:
REMARK  status: ('A' for Active; 'I' for Inactive)
ROOT
ATOM      1  C2' OXE d   1      -5.796  -3.416  -2.221  0.00  0.00     0.078 C 
ATOM      2  C1' OXE d   1      -4.514  -5.913  -2.240  0.00  0.00     0.078 C 
ATOM      3  C1  OXE d   1      -4.933  -5.328  -3.565  0.00  0.00    -0.078 A 
ATOM      4  C2  OXE d   1      -5.602  -4.127  -3.543  0.00  0.00    -0.078 A 
ATOM      5  C3  OXE d   1      -5.962  -3.517  -4.741  0.00  0.00     0.003 A 
ATOM      6  C4  OXE d   1      -5.787  -4.186  -5.958  0.00  0.00    -0.002 A 
ATOM      7  C5  OXE d   1      -5.144  -5.428  -6.000  0.00  0.00    -0.002 A 
ATOM      8  C6  OXE d   1      -4.674  -5.991  -4.819  0.00  0.00     0.003 A 
ENDROOT
TORSDOF 0
ENDMDL
