MODEL 1
REMARK minimizedAffinity 4.4960475
REMARK minimizedRMSD -1
REMARK  0 active torsions:
REMARK  status: ('A' for Active; 'I' for Inactive)
ROOT
ATOM      1  C2' OXE d   1       5.999  -1.355  -4.276  0.00  0.00     0.078 C 
ATOM      2  C1' OXE d   1       3.822   0.116  -5.263  0.00  0.00     0.078 C 
ATOM      3  C1  OXE d   1       3.530  -1.029  -4.326  0.00  0.00    -0.078 A 
ATOM      4  C2  OXE d   1       4.598  -1.773  -3.885  0.00  0.00    -0.078 A 
ATOM      5  C3  OXE d   1       4.390  -2.806  -2.976  0.00  0.00     0.003 A 
ATOM      6  C4  OXE d   1       3.090  -3.193  -2.628  0.00  0.00    -0.002 A 
ATOM      7  C5  OXE d   1       1.986  -2.474  -3.097  0.00  0.00    -0.002 A 
ATOM      8  C6  OXE d   1       2.190  -1.366  -3.912  0.00  0.00     0.003 A 
ENDROOT
TORSDOF 0
ENDMDL
