MODEL 1
REMARK minimizedAffinity 2.92353964
REMARK minimizedRMSD -1
REMARK  0 active torsions:
REMARK  status: ('A' for Active; 'I' for Inactive)
ROOT
ATOM      1  C2' OXE d   1      -5.235  -3.173  -2.234  0.00  0.00     0.078 C 
ATOM      2  C1' OXE d   1      -5.078  -5.976  -2.233  0.00  0.00     0.078 C 
ATOM      3  C1  OXE d   1      -5.215  -5.280  -3.564  0.00  0.00    -0.078 A 
ATOM      4  C2  OXE d   1      -5.338  -3.911  -3.552  0.00  0.00    -0.078 A 
ATOM      5  C3  OXE d   1      -5.412  -3.215  -4.755  0.00  0.00     0.003 A 
ATOM      6  C4  OXE d   1      -5.517  -3.906  -5.968  0.00  0.00    -0.002 A 
ATOM      7  C5  OXE d   1      -5.434  -5.302  -6.000  0.00  0.00    -0.002 A 
ATOM      8  C6  OXE d   1      -5.241  -6.000  -4.813  0.00  0.00     0.003 A 
ENDROOT
TORSDOF 0
ENDMDL
