MODEL 1
REMARK minimizedAffinity 10.4805107
REMARK minimizedRMSD -1
REMARK  0 active torsions:
REMARK  status: ('A' for Active; 'I' for Inactive)
ROOT
ATOM      1  C2' OXE d   1       2.720  -0.345  -3.065  0.00  0.00     0.078 C 
ATOM      2  C1' OXE d   1       5.225  -1.613  -3.040  0.00  0.00     0.078 C 
ATOM      3  C1  OXE d   1       4.986  -0.546  -4.080  0.00  0.00    -0.078 A 
ATOM      4  C2  OXE d   1       3.742   0.036  -4.115  0.00  0.00    -0.078 A 
ATOM      5  C3  OXE d   1       3.487   1.063  -5.018  0.00  0.00     0.003 A 
ATOM      6  C4  OXE d   1       4.434   1.402  -5.992  0.00  0.00    -0.002 A 
ATOM      7  C5  OXE d   1       5.693   0.794  -6.000  0.00  0.00    -0.002 A 
ATOM      8  C6  OXE d   1       6.000  -0.150  -5.026  0.00  0.00     0.003 A 
ENDROOT
TORSDOF 0
ENDMDL
