MODEL 1
REMARK minimizedAffinity 4.48358154
REMARK minimizedRMSD -1
REMARK  0 active torsions:
REMARK  status: ('A' for Active; 'I' for Inactive)
ROOT
ATOM      1  C2' OXE d   1      -5.633  -2.287  -4.628  0.00  0.00     0.078 C 
ATOM      2  C1' OXE d   1      -5.575  -2.223  -1.823  0.00  0.00     0.078 C 
ATOM      3  C1  OXE d   1      -5.707  -3.568  -2.493  0.00  0.00    -0.078 A 
ATOM      4  C2  OXE d   1      -5.782  -3.585  -3.865  0.00  0.00    -0.078 A 
ATOM      5  C3  OXE d   1      -5.850  -4.803  -4.536  0.00  0.00     0.003 A 
ATOM      6  C4  OXE d   1      -5.998  -5.998  -3.823  0.00  0.00    -0.002 A 
ATOM      7  C5  OXE d   1      -5.964  -5.999  -2.424  0.00  0.00    -0.002 A 
ATOM      8  C6  OXE d   1      -5.777  -4.800  -1.747  0.00  0.00     0.003 A 
ENDROOT
TORSDOF 0
ENDMDL
