MODEL 1
REMARK minimizedAffinity 1.29632282
REMARK minimizedRMSD -1
REMARK  0 active torsions:
REMARK  status: ('A' for Active; 'I' for Inactive)
ROOT
ATOM      1  C2' OXE d   1      -5.068  -1.804  -3.435  0.00  0.00     0.078 C 
ATOM      2  C1' OXE d   1      -5.998  -2.553  -5.975  0.00  0.00     0.078 C 
ATOM      3  C1  OXE d   1      -5.751  -3.646  -4.966  0.00  0.00    -0.078 A 
ATOM      4  C2  OXE d   1      -5.251  -3.275  -3.741  0.00  0.00    -0.078 A 
ATOM      5  C3  OXE d   1      -5.057  -4.238  -2.755  0.00  0.00     0.003 A 
ATOM      6  C4  OXE d   1      -5.220  -5.597  -3.050  0.00  0.00    -0.002 A 
ATOM      7  C5  OXE d   1      -5.690  -6.000  -4.304  0.00  0.00    -0.002 A 
ATOM      8  C6  OXE d   1      -6.000  -5.036  -5.258  0.00  0.00     0.003 A 
ENDROOT
TORSDOF 0
ENDMDL
