MODEL 1
REMARK minimizedAffinity -2.03585815
REMARK minimizedRMSD -1
REMARK  0 active torsions:
REMARK  status: ('A' for Active; 'I' for Inactive)
ROOT
ATOM      1  C2' OXE d   1      -5.960  -3.422  -2.189  0.00  0.00     0.078 C 
ATOM      2  C1' OXE d   1      -4.847  -6.000  -2.218  0.00  0.00     0.078 C 
ATOM      3  C1  OXE d   1      -5.157  -5.352  -3.545  0.00  0.00    -0.078 A 
ATOM      4  C2  OXE d   1      -5.744  -4.109  -3.520  0.00  0.00    -0.078 A 
ATOM      5  C3  OXE d   1      -6.000  -3.444  -4.715  0.00  0.00     0.003 A 
ATOM      6  C4  OXE d   1      -5.806  -4.090  -5.942  0.00  0.00    -0.002 A 
ATOM      7  C5  OXE d   1      -5.246  -5.371  -5.989  0.00  0.00    -0.002 A 
ATOM      8  C6  OXE d   1      -4.877  -5.997  -4.803  0.00  0.00     0.003 A 
ENDROOT
TORSDOF 0
ENDMDL
