MODEL 1
REMARK minimizedAffinity 1.54263723
REMARK minimizedRMSD -1
REMARK  0 active torsions:
REMARK  status: ('A' for Active; 'I' for Inactive)
ROOT
ATOM      1  C2' OXE d   1       5.982  -1.953  -3.342  0.00  0.00     0.078 C 
ATOM      2  C1' OXE d   1       4.501  -0.015  -1.952  0.00  0.00     0.078 C 
ATOM      3  C1  OXE d   1       4.893   0.288  -3.377  0.00  0.00    -0.078 A 
ATOM      4  C2  OXE d   1       5.657  -0.646  -4.034  0.00  0.00    -0.078 A 
ATOM      5  C3  OXE d   1       6.000  -0.442  -5.368  0.00  0.00     0.003 A 
ATOM      6  C4  OXE d   1       5.704   0.773  -5.997  0.00  0.00    -0.002 A 
ATOM      7  C5  OXE d   1       4.961   1.755  -5.333  0.00  0.00    -0.002 A 
ATOM      8  C6  OXE d   1       4.512   1.511  -4.040  0.00  0.00     0.003 A 
ENDROOT
TORSDOF 0
ENDMDL
