MODEL 1
REMARK minimizedAffinity 22.4872932
REMARK minimizedRMSD -1
REMARK  0 active torsions:
REMARK  status: ('A' for Active; 'I' for Inactive)
ROOT
ATOM      1  C   UNL d   1       1.833  -1.249  -4.626  0.00  0.00     0.124 A 
ATOM      2  C1  UNL d   1       0.569  -0.688  -4.503  0.00  0.00     0.062 A 
ATOM      3  C2  UNL d   1      -0.562  -1.439  -4.808  0.00  0.00     0.162 A 
ATOM      4  C3  UNL d   1      -0.435  -2.760  -5.239  0.00  0.00    -0.034 A 
ATOM      5  C4  UNL d   1       0.840  -3.316  -5.361  0.00  0.00     0.162 A 
ATOM      6  C5  UNL d   1       1.967  -2.562  -5.055  0.00  0.00     0.062 A 
ATOM      7  F   UNL d   1       3.187  -3.104  -5.175  0.00  0.00    -0.097 F 
ATOM      8  F1  UNL d   1       0.998  -4.583  -5.772  0.00  0.00    -0.096 F 
ATOM      9  I   UNL d   1      -2.124  -3.887  -5.696  0.00  0.00    -0.060 I 
ATOM     10  F2  UNL d   1      -1.771  -0.873  -4.680  0.00  0.00    -0.096 F 
ATOM     11  F3  UNL d   1       0.437   0.580  -4.090  0.00  0.00    -0.097 F 
ATOM     12  F4  UNL d   1       2.920  -0.523  -4.333  0.00  0.00    -0.092 F 
ENDROOT
TORSDOF 0
ENDMDL
