MODEL 1
REMARK minimizedAffinity 17.2712898
REMARK minimizedRMSD -1
REMARK  0 active torsions:
REMARK  status: ('A' for Active; 'I' for Inactive)
ROOT
ATOM      1  C   UNL d   1      -1.394   0.125   2.507  0.00  0.00     0.124 A 
ATOM      2  C1  UNL d   1      -1.817   1.348   2.005  0.00  0.00     0.062 A 
ATOM      3  C2  UNL d   1      -0.889   2.344   1.713  0.00  0.00     0.162 A 
ATOM      4  C3  UNL d   1       0.472   2.120   1.920  0.00  0.00    -0.034 A 
ATOM      5  C4  UNL d   1       0.890   0.888   2.426  0.00  0.00     0.162 A 
ATOM      6  C5  UNL d   1      -0.042  -0.104   2.717  0.00  0.00     0.062 A 
ATOM      7  F   UNL d   1       0.369  -1.285   3.202  0.00  0.00    -0.097 F 
ATOM      8  F1  UNL d   1       2.191   0.639   2.638  0.00  0.00    -0.096 F 
ATOM      9  I   UNL d   1       1.862   3.606   1.485  0.00  0.00    -0.060 I 
ATOM     10  F2  UNL d   1      -1.326   3.516   1.229  0.00  0.00    -0.096 F 
ATOM     11  F3  UNL d   1      -3.123   1.572   1.802  0.00  0.00    -0.097 F 
ATOM     12  F4  UNL d   1      -2.289  -0.831   2.788  0.00  0.00    -0.092 F 
ENDROOT
TORSDOF 0
ENDMDL
