MODEL 1
REMARK minimizedAffinity 22.8111439
REMARK minimizedRMSD -1
REMARK  0 active torsions:
REMARK  status: ('A' for Active; 'I' for Inactive)
ROOT
ATOM      1  C   UNL d   1       2.034  -0.612  -4.829  0.00  0.00     0.124 A 
ATOM      2  C1  UNL d   1       2.362  -1.877  -5.297  0.00  0.00     0.062 A 
ATOM      3  C2  UNL d   1       1.362  -2.812  -5.547  0.00  0.00     0.162 A 
ATOM      4  C3  UNL d   1       0.024  -2.486  -5.330  0.00  0.00    -0.034 A 
ATOM      5  C4  UNL d   1      -0.299  -1.212  -4.857  0.00  0.00     0.162 A 
ATOM      6  C5  UNL d   1       0.705  -0.281  -4.609  0.00  0.00     0.062 A 
ATOM      7  F   UNL d   1       0.386   0.940  -4.156  0.00  0.00    -0.097 F 
ATOM      8  F1  UNL d   1      -1.575  -0.866  -4.637  0.00  0.00    -0.096 F 
ATOM      9  I   UNL d   1      -1.475  -3.882  -5.702  0.00  0.00    -0.060 I 
ATOM     10  F2  UNL d   1       1.708  -4.027  -5.999  0.00  0.00    -0.096 F 
ATOM     11  F3  UNL d   1       3.646  -2.200  -5.509  0.00  0.00    -0.097 F 
ATOM     12  F4  UNL d   1       2.999   0.285  -4.588  0.00  0.00    -0.092 F 
ENDROOT
TORSDOF 0
ENDMDL
