MODEL 1
REMARK minimizedAffinity 14.2097731
REMARK minimizedRMSD -1
REMARK  0 active torsions:
REMARK  status: ('A' for Active; 'I' for Inactive)
ROOT
ATOM      1  C   UNL d   1       1.415  -1.870   3.753  0.00  0.00     0.124 A 
ATOM      2  C1  UNL d   1       2.396  -0.894   3.643  0.00  0.00     0.062 A 
ATOM      3  C2  UNL d   1       3.706  -1.172   4.024  0.00  0.00     0.162 A 
ATOM      4  C3  UNL d   1       4.043  -2.432   4.518  0.00  0.00    -0.034 A 
ATOM      5  C4  UNL d   1       3.051  -3.408   4.626  0.00  0.00     0.162 A 
ATOM      6  C5  UNL d   1       1.744  -3.126   4.243  0.00  0.00     0.062 A 
ATOM      7  F   UNL d   1       0.798  -4.070   4.350  0.00  0.00    -0.097 F 
ATOM      8  F1  UNL d   1       3.341  -4.631   5.096  0.00  0.00    -0.096 F 
ATOM      9  I   UNL d   1       6.000  -2.851   5.088  0.00  0.00    -0.060 I 
ATOM     10  F2  UNL d   1       4.633  -0.209   3.908  0.00  0.00    -0.096 F 
ATOM     11  F3  UNL d   1       2.081   0.320   3.170  0.00  0.00    -0.097 F 
ATOM     12  F4  UNL d   1       0.156  -1.600   3.386  0.00  0.00    -0.092 F 
ENDROOT
TORSDOF 0
ENDMDL
