MODEL 1
REMARK minimizedAffinity 18.0729828
REMARK minimizedRMSD -1
REMARK  0 active torsions:
REMARK  status: ('A' for Active; 'I' for Inactive)
ROOT
ATOM      1  C   UNL d   1       1.404  -1.446   3.419  0.00  0.00     0.124 A 
ATOM      2  C1  UNL d   1       2.270  -0.418   3.764  0.00  0.00     0.062 A 
ATOM      3  C2  UNL d   1       3.424  -0.689   4.494  0.00  0.00     0.162 A 
ATOM      4  C3  UNL d   1       3.719  -1.996   4.883  0.00  0.00    -0.034 A 
ATOM      5  C4  UNL d   1       2.843  -3.025   4.533  0.00  0.00     0.162 A 
ATOM      6  C5  UNL d   1       1.691  -2.748   3.803  0.00  0.00     0.062 A 
ATOM      7  F   UNL d   1       0.855  -3.743   3.471  0.00  0.00    -0.097 F 
ATOM      8  F1  UNL d   1       3.096  -4.292   4.891  0.00  0.00    -0.096 F 
ATOM      9  I   UNL d   1       5.443  -2.407   5.974  0.00  0.00    -0.060 I 
ATOM     10  F2  UNL d   1       4.243   0.324   4.813  0.00  0.00    -0.096 F 
ATOM     11  F3  UNL d   1       1.995   0.841   3.394  0.00  0.00    -0.097 F 
ATOM     12  F4  UNL d   1       0.294  -1.182   2.717  0.00  0.00    -0.092 F 
ENDROOT
TORSDOF 0
ENDMDL
