MODEL 1
REMARK minimizedAffinity 31.2703991
REMARK minimizedRMSD -1
REMARK  0 active torsions:
REMARK  status: ('A' for Active; 'I' for Inactive)
ROOT
ATOM      1  C   UNL d   1      -1.597  -1.320  -3.418  0.00  0.00     0.124 A 
ATOM      2  C1  UNL d   1      -0.963  -1.868  -2.311  0.00  0.00     0.062 A 
ATOM      3  C2  UNL d   1       0.424  -1.968  -2.278  0.00  0.00     0.162 A 
ATOM      4  C3  UNL d   1       1.189  -1.519  -3.355  0.00  0.00    -0.034 A 
ATOM      5  C4  UNL d   1       0.544  -0.970  -4.465  0.00  0.00     0.162 A 
ATOM      6  C5  UNL d   1      -0.843  -0.872  -4.494  0.00  0.00     0.062 A 
ATOM      7  F   UNL d   1      -1.454  -0.343  -5.564  0.00  0.00    -0.097 F 
ATOM      8  F1  UNL d   1       1.248  -0.529  -5.518  0.00  0.00    -0.096 F 
ATOM      9  I   UNL d   1       3.264  -1.667  -3.309  0.00  0.00    -0.060 I 
ATOM     10  F2  UNL d   1       1.010  -2.502  -1.196  0.00  0.00    -0.096 F 
ATOM     11  F3  UNL d   1      -1.690  -2.303  -1.271  0.00  0.00    -0.097 F 
ATOM     12  F4  UNL d   1      -2.933  -1.226  -3.448  0.00  0.00    -0.092 F 
ENDROOT
TORSDOF 0
ENDMDL
