MODEL 1
REMARK minimizedAffinity -2.14016795
REMARK minimizedRMSD -1
REMARK  0 active torsions:
REMARK  status: ('A' for Active; 'I' for Inactive)
ROOT
ATOM      1  C2' OXE d   1       6.000  -0.468   5.808  0.00  0.00     0.078 C 
ATOM      2  C1' OXE d   1       6.000  -0.346   3.003  0.00  0.00     0.078 C 
ATOM      3  C1  OXE d   1       5.986   0.956   3.764  0.00  0.00    -0.078 A 
ATOM      4  C2  OXE d   1       5.939   0.887   5.136  0.00  0.00    -0.078 A 
ATOM      5  C3  OXE d   1       5.980   2.058   5.887  0.00  0.00     0.003 A 
ATOM      6  C4  OXE d   1       5.914   3.307   5.258  0.00  0.00    -0.002 A 
ATOM      7  C5  OXE d   1       5.921   3.399   3.862  0.00  0.00    -0.002 A 
ATOM      8  C6  OXE d   1       6.000   2.238   3.102  0.00  0.00     0.003 A 
ENDROOT
TORSDOF 0
ENDMDL
