MODEL 1
REMARK minimizedAffinity -2.15842724
REMARK minimizedRMSD -1
REMARK  0 active torsions:
REMARK  status: ('A' for Active; 'I' for Inactive)
ROOT
ATOM      1  C2' OXE d   1       5.989   1.595   2.281  0.00  0.00     0.078 C 
ATOM      2  C1' OXE d   1       5.002   3.035   4.479  0.00  0.00     0.078 C 
ATOM      3  C1  OXE d   1       5.256   1.559   4.661  0.00  0.00    -0.078 A 
ATOM      4  C2  OXE d   1       5.695   0.854   3.567  0.00  0.00    -0.078 A 
ATOM      5  C3  OXE d   1       5.997  -0.499   3.694  0.00  0.00     0.003 A 
ATOM      6  C4  OXE d   1       5.712  -1.180   4.884  0.00  0.00    -0.002 A 
ATOM      7  C5  OXE d   1       5.227  -0.488   5.999  0.00  0.00    -0.002 A 
ATOM      8  C6  OXE d   1       5.035   0.887   5.918  0.00  0.00     0.003 A 
ENDROOT
TORSDOF 0
ENDMDL
