MODEL 1
REMARK minimizedAffinity -1.1563468
REMARK minimizedRMSD -1
REMARK  0 active torsions:
REMARK  status: ('A' for Active; 'I' for Inactive)
ROOT
ATOM      1  C2' OXE d   1       5.999   2.944   2.644  0.00  0.00     0.078 C 
ATOM      2  C1' OXE d   1       5.985   3.613   5.371  0.00  0.00     0.078 C 
ATOM      3  C1  OXE d   1       5.981   2.149   5.005  0.00  0.00    -0.078 A 
ATOM      4  C2  OXE d   1       5.941   1.831   3.669  0.00  0.00    -0.078 A 
ATOM      5  C3  OXE d   1       5.991   0.497   3.276  0.00  0.00     0.003 A 
ATOM      6  C4  OXE d   1       5.927  -0.526   4.230  0.00  0.00    -0.002 A 
ATOM      7  C5  OXE d   1       5.927  -0.223   5.596  0.00  0.00    -0.002 A 
ATOM      8  C6  OXE d   1       5.997   1.105   6.000  0.00  0.00     0.003 A 
ENDROOT
TORSDOF 0
ENDMDL
