MODEL 1
REMARK minimizedAffinity -3.80164456
REMARK minimizedRMSD -1
REMARK  0 active torsions:
REMARK  status: ('A' for Active; 'I' for Inactive)
ROOT
ATOM      1  C2' OXE d   1       5.987   2.673   3.296  0.00  0.00     0.078 C 
ATOM      2  C1' OXE d   1       6.000   1.920   6.000  0.00  0.00     0.078 C 
ATOM      3  C1  OXE d   1       5.792   0.838   4.969  0.00  0.00    -0.078 A 
ATOM      4  C2  OXE d   1       5.740   1.223   3.651  0.00  0.00    -0.078 A 
ATOM      5  C3  OXE d   1       5.605   0.259   2.656  0.00  0.00     0.003 A 
ATOM      6  C4  OXE d   1       5.368  -1.079   2.994  0.00  0.00    -0.002 A 
ATOM      7  C5  OXE d   1       5.377  -1.486   4.332  0.00  0.00    -0.002 A 
ATOM      8  C6  OXE d   1       5.629  -0.549   5.328  0.00  0.00     0.003 A 
ENDROOT
TORSDOF 0
ENDMDL
