MODEL 1
REMARK minimizedAffinity -1.27503896
REMARK minimizedRMSD -1
REMARK  0 active torsions:
REMARK  status: ('A' for Active; 'I' for Inactive)
ROOT
ATOM      1  C2' OXE d   1       5.942  -0.334   2.093  0.00  0.00     0.078 C 
ATOM      2  C1' OXE d   1       5.986  -0.703   4.875  0.00  0.00     0.078 C 
ATOM      3  C1  OXE d   1       5.969   0.712   4.353  0.00  0.00    -0.078 A 
ATOM      4  C2  OXE d   1       5.995   0.884   2.990  0.00  0.00    -0.078 A 
ATOM      5  C3  OXE d   1       5.926   2.167   2.455  0.00  0.00     0.003 A 
ATOM      6  C4  OXE d   1       5.985   3.288   3.292  0.00  0.00    -0.002 A 
ATOM      7  C5  OXE d   1       6.000   3.136   4.683  0.00  0.00    -0.002 A 
ATOM      8  C6  OXE d   1       5.949   1.858   5.229  0.00  0.00     0.003 A 
ENDROOT
TORSDOF 0
ENDMDL
