MODEL 1
REMARK minimizedAffinity -1.2303164
REMARK minimizedRMSD -1
REMARK  0 active torsions:
REMARK  status: ('A' for Active; 'I' for Inactive)
ROOT
ATOM      1  C2' OXE d   1       5.893   3.554   3.949  0.00  0.00     0.078 C 
ATOM      2  C1' OXE d   1       5.983   1.630   1.906  0.00  0.00     0.078 C 
ATOM      3  C1  OXE d   1       5.958   1.141   3.332  0.00  0.00    -0.078 A 
ATOM      4  C2  OXE d   1       5.961   2.090   4.326  0.00  0.00    -0.078 A 
ATOM      5  C3  OXE d   1       5.884   1.693   5.658  0.00  0.00     0.003 A 
ATOM      6  C4  OXE d   1       5.957   0.337   5.999  0.00  0.00    -0.002 A 
ATOM      7  C5  OXE d   1       5.995  -0.645   5.003  0.00  0.00    -0.002 A 
ATOM      8  C6  OXE d   1       5.953  -0.262   3.667  0.00  0.00     0.003 A 
ENDROOT
TORSDOF 0
ENDMDL
