MODEL 1
REMARK minimizedAffinity -1.12047446
REMARK minimizedRMSD -1
REMARK  0 active torsions:
REMARK  status: ('A' for Active; 'I' for Inactive)
ROOT
ATOM      1  C2' OXE d   1       5.883  -0.544   5.996  0.00  0.00     0.078 C 
ATOM      2  C1' OXE d   1       5.870  -0.881   3.209  0.00  0.00     0.078 C 
ATOM      3  C1  OXE d   1       5.927   0.527   3.747  0.00  0.00    -0.078 A 
ATOM      4  C2  OXE d   1       5.885   0.684   5.112  0.00  0.00    -0.078 A 
ATOM      5  C3  OXE d   1       5.990   1.959   5.662  0.00  0.00     0.003 A 
ATOM      6  C4  OXE d   1       5.982   3.090   4.838  0.00  0.00    -0.002 A 
ATOM      7  C5  OXE d   1       5.985   2.954   3.445  0.00  0.00    -0.002 A 
ATOM      8  C6  OXE d   1       6.000   1.681   2.885  0.00  0.00     0.003 A 
ENDROOT
TORSDOF 0
ENDMDL
