MODEL 1
REMARK minimizedAffinity 8.31017971
REMARK minimizedRMSD -1
REMARK  0 active torsions:
REMARK  status: ('A' for Active; 'I' for Inactive)
ROOT
ATOM      1  C2' OXE d   1       5.999   4.559   1.458  0.00  0.00     0.078 C 
ATOM      2  C1' OXE d   1       5.997   5.480   4.110  0.00  0.00     0.078 C 
ATOM      3  C1  OXE d   1       5.985   3.989   3.883  0.00  0.00    -0.078 A 
ATOM      4  C2  OXE d   1       5.938   3.548   2.582  0.00  0.00    -0.078 A 
ATOM      5  C3  OXE d   1       5.980   2.182   2.316  0.00  0.00     0.003 A 
ATOM      6  C4  OXE d   1       5.914   1.254   3.362  0.00  0.00    -0.002 A 
ATOM      7  C5  OXE d   1       5.921   1.682   4.693  0.00  0.00    -0.002 A 
ATOM      8  C6  OXE d   1       5.998   3.043   4.971  0.00  0.00     0.003 A 
ENDROOT
TORSDOF 0
ENDMDL
