MODEL 1
REMARK minimizedAffinity 0.115695566
REMARK minimizedRMSD -1
REMARK  0 active torsions:
REMARK  status: ('A' for Active; 'I' for Inactive)
ROOT
ATOM      1  C2' OXE d   1       5.969   1.074   1.719  0.00  0.00     0.078 C 
ATOM      2  C1' OXE d   1       5.950   3.291   3.441  0.00  0.00     0.078 C 
ATOM      3  C1  OXE d   1       5.967   1.918   4.063  0.00  0.00    -0.078 A 
ATOM      4  C2  OXE d   1       5.929   0.838   3.213  0.00  0.00    -0.078 A 
ATOM      5  C3  OXE d   1       5.998  -0.451   3.733  0.00  0.00     0.003 A 
ATOM      6  C4  OXE d   1       5.950  -0.661   5.117  0.00  0.00    -0.002 A 
ATOM      7  C5  OXE d   1       5.948   0.424   6.000  0.00  0.00    -0.002 A 
ATOM      8  C6  OXE d   1       5.999   1.717   5.491  0.00  0.00     0.003 A 
ENDROOT
TORSDOF 0
ENDMDL
