MODEL 1
REMARK minimizedAffinity -0.44233492
REMARK minimizedRMSD -1
REMARK  0 active torsions:
REMARK  status: ('A' for Active; 'I' for Inactive)
ROOT
ATOM      1  C2' OXE d   1       5.569   2.833   3.774  0.00  0.00     0.078 C 
ATOM      2  C1' OXE d   1       5.999   0.832   1.852  0.00  0.00     0.078 C 
ATOM      3  C1  OXE d   1       5.904   0.411   3.297  0.00  0.00    -0.078 A 
ATOM      4  C2  OXE d   1       5.740   1.402   4.235  0.00  0.00    -0.078 A 
ATOM      5  C3  OXE d   1       5.591   1.063   5.577  0.00  0.00     0.003 A 
ATOM      6  C4  OXE d   1       5.760  -0.262   5.997  0.00  0.00    -0.002 A 
ATOM      7  C5  OXE d   1       5.967  -1.282   5.062  0.00  0.00    -0.002 A 
ATOM      8  C6  OXE d   1       5.999  -0.968   3.707  0.00  0.00     0.003 A 
ENDROOT
TORSDOF 0
ENDMDL
