MODEL 1
REMARK minimizedAffinity 2.18135548
REMARK minimizedRMSD -1
REMARK  0 active torsions:
REMARK  status: ('A' for Active; 'I' for Inactive)
ROOT
ATOM      1  C2' OXE d   1       4.400   0.787   2.172  0.00  0.00     0.078 C 
ATOM      2  C1' OXE d   1       5.446   2.484   4.148  0.00  0.00     0.078 C 
ATOM      3  C1  OXE d   1       5.451   1.001   4.420  0.00  0.00    -0.078 A 
ATOM      4  C2  OXE d   1       4.895   0.181   3.467  0.00  0.00    -0.078 A 
ATOM      5  C3  OXE d   1       4.924  -1.199   3.643  0.00  0.00     0.003 A 
ATOM      6  C4  OXE d   1       5.375  -1.751   4.849  0.00  0.00    -0.002 A 
ATOM      7  C5  OXE d   1       5.909  -0.931   5.849  0.00  0.00    -0.002 A 
ATOM      8  C6  OXE d   1       5.993   0.440   5.633  0.00  0.00     0.003 A 
ENDROOT
TORSDOF 0
ENDMDL
