MODEL 1
REMARK minimizedAffinity 1.32355583
REMARK minimizedRMSD -1
REMARK  0 active torsions:
REMARK  status: ('A' for Active; 'I' for Inactive)
ROOT
ATOM      1  C2' OXE d   1       6.000   1.727   2.235  0.00  0.00     0.078 C 
ATOM      2  C1' OXE d   1       5.980   2.962   4.756  0.00  0.00     0.078 C 
ATOM      3  C1  OXE d   1       5.982   1.454   4.711  0.00  0.00    -0.078 A 
ATOM      4  C2  OXE d   1       5.944   0.859   3.473  0.00  0.00    -0.078 A 
ATOM      5  C3  OXE d   1       6.000  -0.529   3.374  0.00  0.00     0.003 A 
ATOM      6  C4  OXE d   1       5.938  -1.325   4.524  0.00  0.00    -0.002 A 
ATOM      7  C5  OXE d   1       5.935  -0.738   5.794  0.00  0.00    -0.002 A 
ATOM      8  C6  OXE d   1       6.000   0.647   5.905  0.00  0.00     0.003 A 
ENDROOT
TORSDOF 0
ENDMDL
