MODEL 1
REMARK minimizedAffinity -2.4309659
REMARK minimizedRMSD -1
REMARK  0 active torsions:
REMARK  status: ('A' for Active; 'I' for Inactive)
ROOT
ATOM      1  C2' OXE d   1       5.999  -0.014   2.251  0.00  0.00     0.078 C 
ATOM      2  C1' OXE d   1       5.833  -1.119   4.826  0.00  0.00     0.078 C 
ATOM      3  C1  OXE d   1       5.872   0.384   4.707  0.00  0.00    -0.078 A 
ATOM      4  C2  OXE d   1       6.000   0.915   3.446  0.00  0.00    -0.078 A 
ATOM      5  C3  OXE d   1       5.985   2.296   3.276  0.00  0.00     0.003 A 
ATOM      6  C4  OXE d   1       5.996   3.148   4.387  0.00  0.00    -0.002 A 
ATOM      7  C5  OXE d   1       5.906   2.627   5.682  0.00  0.00    -0.002 A 
ATOM      8  C6  OXE d   1       5.800   1.251   5.857  0.00  0.00     0.003 A 
ENDROOT
TORSDOF 0
ENDMDL
