MODEL 1
REMARK minimizedAffinity -1.82284749
REMARK minimizedRMSD -1
REMARK  0 active torsions:
REMARK  status: ('A' for Active; 'I' for Inactive)
ROOT
ATOM      1  C2' OXE d   1       5.242  -0.962   4.962  0.00  0.00     0.078 C 
ATOM      2  C1' OXE d   1       4.489   0.403   2.627  0.00  0.00     0.078 C 
ATOM      3  C1  OXE d   1       5.031   1.218   3.775  0.00  0.00    -0.078 A 
ATOM      4  C2  OXE d   1       5.353   0.547   4.930  0.00  0.00    -0.078 A 
ATOM      5  C3  OXE d   1       5.909   1.244   5.999  0.00  0.00     0.003 A 
ATOM      6  C4  OXE d   1       5.999   2.640   5.966  0.00  0.00    -0.002 A 
ATOM      7  C5  OXE d   1       5.640   3.347   4.813  0.00  0.00    -0.002 A 
ATOM      8  C6  OXE d   1       5.195   2.649   3.696  0.00  0.00     0.003 A 
ENDROOT
TORSDOF 0
ENDMDL
