MODEL 1
REMARK minimizedAffinity -1.10386562
REMARK minimizedRMSD -1
REMARK  0 active torsions:
REMARK  status: ('A' for Active; 'I' for Inactive)
ROOT
ATOM      1  C2' OXE d   1       5.999   2.769   2.136  0.00  0.00     0.078 C 
ATOM      2  C1' OXE d   1       5.977   3.517   4.842  0.00  0.00     0.078 C 
ATOM      3  C1  OXE d   1       5.979   2.044   4.519  0.00  0.00    -0.078 A 
ATOM      4  C2  OXE d   1       5.943   1.687   3.193  0.00  0.00    -0.078 A 
ATOM      5  C3  OXE d   1       5.999   0.342   2.839  0.00  0.00     0.003 A 
ATOM      6  C4  OXE d   1       5.936  -0.653   3.823  0.00  0.00    -0.002 A 
ATOM      7  C5  OXE d   1       5.932  -0.311   5.179  0.00  0.00    -0.002 A 
ATOM      8  C6  OXE d   1       5.997   1.029   5.544  0.00  0.00     0.003 A 
ENDROOT
TORSDOF 0
ENDMDL
