MODEL 1
REMARK minimizedAffinity 0.0400799029
REMARK minimizedRMSD -1
REMARK  0 active torsions:
REMARK  status: ('A' for Active; 'I' for Inactive)
ROOT
ATOM      1  C2' OXE d   1       5.939   2.209   5.820  0.00  0.00     0.078 C 
ATOM      2  C1' OXE d   1       5.993   1.982   3.023  0.00  0.00     0.078 C 
ATOM      3  C1  OXE d   1       5.972   0.709   3.831  0.00  0.00    -0.078 A 
ATOM      4  C2  OXE d   1       5.993   0.829   5.200  0.00  0.00    -0.078 A 
ATOM      5  C3  OXE d   1       5.920  -0.312   5.994  0.00  0.00     0.003 A 
ATOM      6  C4  OXE d   1       5.980  -1.585   5.412  0.00  0.00    -0.002 A 
ATOM      7  C5  OXE d   1       5.999  -1.729   4.021  0.00  0.00    -0.002 A 
ATOM      8  C6  OXE d   1       5.953  -0.596   3.217  0.00  0.00     0.003 A 
ENDROOT
TORSDOF 0
ENDMDL
