MODEL 1
REMARK minimizedAffinity 4.79844284
REMARK minimizedRMSD -1
REMARK  0 active torsions:
REMARK  status: ('A' for Active; 'I' for Inactive)
ROOT
ATOM      1  C2' OXE d   1       5.999  -1.387   4.874  0.00  0.00     0.078 C 
ATOM      2  C1' OXE d   1       5.979  -0.480   2.217  0.00  0.00     0.078 C 
ATOM      3  C1  OXE d   1       5.981   0.555   3.314  0.00  0.00    -0.078 A 
ATOM      4  C2  OXE d   1       5.944   0.102   4.611  0.00  0.00    -0.078 A 
ATOM      5  C3  OXE d   1       6.000   1.014   5.661  0.00  0.00     0.003 A 
ATOM      6  C4  OXE d   1       5.938   2.390   5.409  0.00  0.00    -0.002 A 
ATOM      7  C5  OXE d   1       5.936   2.872   4.096  0.00  0.00    -0.002 A 
ATOM      8  C6  OXE d   1       6.000   1.971   3.039  0.00  0.00     0.003 A 
ENDROOT
TORSDOF 0
ENDMDL
