MODEL 1
REMARK minimizedAffinity -3.87230206
REMARK minimizedRMSD -1
REMARK  0 active torsions:
REMARK  status: ('A' for Active; 'I' for Inactive)
ROOT
ATOM      1  C2' OXE d   1       5.626  -1.756   4.803  0.00  0.00     0.078 C 
ATOM      2  C1' OXE d   1       5.939  -0.403   2.363  0.00  0.00     0.078 C 
ATOM      3  C1  OXE d   1       5.848   0.425   3.620  0.00  0.00    -0.078 A 
ATOM      4  C2  OXE d   1       5.648  -0.243   4.804  0.00  0.00    -0.078 A 
ATOM      5  C3  OXE d   1       5.611   0.470   6.000  0.00  0.00     0.003 A 
ATOM      6  C4  OXE d   1       5.622   1.870   5.991  0.00  0.00    -0.002 A 
ATOM      7  C5  OXE d   1       5.785   2.571   4.792  0.00  0.00    -0.002 A 
ATOM      8  C6  OXE d   1       5.942   1.864   3.605  0.00  0.00     0.003 A 
ENDROOT
TORSDOF 0
ENDMDL
