MODEL 1
REMARK minimizedAffinity -1.03155029
REMARK minimizedRMSD -1
REMARK  0 active torsions:
REMARK  status: ('A' for Active; 'I' for Inactive)
ROOT
ATOM      1  C2' OXE d   1       5.962  -0.615   6.000  0.00  0.00     0.078 C 
ATOM      2  C1' OXE d   1       5.953  -0.847   3.202  0.00  0.00     0.078 C 
ATOM      3  C1  OXE d   1       5.966   0.541   3.793  0.00  0.00    -0.078 A 
ATOM      4  C2  OXE d   1       5.923   0.645   5.163  0.00  0.00    -0.078 A 
ATOM      5  C3  OXE d   1       5.988   1.900   5.761  0.00  0.00     0.003 A 
ATOM      6  C4  OXE d   1       5.941   3.061   4.979  0.00  0.00    -0.002 A 
ATOM      7  C5  OXE d   1       5.944   2.977   3.583  0.00  0.00    -0.002 A 
ATOM      8  C6  OXE d   1       5.999   1.728   2.975  0.00  0.00     0.003 A 
ENDROOT
TORSDOF 0
ENDMDL
