MODEL 1
REMARK minimizedAffinity -3.03599167
REMARK minimizedRMSD -1
REMARK  0 active torsions:
REMARK  status: ('A' for Active; 'I' for Inactive)
ROOT
ATOM      1  N1  IND d   1      -0.290  -1.201   2.816  0.00  0.00    -0.196 N 
ATOM      2  C2  IND d   1       1.010  -1.067   3.216  0.00  0.00     0.054 A 
ATOM      3  C3  IND d   1       1.711  -0.355   2.305  0.00  0.00    -0.031 A 
ATOM      4  C4  IND d   1       0.903   0.771   0.136  0.00  0.00     0.051 A 
ATOM      5  C5  IND d   1      -0.195   0.896  -0.669  0.00  0.00    -0.031 A 
ATOM      6  C6  IND d   1      -1.405   0.318  -0.345  0.00  0.00     0.015 A 
ATOM      7  C7  IND d   1      -1.567  -0.399   0.806  0.00  0.00    -0.016 A 
ATOM      8  C8  IND d   1      -0.453  -0.534   1.622  0.00  0.00    -0.047 A 
ATOM      9  C9  IND d   1       0.789   0.014   1.278  0.00  0.00    -0.096 A 
ATOM     10  HN1 IND d   1      -0.903  -1.631   3.239  0.00  0.00     0.298 HD
ENDROOT
TORSDOF 0
ENDMDL
