MODEL 1
REMARK minimizedAffinity -2.41240835
REMARK minimizedRMSD -1
REMARK  0 active torsions:
REMARK  status: ('A' for Active; 'I' for Inactive)
ROOT
ATOM      1  N1  IND d   1      -1.127   0.460  -1.134  0.00  0.00    -0.196 N 
ATOM      2  C2  IND d   1      -0.756   0.237  -2.431  0.00  0.00     0.054 A 
ATOM      3  C3  IND d   1       0.523  -0.197  -2.487  0.00  0.00    -0.031 A 
ATOM      4  C4  IND d   1       2.160  -0.713  -0.567  0.00  0.00     0.051 A 
ATOM      5  C5  IND d   1       2.288  -0.631   0.791  0.00  0.00    -0.031 A 
ATOM      6  C6  IND d   1       1.262  -0.174   1.593  0.00  0.00     0.015 A 
ATOM      7  C7  IND d   1       0.061   0.208   1.066  0.00  0.00    -0.016 A 
ATOM      8  C8  IND d   1      -0.069   0.133  -0.314  0.00  0.00    -0.047 A 
ATOM      9  C9  IND d   1       0.982  -0.290  -1.137  0.00  0.00    -0.096 A 
ATOM     10  HN1 IND d   1      -1.892   0.754  -0.875  0.00  0.00     0.298 HD
ENDROOT
TORSDOF 0
ENDMDL
