MODEL 1
REMARK minimizedAffinity -3.97764516
REMARK minimizedRMSD -1
REMARK  0 active torsions:
REMARK  status: ('A' for Active; 'I' for Inactive)
ROOT
ATOM      1  N1  IND d   1       2.775  -1.427   2.240  0.00  0.00    -0.196 N 
ATOM      2  C2  IND d   1       2.014  -1.490   3.374  0.00  0.00     0.054 A 
ATOM      3  C3  IND d   1       0.770  -1.019   3.133  0.00  0.00    -0.031 A 
ATOM      4  C4  IND d   1      -0.266  -0.189   0.928  0.00  0.00     0.051 A 
ATOM      5  C5  IND d   1       0.049   0.090  -0.372  0.00  0.00    -0.031 A 
ATOM      6  C6  IND d   1       1.313  -0.131  -0.880  0.00  0.00     0.015 A 
ATOM      7  C7  IND d   1       2.311  -0.650  -0.105  0.00  0.00    -0.016 A 
ATOM      8  C8  IND d   1       1.997  -0.927   1.218  0.00  0.00    -0.047 A 
ATOM      9  C9  IND d   1       0.728  -0.666   1.750  0.00  0.00    -0.096 A 
ATOM     10  HN1 IND d   1       3.600  -1.660   2.175  0.00  0.00     0.298 HD
ENDROOT
TORSDOF 0
ENDMDL
