MODEL 1
REMARK minimizedAffinity -2.56228256
REMARK minimizedRMSD -1
REMARK  0 active torsions:
REMARK  status: ('A' for Active; 'I' for Inactive)
ROOT
ATOM      1  N1  IND d   1      -1.758  -0.554   1.481  0.00  0.00    -0.196 N 
ATOM      2  C2  IND d   1      -2.169   0.055   0.328  0.00  0.00     0.054 A 
ATOM      3  C3  IND d   1      -1.103   0.387  -0.434  0.00  0.00    -0.031 A 
ATOM      4  C4  IND d   1       1.399  -0.063  -0.032  0.00  0.00     0.051 A 
ATOM      5  C5  IND d   1       2.269  -0.557   0.899  0.00  0.00    -0.031 A 
ATOM      6  C6  IND d   1       1.831  -1.089   2.095  0.00  0.00     0.015 A 
ATOM      7  C7  IND d   1       0.501  -1.157   2.400  0.00  0.00    -0.016 A 
ATOM      8  C8  IND d   1      -0.384  -0.649   1.460  0.00  0.00    -0.047 A 
ATOM      9  C9  IND d   1       0.056  -0.069   0.263  0.00  0.00    -0.096 A 
ATOM     10  HN1 IND d   1      -2.271  -0.831   2.113  0.00  0.00     0.298 HD
ENDROOT
TORSDOF 0
ENDMDL
