MODEL 1
REMARK minimizedAffinity 2.67453718
REMARK minimizedRMSD -1
REMARK  0 active torsions:
REMARK  status: ('A' for Active; 'I' for Inactive)
ROOT
ATOM      1  N1  IND d   1       0.173   1.573  -1.631  0.00  0.00    -0.196 N 
ATOM      2  C2  IND d   1       0.060   2.097  -0.374  0.00  0.00     0.054 A 
ATOM      3  C3  IND d   1       0.368   3.413  -0.383  0.00  0.00    -0.031 A 
ATOM      4  C4  IND d   1       0.987   4.934  -2.366  0.00  0.00     0.051 A 
ATOM      5  C5  IND d   1       1.254   4.901  -3.706  0.00  0.00    -0.031 A 
ATOM      6  C6  IND d   1       1.170   3.735  -4.439  0.00  0.00     0.015 A 
ATOM      7  C7  IND d   1       0.803   2.554  -3.857  0.00  0.00    -0.016 A 
ATOM      8  C8  IND d   1       0.538   2.582  -2.496  0.00  0.00    -0.047 A 
ATOM      9  C9  IND d   1       0.663   3.754  -1.739  0.00  0.00    -0.096 A 
ATOM     10  HN1 IND d   1       0.039   0.751  -1.846  0.00  0.00     0.298 HD
ENDROOT
TORSDOF 0
ENDMDL
