MODEL 1
REMARK minimizedAffinity -1.92446411
REMARK minimizedRMSD -1
REMARK  0 active torsions:
REMARK  status: ('A' for Active; 'I' for Inactive)
ROOT
ATOM      1  N1  IND d   1       0.455  -1.169  -2.644  0.00  0.00    -0.196 N 
ATOM      2  C2  IND d   1       1.702  -1.599  -2.284  0.00  0.00     0.054 A 
ATOM      3  C3  IND d   1       1.860  -1.516  -0.944  0.00  0.00    -0.031 A 
ATOM      4  C4  IND d   1       0.169  -0.801   0.860  0.00  0.00     0.051 A 
ATOM      5  C5  IND d   1      -1.089  -0.288   1.015  0.00  0.00    -0.031 A 
ATOM      6  C6  IND d   1      -1.914  -0.041  -0.063  0.00  0.00     0.015 A 
ATOM      7  C7  IND d   1      -1.514  -0.309  -1.342  0.00  0.00    -0.016 A 
ATOM      8  C8  IND d   1      -0.235  -0.822  -1.504  0.00  0.00    -0.047 A 
ATOM      9  C9  IND d   1       0.622  -1.035  -0.416  0.00  0.00    -0.096 A 
ATOM     10  HN1 IND d   1       0.153  -1.123  -3.448  0.00  0.00     0.298 HD
ENDROOT
TORSDOF 0
ENDMDL
