MODEL 1
REMARK minimizedAffinity -4.48785543
REMARK minimizedRMSD -1
REMARK  0 active torsions:
REMARK  status: ('A' for Active; 'I' for Inactive)
ROOT
ATOM      1  N1  IND d   1      -5.999   2.191  -3.720  0.00  0.00    -0.196 N 
ATOM      2  C2  IND d   1      -6.000   0.824  -3.735  0.00  0.00     0.054 A 
ATOM      3  C3  IND d   1      -4.752   0.350  -3.519  0.00  0.00    -0.031 A 
ATOM      4  C4  IND d   1      -2.579   1.635  -3.016  0.00  0.00     0.051 A 
ATOM      5  C5  IND d   1      -2.070   2.901  -2.935  0.00  0.00    -0.031 A 
ATOM      6  C6  IND d   1      -2.862   4.018  -3.112  0.00  0.00     0.015 A 
ATOM      7  C7  IND d   1      -4.199   3.910  -3.367  0.00  0.00    -0.016 A 
ATOM      8  C8  IND d   1      -4.718   2.626  -3.458  0.00  0.00    -0.047 A 
ATOM      9  C9  IND d   1      -3.912   1.488  -3.321  0.00  0.00    -0.096 A 
ATOM     10  HN1 IND d   1      -6.683   2.695  -3.853  0.00  0.00     0.298 HD
ENDROOT
TORSDOF 0
ENDMDL
