MODEL 1
REMARK minimizedAffinity -0.736006916
REMARK minimizedRMSD -1
REMARK  0 active torsions:
REMARK  status: ('A' for Active; 'I' for Inactive)
ROOT
ATOM      1  N1  IND d   1      -0.472   1.594  -3.197  0.00  0.00    -0.196 N 
ATOM      2  C2  IND d   1      -0.721   2.897  -2.866  0.00  0.00     0.054 A 
ATOM      3  C3  IND d   1      -0.580   3.080  -1.534  0.00  0.00    -0.031 A 
ATOM      4  C4  IND d   1       0.154   1.405   0.278  0.00  0.00     0.051 A 
ATOM      5  C5  IND d   1       0.455   0.085   0.466  0.00  0.00    -0.031 A 
ATOM      6  C6  IND d   1       0.465  -0.817  -0.578  0.00  0.00     0.015 A 
ATOM      7  C7  IND d   1       0.184  -0.428  -1.858  0.00  0.00    -0.016 A 
ATOM      8  C8  IND d   1      -0.129   0.910  -2.052  0.00  0.00    -0.047 A 
ATOM      9  C9  IND d   1      -0.182   1.821  -0.989  0.00  0.00    -0.096 A 
ATOM     10  HN1 IND d   1      -0.522   1.258  -3.987  0.00  0.00     0.298 HD
ENDROOT
TORSDOF 0
ENDMDL
