MODEL 1
REMARK minimizedAffinity 6.52297354
REMARK minimizedRMSD -1
REMARK  0 active torsions:
REMARK  status: ('A' for Active; 'I' for Inactive)
ROOT
ATOM      1  N1  IND d   1       3.089  -1.558   2.353  0.00  0.00    -0.196 N 
ATOM      2  C2  IND d   1       2.168  -2.348   2.981  0.00  0.00     0.054 A 
ATOM      3  C3  IND d   1       0.998  -2.338   2.303  0.00  0.00    -0.031 A 
ATOM      4  C4  IND d   1       0.406  -1.177   0.083  0.00  0.00     0.051 A 
ATOM      5  C5  IND d   1       0.909  -0.314  -0.849  0.00  0.00    -0.031 A 
ATOM      6  C6  IND d   1       2.192   0.187  -0.761  0.00  0.00     0.015 A 
ATOM      7  C7  IND d   1       3.027  -0.168   0.260  0.00  0.00    -0.016 A 
ATOM      8  C8  IND d   1       2.516  -1.039   1.213  0.00  0.00    -0.047 A 
ATOM      9  C9  IND d   1       1.201  -1.517   1.152  0.00  0.00    -0.096 A 
ATOM     10  HN1 IND d   1       3.892  -1.410   2.624  0.00  0.00     0.298 HD
ENDROOT
TORSDOF 0
ENDMDL
