MODEL 1
REMARK minimizedAffinity -1.64531267
REMARK minimizedRMSD -1
REMARK  1 active torsions:
REMARK  status: ('A' for Active; 'I' for Inactive)
REMARK    1  A    between atoms: C1_2  and  C2_3 
ROOT
ATOM      1  C2  UNL d   1       2.994   4.958  -5.997  0.00  0.00    -0.077 A 
ATOM      2  C3  UNL d   1       3.358   3.604  -5.991  0.00  0.00     0.002 A 
ATOM      3  C4  UNL d   1       4.705   3.235  -5.974  0.00  0.00     0.002 A 
ATOM      4  C5  UNL d   1       5.697   4.214  -5.960  0.00  0.00    -0.004 A 
ATOM      5  C6  UNL d   1       5.345   5.563  -5.968  0.00  0.00     0.002 A 
ATOM      6  C7  UNL d   1       3.999   5.933  -5.986  0.00  0.00     0.002 A 
ENDROOT
BRANCH   1   7
ATOM      7  C1  UNL d   1       1.542   5.358  -5.965  0.00  0.00     0.055 C 
ATOM      8  C   UNL d   1       0.632   4.139  -5.968  0.00  0.00     0.019 C 
ENDBRANCH   1   7
TORSDOF 1
ENDMDL
