MODEL 1
REMARK minimizedAffinity 0.777509749
REMARK minimizedRMSD -1
REMARK  1 active torsions:
REMARK  status: ('A' for Active; 'I' for Inactive)
REMARK    1  A    between atoms: C1_2  and  C2_3 
ROOT
ATOM      1  C2  UNL d   1      -0.445   3.849  -5.794  0.00  0.00    -0.077 A 
ATOM      2  C3  UNL d   1      -1.489   2.923  -5.922  0.00  0.00     0.002 A 
ATOM      3  C4  UNL d   1      -2.814   3.358  -6.000  0.00  0.00     0.002 A 
ATOM      4  C5  UNL d   1      -3.106   4.719  -5.954  0.00  0.00    -0.004 A 
ATOM      5  C6  UNL d   1      -2.074   5.648  -5.824  0.00  0.00     0.002 A 
ATOM      6  C7  UNL d   1      -0.750   5.216  -5.745  0.00  0.00     0.002 A 
ENDROOT
BRANCH   1   7
ATOM      7  C1  UNL d   1       0.988   3.385  -5.759  0.00  0.00     0.055 C 
ATOM      8  C   UNL d   1       1.090   1.886  -5.999  0.00  0.00     0.019 C 
ENDBRANCH   1   7
TORSDOF 1
ENDMDL
