MODEL 1
REMARK minimizedAffinity 0.271471411
REMARK minimizedRMSD -1
REMARK  1 active torsions:
REMARK  status: ('A' for Active; 'I' for Inactive)
REMARK    1  A    between atoms: C1_2  and  C2_3 
ROOT
ATOM      1  C2  UNL d   1      -0.169   4.016  -5.281  0.00  0.00    -0.077 A 
ATOM      2  C3  UNL d   1      -0.126   4.106  -3.883  0.00  0.00     0.002 A 
ATOM      3  C4  UNL d   1      -0.851   5.096  -3.216  0.00  0.00     0.002 A 
ATOM      4  C5  UNL d   1      -1.626   6.000  -3.939  0.00  0.00    -0.004 A 
ATOM      5  C6  UNL d   1      -1.673   5.920  -5.330  0.00  0.00     0.002 A 
ATOM      6  C7  UNL d   1      -0.949   4.932  -5.998  0.00  0.00     0.002 A 
ENDROOT
BRANCH   1   7
ATOM      7  C1  UNL d   1       0.573   2.918  -5.999  0.00  0.00     0.055 C 
ATOM      8  C   UNL d   1       2.043   2.894  -5.604  0.00  0.00     0.019 C 
ENDBRANCH   1   7
TORSDOF 1
ENDMDL
