MODEL 1
REMARK minimizedAffinity -1.91406596
REMARK minimizedRMSD -1
REMARK  1 active torsions:
REMARK  status: ('A' for Active; 'I' for Inactive)
REMARK    1  A    between atoms: C1_2  and  C2_3 
ROOT
ATOM      1  C2  UNL d   1      -1.666   3.716  -5.939  0.00  0.00    -0.077 A 
ATOM      2  C3  UNL d   1      -2.989   3.258  -6.000  0.00  0.00     0.002 A 
ATOM      3  C4  UNL d   1      -4.051   4.164  -5.998  0.00  0.00     0.002 A 
ATOM      4  C5  UNL d   1      -3.801   5.533  -5.939  0.00  0.00    -0.004 A 
ATOM      5  C6  UNL d   1      -2.489   5.999  -5.876  0.00  0.00     0.002 A 
ATOM      6  C7  UNL d   1      -1.426   5.095  -5.877  0.00  0.00     0.002 A 
ENDROOT
BRANCH   1   7
ATOM      7  C1  UNL d   1      -0.517   2.743  -5.990  0.00  0.00     0.055 C 
ATOM      8  C   UNL d   1       0.822   3.466  -5.988  0.00  0.00     0.019 C 
ENDBRANCH   1   7
TORSDOF 1
ENDMDL
