MODEL 1
REMARK minimizedAffinity -0.244026959
REMARK minimizedRMSD -1
REMARK  1 active torsions:
REMARK  status: ('A' for Active; 'I' for Inactive)
REMARK    1  A    between atoms: C1_2  and  C2_3 
ROOT
ATOM      1  C2  UNL d   1      -1.332   3.934  -5.965  0.00  0.00    -0.077 A 
ATOM      2  C3  UNL d   1      -0.405   4.985  -5.963  0.00  0.00     0.002 A 
ATOM      3  C4  UNL d   1       0.966   4.717  -5.978  0.00  0.00     0.002 A 
ATOM      4  C5  UNL d   1       1.420   3.401  -5.999  0.00  0.00    -0.004 A 
ATOM      5  C6  UNL d   1       0.505   2.348  -5.999  0.00  0.00     0.002 A 
ATOM      6  C7  UNL d   1      -0.865   2.614  -5.983  0.00  0.00     0.002 A 
ENDROOT
BRANCH   1   7
ATOM      7  C1  UNL d   1      -2.811   4.220  -5.999  0.00  0.00     0.055 C 
ATOM      8  C   UNL d   1      -3.086   5.716  -5.943  0.00  0.00     0.019 C 
ENDBRANCH   1   7
TORSDOF 1
ENDMDL
