MODEL 1
REMARK minimizedAffinity 2.12019873
REMARK minimizedRMSD -1
REMARK  1 active torsions:
REMARK  status: ('A' for Active; 'I' for Inactive)
REMARK    1  A    between atoms: C1_2  and  C2_3 
ROOT
ATOM      1  C2  UNL d   1      -0.376   3.126  -6.000  0.00  0.00    -0.077 A 
ATOM      2  C3  UNL d   1       0.137   4.431  -5.989  0.00  0.00     0.002 A 
ATOM      3  C4  UNL d   1      -0.725   5.529  -5.976  0.00  0.00     0.002 A 
ATOM      4  C5  UNL d   1      -2.105   5.333  -5.970  0.00  0.00    -0.004 A 
ATOM      5  C6  UNL d   1      -2.625   4.040  -5.983  0.00  0.00     0.002 A 
ATOM      6  C7  UNL d   1      -1.765   2.941  -5.997  0.00  0.00     0.002 A 
ENDROOT
BRANCH   1   7
ATOM      7  C1  UNL d   1       0.552   1.940  -5.963  0.00  0.00     0.055 C 
ATOM      8  C   UNL d   1       2.010   2.377  -5.995  0.00  0.00     0.019 C 
ENDBRANCH   1   7
TORSDOF 1
ENDMDL
