MODEL 1
REMARK minimizedAffinity -3.88557029
REMARK minimizedRMSD -1
REMARK  1 active torsions:
REMARK  status: ('A' for Active; 'I' for Inactive)
REMARK    1  A    between atoms: C1_2  and  C2_3 
ROOT
ATOM      1  C2  UNL d   1       1.928   3.284  -5.997  0.00  0.00    -0.077 A 
ATOM      2  C3  UNL d   1       1.492   4.616  -6.000  0.00  0.00     0.002 A 
ATOM      3  C4  UNL d   1       0.127   4.913  -6.000  0.00  0.00     0.002 A 
ATOM      4  C5  UNL d   1      -0.811   3.883  -5.992  0.00  0.00    -0.004 A 
ATOM      5  C6  UNL d   1      -0.388   2.555  -5.991  0.00  0.00     0.002 A 
ATOM      6  C7  UNL d   1       0.976   2.256  -5.992  0.00  0.00     0.002 A 
ENDROOT
BRANCH   1   7
ATOM      7  C1  UNL d   1       3.398   2.962  -5.947  0.00  0.00     0.055 C 
ATOM      8  C   UNL d   1       4.228   4.205  -5.659  0.00  0.00     0.019 C 
ENDBRANCH   1   7
TORSDOF 1
ENDMDL
