MODEL 1
REMARK minimizedAffinity -2.24758768
REMARK minimizedRMSD -1
REMARK  1 active torsions:
REMARK  status: ('A' for Active; 'I' for Inactive)
REMARK    1  A    between atoms: C1_2  and  C2_3 
ROOT
ATOM      1  C2  UNL d   1      -1.582   3.530  -6.000  0.00  0.00    -0.077 A 
ATOM      2  C3  UNL d   1      -0.955   4.784  -6.000  0.00  0.00     0.002 A 
ATOM      3  C4  UNL d   1      -1.717   5.954  -5.994  0.00  0.00     0.002 A 
ATOM      4  C5  UNL d   1      -3.108   5.882  -5.984  0.00  0.00    -0.004 A 
ATOM      5  C6  UNL d   1      -3.741   4.640  -5.986  0.00  0.00     0.002 A 
ATOM      6  C7  UNL d   1      -2.982   3.469  -5.993  0.00  0.00     0.002 A 
ENDROOT
BRANCH   1   7
ATOM      7  C1  UNL d   1      -0.763   2.267  -5.956  0.00  0.00     0.055 C 
ATOM      8  C   UNL d   1       0.727   2.575  -5.925  0.00  0.00     0.019 C 
ENDBRANCH   1   7
TORSDOF 1
ENDMDL
