MODEL 1
REMARK minimizedAffinity -0.958908319
REMARK minimizedRMSD -1
REMARK  1 active torsions:
REMARK  status: ('A' for Active; 'I' for Inactive)
REMARK    1  A    between atoms: C1_2  and  C2_3 
ROOT
ATOM      1  C2  UNL d   1      -0.677   3.381  -5.998  0.00  0.00    -0.077 A 
ATOM      2  C3  UNL d   1       0.682   3.038  -5.996  0.00  0.00     0.002 A 
ATOM      3  C4  UNL d   1       1.662   4.032  -5.997  0.00  0.00     0.002 A 
ATOM      4  C5  UNL d   1       1.294   5.376  -5.995  0.00  0.00    -0.004 A 
ATOM      5  C6  UNL d   1      -0.055   5.728  -5.999  0.00  0.00     0.002 A 
ATOM      6  C7  UNL d   1      -1.036   4.735  -5.999  0.00  0.00     0.002 A 
ENDROOT
BRANCH   1   7
ATOM      7  C1  UNL d   1      -1.736   2.311  -5.947  0.00  0.00     0.055 C 
ATOM      8  C   UNL d   1      -3.133   2.913  -5.954  0.00  0.00     0.019 C 
ENDBRANCH   1   7
TORSDOF 1
ENDMDL
