MODEL 1
REMARK minimizedAffinity -2.13039422
REMARK minimizedRMSD -1
REMARK  1 active torsions:
REMARK  status: ('A' for Active; 'I' for Inactive)
REMARK    1  A    between atoms: C1_2  and  C2_3 
ROOT
ATOM      1  C2  UNL d   1      -1.558   3.572  -6.000  0.00  0.00    -0.077 A 
ATOM      2  C3  UNL d   1      -0.881   4.800  -5.998  0.00  0.00     0.002 A 
ATOM      3  C4  UNL d   1      -1.595   6.000  -5.997  0.00  0.00     0.002 A 
ATOM      4  C5  UNL d   1      -2.988   5.984  -5.993  0.00  0.00    -0.004 A 
ATOM      5  C6  UNL d   1      -3.671   4.768  -5.996  0.00  0.00     0.002 A 
ATOM      6  C7  UNL d   1      -2.959   3.567  -5.999  0.00  0.00     0.002 A 
ENDROOT
BRANCH   1   7
ATOM      7  C1  UNL d   1      -0.790   2.277  -5.951  0.00  0.00     0.055 C 
ATOM      8  C   UNL d   1       0.711   2.522  -6.000  0.00  0.00     0.019 C 
ENDBRANCH   1   7
TORSDOF 1
ENDMDL
