MODEL 1
REMARK minimizedAffinity -1.83390129
REMARK minimizedRMSD -1
REMARK  1 active torsions:
REMARK  status: ('A' for Active; 'I' for Inactive)
REMARK    1  A    between atoms: C1_2  and  C2_3 
ROOT
ATOM      1  C2  UNL d   1      -0.008   2.631  -5.995  0.00  0.00    -0.077 A 
ATOM      2  C3  UNL d   1       0.390   3.976  -5.994  0.00  0.00     0.002 A 
ATOM      3  C4  UNL d   1      -0.565   4.995  -5.994  0.00  0.00     0.002 A 
ATOM      4  C5  UNL d   1      -1.922   4.680  -5.990  0.00  0.00    -0.004 A 
ATOM      5  C6  UNL d   1      -2.328   3.346  -5.993  0.00  0.00     0.002 A 
ATOM      6  C7  UNL d   1      -1.375   2.326  -5.995  0.00  0.00     0.002 A 
ENDROOT
BRANCH   1   7
ATOM      7  C1  UNL d   1       1.020   1.531  -5.946  0.00  0.00     0.055 C 
ATOM      8  C   UNL d   1       2.434   2.094  -5.946  0.00  0.00     0.019 C 
ENDBRANCH   1   7
TORSDOF 1
ENDMDL
