MODEL 1
REMARK minimizedAffinity -2.38749933
REMARK minimizedRMSD -1
REMARK  1 active torsions:
REMARK  status: ('A' for Active; 'I' for Inactive)
REMARK    1  A    between atoms: C1_2  and  C2_3 
ROOT
ATOM      1  C2  UNL d   1      -0.052   3.384  -6.000  0.00  0.00    -0.077 A 
ATOM      2  C3  UNL d   1       0.470   4.685  -5.999  0.00  0.00     0.002 A 
ATOM      3  C4  UNL d   1      -0.384   5.789  -5.999  0.00  0.00     0.002 A 
ATOM      4  C5  UNL d   1      -1.765   5.603  -5.994  0.00  0.00    -0.004 A 
ATOM      5  C6  UNL d   1      -2.294   4.313  -5.997  0.00  0.00     0.002 A 
ATOM      6  C7  UNL d   1      -1.442   3.209  -5.999  0.00  0.00     0.002 A 
ENDROOT
BRANCH   1   7
ATOM      7  C1  UNL d   1       0.868   2.192  -5.951  0.00  0.00     0.055 C 
ATOM      8  C   UNL d   1       2.328   2.617  -5.986  0.00  0.00     0.019 C 
ENDBRANCH   1   7
TORSDOF 1
ENDMDL
