MODEL 1
REMARK minimizedAffinity -4.18332624
REMARK minimizedRMSD -1
REMARK  0 active torsions:
REMARK  status: ('A' for Active; 'I' for Inactive)
ROOT
ATOM      1  C   UNL d   1       0.791  -2.178   1.414  0.00  0.00     0.020 A 
ATOM      2  C1  UNL d   1      -0.467  -1.581   1.483  0.00  0.00     0.020 A 
ATOM      3  C2  UNL d   1      -0.767  -0.488   0.668  0.00  0.00     0.034 A 
ATOM      4  C3  UNL d   1       0.192   0.012  -0.221  0.00  0.00     0.017 A 
ATOM      5  C4  UNL d   1       1.454  -0.588  -0.290  0.00  0.00     0.017 A 
ATOM      6  C5  UNL d   1       1.750  -1.683   0.529  0.00  0.00     0.034 A 
ATOM      7 Cl   UNL d   1       2.689  -0.028  -1.362  0.00  0.00    -0.070 Cl
ATOM      8 Cl1  UNL d   1      -0.248   1.366  -1.200  0.00  0.00    -0.070 Cl
ENDROOT
TORSDOF 0
ENDMDL
