MODEL 1
REMARK minimizedAffinity -4.53757
REMARK minimizedRMSD -1
REMARK  0 active torsions:
REMARK  status: ('A' for Active; 'I' for Inactive)
ROOT
ATOM      1  C   UNL d   1      -0.066  -2.336   1.240  0.00  0.00     0.020 A 
ATOM      2  C1  UNL d   1       1.308  -2.391   1.009  0.00  0.00     0.020 A 
ATOM      3  C2  UNL d   1       1.941  -1.361   0.310  0.00  0.00     0.034 A 
ATOM      4  C3  UNL d   1       1.199  -0.272  -0.162  0.00  0.00     0.017 A 
ATOM      5  C4  UNL d   1      -0.180  -0.218   0.071  0.00  0.00     0.017 A 
ATOM      6  C5  UNL d   1      -0.808  -1.252   0.772  0.00  0.00     0.034 A 
ATOM      7 Cl   UNL d   1      -1.162   1.094  -0.480  0.00  0.00    -0.070 Cl
ATOM      8 Cl1  UNL d   1       2.046   0.967  -1.019  0.00  0.00    -0.070 Cl
ENDROOT
TORSDOF 0
ENDMDL
