MODEL 1
REMARK minimizedAffinity -3.40806746
REMARK minimizedRMSD -1
REMARK  0 active torsions:
REMARK  status: ('A' for Active; 'I' for Inactive)
ROOT
ATOM      1  C   UNL d   1      -0.097  -1.676   1.358  0.00  0.00     0.020 A 
ATOM      2  C1  UNL d   1       1.280  -1.874   1.278  0.00  0.00     0.020 A 
ATOM      3  C2  UNL d   1       2.073  -0.982   0.553  0.00  0.00     0.034 A 
ATOM      4  C3  UNL d   1       1.489   0.113  -0.094  0.00  0.00     0.017 A 
ATOM      5  C4  UNL d   1       0.106   0.310  -0.014  0.00  0.00     0.017 A 
ATOM      6  C5  UNL d   1      -0.683  -0.586   0.713  0.00  0.00     0.034 A 
ATOM      7 Cl   UNL d   1      -0.688   1.638  -0.786  0.00  0.00    -0.070 Cl
ATOM      8 Cl1  UNL d   1       2.530   1.176  -0.973  0.00  0.00    -0.070 Cl
ENDROOT
TORSDOF 0
ENDMDL
