MODEL 1
REMARK minimizedAffinity -2.31654739
REMARK minimizedRMSD -1
REMARK  0 active torsions:
REMARK  status: ('A' for Active; 'I' for Inactive)
ROOT
ATOM      1  C   UNL d   1      -0.323  -2.606   0.986  0.00  0.00     0.020 A 
ATOM      2  C1  UNL d   1       1.053  -2.799   0.873  0.00  0.00     0.020 A 
ATOM      3  C2  UNL d   1       1.853  -1.805   0.307  0.00  0.00     0.034 A 
ATOM      4  C3  UNL d   1       1.279  -0.613  -0.148  0.00  0.00     0.017 A 
ATOM      5  C4  UNL d   1      -0.103  -0.419  -0.034  0.00  0.00     0.017 A 
ATOM      6  C5  UNL d   1      -0.900  -1.418   0.534  0.00  0.00     0.034 A 
ATOM      7 Cl   UNL d   1      -0.884   1.025  -0.573  0.00  0.00    -0.070 Cl
ATOM      8 Cl1  UNL d   1       2.329   0.574  -0.837  0.00  0.00    -0.070 Cl
ENDROOT
TORSDOF 0
ENDMDL
