MODEL 1
REMARK minimizedAffinity -5.07877922
REMARK minimizedRMSD -1
REMARK  0 active torsions:
REMARK  status: ('A' for Active; 'I' for Inactive)
ROOT
ATOM      1  C   UNL d   1      -0.184  -2.040   1.120  0.00  0.00     0.020 A 
ATOM      2  C1  UNL d   1       1.167  -2.353   0.969  0.00  0.00     0.020 A 
ATOM      3  C2  UNL d   1       2.015  -1.477   0.289  0.00  0.00     0.034 A 
ATOM      4  C3  UNL d   1       1.514  -0.283  -0.242  0.00  0.00     0.017 A 
ATOM      5  C4  UNL d   1       0.158   0.030  -0.090  0.00  0.00     0.017 A 
ATOM      6  C5  UNL d   1      -0.687  -0.851   0.592  0.00  0.00     0.034 A 
ATOM      7 Cl   UNL d   1      -0.533   1.484  -0.719  0.00  0.00    -0.070 Cl
ATOM      8 Cl1  UNL d   1       2.620   0.754  -1.071  0.00  0.00    -0.070 Cl
ENDROOT
TORSDOF 0
ENDMDL
