MODEL 1
REMARK minimizedAffinity -4.05423832
REMARK minimizedRMSD -1
REMARK  0 active torsions:
REMARK  status: ('A' for Active; 'I' for Inactive)
ROOT
ATOM      1  C   UNL d   1       2.117  -2.019   0.466  0.00  0.00     0.020 A 
ATOM      2  C1  UNL d   1       2.491  -1.043  -0.457  0.00  0.00     0.020 A 
ATOM      3  C2  UNL d   1       1.637   0.029  -0.724  0.00  0.00     0.034 A 
ATOM      4  C3  UNL d   1       0.404   0.128  -0.067  0.00  0.00     0.017 A 
ATOM      5  C4  UNL d   1       0.030  -0.853   0.859  0.00  0.00     0.017 A 
ATOM      6  C5  UNL d   1       0.889  -1.924   1.122  0.00  0.00     0.034 A 
ATOM      7 Cl   UNL d   1      -1.474  -0.800   1.708  0.00  0.00    -0.070 Cl
ATOM      8 Cl1  UNL d   1      -0.602   1.480  -0.446  0.00  0.00    -0.070 Cl
ENDROOT
TORSDOF 0
ENDMDL
