MODEL 1
REMARK minimizedAffinity 3.36430168
REMARK minimizedRMSD -1
REMARK  0 active torsions:
REMARK  status: ('A' for Active; 'I' for Inactive)
ROOT
ATOM      1  C   UNL d   1      -1.486  -0.304   1.608  0.00  0.00     0.020 A 
ATOM      2  C1  UNL d   1      -1.743  -1.645   1.891  0.00  0.00     0.020 A 
ATOM      3  C2  UNL d   1      -1.460  -2.626   0.938  0.00  0.00     0.034 A 
ATOM      4  C3  UNL d   1      -0.917  -2.268  -0.301  0.00  0.00     0.017 A 
ATOM      5  C4  UNL d   1      -0.659  -0.922  -0.584  0.00  0.00     0.017 A 
ATOM      6  C5  UNL d   1      -0.945   0.056   0.373  0.00  0.00     0.034 A 
ATOM      7 Cl   UNL d   1       0.009  -0.402  -2.091  0.00  0.00    -0.070 Cl
ATOM      8 Cl1  UNL d   1      -0.591  -3.533  -1.432  0.00  0.00    -0.070 Cl
ENDROOT
TORSDOF 0
ENDMDL
