MODEL 1
REMARK minimizedAffinity -4.28355837
REMARK minimizedRMSD -1
REMARK  0 active torsions:
REMARK  status: ('A' for Active; 'I' for Inactive)
ROOT
ATOM      1  C   UNL d   1       1.879  -2.295   0.749  0.00  0.00     0.020 A 
ATOM      2  C1  UNL d   1       2.121  -1.354  -0.251  0.00  0.00     0.020 A 
ATOM      3  C2  UNL d   1       1.182  -0.353  -0.509  0.00  0.00     0.034 A 
ATOM      4  C3  UNL d   1      -0.003  -0.291   0.233  0.00  0.00     0.017 A 
ATOM      5  C4  UNL d   1      -0.244  -1.236   1.237  0.00  0.00     0.017 A 
ATOM      6  C5  UNL d   1       0.699  -2.236   1.491  0.00  0.00     0.034 A 
ATOM      7 Cl   UNL d   1      -1.683  -1.223   2.195  0.00  0.00    -0.070 Cl
ATOM      8 Cl1  UNL d   1      -1.119   0.974  -0.140  0.00  0.00    -0.070 Cl
ENDROOT
TORSDOF 0
ENDMDL
