MODEL 1
REMARK minimizedAffinity -3.08381653
REMARK minimizedRMSD -1
REMARK  0 active torsions:
REMARK  status: ('A' for Active; 'I' for Inactive)
ROOT
ATOM      1  C   UNL d   1       1.918  -0.945  -0.419  0.00  0.00     0.020 A 
ATOM      2  C1  UNL d   1       1.738  -1.956   0.524  0.00  0.00     0.020 A 
ATOM      3  C2  UNL d   1       0.566  -2.004   1.281  0.00  0.00     0.034 A 
ATOM      4  C3  UNL d   1      -0.431  -1.038   1.098  0.00  0.00     0.017 A 
ATOM      5  C4  UNL d   1      -0.249  -0.023   0.151  0.00  0.00     0.017 A 
ATOM      6  C5  UNL d   1       0.926   0.019  -0.605  0.00  0.00     0.034 A 
ATOM      7 Cl   UNL d   1      -1.434   1.203  -0.132  0.00  0.00    -0.070 Cl
ATOM      8 Cl1  UNL d   1      -1.855  -1.158   2.070  0.00  0.00    -0.070 Cl
ENDROOT
TORSDOF 0
ENDMDL
