MODEL 1
REMARK minimizedAffinity -3.70270443
REMARK minimizedRMSD -1
REMARK  0 active torsions:
REMARK  status: ('A' for Active; 'I' for Inactive)
ROOT
ATOM      1  C   UNL d   1       0.099   1.324  -0.457  0.00  0.00     0.020 A 
ATOM      2  C1  UNL d   1       1.383   0.852  -0.729  0.00  0.00     0.020 A 
ATOM      3  C2  UNL d   1       1.774  -0.408  -0.274  0.00  0.00     0.034 A 
ATOM      4  C3  UNL d   1       0.882  -1.202   0.456  0.00  0.00     0.017 A 
ATOM      5  C4  UNL d   1      -0.407  -0.727   0.728  0.00  0.00     0.017 A 
ATOM      6  C5  UNL d   1      -0.794   0.536   0.270  0.00  0.00     0.034 A 
ATOM      7 Cl   UNL d   1      -1.564  -1.649   1.622  0.00  0.00    -0.070 Cl
ATOM      8 Cl1  UNL d   1       1.433  -2.750   0.988  0.00  0.00    -0.070 Cl
ENDROOT
TORSDOF 0
ENDMDL
