MODEL 1
REMARK minimizedAffinity -4.39395475
REMARK minimizedRMSD -1
REMARK  0 active torsions:
REMARK  status: ('A' for Active; 'I' for Inactive)
ROOT
ATOM      1  C   UNL d   1       1.297  -2.530   0.588  0.00  0.00     0.020 A 
ATOM      2  C1  UNL d   1      -0.061  -2.499   0.901  0.00  0.00     0.020 A 
ATOM      3  C2  UNL d   1      -0.814  -1.354   0.630  0.00  0.00     0.034 A 
ATOM      4  C3  UNL d   1      -0.208  -0.235   0.046  0.00  0.00     0.017 A 
ATOM      5  C4  UNL d   1       1.155  -0.268  -0.267  0.00  0.00     0.017 A 
ATOM      6  C5  UNL d   1       1.904  -1.417   0.006  0.00  0.00     0.034 A 
ATOM      7 Cl   UNL d   1       1.973   1.073  -0.990  0.00  0.00    -0.070 Cl
ATOM      8 Cl1  UNL d   1      -1.199   1.146  -0.262  0.00  0.00    -0.070 Cl
ENDROOT
TORSDOF 0
ENDMDL
