MODEL 1
REMARK minimizedAffinity -3.16704607
REMARK minimizedRMSD -1
REMARK  0 active torsions:
REMARK  status: ('A' for Active; 'I' for Inactive)
ROOT
ATOM      1  C   UNL d   1       0.101   1.159  -0.414  0.00  0.00     0.020 A 
ATOM      2  C1  UNL d   1       1.342   0.633  -0.768  0.00  0.00     0.020 A 
ATOM      3  C2  UNL d   1       1.698  -0.653  -0.358  0.00  0.00     0.034 A 
ATOM      4  C3  UNL d   1       0.811  -1.418   0.408  0.00  0.00     0.017 A 
ATOM      5  C4  UNL d   1      -0.435  -0.889   0.763  0.00  0.00     0.017 A 
ATOM      6  C5  UNL d   1      -0.786   0.399   0.350  0.00  0.00     0.034 A 
ATOM      7 Cl   UNL d   1      -1.583  -1.773   1.706  0.00  0.00    -0.070 Cl
ATOM      8 Cl1  UNL d   1       1.316  -3.002   0.881  0.00  0.00    -0.070 Cl
ENDROOT
TORSDOF 0
ENDMDL
