MODEL 1
REMARK minimizedAffinity -5.9220252
REMARK minimizedRMSD -1
REMARK  0 active torsions:
REMARK  status: ('A' for Active; 'I' for Inactive)
ROOT
ATOM      1  C   UNL d   1      -0.902  -2.677   3.252  0.00  0.00     0.020 A 
ATOM      2  C1  UNL d   1       0.154  -3.517   2.901  0.00  0.00     0.020 A 
ATOM      3  C2  UNL d   1       1.018  -3.156   1.865  0.00  0.00     0.034 A 
ATOM      4  C3  UNL d   1       0.828  -1.952   1.176  0.00  0.00     0.017 A 
ATOM      5  C4  UNL d   1      -0.233  -1.110   1.529  0.00  0.00     0.017 A 
ATOM      6  C5  UNL d   1      -1.096  -1.477   2.567  0.00  0.00     0.034 A 
ATOM      7 Cl   UNL d   1      -0.532   0.390   0.725  0.00  0.00    -0.070 Cl
ATOM      8 Cl1  UNL d   1       1.935  -1.569  -0.094  0.00  0.00    -0.070 Cl
ENDROOT
TORSDOF 0
ENDMDL
