MODEL 1
REMARK minimizedAffinity -3.66108704
REMARK minimizedRMSD -1
REMARK  0 active torsions:
REMARK  status: ('A' for Active; 'I' for Inactive)
ROOT
ATOM      1  C   UNL d   1       1.459  -1.438  -0.880  0.00  0.00     0.020 A 
ATOM      2  C1  UNL d   1       1.255  -2.380   0.128  0.00  0.00     0.020 A 
ATOM      3  C2  UNL d   1       0.260  -2.174   1.086  0.00  0.00     0.034 A 
ATOM      4  C3  UNL d   1      -0.535  -1.023   1.038  0.00  0.00     0.017 A 
ATOM      5  C4  UNL d   1      -0.329  -0.078   0.026  0.00  0.00     0.017 A 
ATOM      6  C5  UNL d   1       0.668  -0.290  -0.930  0.00  0.00     0.034 A 
ATOM      7 Cl   UNL d   1      -1.270   1.367  -0.098  0.00  0.00    -0.070 Cl
ATOM      8 Cl1  UNL d   1      -1.747  -0.832   2.254  0.00  0.00    -0.070 Cl
ENDROOT
TORSDOF 0
ENDMDL
