MODEL 1
REMARK minimizedAffinity -5.20560551
REMARK minimizedRMSD -1
REMARK  0 active torsions:
REMARK  status: ('A' for Active; 'I' for Inactive)
ROOT
ATOM      1  C4' PXY d   1      -0.612  -0.732   0.623  0.00  0.00     0.077 C 
ATOM      2  C1' PXY d   1       3.690  -4.518  -0.140  0.00  0.00     0.077 C 
ATOM      3  C1  PXY d   1       2.570  -3.517   0.066  0.00  0.00    -0.082 A 
ATOM      4  C2  PXY d   1       1.314  -3.934   0.080  0.00  0.00     0.003 A 
ATOM      5  C3  PXY d   1       0.288  -3.038   0.233  0.00  0.00     0.003 A 
ATOM      6  C4  PXY d   1       0.551  -1.708   0.428  0.00  0.00    -0.082 A 
ATOM      7  C5  PXY d   1       1.830  -1.277   0.426  0.00  0.00     0.003 A 
ATOM      8  C6  PXY d   1       2.856  -2.196   0.228  0.00  0.00     0.003 A 
ENDROOT
TORSDOF 0
ENDMDL
