MODEL 1
REMARK minimizedAffinity -1.12373114
REMARK minimizedRMSD -1
REMARK  0 active torsions:
REMARK  status: ('A' for Active; 'I' for Inactive)
ROOT
ATOM      1  C4' PXY d   1      -0.662  -0.437   1.048  0.00  0.00     0.077 C 
ATOM      2  C1' PXY d   1       3.321  -4.363  -0.414  0.00  0.00     0.077 C 
ATOM      3  C1  PXY d   1       2.286  -3.325  -0.027  0.00  0.00    -0.082 A 
ATOM      4  C2  PXY d   1       1.060  -3.710   0.288  0.00  0.00     0.003 A 
ATOM      5  C3  PXY d   1       0.103  -2.782   0.610  0.00  0.00     0.003 A 
ATOM      6  C4  PXY d   1       0.418  -1.451   0.660  0.00  0.00    -0.082 A 
ATOM      7  C5  PXY d   1       1.670  -1.051   0.351  0.00  0.00     0.003 A 
ATOM      8  C6  PXY d   1       2.616  -2.005  -0.013  0.00  0.00     0.003 A 
ENDROOT
TORSDOF 0
ENDMDL
