MODEL 1
REMARK minimizedAffinity -3.09750032
REMARK minimizedRMSD -1
REMARK  0 active torsions:
REMARK  status: ('A' for Active; 'I' for Inactive)
ROOT
ATOM      1  C4' PXY d   1       4.030  -4.234  -0.406  0.00  0.00     0.077 C 
ATOM      2  C1' PXY d   1      -0.745  -1.207   0.797  0.00  0.00     0.077 C 
ATOM      3  C1  PXY d   1       0.514  -1.989   0.479  0.00  0.00    -0.082 A 
ATOM      4  C2  PXY d   1       0.420  -3.255   0.105  0.00  0.00     0.003 A 
ATOM      5  C3  PXY d   1       1.550  -3.987  -0.156  0.00  0.00     0.003 A 
ATOM      6  C4  PXY d   1       2.786  -3.402  -0.084  0.00  0.00    -0.082 A 
ATOM      7  C5  PXY d   1       2.889  -2.108   0.287  0.00  0.00     0.003 A 
ATOM      8  C6  PXY d   1       1.733  -1.394   0.587  0.00  0.00     0.003 A 
ENDROOT
TORSDOF 0
ENDMDL
