MODEL 1
REMARK minimizedAffinity 0.231932968
REMARK minimizedRMSD -1
REMARK  0 active torsions:
REMARK  status: ('A' for Active; 'I' for Inactive)
ROOT
ATOM      1  C4' PXY d   1       4.209  -1.811   0.886  0.00  0.00     0.077 C 
ATOM      2  C1' PXY d   1      -1.521  -1.065   1.047  0.00  0.00     0.077 C 
ATOM      3  C1  PXY d   1      -0.020  -1.271   1.012  0.00  0.00    -0.082 A 
ATOM      4  C2  PXY d   1       0.777  -0.241   0.779  0.00  0.00     0.003 A 
ATOM      5  C3  PXY d   1       2.135  -0.415   0.713  0.00  0.00     0.003 A 
ATOM      6  C4  PXY d   1       2.688  -1.647   0.939  0.00  0.00    -0.082 A 
ATOM      7  C5  PXY d   1       1.882  -2.702   1.188  0.00  0.00     0.003 A 
ATOM      8  C6  PXY d   1       0.504  -2.512   1.210  0.00  0.00     0.003 A 
ENDROOT
TORSDOF 0
ENDMDL
