MODEL 1
REMARK minimizedAffinity -3.40805888
REMARK minimizedRMSD -1
REMARK  0 active torsions:
REMARK  status: ('A' for Active; 'I' for Inactive)
ROOT
ATOM      1  C4' PXY d   1       3.216  -3.595  -0.555  0.00  0.00     0.077 C 
ATOM      2  C1' PXY d   1      -0.920  -0.298   1.777  0.00  0.00     0.077 C 
ATOM      3  C1  PXY d   1       0.164  -1.170   1.175  0.00  0.00    -0.082 A 
ATOM      4  C2  PXY d   1       1.009  -0.653   0.299  0.00  0.00     0.003 A 
ATOM      5  C3  PXY d   1       1.975  -1.436  -0.278  0.00  0.00     0.003 A 
ATOM      6  C4  PXY d   1       2.111  -2.749   0.084  0.00  0.00    -0.082 A 
ATOM      7  C5  PXY d   1       1.259  -3.282   0.986  0.00  0.00     0.003 A 
ATOM      8  C6  PXY d   1       0.259  -2.481   1.529  0.00  0.00     0.003 A 
ENDROOT
TORSDOF 0
ENDMDL
