MODEL 1
REMARK minimizedAffinity -4.47180986
REMARK minimizedRMSD -1
REMARK  0 active torsions:
REMARK  status: ('A' for Active; 'I' for Inactive)
ROOT
ATOM      1  C4' PXY d   1      -1.750  -0.045   1.352  0.00  0.00     0.077 C 
ATOM      2  C1' PXY d   1       2.436  -3.755  -0.108  0.00  0.00     0.077 C 
ATOM      3  C1  PXY d   1       1.346  -2.777   0.284  0.00  0.00    -0.082 A 
ATOM      4  C2  PXY d   1       0.080  -3.080   0.050  0.00  0.00     0.003 A 
ATOM      5  C3  PXY d   1      -0.916  -2.194   0.369  0.00  0.00     0.003 A 
ATOM      6  C4  PXY d   1      -0.617  -1.006   0.982  0.00  0.00    -0.082 A 
ATOM      7  C5  PXY d   1       0.672  -0.694   1.234  0.00  0.00     0.003 A 
ATOM      8  C6  PXY d   1       1.671  -1.590   0.865  0.00  0.00     0.003 A 
ENDROOT
TORSDOF 0
ENDMDL
