MODEL 1
REMARK minimizedAffinity 0.604595959
REMARK minimizedRMSD -1
REMARK  0 active torsions:
REMARK  status: ('A' for Active; 'I' for Inactive)
ROOT
ATOM      1  C4' PXY d   1       2.999  -4.237  -0.053  0.00  0.00     0.077 C 
ATOM      2  C1' PXY d   1      -1.309  -0.521   0.970  0.00  0.00     0.077 C 
ATOM      3  C1  PXY d   1      -0.187  -1.506   0.706  0.00  0.00    -0.082 A 
ATOM      4  C2  PXY d   1       1.067  -1.082   0.697  0.00  0.00     0.003 A 
ATOM      5  C3  PXY d   1       2.091  -1.952   0.428  0.00  0.00     0.003 A 
ATOM      6  C4  PXY d   1       1.835  -3.281   0.218  0.00  0.00    -0.082 A 
ATOM      7  C5  PXY d   1       0.559  -3.723   0.237  0.00  0.00     0.003 A 
ATOM      8  C6  PXY d   1      -0.470  -2.816   0.471  0.00  0.00     0.003 A 
ENDROOT
TORSDOF 0
ENDMDL
