MODEL 1
REMARK minimizedAffinity -2.99556303
REMARK minimizedRMSD -1
REMARK  0 active torsions:
REMARK  status: ('A' for Active; 'I' for Inactive)
ROOT
ATOM      1  C4' PXY d   1       1.814   1.673   0.844  0.00  0.00     0.077 C 
ATOM      2  C1' PXY d   1       0.870  -3.950  -0.112  0.00  0.00     0.077 C 
ATOM      3  C1  PXY d   1       1.105  -2.473   0.138  0.00  0.00    -0.082 A 
ATOM      4  C2  PXY d   1       2.296  -1.950  -0.103  0.00  0.00     0.003 A 
ATOM      5  C3  PXY d   1       2.535  -0.623   0.147  0.00  0.00     0.003 A 
ATOM      6  C4  PXY d   1       1.529   0.188   0.598  0.00  0.00    -0.082 A 
ATOM      7  C5  PXY d   1       0.308  -0.335   0.836  0.00  0.00     0.003 A 
ATOM      8  C6  PXY d   1       0.097  -1.693   0.615  0.00  0.00     0.003 A 
ENDROOT
TORSDOF 0
ENDMDL
