MODEL 1
REMARK minimizedAffinity -5.78960133
REMARK minimizedRMSD -1
REMARK  0 active torsions:
REMARK  status: ('A' for Active; 'I' for Inactive)
ROOT
ATOM      1  C4' PXY d   1      -0.695  -1.018  -0.076  0.00  0.00     0.077 C 
ATOM      2  C1' PXY d   1       3.778  -4.680  -0.077  0.00  0.00     0.077 C 
ATOM      3  C1  PXY d   1       2.611  -3.712  -0.069  0.00  0.00    -0.082 A 
ATOM      4  C2  PXY d   1       1.393  -4.152  -0.339  0.00  0.00     0.003 A 
ATOM      5  C3  PXY d   1       0.332  -3.284  -0.368  0.00  0.00     0.003 A 
ATOM      6  C4  PXY d   1       0.511  -1.961  -0.064  0.00  0.00    -0.082 A 
ATOM      7  C5  PXY d   1       1.749  -1.506   0.224  0.00  0.00     0.003 A 
ATOM      8  C6  PXY d   1       2.820  -2.396   0.207  0.00  0.00     0.003 A 
ENDROOT
TORSDOF 0
ENDMDL
