MODEL 1
REMARK minimizedAffinity 1.66990805
REMARK minimizedRMSD -1
REMARK  0 active torsions:
REMARK  status: ('A' for Active; 'I' for Inactive)
ROOT
ATOM      1  C4' PXY d   1       3.655  -4.518  -0.531  0.00  0.00     0.077 C 
ATOM      2  C1' PXY d   1      -0.441  -0.684   0.857  0.00  0.00     0.077 C 
ATOM      3  C1  PXY d   1       0.626  -1.699   0.498  0.00  0.00    -0.082 A 
ATOM      4  C2  PXY d   1       1.876  -1.301   0.330  0.00  0.00     0.003 A 
ATOM      5  C3  PXY d   1       2.848  -2.201  -0.026  0.00  0.00     0.003 A 
ATOM      6  C4  PXY d   1       2.547  -3.530  -0.159  0.00  0.00    -0.082 A 
ATOM      7  C5  PXY d   1       1.275  -3.945   0.022  0.00  0.00     0.003 A 
ATOM      8  C6  PXY d   1       0.295  -3.009   0.342  0.00  0.00     0.003 A 
ENDROOT
TORSDOF 0
ENDMDL
