MODEL 1
REMARK minimizedAffinity -5.89899588
REMARK minimizedRMSD -1
REMARK  0 active torsions:
REMARK  status: ('A' for Active; 'I' for Inactive)
ROOT
ATOM      1  C4' PXY d   1       3.793  -3.953  -0.131  0.00  0.00     0.077 C 
ATOM      2  C1' PXY d   1      -0.525  -0.288   1.027  0.00  0.00     0.077 C 
ATOM      3  C1  PXY d   1       0.614  -1.240   0.716  0.00  0.00    -0.082 A 
ATOM      4  C2  PXY d   1       0.403  -2.546   0.755  0.00  0.00     0.003 A 
ATOM      5  C3  PXY d   1       1.430  -3.421   0.508  0.00  0.00     0.003 A 
ATOM      6  C4  PXY d   1       2.671  -2.954   0.166  0.00  0.00    -0.082 A 
ATOM      7  C5  PXY d   1       2.891  -1.624   0.115  0.00  0.00     0.003 A 
ATOM      8  C6  PXY d   1       1.846  -0.752   0.409  0.00  0.00     0.003 A 
ENDROOT
TORSDOF 0
ENDMDL
