MODEL 1
REMARK minimizedAffinity -1.28440654
REMARK minimizedRMSD -1
REMARK  0 active torsions:
REMARK  status: ('A' for Active; 'I' for Inactive)
ROOT
ATOM      1  C4' PXY d   1       3.467  -1.779   0.027  0.00  0.00     0.077 C 
ATOM      2  C1' PXY d   1      -2.193  -2.659   0.803  0.00  0.00     0.077 C 
ATOM      3  C1  PXY d   1      -0.711  -2.416   0.594  0.00  0.00    -0.082 A 
ATOM      4  C2  PXY d   1       0.112  -3.447   0.492  0.00  0.00     0.003 A 
ATOM      5  C3  PXY d   1       1.459  -3.245   0.335  0.00  0.00     0.003 A 
ATOM      6  C4  PXY d   1       1.962  -1.976   0.229  0.00  0.00    -0.082 A 
ATOM      7  C5  PXY d   1       1.127  -0.920   0.322  0.00  0.00     0.003 A 
ATOM      8  C6  PXY d   1      -0.232  -1.145   0.522  0.00  0.00     0.003 A 
ENDROOT
TORSDOF 0
ENDMDL
