MODEL 1
REMARK minimizedAffinity -5.50322247
REMARK minimizedRMSD -1
REMARK  0 active torsions:
REMARK  status: ('A' for Active; 'I' for Inactive)
ROOT
ATOM      1  C4' PXY d   1       3.861  -3.697  -0.323  0.00  0.00     0.077 C 
ATOM      2  C1' PXY d   1      -0.781  -0.470   0.882  0.00  0.00     0.077 C 
ATOM      3  C1  PXY d   1       0.442  -1.306   0.561  0.00  0.00    -0.082 A 
ATOM      4  C2  PXY d   1       0.315  -2.611   0.382  0.00  0.00     0.003 A 
ATOM      5  C3  PXY d   1       1.416  -3.386   0.123  0.00  0.00     0.003 A 
ATOM      6  C4  PXY d   1       2.652  -2.812  -0.007  0.00  0.00    -0.082 A 
ATOM      7  C5  PXY d   1       2.789  -1.480   0.163  0.00  0.00     0.003 A 
ATOM      8  C6  PXY d   1       1.665  -0.717   0.466  0.00  0.00     0.003 A 
ENDROOT
TORSDOF 0
ENDMDL
