MODEL 1
REMARK minimizedAffinity 2.14622808
REMARK minimizedRMSD -1
REMARK  0 active torsions:
REMARK  status: ('A' for Active; 'I' for Inactive)
ROOT
ATOM      1  C4' PXY d   1      -1.103   0.993   1.630  0.00  0.00     0.077 C 
ATOM      2  C1' PXY d   1       1.661  -3.742  -0.201  0.00  0.00     0.077 C 
ATOM      3  C1  PXY d   1       0.945  -2.498   0.288  0.00  0.00    -0.082 A 
ATOM      4  C2  PXY d   1      -0.350  -2.355   0.056  0.00  0.00     0.003 A 
ATOM      5  C3  PXY d   1      -1.006  -1.222   0.464  0.00  0.00     0.003 A 
ATOM      6  C4  PXY d   1      -0.342  -0.250   1.163  0.00  0.00    -0.082 A 
ATOM      7  C5  PXY d   1       0.977  -0.394   1.413  0.00  0.00     0.003 A 
ATOM      8  C6  PXY d   1       1.634  -1.532   0.955  0.00  0.00     0.003 A 
ENDROOT
TORSDOF 0
ENDMDL
