MODEL 1
REMARK minimizedAffinity -1.80324554
REMARK minimizedRMSD -1
REMARK  0 active torsions:
REMARK  status: ('A' for Active; 'I' for Inactive)
ROOT
ATOM      1  C4' PXY d   1       3.877  -4.237  -0.290  0.00  0.00     0.077 C 
ATOM      2  C1' PXY d   1      -0.620  -0.765   0.775  0.00  0.00     0.077 C 
ATOM      3  C1  PXY d   1       0.567  -1.665   0.492  0.00  0.00    -0.082 A 
ATOM      4  C2  PXY d   1       0.364  -2.932   0.169  0.00  0.00     0.003 A 
ATOM      5  C3  PXY d   1       1.427  -3.768  -0.058  0.00  0.00     0.003 A 
ATOM      6  C4  PXY d   1       2.709  -3.289  -0.006  0.00  0.00    -0.082 A 
ATOM      7  C5  PXY d   1       2.923  -1.995   0.313  0.00  0.00     0.003 A 
ATOM      8  C6  PXY d   1       1.832  -1.173   0.580  0.00  0.00     0.003 A 
ENDROOT
TORSDOF 0
ENDMDL
