MODEL 1
REMARK minimizedAffinity 0.810432315
REMARK minimizedRMSD -1
REMARK  0 active torsions:
REMARK  status: ('A' for Active; 'I' for Inactive)
ROOT
ATOM      1  C4' PXY d   1       2.063  -4.117   1.033  0.00  0.00     0.077 C 
ATOM      2  C1' PXY d   1      -1.443   0.479   0.973  0.00  0.00     0.077 C 
ATOM      3  C1  PXY d   1      -0.513  -0.718   0.989  0.00  0.00    -0.082 A 
ATOM      4  C2  PXY d   1      -0.920  -1.869   0.480  0.00  0.00     0.003 A 
ATOM      5  C3  PXY d   1      -0.104  -2.971   0.515  0.00  0.00     0.003 A 
ATOM      6  C4  PXY d   1       1.161  -2.879   1.029  0.00  0.00    -0.082 A 
ATOM      7  C5  PXY d   1       1.588  -1.705   1.541  0.00  0.00     0.003 A 
ATOM      8  C6  PXY d   1       0.730  -0.610   1.533  0.00  0.00     0.003 A 
ENDROOT
TORSDOF 0
ENDMDL
