MODEL 1
REMARK minimizedAffinity 1.94185054
REMARK minimizedRMSD -1
REMARK  0 active torsions:
REMARK  status: ('A' for Active; 'I' for Inactive)
ROOT
ATOM      1  C4' PXY d   1       0.228  -4.713  -1.457  0.00  0.00     0.077 C 
ATOM      2  C1' PXY d   1       0.736  -0.136   2.037  0.00  0.00     0.077 C 
ATOM      3  C1  PXY d   1       0.616  -1.338   1.121  0.00  0.00    -0.082 A 
ATOM      4  C2  PXY d   1      -0.415  -1.433   0.298  0.00  0.00     0.003 A 
ATOM      5  C3  PXY d   1      -0.557  -2.529  -0.514  0.00  0.00     0.003 A 
ATOM      6  C4  PXY d   1       0.395  -3.512  -0.521  0.00  0.00    -0.082 A 
ATOM      7  C5  PXY d   1       1.456  -3.418   0.308  0.00  0.00     0.003 A 
ATOM      8  C6  PXY d   1       1.560  -2.318   1.154  0.00  0.00     0.003 A 
ENDROOT
TORSDOF 0
ENDMDL
