MODEL 1
REMARK minimizedAffinity -2.10807848
REMARK minimizedRMSD -1
REMARK  0 active torsions:
REMARK  status: ('A' for Active; 'I' for Inactive)
ROOT
ATOM      1  C4' PXY d   1       3.087  -4.768  -0.244  0.00  0.00     0.077 C 
ATOM      2  C1' PXY d   1      -0.637  -0.549   1.081  0.00  0.00     0.077 C 
ATOM      3  C1  PXY d   1       0.346  -1.648   0.725  0.00  0.00    -0.082 A 
ATOM      4  C2  PXY d   1       0.011  -2.913   0.919  0.00  0.00     0.003 A 
ATOM      5  C3  PXY d   1       0.899  -3.917   0.632  0.00  0.00     0.003 A 
ATOM      6  C4  PXY d   1       2.123  -3.626   0.092  0.00  0.00    -0.082 A 
ATOM      7  C5  PXY d   1       2.468  -2.338  -0.118  0.00  0.00     0.003 A 
ATOM      8  C6  PXY d   1       1.568  -1.332   0.217  0.00  0.00     0.003 A 
ENDROOT
TORSDOF 0
ENDMDL
