MODEL 1
REMARK minimizedAffinity -4.36190653
REMARK minimizedRMSD -1
REMARK  0 active torsions:
REMARK  status: ('A' for Active; 'I' for Inactive)
ROOT
ATOM      1  C4' PXY d   1       3.446  -3.995  -0.129  0.00  0.00     0.077 C 
ATOM      2  C1' PXY d   1      -0.818  -0.281   1.070  0.00  0.00     0.077 C 
ATOM      3  C1  PXY d   1       0.307  -1.245   0.749  0.00  0.00    -0.082 A 
ATOM      4  C2  PXY d   1       0.058  -2.544   0.689  0.00  0.00     0.003 A 
ATOM      5  C3  PXY d   1       1.070  -3.432   0.433  0.00  0.00     0.003 A 
ATOM      6  C4  PXY d   1       2.339  -2.984   0.182  0.00  0.00    -0.082 A 
ATOM      7  C5  PXY d   1       2.599  -1.660   0.230  0.00  0.00     0.003 A 
ATOM      8  C6  PXY d   1       1.566  -0.777   0.533  0.00  0.00     0.003 A 
ENDROOT
TORSDOF 0
ENDMDL
