MODEL 1
REMARK minimizedAffinity -0.319993258
REMARK minimizedRMSD -1
REMARK  0 active torsions:
REMARK  status: ('A' for Active; 'I' for Inactive)
ROOT
ATOM      1  C4' PXY d   1       3.537  -3.356  -0.149  0.00  0.00     0.077 C 
ATOM      2  C1' PXY d   1      -1.207  -0.467   1.452  0.00  0.00     0.077 C 
ATOM      3  C1  PXY d   1       0.033  -1.235   1.039  0.00  0.00    -0.082 A 
ATOM      4  C2  PXY d   1       1.109  -0.575   0.643  0.00  0.00     0.003 A 
ATOM      5  C3  PXY d   1       2.229  -1.254   0.236  0.00  0.00     0.003 A 
ATOM      6  C4  PXY d   1       2.265  -2.622   0.286  0.00  0.00    -0.082 A 
ATOM      7  C5  PXY d   1       1.175  -3.302   0.700  0.00  0.00     0.003 A 
ATOM      8  C6  PXY d   1       0.035  -2.595   1.069  0.00  0.00     0.003 A 
ENDROOT
TORSDOF 0
ENDMDL
