MODEL 1
REMARK minimizedAffinity -2.53084207
REMARK minimizedRMSD -1
REMARK  0 active torsions:
REMARK  status: ('A' for Active; 'I' for Inactive)
ROOT
ATOM      1  C   UNL d   1       1.264  -2.532   0.694  0.00  0.00     0.172 C 
ATOM      2  N   UNL d   1       0.482  -1.340   0.467  0.00  0.00    -0.070 N 
ATOM      3  C1  UNL d   1       0.752  -0.374  -0.467  0.00  0.00    -0.004 A 
ATOM      4  C2  UNL d   1      -0.225   0.593  -0.367  0.00  0.00    -0.047 A 
ATOM      5  C3  UNL d   1      -1.111   0.196   0.663  0.00  0.00    -0.047 A 
ATOM      6  C4  UNL d   1      -0.649  -1.004   1.162  0.00  0.00    -0.004 A 
ENDROOT
TORSDOF 0
ENDMDL
