MODEL 1
REMARK minimizedAffinity -1.95704687
REMARK minimizedRMSD -1
REMARK  0 active torsions:
REMARK  status: ('A' for Active; 'I' for Inactive)
ROOT
ATOM      1  C   UNL d   1       2.166  -0.162  -0.880  0.00  0.00     0.172 C 
ATOM      2  N   UNL d   1       0.900  -0.124  -0.186  0.00  0.00    -0.070 N 
ATOM      3  C1  UNL d   1      -0.005   0.903  -0.232  0.00  0.00    -0.004 A 
ATOM      4  C2  UNL d   1      -1.078   0.555   0.561  0.00  0.00    -0.047 A 
ATOM      5  C3  UNL d   1      -0.808  -0.725   1.102  0.00  0.00    -0.047 A 
ATOM      6  C4  UNL d   1       0.423  -1.121   0.623  0.00  0.00    -0.004 A 
ENDROOT
TORSDOF 0
ENDMDL
