MODEL 1
REMARK minimizedAffinity -3.47305799
REMARK minimizedRMSD -1
REMARK  0 active torsions:
REMARK  status: ('A' for Active; 'I' for Inactive)
ROOT
ATOM      1  C   UNL d   1       1.155  -2.355   0.799  0.00  0.00     0.172 C 
ATOM      2  N   UNL d   1       0.497  -1.079   0.643  0.00  0.00    -0.070 N 
ATOM      3  C1  UNL d   1      -0.642  -0.683   1.293  0.00  0.00    -0.004 A 
ATOM      4  C2  UNL d   1      -0.946   0.594   0.873  0.00  0.00    -0.047 A 
ATOM      5  C3  UNL d   1       0.045   0.979  -0.062  0.00  0.00    -0.047 A 
ATOM      6  C4  UNL d   1       0.925  -0.075  -0.185  0.00  0.00    -0.004 A 
ENDROOT
TORSDOF 0
ENDMDL
