MODEL 1
REMARK minimizedAffinity -2.24479795
REMARK minimizedRMSD -1
REMARK  0 active torsions:
REMARK  status: ('A' for Active; 'I' for Inactive)
ROOT
ATOM      1  C   UNL d   1       2.016   3.137   0.553  0.00  0.00     0.172 C 
ATOM      2  N   UNL d   1       1.187   1.966   0.385  0.00  0.00    -0.070 N 
ATOM      3  C1  UNL d   1       1.638   0.679   0.261  0.00  0.00    -0.004 A 
ATOM      4  C2  UNL d   1       0.540  -0.142   0.121  0.00  0.00    -0.047 A 
ATOM      5  C3  UNL d   1      -0.611   0.680   0.162  0.00  0.00    -0.047 A 
ATOM      6  C4  UNL d   1      -0.182   1.980   0.326  0.00  0.00    -0.004 A 
ENDROOT
TORSDOF 0
ENDMDL
