MODEL 1
REMARK minimizedAffinity -1.80479884
REMARK minimizedRMSD -1
REMARK  0 active torsions:
REMARK  status: ('A' for Active; 'I' for Inactive)
ROOT
ATOM      1  C   UNL d   1      -0.108   0.586  -0.208  0.00  0.00     0.172 C 
ATOM      2  N   UNL d   1       0.777   1.724  -0.115  0.00  0.00    -0.070 N 
ATOM      3  C1  UNL d   1       2.078   1.690   0.310  0.00  0.00    -0.004 A 
ATOM      4  C2  UNL d   1       2.575   2.975   0.252  0.00  0.00    -0.047 A 
ATOM      5  C3  UNL d   1       1.535   3.809  -0.224  0.00  0.00    -0.047 A 
ATOM      6  C4  UNL d   1       0.434   3.009  -0.443  0.00  0.00    -0.004 A 
ENDROOT
TORSDOF 0
ENDMDL
