MODEL 1
REMARK minimizedAffinity -3.71680236
REMARK minimizedRMSD -1
REMARK  0 active torsions:
REMARK  status: ('A' for Active; 'I' for Inactive)
ROOT
ATOM      1  C   UNL d   1      -0.633   0.301  -0.012  0.00  0.00     0.172 C 
ATOM      2  N   UNL d   1       0.361  -0.686   0.338  0.00  0.00    -0.070 N 
ATOM      3  C1  UNL d   1       1.703  -0.453   0.477  0.00  0.00    -0.004 A 
ATOM      4  C2  UNL d   1       2.305  -1.645   0.817  0.00  0.00    -0.047 A 
ATOM      5  C3  UNL d   1       1.290  -2.628   0.884  0.00  0.00    -0.047 A 
ATOM      6  C4  UNL d   1       0.096  -2.007   0.583  0.00  0.00    -0.004 A 
ENDROOT
TORSDOF 0
ENDMDL
