MODEL 1
REMARK minimizedAffinity -2.69175267
REMARK minimizedRMSD -1
REMARK  0 active torsions:
REMARK  status: ('A' for Active; 'I' for Inactive)
ROOT
ATOM      1  C   UNL d   1       1.448  -2.588   1.440  0.00  0.00     0.172 C 
ATOM      2  N   UNL d   1       0.560  -1.481   1.172  0.00  0.00    -0.070 N 
ATOM      3  C1  UNL d   1      -0.500  -1.101   1.951  0.00  0.00    -0.004 A 
ATOM      4  C2  UNL d   1      -1.090  -0.007   1.356  0.00  0.00    -0.047 A 
ATOM      5  C3  UNL d   1      -0.360   0.280   0.178  0.00  0.00    -0.047 A 
ATOM      6  C4  UNL d   1       0.656  -0.648   0.089  0.00  0.00    -0.004 A 
ENDROOT
TORSDOF 0
ENDMDL
