MODEL 1
REMARK minimizedAffinity -1.42134988
REMARK minimizedRMSD -1
REMARK  0 active torsions:
REMARK  status: ('A' for Active; 'I' for Inactive)
ROOT
ATOM      1  C   UNL d   1      -0.432   1.286  -0.483  0.00  0.00     0.172 C 
ATOM      2  N   UNL d   1      -0.554   0.063   0.276  0.00  0.00    -0.070 N 
ATOM      3  C1  UNL d   1      -1.064  -0.042   1.542  0.00  0.00    -0.004 A 
ATOM      4  C2  UNL d   1      -1.008  -1.369   1.910  0.00  0.00    -0.047 A 
ATOM      5  C3  UNL d   1      -0.444  -2.086   0.828  0.00  0.00    -0.047 A 
ATOM      6  C4  UNL d   1      -0.173  -1.174  -0.171  0.00  0.00    -0.004 A 
ENDROOT
TORSDOF 0
ENDMDL
