MODEL 1
REMARK minimizedAffinity -2.06622553
REMARK minimizedRMSD -1
REMARK  0 active torsions:
REMARK  status: ('A' for Active; 'I' for Inactive)
ROOT
ATOM      1  C   UNL d   1       0.224   1.119   0.376  0.00  0.00     0.172 C 
ATOM      2  N   UNL d   1       1.245   2.140   0.358  0.00  0.00    -0.070 N 
ATOM      3  C1  UNL d   1       1.037   3.482   0.538  0.00  0.00    -0.004 A 
ATOM      4  C2  UNL d   1       2.258   4.114   0.450  0.00  0.00    -0.047 A 
ATOM      5  C3  UNL d   1       3.234   3.119   0.208  0.00  0.00    -0.047 A 
ATOM      6  C4  UNL d   1       2.580   1.906   0.156  0.00  0.00    -0.004 A 
ENDROOT
TORSDOF 0
ENDMDL
