MODEL 1
REMARK minimizedAffinity -3.90283585
REMARK minimizedRMSD -1
REMARK  0 active torsions:
REMARK  status: ('A' for Active; 'I' for Inactive)
ROOT
ATOM      1  C   UNL d   1      -1.118  -0.073   0.760  0.00  0.00     0.172 C 
ATOM      2  N   UNL d   1      -0.060  -1.054   0.815  0.00  0.00    -0.070 N 
ATOM      3  C1  UNL d   1       1.184  -0.920   0.258  0.00  0.00    -0.004 A 
ATOM      4  C2  UNL d   1       1.895  -2.068   0.532  0.00  0.00    -0.047 A 
ATOM      5  C3  UNL d   1       1.049  -2.922   1.279  0.00  0.00    -0.047 A 
ATOM      6  C4  UNL d   1      -0.155  -2.270   1.440  0.00  0.00    -0.004 A 
ENDROOT
TORSDOF 0
ENDMDL
