MODEL 1
REMARK minimizedAffinity -2.50968051
REMARK minimizedRMSD -1
REMARK  0 active torsions:
REMARK  status: ('A' for Active; 'I' for Inactive)
ROOT
ATOM      1  C   UNL d   1      -0.539   1.266  -0.461  0.00  0.00     0.172 C 
ATOM      2  N   UNL d   1       0.612   2.103  -0.217  0.00  0.00    -0.070 N 
ATOM      3  C1  UNL d   1       0.580   3.444   0.060  0.00  0.00    -0.004 A 
ATOM      4  C2  UNL d   1       1.879   3.871   0.228  0.00  0.00    -0.047 A 
ATOM      5  C3  UNL d   1       2.721   2.749   0.045  0.00  0.00    -0.047 A 
ATOM      6  C4  UNL d   1       1.911   1.667  -0.229  0.00  0.00    -0.004 A 
ENDROOT
TORSDOF 0
ENDMDL
