MODEL 1
REMARK minimizedAffinity -1.6604327
REMARK minimizedRMSD -1
REMARK  0 active torsions:
REMARK  status: ('A' for Active; 'I' for Inactive)
ROOT
ATOM      1  C   UNL d   1       1.438  -2.953   0.847  0.00  0.00     0.172 C 
ATOM      2  N   UNL d   1       0.632  -1.771   0.655  0.00  0.00    -0.070 N 
ATOM      3  C1  UNL d   1      -0.603  -1.549   1.204  0.00  0.00    -0.004 A 
ATOM      4  C2  UNL d   1      -1.037  -0.311   0.782  0.00  0.00    -0.047 A 
ATOM      5  C3  UNL d   1      -0.028   0.230  -0.050  0.00  0.00    -0.047 A 
ATOM      6  C4  UNL d   1       0.993  -0.695  -0.112  0.00  0.00    -0.004 A 
ENDROOT
TORSDOF 0
ENDMDL
