MODEL 1
REMARK minimizedAffinity -3.01920795
REMARK minimizedRMSD -1
REMARK  0 active torsions:
REMARK  status: ('A' for Active; 'I' for Inactive)
ROOT
ATOM      1  C   UNL d   1      -0.571   0.795   0.153  0.00  0.00     0.172 C 
ATOM      2  N   UNL d   1       0.163  -0.417   0.430  0.00  0.00    -0.070 N 
ATOM      3  C1  UNL d   1      -0.366  -1.680   0.468  0.00  0.00    -0.004 A 
ATOM      4  C2  UNL d   1       0.655  -2.557   0.762  0.00  0.00    -0.047 A 
ATOM      5  C3  UNL d   1       1.839  -1.795   0.907  0.00  0.00    -0.047 A 
ATOM      6  C4  UNL d   1       1.506  -0.474   0.696  0.00  0.00    -0.004 A 
ENDROOT
TORSDOF 0
ENDMDL
