MODEL 1
REMARK minimizedAffinity -2.79048896
REMARK minimizedRMSD -1
REMARK  0 active torsions:
REMARK  status: ('A' for Active; 'I' for Inactive)
ROOT
ATOM      1  C   UNL d   1       2.376   1.346  -0.396  0.00  0.00     0.172 C 
ATOM      2  N   UNL d   1       1.451   0.253  -0.206  0.00  0.00    -0.070 N 
ATOM      3  C1  UNL d   1       0.109   0.287  -0.477  0.00  0.00    -0.004 A 
ATOM      4  C2  UNL d   1      -0.416  -0.948  -0.163  0.00  0.00    -0.047 A 
ATOM      5  C3  UNL d   1       0.647  -1.751   0.313  0.00  0.00    -0.047 A 
ATOM      6  C4  UNL d   1       1.791  -0.983   0.276  0.00  0.00    -0.004 A 
ENDROOT
TORSDOF 0
ENDMDL
