MODEL 1
REMARK minimizedAffinity -2.77703905
REMARK minimizedRMSD -1
REMARK  0 active torsions:
REMARK  status: ('A' for Active; 'I' for Inactive)
ROOT
ATOM      1  C   UNL d   1      -0.364   0.391   0.296  0.00  0.00     0.172 C 
ATOM      2  N   UNL d   1       0.308  -0.837   0.651  0.00  0.00    -0.070 N 
ATOM      3  C1  UNL d   1      -0.264  -2.081   0.674  0.00  0.00    -0.004 A 
ATOM      4  C2  UNL d   1       0.704  -2.983   1.061  0.00  0.00    -0.047 A 
ATOM      5  C3  UNL d   1       1.898  -2.255   1.278  0.00  0.00    -0.047 A 
ATOM      6  C4  UNL d   1       1.624  -0.929   1.017  0.00  0.00    -0.004 A 
ENDROOT
TORSDOF 0
ENDMDL
