MODEL 1
REMARK minimizedAffinity -1.58423615
REMARK minimizedRMSD -1
REMARK  0 active torsions:
REMARK  status: ('A' for Active; 'I' for Inactive)
ROOT
ATOM      1  C   UNL d   1       1.653   0.185  -0.662  0.00  0.00     0.172 C 
ATOM      2  N   UNL d   1       1.379  -0.997   0.120  0.00  0.00    -0.070 N 
ATOM      3  C1  UNL d   1       0.141  -1.538   0.342  0.00  0.00    -0.004 A 
ATOM      4  C2  UNL d   1       0.304  -2.655   1.132  0.00  0.00    -0.047 A 
ATOM      5  C3  UNL d   1       1.688  -2.789   1.395  0.00  0.00    -0.047 A 
ATOM      6  C4  UNL d   1       2.330  -1.749   0.757  0.00  0.00    -0.004 A 
ENDROOT
TORSDOF 0
ENDMDL
