MODEL 1
REMARK minimizedAffinity -1.75385082
REMARK minimizedRMSD -1
REMARK  0 active torsions:
REMARK  status: ('A' for Active; 'I' for Inactive)
ROOT
ATOM      1  O1  BZF d   1       2.230   1.781   5.998  0.00  0.00    -0.204 OA
ATOM      2  C2  BZF d   1       3.401   1.049   5.985  0.00  0.00     0.174 A 
ATOM      3  C3  BZF d   1       4.473   1.863   5.898  0.00  0.00    -0.012 A 
ATOM      4  C3A BZF d   1       3.942   3.191   5.948  0.00  0.00    -0.107 A 
ATOM      5  C4  BZF d   1       4.513   4.431   5.920  0.00  0.00     0.055 A 
ATOM      6  C5  BZF d   1       3.709   5.527   5.912  0.00  0.00    -0.016 A 
ATOM      7  C6  BZF d   1       2.334   5.420   5.925  0.00  0.00     0.022 A 
ATOM      8  C7  BZF d   1       1.723   4.210   5.958  0.00  0.00     0.029 A 
ATOM      9  C7A BZF d   1       2.532   3.102   6.000  0.00  0.00     0.058 A 
ENDROOT
TORSDOF 0
ENDMDL
