MODEL 1
REMARK minimizedAffinity 3.47221422
REMARK minimizedRMSD -1
REMARK  0 active torsions:
REMARK  status: ('A' for Active; 'I' for Inactive)
ROOT
ATOM      1  O1  BZF d   1       2.227   5.999   5.183  0.00  0.00    -0.204 OA
ATOM      2  C2  BZF d   1       0.850   5.985   5.295  0.00  0.00     0.174 A 
ATOM      3  C3  BZF d   1       0.404   4.741   5.561  0.00  0.00    -0.012 A 
ATOM      4  C3A BZF d   1       1.582   3.943   5.711  0.00  0.00    -0.107 A 
ATOM      5  C4  BZF d   1       1.793   2.625   5.999  0.00  0.00     0.055 A 
ATOM      6  C5  BZF d   1       3.064   2.144   6.000  0.00  0.00    -0.016 A 
ATOM      7  C6  BZF d   1       4.145   2.951   5.713  0.00  0.00     0.022 A 
ATOM      8  C7  BZF d   1       3.987   4.266   5.427  0.00  0.00     0.029 A 
ATOM      9  C7A BZF d   1       2.706   4.762   5.457  0.00  0.00     0.058 A 
ENDROOT
TORSDOF 0
ENDMDL
