MODEL 1
REMARK minimizedAffinity 4.20402861
REMARK minimizedRMSD -1
REMARK  0 active torsions:
REMARK  status: ('A' for Active; 'I' for Inactive)
ROOT
ATOM      1  O1  BZF d   1       2.779   5.610   5.936  0.00  0.00    -0.204 OA
ATOM      2  C2  BZF d   1       1.431   5.317   6.000  0.00  0.00     0.174 A 
ATOM      3  C3  BZF d   1       1.230   3.983   5.981  0.00  0.00    -0.012 A 
ATOM      4  C3A BZF d   1       2.539   3.405   5.993  0.00  0.00    -0.107 A 
ATOM      5  C4  BZF d   1       2.997   2.119   6.000  0.00  0.00     0.055 A 
ATOM      6  C5  BZF d   1       4.336   1.894   5.937  0.00  0.00    -0.016 A 
ATOM      7  C6  BZF d   1       5.243   2.931   5.862  0.00  0.00     0.022 A 
ATOM      8  C7  BZF d   1       4.837   4.224   5.858  0.00  0.00     0.029 A 
ATOM      9  C7A BZF d   1       3.486   4.455   5.954  0.00  0.00     0.058 A 
ENDROOT
TORSDOF 0
ENDMDL
