MODEL 1
REMARK minimizedAffinity -2.46811271
REMARK minimizedRMSD -1
REMARK  0 active torsions:
REMARK  status: ('A' for Active; 'I' for Inactive)
ROOT
ATOM      1  O1  BZF d   1       2.923   5.634   5.888  0.00  0.00    -0.204 OA
ATOM      2  C2  BZF d   1       1.570   5.379   5.996  0.00  0.00     0.174 A 
ATOM      3  C3  BZF d   1       1.331   4.052   6.000  0.00  0.00    -0.012 A 
ATOM      4  C3A BZF d   1       2.624   3.437   5.981  0.00  0.00    -0.107 A 
ATOM      5  C4  BZF d   1       3.046   2.139   5.991  0.00  0.00     0.055 A 
ATOM      6  C5  BZF d   1       4.375   1.876   5.892  0.00  0.00    -0.016 A 
ATOM      7  C6  BZF d   1       5.309   2.885   5.777  0.00  0.00     0.022 A 
ATOM      8  C7  BZF d   1       4.938   4.189   5.768  0.00  0.00     0.029 A 
ATOM      9  C7A BZF d   1       3.598   4.459   5.901  0.00  0.00     0.058 A 
ENDROOT
TORSDOF 0
ENDMDL
