MODEL 1
REMARK minimizedAffinity 3.69670653
REMARK minimizedRMSD -1
REMARK  0 active torsions:
REMARK  status: ('A' for Active; 'I' for Inactive)
ROOT
ATOM      1  O1  BZF d   1       2.227   1.965   5.999  0.00  0.00    -0.204 OA
ATOM      2  C2  BZF d   1       3.499   1.641   5.569  0.00  0.00     0.174 A 
ATOM      3  C3  BZF d   1       4.098   2.709   5.003  0.00  0.00    -0.012 A 
ATOM      4  C3A BZF d   1       3.176   3.790   5.168  0.00  0.00    -0.107 A 
ATOM      5  C4  BZF d   1       3.207   5.112   4.826  0.00  0.00     0.055 A 
ATOM      6  C5  BZF d   1       2.113   5.882   5.064  0.00  0.00    -0.016 A 
ATOM      7  C6  BZF d   1       0.970   5.362   5.636  0.00  0.00     0.022 A 
ATOM      8  C7  BZF d   1       0.893   4.058   5.996  0.00  0.00     0.029 A 
ATOM      9  C7A BZF d   1       2.009   3.285   5.787  0.00  0.00     0.058 A 
ENDROOT
TORSDOF 0
ENDMDL
