MODEL 1
REMARK minimizedAffinity 5.1048255
REMARK minimizedRMSD -1
REMARK  0 active torsions:
REMARK  status: ('A' for Active; 'I' for Inactive)
ROOT
ATOM      1  O1  BZF d   1      -1.938   0.559  -0.490  0.00  0.00    -0.204 OA
ATOM      2  C2  BZF d   1      -1.960  -0.072  -1.718  0.00  0.00     0.174 A 
ATOM      3  C3  BZF d   1      -3.199  -0.525  -2.001  0.00  0.00    -0.012 A 
ATOM      4  C3A BZF d   1      -4.020  -0.072  -0.921  0.00  0.00    -0.107 A 
ATOM      5  C4  BZF d   1      -5.351  -0.194  -0.639  0.00  0.00     0.055 A 
ATOM      6  C5  BZF d   1      -5.825   0.300   0.535  0.00  0.00    -0.016 A 
ATOM      7  C6  BZF d   1      -4.997   0.915   1.451  0.00  0.00     0.022 A 
ATOM      8  C7  BZF d   1      -3.671   1.063   1.214  0.00  0.00     0.029 A 
ATOM      9  C7A BZF d   1      -3.195   0.595   0.014  0.00  0.00     0.058 A 
ENDROOT
TORSDOF 0
ENDMDL
