MODEL 1
REMARK minimizedAffinity 13.8294868
REMARK minimizedRMSD -1
REMARK  0 active torsions:
REMARK  status: ('A' for Active; 'I' for Inactive)
ROOT
ATOM      1  O1  BZF d   1      -1.812   0.443  -3.646  0.00  0.00    -0.204 OA
ATOM      2  C2  BZF d   1      -1.867  -0.300  -2.483  0.00  0.00     0.174 A 
ATOM      3  C3  BZF d   1      -3.113  -0.771  -2.275  0.00  0.00    -0.012 A 
ATOM      4  C3A BZF d   1      -3.864  -0.369  -3.424  0.00  0.00    -0.107 A 
ATOM      5  C4  BZF d   1      -5.162  -0.553  -3.809  0.00  0.00     0.055 A 
ATOM      6  C5  BZF d   1      -5.600   0.031  -4.955  0.00  0.00    -0.016 A 
ATOM      7  C6  BZF d   1      -4.770   0.807  -5.737  0.00  0.00     0.022 A 
ATOM      8  C7  BZF d   1      -3.474   1.014  -5.399  0.00  0.00     0.029 A 
ATOM      9  C7A BZF d   1      -3.020   0.399  -4.258  0.00  0.00     0.058 A 
ENDROOT
TORSDOF 0
ENDMDL
