MODEL 1
REMARK minimizedAffinity 9.36373806
REMARK minimizedRMSD -1
REMARK  0 active torsions:
REMARK  status: ('A' for Active; 'I' for Inactive)
ROOT
ATOM      1  O1  BZF d   1       2.135   0.939  -0.081  0.00  0.00    -0.204 OA
ATOM      2  C2  BZF d   1       2.256  -0.369  -0.508  0.00  0.00     0.174 A 
ATOM      3  C3  BZF d   1       3.542  -0.664  -0.786  0.00  0.00    -0.012 A 
ATOM      4  C3A BZF d   1       4.283   0.506  -0.428  0.00  0.00    -0.107 A 
ATOM      5  C4  BZF d   1       5.611   0.823  -0.458  0.00  0.00     0.055 A 
ATOM      6  C5  BZF d   1       6.000   2.077  -0.108  0.00  0.00    -0.016 A 
ATOM      7  C6  BZF d   1       5.088   3.040   0.272  0.00  0.00     0.022 A 
ATOM      8  C7  BZF d   1       3.760   2.771   0.323  0.00  0.00     0.029 A 
ATOM      9  C7A BZF d   1       3.368   1.495   0.001  0.00  0.00     0.058 A 
ENDROOT
TORSDOF 0
ENDMDL
