MODEL 1
REMARK minimizedAffinity -0.979594946
REMARK minimizedRMSD -1
REMARK  1 active torsions:
REMARK  status: ('A' for Active; 'I' for Inactive)
REMARK    1  A    between atoms: N_2  and  C1_3 
ROOT
ATOM      1  C1  UNL d   1      -5.369   2.550  -3.909  0.00  0.00     0.143 A 
ATOM      2  C2  UNL d   1      -6.000   3.003  -5.073  0.00  0.00    -0.057 A 
ATOM      3  C3  UNL d   1      -5.348   3.862  -5.965  0.00  0.00     0.033 A 
ATOM      4  C4  UNL d   1      -4.059   4.309  -5.694  0.00  0.00    -0.042 A 
ATOM      5  C5  UNL d   1      -3.422   3.892  -4.530  0.00  0.00     0.033 A 
ATOM      6  C6  UNL d   1      -4.076   3.028  -3.647  0.00  0.00    -0.057 A 
ENDROOT
BRANCH   1   7
ATOM      7  N   UNL d   1      -6.000   1.774  -2.934  0.00  0.00    -0.732 N 
ATOM      8  C   UNL d   1      -5.962   0.329  -3.004  0.00  0.00     0.284 C 
ATOM      9  H3  UNL d   1      -5.871   2.148  -1.997  0.00  0.00     0.395 HD
ENDBRANCH   1   7
TORSDOF 1
ENDMDL
