MODEL 1
REMARK minimizedAffinity 1.29596567
REMARK minimizedRMSD -1
REMARK  1 active torsions:
REMARK  status: ('A' for Active; 'I' for Inactive)
REMARK    1  A    between atoms: N_2  and  C1_3 
ROOT
ATOM      1  C1  UNL d   1      -2.544   4.271  -0.051  0.00  0.00     0.143 A 
ATOM      2  C2  UNL d   1      -3.026   3.489   1.004  0.00  0.00    -0.057 A 
ATOM      3  C3  UNL d   1      -4.082   3.930   1.810  0.00  0.00     0.033 A 
ATOM      4  C4  UNL d   1      -4.657   5.178   1.593  0.00  0.00    -0.042 A 
ATOM      5  C5  UNL d   1      -4.177   5.982   0.566  0.00  0.00     0.033 A 
ATOM      6  C6  UNL d   1      -3.126   5.533  -0.241  0.00  0.00    -0.057 A 
ENDROOT
BRANCH   1   7
ATOM      7  N   UNL d   1      -1.432   3.931  -0.826  0.00  0.00    -0.732 N 
ATOM      8  C   UNL d   1      -0.346   3.161  -0.259  0.00  0.00     0.284 C 
ATOM      9  H3  UNL d   1      -1.687   3.655  -1.772  0.00  0.00     0.395 HD
ENDBRANCH   1   7
TORSDOF 1
ENDMDL
