MODEL 1
REMARK minimizedAffinity 5.9680419
REMARK minimizedRMSD -1
REMARK  1 active torsions:
REMARK  status: ('A' for Active; 'I' for Inactive)
REMARK    1  A    between atoms: N_2  and  C1_3 
ROOT
ATOM      1  C1  UNL d   1       0.151   3.210  -1.479  0.00  0.00     0.143 A 
ATOM      2  C2  UNL d   1      -1.120   3.769  -1.652  0.00  0.00    -0.057 A 
ATOM      3  C3  UNL d   1      -1.290   5.148  -1.819  0.00  0.00     0.033 A 
ATOM      4  C4  UNL d   1      -0.190   6.000  -1.788  0.00  0.00    -0.042 A 
ATOM      5  C5  UNL d   1       1.080   5.469  -1.593  0.00  0.00     0.033 A 
ATOM      6  C6  UNL d   1       1.244   4.090  -1.433  0.00  0.00    -0.057 A 
ENDROOT
BRANCH   1   7
ATOM      7  N   UNL d   1       0.377   1.858  -1.209  0.00  0.00    -0.732 N 
ATOM      8  C   UNL d   1       0.368   0.882  -2.277  0.00  0.00     0.284 C 
ATOM      9  H3  UNL d   1       1.114   1.717  -0.522  0.00  0.00     0.395 HD
ENDBRANCH   1   7
TORSDOF 1
ENDMDL
