MODEL 1
REMARK minimizedAffinity 5.30642366
REMARK minimizedRMSD -1
REMARK  1 active torsions:
REMARK  status: ('A' for Active; 'I' for Inactive)
REMARK    1  A    between atoms: N_2  and  C1_3 
ROOT
ATOM      1  C1  UNL d   1       3.664  -1.313   1.446  0.00  0.00     0.143 A 
ATOM      2  C2  UNL d   1       2.711  -1.501   0.439  0.00  0.00    -0.057 A 
ATOM      3  C3  UNL d   1       1.349  -1.285   0.679  0.00  0.00     0.033 A 
ATOM      4  C4  UNL d   1       0.911  -0.905   1.943  0.00  0.00    -0.042 A 
ATOM      5  C5  UNL d   1       1.837  -0.736   2.966  0.00  0.00     0.033 A 
ATOM      6  C6  UNL d   1       3.197  -0.947   2.718  0.00  0.00    -0.057 A 
ENDROOT
BRANCH   1   7
ATOM      7  N   UNL d   1       5.022  -1.606   1.297  0.00  0.00    -0.732 N 
ATOM      8  C   UNL d   1       5.648  -2.631   2.105  0.00  0.00     0.284 C 
ATOM      9  H3  UNL d   1       5.314  -1.609   0.322  0.00  0.00     0.395 HD
ENDBRANCH   1   7
TORSDOF 1
ENDMDL
