MODEL 1
REMARK minimizedAffinity 12.8148136
REMARK minimizedRMSD -1
REMARK  1 active torsions:
REMARK  status: ('A' for Active; 'I' for Inactive)
REMARK    1  A    between atoms: N_2  and  C1_3 
ROOT
ATOM      1  C1  UNL d   1      -3.273   1.323  -3.124  0.00  0.00     0.143 A 
ATOM      2  C2  UNL d   1      -4.177   0.291  -3.402  0.00  0.00    -0.057 A 
ATOM      3  C3  UNL d   1      -5.425   0.229  -2.770  0.00  0.00     0.033 A 
ATOM      4  C4  UNL d   1      -5.780   1.185  -1.825  0.00  0.00    -0.042 A 
ATOM      5  C5  UNL d   1      -4.888   2.205  -1.514  0.00  0.00     0.033 A 
ATOM      6  C6  UNL d   1      -3.646   2.265  -2.153  0.00  0.00    -0.057 A 
ENDROOT
BRANCH   1   7
ATOM      7  N   UNL d   1      -1.979   1.384  -3.646  0.00  0.00    -0.732 N 
ATOM      8  C   UNL d   1      -1.697   0.898  -4.980  0.00  0.00     0.284 C 
ATOM      9  H3  UNL d   1      -1.507   2.255  -3.412  0.00  0.00     0.395 HD
ENDBRANCH   1   7
TORSDOF 1
ENDMDL
