MODEL 1
REMARK minimizedAffinity 6.97917986
REMARK minimizedRMSD -1
REMARK  1 active torsions:
REMARK  status: ('A' for Active; 'I' for Inactive)
REMARK    1  A    between atoms: N_2  and  C1_3 
ROOT
ATOM      1  C1  UNL d   1      -1.108   4.162  -1.662  0.00  0.00     0.143 A 
ATOM      2  C2  UNL d   1      -0.041   3.308  -1.366  0.00  0.00    -0.057 A 
ATOM      3  C3  UNL d   1       1.278   3.778  -1.333  0.00  0.00     0.033 A 
ATOM      4  C4  UNL d   1       1.556   5.109  -1.626  0.00  0.00    -0.042 A 
ATOM      5  C5  UNL d   1       0.513   5.970  -1.947  0.00  0.00     0.033 A 
ATOM      6  C6  UNL d   1      -0.803   5.496  -1.971  0.00  0.00    -0.057 A 
ENDROOT
BRANCH   1   7
ATOM      7  N   UNL d   1      -2.430   3.734  -1.806  0.00  0.00    -0.732 N 
ATOM      8  C   UNL d   1      -2.821   2.917  -2.935  0.00  0.00     0.284 C 
ATOM      9  H3  UNL d   1      -2.844   3.447  -0.922  0.00  0.00     0.395 HD
ENDBRANCH   1   7
TORSDOF 1
ENDMDL
