MODEL 1
REMARK minimizedAffinity 6.24561167
REMARK minimizedRMSD -1
REMARK  1 active torsions:
REMARK  status: ('A' for Active; 'I' for Inactive)
REMARK    1  A    between atoms: N_2  and  C1_3 
ROOT
ATOM      1  C1  UNL d   1       3.165  -1.470   2.102  0.00  0.00     0.143 A 
ATOM      2  C2  UNL d   1       3.702  -2.260   3.124  0.00  0.00    -0.057 A 
ATOM      3  C3  UNL d   1       4.741  -3.165   2.873  0.00  0.00     0.033 A 
ATOM      4  C4  UNL d   1       5.243  -3.317   1.584  0.00  0.00    -0.042 A 
ATOM      5  C5  UNL d   1       4.707  -2.560   0.548  0.00  0.00     0.033 A 
ATOM      6  C6  UNL d   1       3.674  -1.654   0.807  0.00  0.00    -0.057 A 
ENDROOT
BRANCH   1   7
ATOM      7  N   UNL d   1       2.065  -0.625   2.269  0.00  0.00    -0.732 N 
ATOM      8  C   UNL d   1       2.209   0.808   2.122  0.00  0.00     0.284 C 
ATOM      9  H3  UNL d   1       1.218  -1.003   1.851  0.00  0.00     0.395 HD
ENDBRANCH   1   7
TORSDOF 1
ENDMDL
