MODEL 1
REMARK minimizedAffinity 7.25793982
REMARK minimizedRMSD -1
REMARK  1 active torsions:
REMARK  status: ('A' for Active; 'I' for Inactive)
REMARK    1  A    between atoms: N_2  and  C1_3 
ROOT
ATOM      1  C1  UNL d   1      -3.765   0.112   3.106  0.00  0.00     0.143 A 
ATOM      2  C2  UNL d   1      -3.796   0.127   4.505  0.00  0.00    -0.057 A 
ATOM      3  C3  UNL d   1      -4.894  -0.376   5.212  0.00  0.00     0.033 A 
ATOM      4  C4  UNL d   1      -5.998  -0.878   4.530  0.00  0.00    -0.042 A 
ATOM      5  C5  UNL d   1      -6.000  -0.880   3.140  0.00  0.00     0.033 A 
ATOM      6  C6  UNL d   1      -4.897  -0.383   2.439  0.00  0.00    -0.057 A 
ENDROOT
BRANCH   1   7
ATOM      7  N   UNL d   1      -2.745   0.687   2.344  0.00  0.00    -0.732 N 
ATOM      8  C   UNL d   1      -2.998   1.867   1.545  0.00  0.00     0.284 C 
ATOM      9  H3  UNL d   1      -1.854   0.700   2.835  0.00  0.00     0.395 HD
ENDBRANCH   1   7
TORSDOF 1
ENDMDL
