MODEL 1
REMARK minimizedAffinity -3.36692524
REMARK minimizedRMSD -1
REMARK  1 active torsions:
REMARK  status: ('A' for Active; 'I' for Inactive)
REMARK    1  A    between atoms: C1_2  and  C2_3 
ROOT
ATOM      1  C2  UNL d   1       5.327   4.648  -4.560  0.00  0.00    -0.077 A 
ATOM      2  C3  UNL d   1       5.999   5.549  -3.721  0.00  0.00     0.002 A 
ATOM      3  C4  UNL d   1       5.447   5.916  -2.492  0.00  0.00     0.002 A 
ATOM      4  C5  UNL d   1       4.224   5.386  -2.090  0.00  0.00    -0.004 A 
ATOM      5  C6  UNL d   1       3.546   4.491  -2.917  0.00  0.00     0.002 A 
ATOM      6  C7  UNL d   1       4.096   4.123  -4.146  0.00  0.00     0.002 A 
ENDROOT
BRANCH   1   7
ATOM      7  C1  UNL d   1       5.944   4.213  -5.863  0.00  0.00     0.055 C 
ATOM      8  C   UNL d   1       5.942   2.697  -5.997  0.00  0.00     0.019 C 
ENDBRANCH   1   7
TORSDOF 1
ENDMDL
