MODEL 1
REMARK minimizedAffinity -5.07627916
REMARK minimizedRMSD -1
REMARK  1 active torsions:
REMARK  status: ('A' for Active; 'I' for Inactive)
REMARK    1  A    between atoms: C1_2  and  C2_3 
ROOT
ATOM      1  C2  UNL d   1       4.379   4.191  -4.086  0.00  0.00    -0.077 A 
ATOM      2  C3  UNL d   1       3.270   4.707  -3.401  0.00  0.00     0.002 A 
ATOM      3  C4  UNL d   1       3.431   5.323  -2.158  0.00  0.00     0.002 A 
ATOM      4  C5  UNL d   1       4.699   5.433  -1.592  0.00  0.00    -0.004 A 
ATOM      5  C6  UNL d   1       5.809   4.921  -2.264  0.00  0.00     0.002 A 
ATOM      6  C7  UNL d   1       5.649   4.304  -3.506  0.00  0.00     0.002 A 
ENDROOT
BRANCH   1   7
ATOM      7  C1  UNL d   1       4.214   3.570  -5.448  0.00  0.00     0.055 C 
ATOM      8  C   UNL d   1       5.216   2.446  -5.669  0.00  0.00     0.019 C 
ENDBRANCH   1   7
TORSDOF 1
ENDMDL
