MODEL 1
REMARK minimizedAffinity -0.640114546
REMARK minimizedRMSD -1
REMARK  1 active torsions:
REMARK  status: ('A' for Active; 'I' for Inactive)
REMARK    1  A    between atoms: C1_2  and  C2_3 
ROOT
ATOM      1  C2  UNL d   1       4.440   5.373  -3.596  0.00  0.00    -0.077 A 
ATOM      2  C3  UNL d   1       5.582   5.999  -3.079  0.00  0.00     0.002 A 
ATOM      3  C4  UNL d   1       6.000   5.738  -1.772  0.00  0.00     0.002 A 
ATOM      4  C5  UNL d   1       5.284   4.849  -0.974  0.00  0.00    -0.004 A 
ATOM      5  C6  UNL d   1       4.145   4.222  -1.479  0.00  0.00     0.002 A 
ATOM      6  C7  UNL d   1       3.725   4.483  -2.785  0.00  0.00     0.002 A 
ENDROOT
BRANCH   1   7
ATOM      7  C1  UNL d   1       4.016   5.615  -5.021  0.00  0.00     0.055 C 
ATOM      8  C   UNL d   1       4.913   4.870  -6.000  0.00  0.00     0.019 C 
ENDBRANCH   1   7
TORSDOF 1
ENDMDL
