MODEL 1
REMARK minimizedAffinity -2.85265303
REMARK minimizedRMSD -1
REMARK  1 active torsions:
REMARK  status: ('A' for Active; 'I' for Inactive)
REMARK    1  A    between atoms: C1_2  and  C2_3 
ROOT
ATOM      1  C2  UNL d   1       5.069   4.347  -4.624  0.00  0.00    -0.077 A 
ATOM      2  C3  UNL d   1       4.058   3.983  -3.723  0.00  0.00     0.002 A 
ATOM      3  C4  UNL d   1       3.984   4.584  -2.464  0.00  0.00     0.002 A 
ATOM      4  C5  UNL d   1       4.914   5.555  -2.098  0.00  0.00    -0.004 A 
ATOM      5  C6  UNL d   1       5.923   5.922  -2.987  0.00  0.00     0.002 A 
ATOM      6  C7  UNL d   1       6.000   5.322  -4.244  0.00  0.00     0.002 A 
ENDROOT
BRANCH   1   7
ATOM      7  C1  UNL d   1       5.121   3.736  -6.000  0.00  0.00     0.055 C 
ATOM      8  C   UNL d   1       5.628   2.302  -5.950  0.00  0.00     0.019 C 
ENDBRANCH   1   7
TORSDOF 1
ENDMDL
