MODEL 1
REMARK minimizedAffinity -4.3499608
REMARK minimizedRMSD -1
REMARK  1 active torsions:
REMARK  status: ('A' for Active; 'I' for Inactive)
REMARK    1  A    between atoms: C1_2  and  C2_3 
ROOT
ATOM      1  C2  UNL d   1       5.243   4.077  -4.744  0.00  0.00    -0.077 A 
ATOM      2  C3  UNL d   1       3.870   4.359  -4.777  0.00  0.00     0.002 A 
ATOM      3  C4  UNL d   1       3.264   5.046  -3.723  0.00  0.00     0.002 A 
ATOM      4  C5  UNL d   1       4.024   5.460  -2.631  0.00  0.00    -0.004 A 
ATOM      5  C6  UNL d   1       5.390   5.184  -2.588  0.00  0.00     0.002 A 
ATOM      6  C7  UNL d   1       5.997   4.496  -3.640  0.00  0.00     0.002 A 
ENDROOT
BRANCH   1   7
ATOM      7  C1  UNL d   1       5.907   3.380  -5.902  0.00  0.00     0.055 C 
ATOM      8  C   UNL d   1       6.000   1.879  -5.665  0.00  0.00     0.019 C 
ENDBRANCH   1   7
TORSDOF 1
ENDMDL
