MODEL 1
REMARK minimizedAffinity -1.17657793
REMARK minimizedRMSD -1
REMARK  1 active torsions:
REMARK  status: ('A' for Active; 'I' for Inactive)
REMARK    1  A    between atoms: C1_2  and  C2_3 
ROOT
ATOM      1  C2  UNL d   1       4.002   5.064  -3.370  0.00  0.00    -0.077 A 
ATOM      2  C3  UNL d   1       5.047   5.999  -3.373  0.00  0.00     0.002 A 
ATOM      3  C4  UNL d   1       6.000   5.996  -2.353  0.00  0.00     0.002 A 
ATOM      4  C5  UNL d   1       5.920   5.058  -1.325  0.00  0.00    -0.004 A 
ATOM      5  C6  UNL d   1       4.884   4.125  -1.313  0.00  0.00     0.002 A 
ATOM      6  C7  UNL d   1       3.930   4.127  -2.331  0.00  0.00     0.002 A 
ENDROOT
BRANCH   1   7
ATOM      7  C1  UNL d   1       3.002   5.033  -4.496  0.00  0.00     0.055 C 
ATOM      8  C   UNL d   1       3.688   4.859  -5.843  0.00  0.00     0.019 C 
ENDBRANCH   1   7
TORSDOF 1
ENDMDL
