MODEL 1
REMARK minimizedAffinity 0.986636341
REMARK minimizedRMSD -1
REMARK  1 active torsions:
REMARK  status: ('A' for Active; 'I' for Inactive)
REMARK    1  A    between atoms: C1_2  and  C2_3 
ROOT
ATOM      1  C2  UNL d   1       4.859   5.396  -3.999  0.00  0.00    -0.077 A 
ATOM      2  C3  UNL d   1       3.719   5.053  -3.258  0.00  0.00     0.002 A 
ATOM      3  C4  UNL d   1       3.721   5.164  -1.866  0.00  0.00     0.002 A 
ATOM      4  C5  UNL d   1       4.858   5.623  -1.204  0.00  0.00    -0.004 A 
ATOM      5  C6  UNL d   1       5.997   5.965  -1.932  0.00  0.00     0.002 A 
ATOM      6  C7  UNL d   1       5.998   5.853  -3.323  0.00  0.00     0.002 A 
ENDROOT
BRANCH   1   7
ATOM      7  C1  UNL d   1       4.842   5.323  -5.503  0.00  0.00     0.055 C 
ATOM      8  C   UNL d   1       5.240   3.940  -5.995  0.00  0.00     0.019 C 
ENDBRANCH   1   7
TORSDOF 1
ENDMDL
