MODEL 1
REMARK minimizedAffinity -2.40212393
REMARK minimizedRMSD -1
REMARK  1 active torsions:
REMARK  status: ('A' for Active; 'I' for Inactive)
REMARK    1  A    between atoms: C1_2  and  C2_3 
ROOT
ATOM      1  C2  UNL d   1       4.286   5.046  -3.404  0.00  0.00    -0.077 A 
ATOM      2  C3  UNL d   1       5.511   4.484  -3.792  0.00  0.00     0.002 A 
ATOM      3  C4  UNL d   1       6.000   4.679  -5.085  0.00  0.00     0.002 A 
ATOM      4  C5  UNL d   1       5.273   5.438  -5.999  0.00  0.00    -0.004 A 
ATOM      5  C6  UNL d   1       4.053   6.000  -5.625  0.00  0.00     0.002 A 
ATOM      6  C7  UNL d   1       3.562   5.805  -4.333  0.00  0.00     0.002 A 
ENDROOT
BRANCH   1   7
ATOM      7  C1  UNL d   1       3.781   4.879  -1.995  0.00  0.00     0.055 C 
ATOM      8  C   UNL d   1       2.439   4.162  -1.970  0.00  0.00     0.019 C 
ENDBRANCH   1   7
TORSDOF 1
ENDMDL
