MODEL 1
REMARK minimizedAffinity 1.49154842
REMARK minimizedRMSD -1
REMARK  1 active torsions:
REMARK  status: ('A' for Active; 'I' for Inactive)
REMARK    1  A    between atoms: C1_2  and  C2_3 
ROOT
ATOM      1  C2  UNL d   1       3.489   4.464  -3.036  0.00  0.00    -0.077 A 
ATOM      2  C3  UNL d   1       4.633   4.333  -2.236  0.00  0.00     0.002 A 
ATOM      3  C4  UNL d   1       5.880   4.737  -2.716  0.00  0.00     0.002 A 
ATOM      4  C5  UNL d   1       5.995   5.277  -3.995  0.00  0.00    -0.004 A 
ATOM      5  C6  UNL d   1       4.864   5.410  -4.799  0.00  0.00     0.002 A 
ATOM      6  C7  UNL d   1       3.616   5.006  -4.322  0.00  0.00     0.002 A 
ENDROOT
BRANCH   1   7
ATOM      7  C1  UNL d   1       2.135   4.076  -2.502  0.00  0.00     0.055 C 
ATOM      8  C   UNL d   1       2.151   3.960  -0.985  0.00  0.00     0.019 C 
ENDBRANCH   1   7
TORSDOF 1
ENDMDL
