MODEL 1
REMARK minimizedAffinity 1.37203479
REMARK minimizedRMSD -1
REMARK  1 active torsions:
REMARK  status: ('A' for Active; 'I' for Inactive)
REMARK    1  A    between atoms: C1_2  and  C2_3 
ROOT
ATOM      1  C2  UNL d   1       5.234   5.298  -2.595  0.00  0.00    -0.077 A 
ATOM      2  C3  UNL d   1       4.168   5.939  -3.243  0.00  0.00     0.002 A 
ATOM      3  C4  UNL d   1       3.436   5.271  -4.226  0.00  0.00     0.002 A 
ATOM      4  C5  UNL d   1       3.758   3.959  -4.567  0.00  0.00    -0.004 A 
ATOM      5  C6  UNL d   1       4.818   3.314  -3.930  0.00  0.00     0.002 A 
ATOM      6  C7  UNL d   1       5.552   3.981  -2.948  0.00  0.00     0.002 A 
ENDROOT
BRANCH   1   7
ATOM      7  C1  UNL d   1       5.994   6.000  -1.500  0.00  0.00     0.055 C 
ATOM      8  C   UNL d   1       5.999   5.181  -0.217  0.00  0.00     0.019 C 
ENDBRANCH   1   7
TORSDOF 1
ENDMDL
