MODEL 1
REMARK minimizedAffinity 4.96583462
REMARK minimizedRMSD -1
REMARK  0 active torsions:
REMARK  status: ('A' for Active; 'I' for Inactive)
ROOT
ATOM      1  C1  BNZ d   1      -2.551  -1.513  -2.916  0.00  0.00     0.000 A 
ATOM      2  C2  BNZ d   1      -2.629  -1.287  -1.568  0.00  0.00     0.000 A 
ATOM      3  C3  BNZ d   1      -2.410  -0.039  -1.054  0.00  0.00     0.000 A 
ATOM      4  C4  BNZ d   1      -2.075   0.970  -1.883  0.00  0.00     0.000 A 
ATOM      5  C5  BNZ d   1      -1.984   0.756  -3.244  0.00  0.00     0.000 A 
ATOM      6  C6  BNZ d   1      -2.243  -0.492  -3.762  0.00  0.00     0.000 A 
ENDROOT
TORSDOF 0
ENDMDL
