MODEL 1
REMARK minimizedAffinity 6.58194208
REMARK minimizedRMSD -1
REMARK  0 active torsions:
REMARK  status: ('A' for Active; 'I' for Inactive)
ROOT
ATOM      1  C1  BNZ d   1       2.851  -4.684  -3.740  0.00  0.00     0.000 A 
ATOM      2  C2  BNZ d   1       3.746  -5.720  -3.759  0.00  0.00     0.000 A 
ATOM      3  C3  BNZ d   1       4.470  -5.999  -4.884  0.00  0.00     0.000 A 
ATOM      4  C4  BNZ d   1       4.269  -5.269  -6.000  0.00  0.00     0.000 A 
ATOM      5  C5  BNZ d   1       3.363  -4.227  -6.000  0.00  0.00     0.000 A 
ATOM      6  C6  BNZ d   1       2.665  -3.924  -4.853  0.00  0.00     0.000 A 
ENDROOT
TORSDOF 0
ENDMDL
