MODEL 1
REMARK minimizedAffinity 4.02117729
REMARK minimizedRMSD -1
REMARK  0 active torsions:
REMARK  status: ('A' for Active; 'I' for Inactive)
ROOT
ATOM      1  C1  BNZ d   1      -1.888  -1.929  -2.697  0.00  0.00     0.000 A 
ATOM      2  C2  BNZ d   1      -1.450  -0.631  -2.696  0.00  0.00     0.000 A 
ATOM      3  C3  BNZ d   1      -2.199   0.361  -3.262  0.00  0.00     0.000 A 
ATOM      4  C4  BNZ d   1      -3.366   0.050  -3.864  0.00  0.00     0.000 A 
ATOM      5  C5  BNZ d   1      -3.817  -1.255  -3.881  0.00  0.00     0.000 A 
ATOM      6  C6  BNZ d   1      -3.078  -2.245  -3.276  0.00  0.00     0.000 A 
ENDROOT
TORSDOF 0
ENDMDL
