MODEL 1
REMARK minimizedAffinity 6.17692804
REMARK minimizedRMSD -1
REMARK  0 active torsions:
REMARK  status: ('A' for Active; 'I' for Inactive)
ROOT
ATOM      1  C1  BNZ d   1       0.337  -1.933   3.127  0.00  0.00     0.000 A 
ATOM      2  C2  BNZ d   1       1.354  -2.844   3.026  0.00  0.00     0.000 A 
ATOM      3  C3  BNZ d   1       1.290  -3.867   2.121  0.00  0.00     0.000 A 
ATOM      4  C4  BNZ d   1       0.194  -3.999   1.347  0.00  0.00     0.000 A 
ATOM      5  C5  BNZ d   1      -0.844  -3.093   1.443  0.00  0.00     0.000 A 
ATOM      6  C6  BNZ d   1      -0.759  -2.043   2.328  0.00  0.00     0.000 A 
ENDROOT
TORSDOF 0
ENDMDL
