MODEL 1
REMARK minimizedAffinity -2.03925514
REMARK minimizedRMSD -1
REMARK  0 active torsions:
REMARK  status: ('A' for Active; 'I' for Inactive)
ROOT
ATOM      1  C1  BNZ d   1       0.646  -1.358   1.012  0.00  0.00     0.000 A 
ATOM      2  C2  BNZ d   1       0.823  -2.359   1.930  0.00  0.00     0.000 A 
ATOM      3  C3  BNZ d   1       1.763  -2.246   2.915  0.00  0.00     0.000 A 
ATOM      4  C4  BNZ d   1       2.552  -1.153   2.957  0.00  0.00     0.000 A 
ATOM      5  C5  BNZ d   1       2.393  -0.140   2.033  0.00  0.00     0.000 A 
ATOM      6  C6  BNZ d   1       1.418  -0.239   1.066  0.00  0.00     0.000 A 
ENDROOT
TORSDOF 0
ENDMDL
