MODEL 1
REMARK minimizedAffinity 0.387203872
REMARK minimizedRMSD -1
REMARK  0 active torsions:
REMARK  status: ('A' for Active; 'I' for Inactive)
ROOT
ATOM      1  C1  BNZ d   1      -2.889   2.420   1.867  0.00  0.00     0.000 A 
ATOM      2  C2  BNZ d   1      -4.030   2.420   2.625  0.00  0.00     0.000 A 
ATOM      3  C3  BNZ d   1      -5.228   2.800   2.087  0.00  0.00     0.000 A 
ATOM      4  C4  BNZ d   1      -5.277   3.216   0.805  0.00  0.00     0.000 A 
ATOM      5  C5  BNZ d   1      -4.134   3.230   0.031  0.00  0.00     0.000 A 
ATOM      6  C6  BNZ d   1      -2.937   2.810   0.564  0.00  0.00     0.000 A 
ENDROOT
TORSDOF 0
ENDMDL
