MODEL 1
REMARK minimizedAffinity 11.8762598
REMARK minimizedRMSD -1
REMARK  0 active torsions:
REMARK  status: ('A' for Active; 'I' for Inactive)
ROOT
ATOM      1  N1  IND d   1       1.588  -1.062   0.890  0.00  0.00    -0.196 N 
ATOM      2  C2  IND d   1       2.779  -0.632   1.406  0.00  0.00     0.054 A 
ATOM      3  C3  IND d   1       2.579   0.408   2.247  0.00  0.00    -0.031 A 
ATOM      4  C4  IND d   1       0.373   1.500   3.002  0.00  0.00     0.051 A 
ATOM      5  C5  IND d   1      -0.974   1.474   2.775  0.00  0.00    -0.031 A 
ATOM      6  C6  IND d   1      -1.548   0.583   1.892  0.00  0.00     0.015 A 
ATOM      7  C7  IND d   1      -0.794  -0.329   1.209  0.00  0.00    -0.016 A 
ATOM      8  C8  IND d   1       0.575  -0.301   1.432  0.00  0.00    -0.047 A 
ATOM      9  C9  IND d   1       1.168   0.629   2.295  0.00  0.00    -0.096 A 
ATOM     10  HN1 IND d   1       1.489  -1.700   0.323  0.00  0.00     0.298 HD
ENDROOT
TORSDOF 0
ENDMDL
