MODEL 1
REMARK minimizedAffinity 2.83340764
REMARK minimizedRMSD -1
REMARK  0 active torsions:
REMARK  status: ('A' for Active; 'I' for Inactive)
ROOT
ATOM      1  N1  IND d   1       1.519   1.786  -2.127  0.00  0.00    -0.196 N 
ATOM      2  C2  IND d   1       2.160   2.636  -1.269  0.00  0.00     0.054 A 
ATOM      3  C3  IND d   1       1.941   2.264   0.012  0.00  0.00    -0.031 A 
ATOM      4  C4  IND d   1       0.648   0.236   0.928  0.00  0.00     0.051 A 
ATOM      5  C5  IND d   1      -0.141  -0.807   0.531  0.00  0.00    -0.031 A 
ATOM      6  C6  IND d   1      -0.421  -1.045  -0.799  0.00  0.00     0.015 A 
ATOM      7  C7  IND d   1       0.090  -0.252  -1.787  0.00  0.00    -0.016 A 
ATOM      8  C8  IND d   1       0.886   0.812  -1.388  0.00  0.00    -0.047 A 
ATOM      9  C9  IND d   1       1.138   1.083  -0.037  0.00  0.00    -0.096 A 
ATOM     10  HN1 IND d   1       1.512   1.850  -2.985  0.00  0.00     0.298 HD
ENDROOT
TORSDOF 0
ENDMDL
