MODEL 1
REMARK minimizedAffinity 9.20917511
REMARK minimizedRMSD -1
REMARK  0 active torsions:
REMARK  status: ('A' for Active; 'I' for Inactive)
ROOT
ATOM      1  N1  IND d   1       2.929  -0.961   2.296  0.00  0.00    -0.196 N 
ATOM      2  C2  IND d   1       1.571  -0.813   2.243  0.00  0.00     0.054 A 
ATOM      3  C3  IND d   1       1.171  -0.597   0.970  0.00  0.00    -0.031 A 
ATOM      4  C4  IND d   1       2.561  -0.547  -1.196  0.00  0.00     0.051 A 
ATOM      5  C5  IND d   1       3.849  -0.596  -1.650  0.00  0.00    -0.031 A 
ATOM      6  C6  IND d   1       4.918  -0.775  -0.796  0.00  0.00     0.015 A 
ATOM      7  C7  IND d   1       4.736  -0.924   0.550  0.00  0.00    -0.016 A 
ATOM      8  C8  IND d   1       3.430  -0.868   1.016  0.00  0.00    -0.047 A 
ATOM      9  C9  IND d   1       2.345  -0.644   0.158  0.00  0.00    -0.096 A 
ATOM     10  HN1 IND d   1       3.392  -1.090   3.009  0.00  0.00     0.298 HD
ENDROOT
TORSDOF 0
ENDMDL
