MODEL 1
REMARK minimizedAffinity 15.6895447
REMARK minimizedRMSD -1
REMARK  0 active torsions:
REMARK  status: ('A' for Active; 'I' for Inactive)
ROOT
ATOM      1  N1  IND d   1      -0.105   1.412   4.399  0.00  0.00    -0.196 N 
ATOM      2  C2  IND d   1      -0.327   2.373   3.452  0.00  0.00     0.054 A 
ATOM      3  C3  IND d   1      -0.056   1.890   2.219  0.00  0.00    -0.031 A 
ATOM      4  C4  IND d   1       0.668  -0.477   1.512  0.00  0.00     0.051 A 
ATOM      5  C5  IND d   1       1.036  -1.689   2.025  0.00  0.00    -0.031 A 
ATOM      6  C6  IND d   1       1.040  -1.936   3.382  0.00  0.00     0.015 A 
ATOM      7  C7  IND d   1       0.663  -0.978   4.281  0.00  0.00    -0.016 A 
ATOM      8  C8  IND d   1       0.296   0.256   3.764  0.00  0.00    -0.047 A 
ATOM      9  C9  IND d   1       0.331   0.525   2.390  0.00  0.00    -0.096 A 
ATOM     10  HN1 IND d   1      -0.199   1.512   5.247  0.00  0.00     0.298 HD
ENDROOT
TORSDOF 0
ENDMDL
