MODEL 1
REMARK minimizedAffinity 8.02546406
REMARK minimizedRMSD -1
REMARK  0 active torsions:
REMARK  status: ('A' for Active; 'I' for Inactive)
ROOT
ATOM      1  N1  IND d   1      -0.845  -3.868  -1.197  0.00  0.00    -0.196 N 
ATOM      2  C2  IND d   1      -1.156  -2.553  -0.993  0.00  0.00     0.054 A 
ATOM      3  C3  IND d   1      -1.642  -2.003  -2.128  0.00  0.00    -0.031 A 
ATOM      4  C4  IND d   1      -2.109  -3.103  -4.409  0.00  0.00     0.051 A 
ATOM      5  C5  IND d   1      -1.953  -4.277  -5.090  0.00  0.00    -0.031 A 
ATOM      6  C6  IND d   1      -1.412  -5.399  -4.496  0.00  0.00     0.015 A 
ATOM      7  C7  IND d   1      -1.015  -5.391  -3.189  0.00  0.00    -0.016 A 
ATOM      8  C8  IND d   1      -1.164  -4.198  -2.496  0.00  0.00    -0.047 A 
ATOM      9  C9  IND d   1      -1.674  -3.044  -3.106  0.00  0.00    -0.096 A 
ATOM     10  HN1 IND d   1      -0.506  -4.400  -0.613  0.00  0.00     0.298 HD
ENDROOT
TORSDOF 0
ENDMDL
