MODEL 1
REMARK minimizedAffinity 10.0618401
REMARK minimizedRMSD -1
REMARK  0 active torsions:
REMARK  status: ('A' for Active; 'I' for Inactive)
ROOT
ATOM      1  N1  IND d   1      -1.335  -5.380  -3.167  0.00  0.00    -0.196 N 
ATOM      2  C2  IND d   1      -1.478  -5.484  -4.523  0.00  0.00     0.054 A 
ATOM      3  C3  IND d   1      -1.726  -4.271  -5.064  0.00  0.00    -0.031 A 
ATOM      4  C4  IND d   1      -1.839  -1.964  -3.926  0.00  0.00     0.051 A 
ATOM      5  C5  IND d   1      -1.809  -1.367  -2.697  0.00  0.00    -0.031 A 
ATOM      6  C6  IND d   1      -1.612  -2.091  -1.539  0.00  0.00     0.015 A 
ATOM      7  C7  IND d   1      -1.426  -3.445  -1.568  0.00  0.00    -0.016 A 
ATOM      8  C8  IND d   1      -1.464  -4.055  -2.813  0.00  0.00    -0.047 A 
ATOM      9  C9  IND d   1      -1.706  -3.331  -3.988  0.00  0.00    -0.096 A 
ATOM     10  HN1 IND d   1      -1.190  -6.033  -2.627  0.00  0.00     0.298 HD
ENDROOT
TORSDOF 0
ENDMDL
