MODEL 1
REMARK minimizedAffinity -1.68873191
REMARK minimizedRMSD -1
REMARK  0 active torsions:
REMARK  status: ('A' for Active; 'I' for Inactive)
ROOT
ATOM      1  C   UNL d   1       0.895  -0.418   0.942  0.00  0.00     0.020 A 
ATOM      2  C1  UNL d   1       0.931   0.494   1.996  0.00  0.00     0.020 A 
ATOM      3  C2  UNL d   1       0.425   1.784   1.820  0.00  0.00     0.034 A 
ATOM      4  C3  UNL d   1      -0.120   2.164   0.588  0.00  0.00     0.017 A 
ATOM      5  C4  UNL d   1      -0.156   1.247  -0.469  0.00  0.00     0.017 A 
ATOM      6  C5  UNL d   1       0.353  -0.042  -0.287  0.00  0.00     0.034 A 
ATOM      7 Cl   UNL d   1      -0.812   1.644  -2.018  0.00  0.00    -0.070 Cl
ATOM      8 Cl1  UNL d   1      -0.728   3.775   0.442  0.00  0.00    -0.070 Cl
ENDROOT
TORSDOF 0
ENDMDL
