MODEL 1
REMARK minimizedAffinity 4.25518894
REMARK minimizedRMSD -1
REMARK  0 active torsions:
REMARK  status: ('A' for Active; 'I' for Inactive)
ROOT
ATOM      1  C   UNL d   1       1.758   3.371   3.190  0.00  0.00     0.020 A 
ATOM      2  C1  UNL d   1       1.356   4.071   2.053  0.00  0.00     0.020 A 
ATOM      3  C2  UNL d   1       0.614   3.426   1.062  0.00  0.00     0.034 A 
ATOM      4  C3  UNL d   1       0.273   2.076   1.205  0.00  0.00     0.017 A 
ATOM      5  C4  UNL d   1       0.677   1.374   2.346  0.00  0.00     0.017 A 
ATOM      6  C5  UNL d   1       1.420   2.025   3.336  0.00  0.00     0.034 A 
ATOM      7 Cl   UNL d   1       0.294  -0.293   2.593  0.00  0.00    -0.070 Cl
ATOM      8 Cl1  UNL d   1      -0.646   1.341  -0.060  0.00  0.00    -0.070 Cl
ENDROOT
TORSDOF 0
ENDMDL
