MODEL 1
REMARK minimizedAffinity 6.95961332
REMARK minimizedRMSD -1
REMARK  0 active torsions:
REMARK  status: ('A' for Active; 'I' for Inactive)
ROOT
ATOM      1  C   UNL d   1       1.480  -0.701   1.860  0.00  0.00     0.020 A 
ATOM      2  C1  UNL d   1       2.110  -1.297   0.768  0.00  0.00     0.020 A 
ATOM      3  C2  UNL d   1       1.591  -1.124  -0.517  0.00  0.00     0.034 A 
ATOM      4  C3  UNL d   1       0.440  -0.353  -0.714  0.00  0.00     0.017 A 
ATOM      5  C4  UNL d   1      -0.192   0.245   0.383  0.00  0.00     0.017 A 
ATOM      6  C5  UNL d   1       0.332   0.069   1.668  0.00  0.00     0.034 A 
ATOM      7 Cl   UNL d   1      -1.616   1.210   0.220  0.00  0.00    -0.070 Cl
ATOM      8 Cl1  UNL d   1      -0.146  -0.182  -2.330  0.00  0.00    -0.070 Cl
ENDROOT
TORSDOF 0
ENDMDL
