MODEL 1
REMARK minimizedAffinity 4.68485689
REMARK minimizedRMSD -1
REMARK  0 active torsions:
REMARK  status: ('A' for Active; 'I' for Inactive)
ROOT
ATOM      1  C   UNL d   1      -4.087   1.751  -0.779  0.00  0.00     0.020 A 
ATOM      2  C1  UNL d   1      -5.420   1.666  -1.179  0.00  0.00     0.020 A 
ATOM      3  C2  UNL d   1      -5.989   2.694  -1.934  0.00  0.00     0.034 A 
ATOM      4  C3  UNL d   1      -5.225   3.810  -2.292  0.00  0.00     0.017 A 
ATOM      5  C4  UNL d   1      -3.887   3.894  -1.891  0.00  0.00     0.017 A 
ATOM      6  C5  UNL d   1      -3.322   2.863  -1.134  0.00  0.00     0.034 A 
ATOM      7 Cl   UNL d   1      -2.881   5.240  -2.294  0.00  0.00    -0.070 Cl
ATOM      8 Cl1  UNL d   1      -5.994   5.043  -3.228  0.00  0.00    -0.070 Cl
ENDROOT
TORSDOF 0
ENDMDL
