MODEL 1
REMARK minimizedAffinity -2.10065365
REMARK minimizedRMSD -1
REMARK  0 active torsions:
REMARK  status: ('A' for Active; 'I' for Inactive)
ROOT
ATOM      1  C   UNL d   1       0.434  -1.378   0.041  0.00  0.00     0.020 A 
ATOM      2  C1  UNL d   1       0.255  -0.742  -1.187  0.00  0.00     0.020 A 
ATOM      3  C2  UNL d   1       0.030   0.635  -1.234  0.00  0.00     0.034 A 
ATOM      4  C3  UNL d   1      -0.016   1.381  -0.050  0.00  0.00     0.017 A 
ATOM      5  C4  UNL d   1       0.165   0.742   1.182  0.00  0.00     0.017 A 
ATOM      6  C5  UNL d   1       0.389  -0.638   1.222  0.00  0.00     0.034 A 
ATOM      7 Cl   UNL d   1       0.122   1.596   2.684  0.00  0.00    -0.070 Cl
ATOM      8 Cl1  UNL d   1      -0.297   3.081  -0.182  0.00  0.00    -0.070 Cl
ENDROOT
TORSDOF 0
ENDMDL
