MODEL 1
REMARK minimizedAffinity 11.4525833
REMARK minimizedRMSD -1
REMARK  0 active torsions:
REMARK  status: ('A' for Active; 'I' for Inactive)
ROOT
ATOM      1  C   UNL d   1      -5.628  -0.957   2.135  0.00  0.00     0.020 A 
ATOM      2  C1  UNL d   1      -5.984  -2.305   2.128  0.00  0.00     0.020 A 
ATOM      3  C2  UNL d   1      -6.000  -3.029   3.322  0.00  0.00     0.034 A 
ATOM      4  C3  UNL d   1      -5.659  -2.406   4.528  0.00  0.00     0.017 A 
ATOM      5  C4  UNL d   1      -5.301  -1.053   4.534  0.00  0.00     0.017 A 
ATOM      6  C5  UNL d   1      -5.287  -0.332   3.335  0.00  0.00     0.034 A 
ATOM      7 Cl   UNL d   1      -4.868  -0.215   5.982  0.00  0.00    -0.070 Cl
ATOM      8 Cl1  UNL d   1      -5.700  -3.363   5.966  0.00  0.00    -0.070 Cl
ENDROOT
TORSDOF 0
ENDMDL
