MODEL 1
REMARK minimizedAffinity 3.54720259
REMARK minimizedRMSD -1
REMARK  0 active torsions:
REMARK  status: ('A' for Active; 'I' for Inactive)
ROOT
ATOM      1  C   UNL d   1       0.440  -0.222   2.661  0.00  0.00     0.020 A 
ATOM      2  C1  UNL d   1       0.723   0.860   3.495  0.00  0.00     0.020 A 
ATOM      3  C2  UNL d   1       0.733   2.156   2.977  0.00  0.00     0.034 A 
ATOM      4  C3  UNL d   1       0.460   2.375   1.622  0.00  0.00     0.017 A 
ATOM      5  C4  UNL d   1       0.176   1.289   0.786  0.00  0.00     0.017 A 
ATOM      6  C5  UNL d   1       0.167  -0.007   1.310  0.00  0.00     0.034 A 
ATOM      7 Cl   UNL d   1      -0.171   1.480  -0.897  0.00  0.00    -0.070 Cl
ATOM      8 Cl1  UNL d   1       0.489   4.005   1.049  0.00  0.00    -0.070 Cl
ENDROOT
TORSDOF 0
ENDMDL
