MODEL 1
REMARK minimizedAffinity -0.261586279
REMARK minimizedRMSD -1
REMARK  0 active torsions:
REMARK  status: ('A' for Active; 'I' for Inactive)
ROOT
ATOM      1  C   UNL d   1      -0.194  -0.451  -1.602  0.00  0.00     0.020 A 
ATOM      2  C1  UNL d   1      -0.175  -1.160  -0.402  0.00  0.00     0.020 A 
ATOM      3  C2  UNL d   1       0.026  -0.486   0.805  0.00  0.00     0.034 A 
ATOM      4  C3  UNL d   1       0.209   0.902   0.813  0.00  0.00     0.017 A 
ATOM      5  C4  UNL d   1       0.190   1.613  -0.392  0.00  0.00     0.017 A 
ATOM      6  C5  UNL d   1      -0.012   0.933  -1.597  0.00  0.00     0.034 A 
ATOM      7 Cl   UNL d   1       0.408   3.326  -0.462  0.00  0.00    -0.070 Cl
ATOM      8 Cl1  UNL d   1       0.452   1.671   2.341  0.00  0.00    -0.070 Cl
ENDROOT
TORSDOF 0
ENDMDL
