MODEL 1
REMARK minimizedAffinity 0.518877506
REMARK minimizedRMSD -1
REMARK  1 active torsions:
REMARK  status: ('A' for Active; 'I' for Inactive)
REMARK    1  A    between atoms: C3_4  and  O_7 
ROOT
ATOM      1  C   UNL d   1      -3.868  -5.197  -5.958  0.00  0.00    -0.033 A 
ATOM      2  C1  UNL d   1      -2.675  -5.922  -5.933  0.00  0.00     0.039 A 
ATOM      3  C2  UNL d   1      -1.449  -5.254  -5.941  0.00  0.00    -0.080 A 
ATOM      4  C3  UNL d   1      -1.430  -3.862  -5.973  0.00  0.00     0.150 A 
ATOM      5  C4  UNL d   1      -2.615  -3.133  -5.994  0.00  0.00    -0.007 A 
ATOM      6  C5  UNL d   1      -3.838  -3.803  -5.987  0.00  0.00     0.039 A 
ENDROOT
BRANCH   4   7
ATOM      7  O   UNL d   1      -0.259  -3.165  -5.986  0.00  0.00    -0.526 OA
ATOM      8  H5  UNL d   1       0.477  -3.800  -5.998  0.00  0.00     0.418 HD
ENDBRANCH   4   7
TORSDOF 1
ENDMDL
