MODEL 1
REMARK minimizedAffinity 2.83310294
REMARK minimizedRMSD -1
REMARK  1 active torsions:
REMARK  status: ('A' for Active; 'I' for Inactive)
REMARK    1  A    between atoms: C3_4  and  O_7 
ROOT
ATOM      1  C   UNL d   1      -3.859   1.225  -0.546  0.00  0.00    -0.033 A 
ATOM      2  C1  UNL d   1      -5.148   0.691  -0.596  0.00  0.00     0.039 A 
ATOM      3  C2  UNL d   1      -5.745   0.195   0.565  0.00  0.00    -0.080 A 
ATOM      4  C3  UNL d   1      -5.044   0.240   1.767  0.00  0.00     0.150 A 
ATOM      5  C4  UNL d   1      -3.761   0.774   1.824  0.00  0.00    -0.007 A 
ATOM      6  C5  UNL d   1      -3.166   1.268   0.664  0.00  0.00     0.039 A 
ENDROOT
BRANCH   4   7
ATOM      7  O   UNL d   1      -5.583  -0.236   2.925  0.00  0.00    -0.526 OA
ATOM      8  H5  UNL d   1      -6.462  -0.601   2.728  0.00  0.00     0.418 HD
ENDBRANCH   4   7
TORSDOF 1
ENDMDL
