MODEL 1
REMARK minimizedAffinity 2.72715044
REMARK minimizedRMSD -1
REMARK  1 active torsions:
REMARK  status: ('A' for Active; 'I' for Inactive)
REMARK    1  A    between atoms: C3_4  and  O_7 
ROOT
ATOM      1  C   UNL d   1       1.915  -3.242   5.029  0.00  0.00    -0.033 A 
ATOM      2  C1  UNL d   1       1.765  -2.224   5.973  0.00  0.00     0.039 A 
ATOM      3  C2  UNL d   1       1.259  -0.981   5.588  0.00  0.00    -0.080 A 
ATOM      4  C3  UNL d   1       0.907  -0.769   4.258  0.00  0.00     0.150 A 
ATOM      5  C4  UNL d   1       1.050  -1.780   3.313  0.00  0.00    -0.007 A 
ATOM      6  C5  UNL d   1       1.556  -3.020   3.699  0.00  0.00     0.039 A 
ENDROOT
BRANCH   4   7
ATOM      7  O   UNL d   1       0.413   0.429   3.834  0.00  0.00    -0.526 OA
ATOM      8  H5  UNL d   1       0.397   1.040   4.590  0.00  0.00     0.418 HD
ENDBRANCH   4   7
TORSDOF 1
ENDMDL
