MODEL 1
REMARK minimizedAffinity 2.25340581
REMARK minimizedRMSD -1
REMARK  1 active torsions:
REMARK  status: ('A' for Active; 'I' for Inactive)
REMARK    1  A    between atoms: C3_4  and  O_7 
ROOT
ATOM      1  C   UNL d   1      -5.295   1.293   3.351  0.00  0.00    -0.033 A 
ATOM      2  C1  UNL d   1      -3.973   1.137   2.929  0.00  0.00     0.039 A 
ATOM      3  C2  UNL d   1      -3.349  -0.108   3.027  0.00  0.00    -0.080 A 
ATOM      4  C3  UNL d   1      -4.058  -1.188   3.546  0.00  0.00     0.150 A 
ATOM      5  C4  UNL d   1      -5.376  -1.041   3.965  0.00  0.00    -0.007 A 
ATOM      6  C5  UNL d   1      -5.997   0.204   3.867  0.00  0.00     0.039 A 
ENDROOT
BRANCH   4   7
ATOM      7  O   UNL d   1      -3.490  -2.422   3.666  0.00  0.00    -0.526 OA
ATOM      8  H5  UNL d   1      -2.568  -2.366   3.365  0.00  0.00     0.418 HD
ENDBRANCH   4   7
TORSDOF 1
ENDMDL
