MODEL 1
REMARK minimizedAffinity 0.614680052
REMARK minimizedRMSD -1
REMARK  1 active torsions:
REMARK  status: ('A' for Active; 'I' for Inactive)
REMARK    1  A    between atoms: C3_4  and  O_7 
ROOT
ATOM      1  C   UNL d   1      -4.316  -0.015   1.061  0.00  0.00    -0.033 A 
ATOM      2  C1  UNL d   1      -3.749  -1.066   1.785  0.00  0.00     0.039 A 
ATOM      3  C2  UNL d   1      -4.304  -1.455   3.005  0.00  0.00    -0.080 A 
ATOM      4  C3  UNL d   1      -5.426  -0.787   3.490  0.00  0.00     0.150 A 
ATOM      5  C4  UNL d   1      -5.998   0.258   2.772  0.00  0.00    -0.007 A 
ATOM      6  C5  UNL d   1      -5.442   0.646   1.554  0.00  0.00     0.039 A 
ENDROOT
BRANCH   4   7
ATOM      7  O   UNL d   1      -6.000  -1.127   4.678  0.00  0.00    -0.526 OA
ATOM      8  H5  UNL d   1      -5.481  -1.846   5.076  0.00  0.00     0.418 HD
ENDBRANCH   4   7
TORSDOF 1
ENDMDL
