MODEL 1
REMARK minimizedAffinity 12.1484041
REMARK minimizedRMSD -1
REMARK  1 active torsions:
REMARK  status: ('A' for Active; 'I' for Inactive)
REMARK    1  A    between atoms: C3_4  and  O_7 
ROOT
ATOM      1  C   UNL d   1       5.228  -4.862  -0.468  0.00  0.00    -0.033 A 
ATOM      2  C1  UNL d   1       5.763  -3.736  -1.097  0.00  0.00     0.039 A 
ATOM      3  C2  UNL d   1       5.960  -3.734  -2.479  0.00  0.00    -0.080 A 
ATOM      4  C3  UNL d   1       5.618  -4.862  -3.220  0.00  0.00     0.150 A 
ATOM      5  C4  UNL d   1       5.081  -5.985  -2.601  0.00  0.00    -0.007 A 
ATOM      6  C5  UNL d   1       4.886  -5.986  -1.220  0.00  0.00     0.039 A 
ENDROOT
BRANCH   4   7
ATOM      7  O   UNL d   1       5.796  -4.908  -4.571  0.00  0.00    -0.526 OA
ATOM      8  H5  UNL d   1       6.202  -4.072  -4.856  0.00  0.00     0.418 HD
ENDBRANCH   4   7
TORSDOF 1
ENDMDL
