MODEL 1
REMARK minimizedAffinity 2.19824481
REMARK minimizedRMSD -1
REMARK  1 active torsions:
REMARK  status: ('A' for Active; 'I' for Inactive)
REMARK    1  A    between atoms: C3_4  and  O_7 
ROOT
ATOM      1  C   UNL d   1       1.503  -4.431  -0.862  0.00  0.00    -0.033 A 
ATOM      2  C1  UNL d   1       2.267  -3.624  -0.017  0.00  0.00     0.039 A 
ATOM      3  C2  UNL d   1       3.660  -3.725  -0.024  0.00  0.00    -0.080 A 
ATOM      4  C3  UNL d   1       4.275  -4.635  -0.880  0.00  0.00     0.150 A 
ATOM      5  C4  UNL d   1       3.519  -5.440  -1.726  0.00  0.00    -0.007 A 
ATOM      6  C5  UNL d   1       2.129  -5.338  -1.717  0.00  0.00     0.039 A 
ENDROOT
BRANCH   4   7
ATOM      7  O   UNL d   1       5.630  -4.773  -0.918  0.00  0.00    -0.526 OA
ATOM      8  H5  UNL d   1       6.020  -4.174  -0.260  0.00  0.00     0.418 HD
ENDBRANCH   4   7
TORSDOF 1
ENDMDL
