MODEL 1
REMARK minimizedAffinity 2.35779262
REMARK minimizedRMSD -1
REMARK  1 active torsions:
REMARK  status: ('A' for Active; 'I' for Inactive)
REMARK    1  A    between atoms: C3_4  and  O_7 
ROOT
ATOM      1  C   UNL d   1      -1.896  -5.251  -4.884  0.00  0.00    -0.033 A 
ATOM      2  C1  UNL d   1      -2.650  -4.884  -3.768  0.00  0.00     0.039 A 
ATOM      3  C2  UNL d   1      -4.034  -5.070  -3.767  0.00  0.00    -0.080 A 
ATOM      4  C3  UNL d   1      -4.650  -5.624  -4.886  0.00  0.00     0.150 A 
ATOM      5  C4  UNL d   1      -3.904  -5.996  -5.999  0.00  0.00    -0.007 A 
ATOM      6  C5  UNL d   1      -2.522  -5.808  -5.999  0.00  0.00     0.039 A 
ENDROOT
BRANCH   4   7
ATOM      7  O   UNL d   1      -5.998  -5.821  -4.933  0.00  0.00    -0.526 OA
ATOM      8  H5  UNL d   1      -6.386  -5.491  -4.106  0.00  0.00     0.418 HD
ENDBRANCH   4   7
TORSDOF 1
ENDMDL
