MODEL 1
REMARK minimizedAffinity -5.12563658
REMARK minimizedRMSD -1
REMARK  0 active torsions:
REMARK  status: ('A' for Active; 'I' for Inactive)
ROOT
ATOM      1  C4' PXY d   1       2.254   0.263  -3.202  0.00  0.00     0.077 C 
ATOM      2  C1' PXY d   1      -1.020   0.107   1.560  0.00  0.00     0.077 C 
ATOM      3  C1  PXY d   1      -0.164   0.161   0.310  0.00  0.00    -0.082 A 
ATOM      4  C2  PXY d   1       0.085  -0.953  -0.360  0.00  0.00     0.003 A 
ATOM      5  C3  PXY d   1       0.883  -0.928  -1.475  0.00  0.00     0.003 A 
ATOM      6  C4  PXY d   1       1.387   0.258  -1.939  0.00  0.00    -0.082 A 
ATOM      7  C5  PXY d   1       1.128   1.400  -1.267  0.00  0.00     0.003 A 
ATOM      8  C6  PXY d   1       0.350   1.347  -0.115  0.00  0.00     0.003 A 
ENDROOT
TORSDOF 0
ENDMDL
