MODEL 1
REMARK minimizedAffinity -4.13368273
REMARK minimizedRMSD -1
REMARK  0 active torsions:
REMARK  status: ('A' for Active; 'I' for Inactive)
ROOT
ATOM      1  C4' PXY d   1       2.228   0.112  -2.311  0.00  0.00     0.077 C 
ATOM      2  C1' PXY d   1      -1.378   0.008   2.206  0.00  0.00     0.077 C 
ATOM      3  C1  PXY d   1      -0.430   0.022   1.022  0.00  0.00    -0.082 A 
ATOM      4  C2  PXY d   1       0.211   1.137   0.711  0.00  0.00     0.003 A 
ATOM      5  C3  PXY d   1       1.047   1.176  -0.375  0.00  0.00     0.003 A 
ATOM      6  C4  PXY d   1       1.270   0.049  -1.119  0.00  0.00    -0.082 A 
ATOM      7  C5  PXY d   1       0.627  -1.095  -0.802  0.00  0.00     0.003 A 
ATOM      8  C6  PXY d   1      -0.249  -1.104   0.280  0.00  0.00     0.003 A 
ENDROOT
TORSDOF 0
ENDMDL
