MODEL 1
REMARK minimizedAffinity -5.92806435
REMARK minimizedRMSD -1
REMARK  0 active torsions:
REMARK  status: ('A' for Active; 'I' for Inactive)
ROOT
ATOM      1  C4' PXY d   1       1.657  -2.659  -1.757  0.00  0.00     0.077 C 
ATOM      2  C1' PXY d   1       1.273   2.980  -0.542  0.00  0.00     0.077 C 
ATOM      3  C1  PXY d   1       1.378   1.504  -0.873  0.00  0.00    -0.082 A 
ATOM      4  C2  PXY d   1       0.635   0.631  -0.212  0.00  0.00     0.003 A 
ATOM      5  C3  PXY d   1       0.741  -0.710  -0.476  0.00  0.00     0.003 A 
ATOM      6  C4  PXY d   1       1.577  -1.158  -1.464  0.00  0.00    -0.082 A 
ATOM      7  C5  PXY d   1       2.330  -0.273  -2.150  0.00  0.00     0.003 A 
ATOM      8  C6  PXY d   1       2.238   1.081  -1.838  0.00  0.00     0.003 A 
ENDROOT
TORSDOF 0
ENDMDL
