MODEL 1
REMARK minimizedAffinity -5.99543524
REMARK minimizedRMSD -1
REMARK  0 active torsions:
REMARK  status: ('A' for Active; 'I' for Inactive)
ROOT
ATOM      1  C4' PXY d   1       1.207   3.206  -0.017  0.00  0.00     0.077 C 
ATOM      2  C1' PXY d   1       0.566  -2.385  -1.335  0.00  0.00     0.077 C 
ATOM      3  C1  PXY d   1       0.723  -0.919  -0.984  0.00  0.00    -0.082 A 
ATOM      4  C2  PXY d   1       1.528  -0.155  -1.705  0.00  0.00     0.003 A 
ATOM      5  C3  PXY d   1       1.705   1.165  -1.381  0.00  0.00     0.003 A 
ATOM      6  C4  PXY d   1       1.011   1.723  -0.341  0.00  0.00    -0.082 A 
ATOM      7  C5  PXY d   1       0.180   0.953   0.393  0.00  0.00     0.003 A 
ATOM      8  C6  PXY d   1       0.045  -0.395   0.074  0.00  0.00     0.003 A 
ENDROOT
TORSDOF 0
ENDMDL
