MODEL 1
REMARK minimizedAffinity -2.91089392
REMARK minimizedRMSD -1
REMARK  0 active torsions:
REMARK  status: ('A' for Active; 'I' for Inactive)
ROOT
ATOM      1  C4' PXY d   1      -1.430   0.156   2.132  0.00  0.00     0.077 C 
ATOM      2  C1' PXY d   1       1.957   0.218  -2.552  0.00  0.00     0.077 C 
ATOM      3  C1  PXY d   1       1.064   0.191  -1.327  0.00  0.00    -0.082 A 
ATOM      4  C2  PXY d   1       0.752   1.324  -0.719  0.00  0.00     0.003 A 
ATOM      5  C3  PXY d   1      -0.028   1.314   0.408  0.00  0.00     0.003 A 
ATOM      6  C4  PXY d   1      -0.539   0.137   0.887  0.00  0.00    -0.082 A 
ATOM      7  C5  PXY d   1      -0.235  -1.022   0.266  0.00  0.00     0.003 A 
ATOM      8  C6  PXY d   1       0.593  -0.995  -0.853  0.00  0.00     0.003 A 
ENDROOT
TORSDOF 0
ENDMDL
