MODEL 1
REMARK minimizedAffinity -4.64587736
REMARK minimizedRMSD -1
REMARK  0 active torsions:
REMARK  status: ('A' for Active; 'I' for Inactive)
ROOT
ATOM      1  C4' PXY d   1      -2.011  -0.060   1.633  0.00  0.00     0.077 C 
ATOM      2  C1' PXY d   1       2.284   1.062  -2.069  0.00  0.00     0.077 C 
ATOM      3  C1  PXY d   1       1.165   0.773  -1.089  0.00  0.00    -0.082 A 
ATOM      4  C2  PXY d   1       0.276  -0.166  -1.369  0.00  0.00     0.003 A 
ATOM      5  C3  PXY d   1      -0.761  -0.419  -0.508  0.00  0.00     0.003 A 
ATOM      6  C4  PXY d   1      -0.859   0.260   0.677  0.00  0.00    -0.082 A 
ATOM      7  C5  PXY d   1       0.050   1.212   0.975  0.00  0.00     0.003 A 
ATOM      8  C6  PXY d   1       1.072   1.482   0.069  0.00  0.00     0.003 A 
ENDROOT
TORSDOF 0
ENDMDL
