MODEL 1
REMARK minimizedAffinity -4.46864223
REMARK minimizedRMSD -1
REMARK  0 active torsions:
REMARK  status: ('A' for Active; 'I' for Inactive)
ROOT
ATOM      1  C4' PXY d   1       1.934   0.063  -3.381  0.00  0.00     0.077 C 
ATOM      2  C1' PXY d   1      -1.024   0.295   1.581  0.00  0.00     0.077 C 
ATOM      3  C1  PXY d   1      -0.245   0.246   0.281  0.00  0.00    -0.082 A 
ATOM      4  C2  PXY d   1      -0.572  -0.640  -0.645  0.00  0.00     0.003 A 
ATOM      5  C3  PXY d   1       0.143  -0.719  -1.813  0.00  0.00     0.003 A 
ATOM      6  C4  PXY d   1       1.169   0.154  -2.057  0.00  0.00    -0.082 A 
ATOM      7  C5  PXY d   1       1.502   1.068  -1.122  0.00  0.00     0.003 A 
ATOM      8  C6  PXY d   1       0.791   1.105   0.074  0.00  0.00     0.003 A 
ENDROOT
TORSDOF 0
ENDMDL
