MODEL 1
REMARK minimizedAffinity -3.30568767
REMARK minimizedRMSD -1
REMARK  0 active torsions:
REMARK  status: ('A' for Active; 'I' for Inactive)
ROOT
ATOM      1  C4' PXY d   1      -1.347  -0.101   1.583  0.00  0.00     0.077 C 
ATOM      2  C1' PXY d   1       2.125  -0.107  -3.039  0.00  0.00     0.077 C 
ATOM      3  C1  PXY d   1       1.207  -0.115  -1.832  0.00  0.00    -0.082 A 
ATOM      4  C2  PXY d   1       1.129   0.958  -1.063  0.00  0.00     0.003 A 
ATOM      5  C3  PXY d   1       0.328   0.957   0.051  0.00  0.00     0.003 A 
ATOM      6  C4  PXY d   1      -0.441  -0.135   0.349  0.00  0.00    -0.082 A 
ATOM      7  C5  PXY d   1      -0.375  -1.230  -0.437  0.00  0.00     0.003 A 
ATOM      8  C6  PXY d   1       0.475  -1.224  -1.539  0.00  0.00     0.003 A 
ENDROOT
TORSDOF 0
ENDMDL
