MODEL 1
REMARK minimizedAffinity -4.63220596
REMARK minimizedRMSD -1
REMARK  0 active torsions:
REMARK  status: ('A' for Active; 'I' for Inactive)
ROOT
ATOM      1  C4' PXY d   1      -1.211   0.373   1.421  0.00  0.00     0.077 C 
ATOM      2  C1' PXY d   1       2.556  -0.887  -2.779  0.00  0.00     0.077 C 
ATOM      3  C1  PXY d   1       1.563  -0.568  -1.679  0.00  0.00    -0.082 A 
ATOM      4  C2  PXY d   1       1.288   0.694  -1.391  0.00  0.00     0.003 A 
ATOM      5  C3  PXY d   1       0.416   1.000  -0.378  0.00  0.00     0.003 A 
ATOM      6  C4  PXY d   1      -0.221   0.004   0.312  0.00  0.00    -0.082 A 
ATOM      7  C5  PXY d   1       0.046  -1.286   0.018  0.00  0.00     0.003 A 
ATOM      8  C6  PXY d   1       0.965  -1.576  -0.986  0.00  0.00     0.003 A 
ENDROOT
TORSDOF 0
ENDMDL
