MODEL 1
REMARK minimizedAffinity -4.55937386
REMARK minimizedRMSD -1
REMARK  0 active torsions:
REMARK  status: ('A' for Active; 'I' for Inactive)
ROOT
ATOM      1  C4' PXY d   1       1.779   0.292  -2.317  0.00  0.00     0.077 C 
ATOM      2  C1' PXY d   1      -1.400  -0.044   2.499  0.00  0.00     0.077 C 
ATOM      3  C1  PXY d   1      -0.567   0.057   1.237  0.00  0.00    -0.082 A 
ATOM      4  C2  PXY d   1      -0.522  -0.966   0.400  0.00  0.00     0.003 A 
ATOM      5  C3  PXY d   1       0.252  -0.904  -0.731  0.00  0.00     0.003 A 
ATOM      6  C4  PXY d   1       0.944   0.238  -1.035  0.00  0.00    -0.082 A 
ATOM      7  C5  PXY d   1       0.894   1.291  -0.191  0.00  0.00     0.003 A 
ATOM      8  C6  PXY d   1       0.136   1.192   0.972  0.00  0.00     0.003 A 
ENDROOT
TORSDOF 0
ENDMDL
