MODEL 1
REMARK minimizedAffinity -4.19170904
REMARK minimizedRMSD -1
REMARK  0 active torsions:
REMARK  status: ('A' for Active; 'I' for Inactive)
ROOT
ATOM      1  C4' PXY d   1      -1.432   0.209   1.749  0.00  0.00     0.077 C 
ATOM      2  C1' PXY d   1       1.857  -1.704  -2.602  0.00  0.00     0.077 C 
ATOM      3  C1  PXY d   1       0.987  -1.213  -1.462  0.00  0.00    -0.082 A 
ATOM      4  C2  PXY d   1       0.924   0.082  -1.198  0.00  0.00     0.003 A 
ATOM      5  C3  PXY d   1       0.167   0.540  -0.150  0.00  0.00     0.003 A 
ATOM      6  C4  PXY d   1      -0.574  -0.331   0.602  0.00  0.00    -0.082 A 
ATOM      7  C5  PXY d   1      -0.523  -1.653   0.333  0.00  0.00     0.003 A 
ATOM      8  C6  PXY d   1       0.283  -2.102  -0.709  0.00  0.00     0.003 A 
ENDROOT
TORSDOF 0
ENDMDL
