MODEL 1
REMARK minimizedAffinity -5.09491873
REMARK minimizedRMSD -1
REMARK  0 active torsions:
REMARK  status: ('A' for Active; 'I' for Inactive)
ROOT
ATOM      1  C4' PXY d   1      -0.949  -0.089   1.896  0.00  0.00     0.077 C 
ATOM      2  C1' PXY d   1       1.923  -0.588  -3.096  0.00  0.00     0.077 C 
ATOM      3  C1  PXY d   1       1.177  -0.446  -1.784  0.00  0.00    -0.082 A 
ATOM      4  C2  PXY d   1       0.576  -1.501  -1.257  0.00  0.00     0.003 A 
ATOM      5  C3  PXY d   1      -0.130  -1.383  -0.087  0.00  0.00     0.003 A 
ATOM      6  C4  PXY d   1      -0.177  -0.187   0.577  0.00  0.00    -0.082 A 
ATOM      7  C5  PXY d   1       0.443   0.891   0.051  0.00  0.00     0.003 A 
ATOM      8  C6  PXY d   1       1.119   0.761  -1.159  0.00  0.00     0.003 A 
ENDROOT
TORSDOF 0
ENDMDL
