MODEL 1
REMARK minimizedAffinity -4.04044676
REMARK minimizedRMSD -1
REMARK  0 active torsions:
REMARK  status: ('A' for Active; 'I' for Inactive)
ROOT
ATOM      1  C4' PXY d   1      -2.585  -0.350   1.268  0.00  0.00     0.077 C 
ATOM      2  C1' PXY d   1       2.298   0.915  -1.557  0.00  0.00     0.077 C 
ATOM      3  C1  PXY d   1       1.024   0.583  -0.805  0.00  0.00    -0.082 A 
ATOM      4  C2  PXY d   1       0.020   0.003  -1.442  0.00  0.00     0.003 A 
ATOM      5  C3  PXY d   1      -1.151  -0.275  -0.785  0.00  0.00     0.003 A 
ATOM      6  C4  PXY d   1      -1.276  -0.005   0.551  0.00  0.00    -0.082 A 
ATOM      7  C5  PXY d   1      -0.253   0.577   1.211  0.00  0.00     0.003 A 
ATOM      8  C6  PXY d   1       0.912   0.889   0.516  0.00  0.00     0.003 A 
ENDROOT
TORSDOF 0
ENDMDL
