MODEL 1
REMARK minimizedAffinity -3.35763526
REMARK minimizedRMSD -1
REMARK  0 active torsions:
REMARK  status: ('A' for Active; 'I' for Inactive)
ROOT
ATOM      1  C4' PXY d   1      -1.006  -0.207   1.925  0.00  0.00     0.077 C 
ATOM      2  C1' PXY d   1       2.140   0.014  -2.919  0.00  0.00     0.077 C 
ATOM      3  C1  PXY d   1       1.323  -0.035  -1.644  0.00  0.00    -0.082 A 
ATOM      4  C2  PXY d   1       0.616  -1.117  -1.361  0.00  0.00     0.003 A 
ATOM      5  C3  PXY d   1      -0.154  -1.166  -0.227  0.00  0.00     0.003 A 
ATOM      6  C4  PXY d   1      -0.159  -0.117   0.653  0.00  0.00    -0.082 A 
ATOM      7  C5  PXY d   1       0.567   0.987   0.376  0.00  0.00     0.003 A 
ATOM      8  C6  PXY d   1       1.310   1.033  -0.800  0.00  0.00     0.003 A 
ENDROOT
TORSDOF 0
ENDMDL
