MODEL 1
REMARK minimizedAffinity -4.68382263
REMARK minimizedRMSD -1
REMARK  0 active torsions:
REMARK  status: ('A' for Active; 'I' for Inactive)
ROOT
ATOM      1  C4' PXY d   1       1.456   0.368  -2.955  0.00  0.00     0.077 C 
ATOM      2  C1' PXY d   1      -1.150   0.371   2.205  0.00  0.00     0.077 C 
ATOM      3  C1  PXY d   1      -0.468   0.383   0.851  0.00  0.00    -0.082 A 
ATOM      4  C2  PXY d   1      -0.484  -0.706   0.100  0.00  0.00     0.003 A 
ATOM      5  C3  PXY d   1       0.155  -0.723  -1.112  0.00  0.00     0.003 A 
ATOM      6  C4  PXY d   1       0.772   0.405  -1.586  0.00  0.00    -0.082 A 
ATOM      7  C5  PXY d   1       0.784   1.523  -0.830  0.00  0.00     0.003 A 
ATOM      8  C6  PXY d   1       0.164   1.507   0.416  0.00  0.00     0.003 A 
ENDROOT
TORSDOF 0
ENDMDL
