MODEL 1
REMARK minimizedAffinity -3.75783587
REMARK minimizedRMSD -1
REMARK  0 active torsions:
REMARK  status: ('A' for Active; 'I' for Inactive)
ROOT
ATOM      1  C4' PXY d   1       1.921  -0.381  -3.040  0.00  0.00     0.077 C 
ATOM      2  C1' PXY d   1      -1.080   0.139   1.873  0.00  0.00     0.077 C 
ATOM      3  C1  PXY d   1      -0.293  -0.010   0.586  0.00  0.00    -0.082 A 
ATOM      4  C2  PXY d   1       0.478   0.982   0.171  0.00  0.00     0.003 A 
ATOM      5  C3  PXY d   1       1.171   0.876  -1.007  0.00  0.00     0.003 A 
ATOM      6  C4  PXY d   1       1.116  -0.278  -1.741  0.00  0.00    -0.082 A 
ATOM      7  C5  PXY d   1       0.341  -1.299  -1.320  0.00  0.00     0.003 A 
ATOM      8  C6  PXY d   1      -0.388  -1.156  -0.142  0.00  0.00     0.003 A 
ENDROOT
TORSDOF 0
ENDMDL
