MODEL 1
REMARK minimizedAffinity -3.87537646
REMARK minimizedRMSD -1
REMARK  0 active torsions:
REMARK  status: ('A' for Active; 'I' for Inactive)
ROOT
ATOM      1  C4' PXY d   1      -1.545   0.006   2.367  0.00  0.00     0.077 C 
ATOM      2  C1' PXY d   1       2.355   0.802  -1.824  0.00  0.00     0.077 C 
ATOM      3  C1  PXY d   1       1.327   0.583  -0.732  0.00  0.00    -0.082 A 
ATOM      4  C2  PXY d   1       1.028   1.574   0.093  0.00  0.00     0.003 A 
ATOM      5  C3  PXY d   1       0.124   1.384   1.106  0.00  0.00     0.003 A 
ATOM      6  C4  PXY d   1      -0.520   0.184   1.244  0.00  0.00    -0.082 A 
ATOM      7  C5  PXY d   1      -0.229  -0.828   0.400  0.00  0.00     0.003 A 
ATOM      8  C6  PXY d   1       0.722  -0.628  -0.597  0.00  0.00     0.003 A 
ENDROOT
TORSDOF 0
ENDMDL
