MODEL 1
REMARK minimizedAffinity 13.3267117
REMARK minimizedRMSD -1
REMARK  0 active torsions:
REMARK  status: ('A' for Active; 'I' for Inactive)
ROOT
ATOM      1  O1  BZF d   1      -3.351  -0.024  -1.375  0.00  0.00    -0.204 OA
ATOM      2  C2  BZF d   1      -2.653   0.082  -2.563  0.00  0.00     0.174 A 
ATOM      3  C3  BZF d   1      -1.599  -0.760  -2.576  0.00  0.00    -0.012 A 
ATOM      4  C3A BZF d   1      -1.695  -1.501  -1.355  0.00  0.00    -0.107 A 
ATOM      5  C4  BZF d   1      -0.945  -2.499  -0.801  0.00  0.00     0.055 A 
ATOM      6  C5  BZF d   1      -1.266  -2.955   0.438  0.00  0.00    -0.016 A 
ATOM      7  C6  BZF d   1      -2.324  -2.434   1.153  0.00  0.00     0.022 A 
ATOM      8  C7  BZF d   1      -3.100  -1.447   0.643  0.00  0.00     0.029 A 
ATOM      9  C7A BZF d   1      -2.799  -1.006  -0.623  0.00  0.00     0.058 A 
ENDROOT
TORSDOF 0
ENDMDL
