MODEL 1
REMARK minimizedAffinity 11.3901443
REMARK minimizedRMSD -1
REMARK  0 active torsions:
REMARK  status: ('A' for Active; 'I' for Inactive)
ROOT
ATOM      1  O1  BZF d   1       5.088   5.093   3.362  0.00  0.00    -0.204 OA
ATOM      2  C2  BZF d   1       4.768   3.998   4.142  0.00  0.00     0.174 A 
ATOM      3  C3  BZF d   1       4.255   3.006   3.386  0.00  0.00    -0.012 A 
ATOM      4  C3A BZF d   1       4.340   3.478   2.037  0.00  0.00    -0.107 A 
ATOM      5  C4  BZF d   1       4.002   2.937   0.830  0.00  0.00     0.055 A 
ATOM      6  C5  BZF d   1       4.145   3.687  -0.294  0.00  0.00    -0.016 A 
ATOM      7  C6  BZF d   1       4.617   4.983  -0.246  0.00  0.00     0.022 A 
ATOM      8  C7  BZF d   1       4.970   5.561   0.928  0.00  0.00     0.029 A 
ATOM      9  C7A BZF d   1       4.857   4.794   2.061  0.00  0.00     0.058 A 
ENDROOT
TORSDOF 0
ENDMDL
