MODEL 1
REMARK minimizedAffinity 3.78023958
REMARK minimizedRMSD -1
REMARK  0 active torsions:
REMARK  status: ('A' for Active; 'I' for Inactive)
ROOT
ATOM      1  O1  BZF d   1       2.498   2.888   5.081  0.00  0.00    -0.204 OA
ATOM      2  C2  BZF d   1       3.101   3.877   5.833  0.00  0.00     0.174 A 
ATOM      3  C3  BZF d   1       4.426   3.652   5.947  0.00  0.00    -0.012 A 
ATOM      4  C3A BZF d   1       4.681   2.496   5.143  0.00  0.00    -0.107 A 
ATOM      5  C4  BZF d   1       5.813   1.794   4.841  0.00  0.00     0.055 A 
ATOM      6  C5  BZF d   1       5.710   0.669   4.085  0.00  0.00    -0.016 A 
ATOM      7  C6  BZF d   1       4.493   0.217   3.618  0.00  0.00     0.022 A 
ATOM      8  C7  BZF d   1       3.344   0.883   3.887  0.00  0.00     0.029 A 
ATOM      9  C7A BZF d   1       3.449   2.038   4.623  0.00  0.00     0.058 A 
ENDROOT
TORSDOF 0
ENDMDL
