MODEL 1
REMARK minimizedAffinity 13.4170418
REMARK minimizedRMSD -1
REMARK  0 active torsions:
REMARK  status: ('A' for Active; 'I' for Inactive)
ROOT
ATOM      1  O1  BZF d   1      -2.935   0.217   3.777  0.00  0.00    -0.204 OA
ATOM      2  C2  BZF d   1      -2.976   0.962   4.940  0.00  0.00     0.174 A 
ATOM      3  C3  BZF d   1      -2.596   0.217   5.998  0.00  0.00    -0.012 A 
ATOM      4  C3A BZF d   1      -2.211  -1.047   5.450  0.00  0.00    -0.107 A 
ATOM      5  C4  BZF d   1      -1.727  -2.200   5.999  0.00  0.00     0.055 A 
ATOM      6  C5  BZF d   1      -1.521  -3.278   5.197  0.00  0.00    -0.016 A 
ATOM      7  C6  BZF d   1      -1.792  -3.239   3.845  0.00  0.00     0.022 A 
ATOM      8  C7  BZF d   1      -2.268  -2.116   3.254  0.00  0.00     0.029 A 
ATOM      9  C7A BZF d   1      -2.446  -1.015   4.056  0.00  0.00     0.058 A 
ENDROOT
TORSDOF 0
ENDMDL
