MODEL 1
REMARK minimizedAffinity 22.2929516
REMARK minimizedRMSD -1
REMARK  0 active torsions:
REMARK  status: ('A' for Active; 'I' for Inactive)
ROOT
ATOM      1  O1  BZF d   1      -0.425  -4.661  -0.447  0.00  0.00    -0.204 OA
ATOM      2  C2  BZF d   1      -0.649  -5.645   0.496  0.00  0.00     0.174 A 
ATOM      3  C3  BZF d   1      -1.399  -5.172   1.512  0.00  0.00    -0.012 A 
ATOM      4  C3A BZF d   1      -1.738  -3.833   1.138  0.00  0.00    -0.107 A 
ATOM      5  C4  BZF d   1      -2.481  -2.853   1.731  0.00  0.00     0.055 A 
ATOM      6  C5  BZF d   1      -2.555  -1.632   1.140  0.00  0.00    -0.016 A 
ATOM      7  C6  BZF d   1      -1.897  -1.356  -0.041  0.00  0.00     0.022 A 
ATOM      8  C7  BZF d   1      -1.152  -2.298  -0.669  0.00  0.00     0.029 A 
ATOM      9  C7A BZF d   1      -1.102  -3.543  -0.090  0.00  0.00     0.058 A 
ENDROOT
TORSDOF 0
ENDMDL
