MODEL 1
REMARK minimizedAffinity 10.6975279
REMARK minimizedRMSD -1
REMARK  0 active torsions:
REMARK  status: ('A' for Active; 'I' for Inactive)
ROOT
ATOM      1  O1  BZF d   1       0.227  -5.261  -0.103  0.00  0.00    -0.204 OA
ATOM      2  C2  BZF d   1      -0.016  -5.923   1.085  0.00  0.00     0.174 A 
ATOM      3  C3  BZF d   1      -0.747  -5.156   1.919  0.00  0.00    -0.012 A 
ATOM      4  C3A BZF d   1      -1.055  -3.975   1.173  0.00  0.00    -0.107 A 
ATOM      5  C4  BZF d   1      -1.769  -2.846   1.455  0.00  0.00     0.055 A 
ATOM      6  C5  BZF d   1      -1.817  -1.847   0.534  0.00  0.00    -0.016 A 
ATOM      7  C6  BZF d   1      -1.159  -1.943  -0.675  0.00  0.00     0.022 A 
ATOM      8  C7  BZF d   1      -0.443  -3.046  -1.002  0.00  0.00     0.029 A 
ATOM      9  C7A BZF d   1      -0.420  -4.070  -0.087  0.00  0.00     0.058 A 
ENDROOT
TORSDOF 0
ENDMDL
