MODEL 1
REMARK minimizedAffinity 6.75444031
REMARK minimizedRMSD -1
REMARK  0 active torsions:
REMARK  status: ('A' for Active; 'I' for Inactive)
ROOT
ATOM      1  O1  BZF d   1      -0.374  -5.027   0.530  0.00  0.00    -0.204 OA
ATOM      2  C2  BZF d   1      -0.304  -6.000   1.509  0.00  0.00     0.174 A 
ATOM      3  C3  BZF d   1      -0.940  -5.598   2.628  0.00  0.00    -0.012 A 
ATOM      4  C3A BZF d   1      -1.517  -4.331   2.299  0.00  0.00    -0.107 A 
ATOM      5  C4  BZF d   1      -2.283  -3.440   2.995  0.00  0.00     0.055 A 
ATOM      6  C5  BZF d   1      -2.621  -2.261   2.408  0.00  0.00    -0.016 A 
ATOM      7  C6  BZF d   1      -2.207  -1.940   1.133  0.00  0.00     0.022 A 
ATOM      8  C7  BZF d   1      -1.449  -2.794   0.402  0.00  0.00     0.029 A 
ATOM      9  C7A BZF d   1      -1.134  -4.000   0.979  0.00  0.00     0.058 A 
ENDROOT
TORSDOF 0
ENDMDL
