MODEL 1
REMARK minimizedAffinity 13.4940023
REMARK minimizedRMSD -1
REMARK  0 active torsions:
REMARK  status: ('A' for Active; 'I' for Inactive)
ROOT
ATOM      1  O1  BZF d   1      -3.841   0.200  -1.615  0.00  0.00    -0.204 OA
ATOM      2  C2  BZF d   1      -2.961   0.494  -2.639  0.00  0.00     0.174 A 
ATOM      3  C3  BZF d   1      -1.867  -0.292  -2.569  0.00  0.00    -0.012 A 
ATOM      4  C3A BZF d   1      -2.119  -1.192  -1.486  0.00  0.00    -0.107 A 
ATOM      5  C4  BZF d   1      -1.409  -2.221  -0.936  0.00  0.00     0.055 A 
ATOM      6  C5  BZF d   1      -1.903  -2.853   0.161  0.00  0.00    -0.016 A 
ATOM      7  C6  BZF d   1      -3.100  -2.478   0.737  0.00  0.00     0.022 A 
ATOM      8  C7  BZF d   1      -3.842  -1.467   0.224  0.00  0.00     0.029 A 
ATOM      9  C7A BZF d   1      -3.361  -0.849  -0.904  0.00  0.00     0.058 A 
ENDROOT
TORSDOF 0
ENDMDL
