MODEL 1
REMARK minimizedAffinity 11.0904179
REMARK minimizedRMSD -1
REMARK  0 active torsions:
REMARK  status: ('A' for Active; 'I' for Inactive)
ROOT
ATOM      1  O1  BZF d   1      -3.359   4.109  -2.252  0.00  0.00    -0.204 OA
ATOM      2  C2  BZF d   1      -3.503   5.129  -3.172  0.00  0.00     0.174 A 
ATOM      3  C3  BZF d   1      -4.455   6.000  -2.776  0.00  0.00    -0.012 A 
ATOM      4  C3A BZF d   1      -4.871   5.542  -1.486  0.00  0.00    -0.107 A 
ATOM      5  C4  BZF d   1      -5.780   5.999  -0.576  0.00  0.00     0.055 A 
ATOM      6  C5  BZF d   1      -6.000   5.281   0.556  0.00  0.00    -0.016 A 
ATOM      7  C6  BZF d   1      -5.334   4.099   0.807  0.00  0.00     0.022 A 
ATOM      8  C7  BZF d   1      -4.419   3.607  -0.064  0.00  0.00     0.029 A 
ATOM      9  C7A BZF d   1      -4.170   4.349  -1.193  0.00  0.00     0.058 A 
ENDROOT
TORSDOF 0
ENDMDL
