MODEL 1
REMARK minimizedAffinity 6.41086912
REMARK minimizedRMSD -1
REMARK  0 active torsions:
REMARK  status: ('A' for Active; 'I' for Inactive)
ROOT
ATOM      1  O1  BZF d   1      -3.653   3.463   5.975  0.00  0.00    -0.204 OA
ATOM      2  C2  BZF d   1      -4.850   4.152   6.000  0.00  0.00     0.174 A 
ATOM      3  C3  BZF d   1      -5.894   3.299   5.958  0.00  0.00    -0.012 A 
ATOM      4  C3A BZF d   1      -5.313   1.992   5.998  0.00  0.00    -0.107 A 
ATOM      5  C4  BZF d   1      -5.838   0.731   5.999  0.00  0.00     0.055 A 
ATOM      6  C5  BZF d   1      -4.996  -0.335   5.969  0.00  0.00    -0.016 A 
ATOM      7  C6  BZF d   1      -3.626  -0.177   5.932  0.00  0.00     0.022 A 
ATOM      8  C7  BZF d   1      -3.059   1.054   5.934  0.00  0.00     0.029 A 
ATOM      9  C7A BZF d   1      -3.906   2.133   5.998  0.00  0.00     0.058 A 
ENDROOT
TORSDOF 0
ENDMDL
