MODEL 1
REMARK minimizedAffinity 23.4648266
REMARK minimizedRMSD -1
REMARK  0 active torsions:
REMARK  status: ('A' for Active; 'I' for Inactive)
ROOT
ATOM      1  O1  BZF d   1      -3.773   2.461  -5.209  0.00  0.00    -0.204 OA
ATOM      2  C2  BZF d   1      -2.902   2.415  -4.137  0.00  0.00     0.174 A 
ATOM      3  C3  BZF d   1      -2.993   3.540  -3.399  0.00  0.00    -0.012 A 
ATOM      4  C3A BZF d   1      -4.049   4.298  -3.997  0.00  0.00    -0.107 A 
ATOM      5  C4  BZF d   1      -4.621   5.503  -3.704  0.00  0.00     0.055 A 
ATOM      6  C5  BZF d   1      -5.582   5.996  -4.530  0.00  0.00    -0.016 A 
ATOM      7  C6  BZF d   1      -5.991   5.313  -5.657  0.00  0.00     0.022 A 
ATOM      8  C7  BZF d   1      -5.456   4.112  -5.985  0.00  0.00     0.029 A 
ATOM      9  C7A BZF d   1      -4.508   3.597  -5.135  0.00  0.00     0.058 A 
ENDROOT
TORSDOF 0
ENDMDL
