MODEL 1
REMARK minimizedAffinity 9.80264568
REMARK minimizedRMSD -1
REMARK  0 active torsions:
REMARK  status: ('A' for Active; 'I' for Inactive)
ROOT
ATOM      1  O1  BZF d   1      -0.049   3.506  -5.954  0.00  0.00    -0.204 OA
ATOM      2  C2  BZF d   1       0.907   2.970  -5.113  0.00  0.00     0.174 A 
ATOM      3  C3  BZF d   1       0.327   2.303  -4.094  0.00  0.00    -0.012 A 
ATOM      4  C3A BZF d   1      -1.077   2.351  -4.363  0.00  0.00    -0.107 A 
ATOM      5  C4  BZF d   1      -2.174   1.852  -3.720  0.00  0.00     0.055 A 
ATOM      6  C5  BZF d   1      -3.411   2.139  -4.205  0.00  0.00    -0.016 A 
ATOM      7  C6  BZF d   1      -3.587   2.924  -5.325  0.00  0.00     0.022 A 
ATOM      8  C7  BZF d   1      -2.530   3.437  -6.000  0.00  0.00     0.029 A 
ATOM      9  C7A BZF d   1      -1.277   3.122  -5.532  0.00  0.00     0.058 A 
ENDROOT
TORSDOF 0
ENDMDL
