MODEL 1
REMARK minimizedAffinity 8.37255383
REMARK minimizedRMSD -1
REMARK  0 active torsions:
REMARK  status: ('A' for Active; 'I' for Inactive)
ROOT
ATOM      1  O1  BZF d   1      -3.092  -0.496  -1.394  0.00  0.00    -0.204 OA
ATOM      2  C2  BZF d   1      -2.537  -0.452  -2.659  0.00  0.00     0.174 A 
ATOM      3  C3  BZF d   1      -1.495  -1.304  -2.753  0.00  0.00    -0.012 A 
ATOM      4  C3A BZF d   1      -1.451  -1.985  -1.495  0.00  0.00    -0.107 A 
ATOM      5  C4  BZF d   1      -0.646  -2.963  -0.985  0.00  0.00     0.055 A 
ATOM      6  C5  BZF d   1      -0.821  -3.357   0.303  0.00  0.00    -0.016 A 
ATOM      7  C6  BZF d   1      -1.788  -2.793   1.110  0.00  0.00     0.022 A 
ATOM      8  C7  BZF d   1      -2.614  -1.824   0.647  0.00  0.00     0.029 A 
ATOM      9  C7A BZF d   1      -2.461  -1.446  -0.665  0.00  0.00     0.058 A 
ENDROOT
TORSDOF 0
ENDMDL
