MODEL 1
REMARK minimizedAffinity 11.5483313
REMARK minimizedRMSD -1
REMARK  0 active torsions:
REMARK  status: ('A' for Active; 'I' for Inactive)
ROOT
ATOM      1  O1  BZF d   1      -0.616  -4.855   0.475  0.00  0.00    -0.204 OA
ATOM      2  C2  BZF d   1      -0.385  -6.000  -0.263  0.00  0.00     0.174 A 
ATOM      3  C3  BZF d   1      -0.589  -5.771  -1.577  0.00  0.00    -0.012 A 
ATOM      4  C3A BZF d   1      -0.882  -4.374  -1.675  0.00  0.00    -0.107 A 
ATOM      5  C4  BZF d   1      -1.160  -3.545  -2.723  0.00  0.00     0.055 A 
ATOM      6  C5  BZF d   1      -1.473  -2.246  -2.472  0.00  0.00    -0.016 A 
ATOM      7  C6  BZF d   1      -1.522  -1.746  -1.188  0.00  0.00     0.022 A 
ATOM      8  C7  BZF d   1      -1.249  -2.529  -0.116  0.00  0.00     0.029 A 
ATOM      9  C7A BZF d   1      -0.900  -3.834  -0.368  0.00  0.00     0.058 A 
ENDROOT
TORSDOF 0
ENDMDL
