MODEL 1
REMARK minimizedAffinity 12.2861681
REMARK minimizedRMSD -1
REMARK  0 active torsions:
REMARK  status: ('A' for Active; 'I' for Inactive)
ROOT
ATOM      1  O1  BZF d   1      -1.354   5.179  -4.771  0.00  0.00    -0.204 OA
ATOM      2  C2  BZF d   1      -0.782   4.063  -5.351  0.00  0.00     0.174 A 
ATOM      3  C3  BZF d   1      -1.729   3.255  -5.870  0.00  0.00    -0.012 A 
ATOM      4  C3A BZF d   1      -2.964   3.953  -5.680  0.00  0.00    -0.107 A 
ATOM      5  C4  BZF d   1      -4.261   3.670  -6.000  0.00  0.00     0.055 A 
ATOM      6  C5  BZF d   1      -5.240   4.527  -5.609  0.00  0.00    -0.016 A 
ATOM      7  C6  BZF d   1      -4.959   5.672  -4.893  0.00  0.00     0.022 A 
ATOM      8  C7  BZF d   1      -3.687   5.998  -4.556  0.00  0.00     0.029 A 
ATOM      9  C7A BZF d   1      -2.692   5.150  -4.979  0.00  0.00     0.058 A 
ENDROOT
TORSDOF 0
ENDMDL
