MODEL 1
REMARK minimizedAffinity 17.9124737
REMARK minimizedRMSD -1
REMARK  0 active torsions:
REMARK  status: ('A' for Active; 'I' for Inactive)
ROOT
ATOM      1  O1  BZF d   1       3.417   1.756   0.948  0.00  0.00    -0.204 OA
ATOM      2  C2  BZF d   1       3.726   3.078   0.690  0.00  0.00     0.174 A 
ATOM      3  C3  BZF d   1       3.308   3.436  -0.541  0.00  0.00    -0.012 A 
ATOM      4  C3A BZF d   1       2.618   2.291  -1.052  0.00  0.00    -0.107 A 
ATOM      5  C4  BZF d   1       1.964   2.034  -2.223  0.00  0.00     0.055 A 
ATOM      6  C5  BZF d   1       1.461   0.790  -2.439  0.00  0.00    -0.016 A 
ATOM      7  C6  BZF d   1       1.598  -0.220  -1.510  0.00  0.00     0.022 A 
ATOM      8  C7  BZF d   1       2.234  -0.011  -0.331  0.00  0.00     0.029 A 
ATOM      9  C7A BZF d   1       2.715   1.254  -0.096  0.00  0.00     0.058 A 
ENDROOT
TORSDOF 0
ENDMDL
