MODEL 1
REMARK minimizedAffinity 11.5990686
REMARK minimizedRMSD -1
REMARK  0 active torsions:
REMARK  status: ('A' for Active; 'I' for Inactive)
ROOT
ATOM      1  O1  BZF d   1      -2.715   4.606  -3.553  0.00  0.00    -0.204 OA
ATOM      2  C2  BZF d   1      -2.238   3.370  -3.944  0.00  0.00     0.174 A 
ATOM      3  C3  BZF d   1      -3.041   2.820  -4.878  0.00  0.00    -0.012 A 
ATOM      4  C3A BZF d   1      -4.035   3.813  -5.150  0.00  0.00    -0.107 A 
ATOM      5  C4  BZF d   1      -5.104   3.864  -5.999  0.00  0.00     0.055 A 
ATOM      6  C5  BZF d   1      -5.920   4.950  -5.969  0.00  0.00    -0.016 A 
ATOM      7  C6  BZF d   1      -5.701   5.999  -5.101  0.00  0.00     0.022 A 
ATOM      8  C7  BZF d   1      -4.652   5.996  -4.243  0.00  0.00     0.029 A 
ATOM      9  C7A BZF d   1      -3.806   4.915  -4.294  0.00  0.00     0.058 A 
ENDROOT
TORSDOF 0
ENDMDL
