MODEL 1
REMARK minimizedAffinity 14.3170767
REMARK minimizedRMSD -1
REMARK  0 active torsions:
REMARK  status: ('A' for Active; 'I' for Inactive)
ROOT
ATOM      1  O1  BZF d   1      -2.946   1.757   5.992  0.00  0.00    -0.204 OA
ATOM      2  C2  BZF d   1      -4.125   2.477   5.984  0.00  0.00     0.174 A 
ATOM      3  C3  BZF d   1      -5.173   1.676   5.703  0.00  0.00    -0.012 A 
ATOM      4  C3A BZF d   1      -4.625   0.357   5.614  0.00  0.00    -0.107 A 
ATOM      5  C4  BZF d   1      -5.170  -0.871   5.373  0.00  0.00     0.055 A 
ATOM      6  C5  BZF d   1      -4.350  -1.951   5.280  0.00  0.00    -0.016 A 
ATOM      7  C6  BZF d   1      -2.982  -1.838   5.418  0.00  0.00     0.022 A 
ATOM      8  C7  BZF d   1      -2.396  -0.641   5.663  0.00  0.00     0.029 A 
ATOM      9  C7A BZF d   1      -3.225   0.447   5.790  0.00  0.00     0.058 A 
ENDROOT
TORSDOF 0
ENDMDL
