MODEL 1
REMARK minimizedAffinity 13.0916328
REMARK minimizedRMSD -1
REMARK  1 active torsions:
REMARK  status: ('A' for Active; 'I' for Inactive)
REMARK    1  A    between atoms: C1_2  and  C2_3 
ROOT
ATOM      1  C2  UNL d   1      -0.086  -5.955   1.920  0.00  0.00    -0.076 A 
ATOM      2  C3  UNL d   1       1.045  -5.963   1.085  0.00  0.00     0.004 A 
ATOM      3  C4  UNL d   1       2.332  -5.969   1.622  0.00  0.00    -0.003 A 
ATOM      4  C5  UNL d   1       2.508  -5.968   3.001  0.00  0.00     0.000 A 
ATOM      5  C6  UNL d   1       1.397  -5.977   3.843  0.00  0.00     0.000 A 
ATOM      6  C7  UNL d   1       0.093  -5.987   3.319  0.00  0.00    -0.073 A 
ATOM      7  C8  UNL d   1      -1.069  -5.991   4.274  0.00  0.00     0.078 C 
ENDROOT
BRANCH   1   8
ATOM      8  C1  UNL d   1      -1.456  -5.920   1.281  0.00  0.00     0.053 C 
ATOM      9  C   UNL d   1      -1.930  -4.504   0.994  0.00  0.00     0.018 C 
ENDBRANCH   1   8
TORSDOF 1
ENDMDL
