MODEL 1
REMARK minimizedAffinity 6.78526068
REMARK minimizedRMSD -1
REMARK  1 active torsions:
REMARK  status: ('A' for Active; 'I' for Inactive)
REMARK    1  A    between atoms: C1_2  and  C2_3 
ROOT
ATOM      1  C2  UNL d   1      -0.929  -1.829  -3.711  0.00  0.00    -0.076 A 
ATOM      2  C3  UNL d   1      -1.100  -0.470  -3.394  0.00  0.00     0.004 A 
ATOM      3  C4  UNL d   1      -2.331   0.015  -2.955  0.00  0.00    -0.003 A 
ATOM      4  C5  UNL d   1      -3.411  -0.852  -2.825  0.00  0.00     0.000 A 
ATOM      5  C6  UNL d   1      -3.254  -2.206  -3.119  0.00  0.00     0.000 A 
ATOM      6  C7  UNL d   1      -2.016  -2.714  -3.547  0.00  0.00    -0.073 A 
ATOM      7  C8  UNL d   1      -1.905  -4.182  -3.856  0.00  0.00     0.078 C 
ENDROOT
BRANCH   1   8
ATOM      8  C1  UNL d   1       0.422  -2.292  -4.209  0.00  0.00     0.053 C 
ATOM      9  C   UNL d   1       1.572  -1.550  -3.546  0.00  0.00     0.018 C 
ENDBRANCH   1   8
TORSDOF 1
ENDMDL
