MODEL 1
REMARK minimizedAffinity 9.75588322
REMARK minimizedRMSD -1
REMARK  1 active torsions:
REMARK  status: ('A' for Active; 'I' for Inactive)
REMARK    1  A    between atoms: C1_2  and  C2_3 
ROOT
ATOM      1  C2  UNL d   1       0.514  -5.975   2.843  0.00  0.00    -0.076 A 
ATOM      2  C3  UNL d   1      -0.526  -5.957   3.789  0.00  0.00     0.004 A 
ATOM      3  C4  UNL d   1      -0.253  -5.961   5.155  0.00  0.00    -0.003 A 
ATOM      4  C5  UNL d   1       1.065  -5.981   5.599  0.00  0.00     0.000 A 
ATOM      5  C6  UNL d   1       2.109  -5.981   4.675  0.00  0.00     0.000 A 
ATOM      6  C7  UNL d   1       1.851  -5.961   3.293  0.00  0.00    -0.073 A 
ATOM      7  C8  UNL d   1       3.016  -5.968   2.341  0.00  0.00     0.078 C 
ENDROOT
BRANCH   1   8
ATOM      8  C1  UNL d   1       0.156  -5.998   1.374  0.00  0.00     0.053 C 
ATOM      9  C   UNL d   1      -1.346  -5.994   1.140  0.00  0.00     0.018 C 
ENDBRANCH   1   8
TORSDOF 1
ENDMDL
