MODEL 1
REMARK minimizedAffinity 6.94866514
REMARK minimizedRMSD -1
REMARK  1 active torsions:
REMARK  status: ('A' for Active; 'I' for Inactive)
REMARK    1  A    between atoms: C1_2  and  C2_3 
ROOT
ATOM      1  C2  UNL d   1       0.402  -5.927   3.091  0.00  0.00    -0.076 A 
ATOM      2  C3  UNL d   1       0.595  -5.901   4.483  0.00  0.00     0.004 A 
ATOM      3  C4  UNL d   1       1.877  -5.933   5.029  0.00  0.00    -0.003 A 
ATOM      4  C5  UNL d   1       2.986  -5.991   4.193  0.00  0.00     0.000 A 
ATOM      5  C6  UNL d   1       2.813  -6.000   2.809  0.00  0.00     0.000 A 
ATOM      6  C7  UNL d   1       1.529  -5.951   2.241  0.00  0.00    -0.073 A 
ATOM      7  C8  UNL d   1       1.400  -5.969   0.743  0.00  0.00     0.078 C 
ENDROOT
BRANCH   1   8
ATOM      8  C1  UNL d   1      -1.013  -5.917   2.556  0.00  0.00     0.053 C 
ATOM      9  C   UNL d   1      -1.401  -4.574   1.958  0.00  0.00     0.018 C 
ENDBRANCH   1   8
TORSDOF 1
ENDMDL
