MODEL 1
REMARK minimizedAffinity 10.5204144
REMARK minimizedRMSD -1
REMARK  1 active torsions:
REMARK  status: ('A' for Active; 'I' for Inactive)
REMARK    1  A    between atoms: C1_2  and  C2_3 
ROOT
ATOM      1  C2  UNL d   1      -3.653  -0.311   4.135  0.00  0.00    -0.076 A 
ATOM      2  C3  UNL d   1      -4.297  -0.984   5.188  0.00  0.00     0.004 A 
ATOM      3  C4  UNL d   1      -5.441  -0.455   5.784  0.00  0.00    -0.003 A 
ATOM      4  C5  UNL d   1      -5.960   0.754   5.335  0.00  0.00     0.000 A 
ATOM      5  C6  UNL d   1      -5.344   1.426   4.280  0.00  0.00     0.000 A 
ATOM      6  C7  UNL d   1      -4.199   0.899   3.658  0.00  0.00    -0.073 A 
ATOM      7  C8  UNL d   1      -3.572   1.669   2.528  0.00  0.00     0.078 C 
ENDROOT
BRANCH   1   8
ATOM      8  C1  UNL d   1      -2.400  -0.920   3.546  0.00  0.00     0.053 C 
ATOM      9  C   UNL d   1      -2.703  -2.020   2.542  0.00  0.00     0.018 C 
ENDBRANCH   1   8
TORSDOF 1
ENDMDL
