MODEL 1
REMARK minimizedAffinity 2.66222239
REMARK minimizedRMSD -1
REMARK  1 active torsions:
REMARK  status: ('A' for Active; 'I' for Inactive)
REMARK    1  A    between atoms: C1_2  and  C2_3 
ROOT
ATOM      1  C2  UNL d   1      -2.877  -5.973   2.146  0.00  0.00    -0.076 A 
ATOM      2  C3  UNL d   1      -2.443  -5.941   0.809  0.00  0.00     0.004 A 
ATOM      3  C4  UNL d   1      -3.357  -5.945  -0.242  0.00  0.00    -0.003 A 
ATOM      4  C5  UNL d   1      -4.721  -5.980   0.026  0.00  0.00     0.000 A 
ATOM      5  C6  UNL d   1      -5.170  -5.994   1.346  0.00  0.00     0.000 A 
ATOM      6  C7  UNL d   1      -4.261  -5.975   2.418  0.00  0.00    -0.073 A 
ATOM      7  C8  UNL d   1      -4.801  -5.997   3.822  0.00  0.00     0.078 C 
ENDROOT
BRANCH   1   8
ATOM      8  C1  UNL d   1      -1.838  -5.995   3.244  0.00  0.00     0.053 C 
ATOM      9  C   UNL d   1      -0.421  -5.852   2.710  0.00  0.00     0.018 C 
ENDBRANCH   1   8
TORSDOF 1
ENDMDL
