MODEL 1
REMARK minimizedAffinity 5.4863286
REMARK minimizedRMSD -1
REMARK  1 active torsions:
REMARK  status: ('A' for Active; 'I' for Inactive)
REMARK    1  A    between atoms: C1_2  and  C2_3 
ROOT
ATOM      1  C2  UNL d   1      -0.065  -5.977   2.594  0.00  0.00    -0.076 A 
ATOM      2  C3  UNL d   1      -0.837  -5.948   3.769  0.00  0.00     0.004 A 
ATOM      3  C4  UNL d   1      -0.232  -5.953   5.024  0.00  0.00    -0.003 A 
ATOM      4  C5  UNL d   1       1.155  -5.988   5.126  0.00  0.00     0.000 A 
ATOM      5  C6  UNL d   1       1.936  -6.000   3.971  0.00  0.00     0.000 A 
ATOM      6  C7  UNL d   1       1.342  -5.978   2.697  0.00  0.00    -0.073 A 
ATOM      7  C8  UNL d   1       2.233  -5.998   1.485  0.00  0.00     0.078 C 
ENDROOT
BRANCH   1   8
ATOM      8  C1  UNL d   1      -0.778  -5.997   1.260  0.00  0.00     0.053 C 
ATOM      9  C   UNL d   1      -2.291  -5.998   1.408  0.00  0.00     0.018 C 
ENDBRANCH   1   8
TORSDOF 1
ENDMDL
