MODEL 1
REMARK minimizedAffinity 3.39264655
REMARK minimizedRMSD -1
REMARK  1 active torsions:
REMARK  status: ('A' for Active; 'I' for Inactive)
REMARK    1  A    between atoms: C1_2  and  C2_3 
ROOT
ATOM      1  C2  UNL d   1       0.280  -5.993   3.639  0.00  0.00    -0.076 A 
ATOM      2  C3  UNL d   1      -1.078  -5.997   4.003  0.00  0.00     0.004 A 
ATOM      3  C4  UNL d   1      -2.081  -5.968   3.036  0.00  0.00    -0.003 A 
ATOM      4  C5  UNL d   1      -1.742  -5.935   1.687  0.00  0.00     0.000 A 
ATOM      5  C6  UNL d   1      -0.401  -5.948   1.307  0.00  0.00     0.000 A 
ATOM      6  C7  UNL d   1       0.622  -5.993   2.270  0.00  0.00    -0.073 A 
ATOM      7  C8  UNL d   1       2.052  -5.999   1.803  0.00  0.00     0.078 C 
ENDROOT
BRANCH   1   8
ATOM      8  C1  UNL d   1       1.323  -5.998   4.733  0.00  0.00     0.053 C 
ATOM      9  C   UNL d   1       0.848  -5.296   5.995  0.00  0.00     0.018 C 
ENDBRANCH   1   8
TORSDOF 1
ENDMDL
