MODEL 1
REMARK minimizedAffinity 10.7716188
REMARK minimizedRMSD -1
REMARK  1 active torsions:
REMARK  status: ('A' for Active; 'I' for Inactive)
REMARK    1  A    between atoms: C1_2  and  C2_3 
ROOT
ATOM      1  C2  UNL d   1       0.283  -5.974   3.833  0.00  0.00    -0.076 A 
ATOM      2  C3  UNL d   1      -1.109  -5.994   4.030  0.00  0.00     0.004 A 
ATOM      3  C4  UNL d   1      -1.987  -5.998   2.948  0.00  0.00    -0.003 A 
ATOM      4  C5  UNL d   1      -1.487  -5.983   1.650  0.00  0.00     0.000 A 
ATOM      5  C6  UNL d   1      -0.109  -5.981   1.436  0.00  0.00     0.000 A 
ATOM      6  C7  UNL d   1       0.789  -5.993   2.516  0.00  0.00    -0.073 A 
ATOM      7  C8  UNL d   1       2.266  -5.984   2.227  0.00  0.00     0.078 C 
ENDROOT
BRANCH   1   8
ATOM      8  C1  UNL d   1       1.185  -5.942   5.045  0.00  0.00     0.053 C 
ATOM      9  C   UNL d   1       1.081  -4.635   5.816  0.00  0.00     0.018 C 
ENDBRANCH   1   8
TORSDOF 1
ENDMDL
