MODEL 1
REMARK minimizedAffinity 6.32642174
REMARK minimizedRMSD -1
REMARK  1 active torsions:
REMARK  status: ('A' for Active; 'I' for Inactive)
REMARK    1  A    between atoms: C1_2  and  C2_3 
ROOT
ATOM      1  C2  UNL d   1      -0.376  -4.194   2.472  0.00  0.00    -0.076 A 
ATOM      2  C3  UNL d   1       0.932  -3.680   2.507  0.00  0.00     0.004 A 
ATOM      3  C4  UNL d   1       1.927  -4.302   3.260  0.00  0.00    -0.003 A 
ATOM      4  C5  UNL d   1       1.630  -5.447   3.990  0.00  0.00     0.000 A 
ATOM      5  C6  UNL d   1       0.342  -5.980   3.953  0.00  0.00     0.000 A 
ATOM      6  C7  UNL d   1      -0.669  -5.376   3.186  0.00  0.00    -0.073 A 
ATOM      7  C8  UNL d   1      -2.042  -5.990   3.187  0.00  0.00     0.078 C 
ENDROOT
BRANCH   1   8
ATOM      8  C1  UNL d   1      -1.420  -3.462   1.660  0.00  0.00     0.053 C 
ATOM      9  C   UNL d   1      -2.245  -2.500   2.501  0.00  0.00     0.018 C 
ENDBRANCH   1   8
TORSDOF 1
ENDMDL
