MODEL 1
REMARK minimizedAffinity 7.23775196
REMARK minimizedRMSD -1
REMARK  1 active torsions:
REMARK  status: ('A' for Active; 'I' for Inactive)
REMARK    1  A    between atoms: C1_2  and  C2_3 
ROOT
ATOM      1  C2  UNL d   1       0.336  -5.945   2.726  0.00  0.00    -0.076 A 
ATOM      2  C3  UNL d   1       1.054  -5.999   1.518  0.00  0.00     0.004 A 
ATOM      3  C4  UNL d   1       2.448  -5.974   1.511  0.00  0.00    -0.003 A 
ATOM      4  C5  UNL d   1       3.146  -5.895   2.711  0.00  0.00     0.000 A 
ATOM      5  C6  UNL d   1       2.450  -5.859   3.919  0.00  0.00     0.000 A 
ATOM      6  C7  UNL d   1       1.046  -5.900   3.945  0.00  0.00    -0.073 A 
ATOM      7  C8  UNL d   1       0.346  -5.851   5.276  0.00  0.00     0.078 C 
ENDROOT
BRANCH   1   8
ATOM      8  C1  UNL d   1      -1.175  -5.948   2.670  0.00  0.00     0.053 C 
ATOM      9  C   UNL d   1      -1.706  -5.998   1.246  0.00  0.00     0.018 C 
ENDBRANCH   1   8
TORSDOF 1
ENDMDL
