MODEL 1
REMARK minimizedAffinity 8.76098728
REMARK minimizedRMSD -1
REMARK  1 active torsions:
REMARK  status: ('A' for Active; 'I' for Inactive)
REMARK    1  A    between atoms: C1_2  and  C2_3 
ROOT
ATOM      1  C2  UNL d   1      -1.464  -0.717  -2.982  0.00  0.00    -0.076 A 
ATOM      2  C3  UNL d   1      -0.544  -0.968  -4.015  0.00  0.00     0.004 A 
ATOM      3  C4  UNL d   1      -0.672  -2.091  -4.832  0.00  0.00    -0.003 A 
ATOM      4  C5  UNL d   1      -1.722  -2.980  -4.629  0.00  0.00     0.000 A 
ATOM      5  C6  UNL d   1      -2.654  -2.736  -3.620  0.00  0.00     0.000 A 
ATOM      6  C7  UNL d   1      -2.549  -1.601  -2.798  0.00  0.00    -0.073 A 
ATOM      7  C8  UNL d   1      -3.578  -1.391  -1.722  0.00  0.00     0.078 C 
ENDROOT
BRANCH   1   8
ATOM      8  C1  UNL d   1      -1.259   0.502  -2.111  0.00  0.00     0.053 C 
ATOM      9  C   UNL d   1      -0.185   0.289  -1.055  0.00  0.00     0.018 C 
ENDBRANCH   1   8
TORSDOF 1
ENDMDL
