MODEL 1
REMARK minimizedAffinity 14.4017801
REMARK minimizedRMSD -1
REMARK  1 active torsions:
REMARK  status: ('A' for Active; 'I' for Inactive)
REMARK    1  A    between atoms: C1_2  and  C2_3 
ROOT
ATOM      1  C2  UNL d   1       2.267  -5.052   3.654  0.00  0.00    -0.076 A 
ATOM      2  C3  UNL d   1       1.305  -4.735   2.679  0.00  0.00     0.004 A 
ATOM      3  C4  UNL d   1      -0.044  -5.022   2.881  0.00  0.00    -0.003 A 
ATOM      4  C5  UNL d   1      -0.453  -5.631   4.063  0.00  0.00     0.000 A 
ATOM      5  C6  UNL d   1       0.485  -5.937   5.048  0.00  0.00     0.000 A 
ATOM      6  C7  UNL d   1       1.846  -5.639   4.867  0.00  0.00    -0.073 A 
ATOM      7  C8  UNL d   1       2.815  -5.996   5.961  0.00  0.00     0.078 C 
ENDROOT
BRANCH   1   8
ATOM      8  C1  UNL d   1       3.719  -4.742   3.368  0.00  0.00     0.053 C 
ATOM      9  C   UNL d   1       4.561  -5.998   3.201  0.00  0.00     0.018 C 
ENDBRANCH   1   8
TORSDOF 1
ENDMDL
