MODEL 1
REMARK minimizedAffinity 12.1510315
REMARK minimizedRMSD -1
REMARK  1 active torsions:
REMARK  status: ('A' for Active; 'I' for Inactive)
REMARK    1  A    between atoms: C1_2  and  C2_3 
ROOT
ATOM      1  C2  UNL d   1       0.620  -1.429  -2.176  0.00  0.00    -0.076 A 
ATOM      2  C3  UNL d   1       1.163  -1.143  -0.911  0.00  0.00     0.004 A 
ATOM      3  C4  UNL d   1       0.364  -1.150   0.231  0.00  0.00    -0.003 A 
ATOM      4  C5  UNL d   1      -0.991  -1.444   0.127  0.00  0.00     0.000 A 
ATOM      5  C6  UNL d   1      -1.543  -1.747  -1.117  0.00  0.00     0.000 A 
ATOM      6  C7  UNL d   1      -0.749  -1.760  -2.276  0.00  0.00    -0.073 A 
ATOM      7  C8  UNL d   1      -1.398  -2.088  -3.593  0.00  0.00     0.078 C 
ENDROOT
BRANCH   1   8
ATOM      8  C1  UNL d   1       1.529  -1.379  -3.383  0.00  0.00     0.053 C 
ATOM      9  C   UNL d   1       2.622  -0.331  -3.246  0.00  0.00     0.018 C 
ENDBRANCH   1   8
TORSDOF 1
ENDMDL
