MODEL 1
REMARK minimizedAffinity 8.34783077
REMARK minimizedRMSD -1
REMARK  2 active torsions:
REMARK  status: ('A' for Active; 'I' for Inactive)
REMARK    1  A    between atoms: C2'_3  and  C1'_4 
REMARK    2  A    between atoms: C1'_4  and  C1_5 
ROOT
ATOM      1  C1  I4B d   1       3.319   2.901   0.873  0.00  0.00    -0.075 A 
ATOM      2  C2  I4B d   1       2.065   3.367   1.183  0.00  0.00     0.003 A 
ATOM      3  C3  I4B d   1       0.963   2.478   1.219  0.00  0.00     0.002 A 
ATOM      4  C4  I4B d   1       1.150   1.151   0.891  0.00  0.00    -0.004 A 
ATOM      5  C5  I4B d   1       2.425   0.676   0.599  0.00  0.00     0.002 A 
ATOM      6  C6  I4B d   1       3.519   1.554   0.602  0.00  0.00     0.003 A 
ENDROOT
BRANCH   1   7
ATOM      7  C1' I4B d   1       4.454   3.873   0.812  0.00  0.00     0.060 C 
BRANCH   7   8
ATOM      8  C2' I4B d   1       3.903   5.254   1.104  0.00  0.00    -0.013 C 
ATOM      9  C4' I4B d   1       4.784   5.999   2.071  0.00  0.00     0.013 C 
ATOM     10  C3' I4B d   1       3.783   5.989  -0.197  0.00  0.00     0.013 C 
ENDBRANCH   7   8
ENDBRANCH   1   7
TORSDOF 2
ENDMDL
