MODEL 1
REMARK minimizedAffinity 3.13925481
REMARK minimizedRMSD -1
REMARK  2 active torsions:
REMARK  status: ('A' for Active; 'I' for Inactive)
REMARK    1  A    between atoms: C2'_3  and  C1'_4 
REMARK    2  A    between atoms: C1'_4  and  C1_5 
ROOT
ATOM      1  C1  I4B d   1       5.266  -4.027  -4.581  0.00  0.00    -0.075 A 
ATOM      2  C2  I4B d   1       3.894  -4.040  -4.547  0.00  0.00     0.003 A 
ATOM      3  C3  I4B d   1       3.174  -5.048  -5.233  0.00  0.00     0.002 A 
ATOM      4  C4  I4B d   1       3.860  -5.987  -5.977  0.00  0.00    -0.004 A 
ATOM      5  C5  I4B d   1       5.252  -5.985  -5.992  0.00  0.00     0.002 A 
ATOM      6  C6  I4B d   1       5.960  -5.006  -5.279  0.00  0.00     0.003 A 
ENDROOT
BRANCH   1   7
ATOM      7  C1' I4B d   1       5.994  -2.928  -3.873  0.00  0.00     0.060 C 
BRANCH   7   8
ATOM      8  C2' I4B d   1       5.096  -2.411  -2.768  0.00  0.00    -0.013 C 
ATOM      9  C4' I4B d   1       5.002  -3.397  -1.634  0.00  0.00     0.013 C 
ATOM     10  C3' I4B d   1       5.648  -1.098  -2.299  0.00  0.00     0.013 C 
ENDBRANCH   7   8
ENDBRANCH   1   7
TORSDOF 2
ENDMDL
