MODEL 1
REMARK minimizedAffinity 19.1370754
REMARK minimizedRMSD -1
REMARK  2 active torsions:
REMARK  status: ('A' for Active; 'I' for Inactive)
REMARK    1  A    between atoms: C2'_3  and  C1'_4 
REMARK    2  A    between atoms: C1'_4  and  C1_5 
ROOT
ATOM      1  C1  I4B d   1      -1.029   0.815   1.404  0.00  0.00    -0.075 A 
ATOM      2  C2  I4B d   1       0.297   0.738   1.058  0.00  0.00     0.003 A 
ATOM      3  C3  I4B d   1       0.936   1.838   0.437  0.00  0.00     0.002 A 
ATOM      4  C4  I4B d   1       0.204   2.969   0.137  0.00  0.00    -0.004 A 
ATOM      5  C5  I4B d   1      -1.134   3.054   0.509  0.00  0.00     0.002 A 
ATOM      6  C6  I4B d   1      -1.752   1.975   1.158  0.00  0.00     0.003 A 
ENDROOT
BRANCH   1   7
ATOM      7  C1' I4B d   1      -1.682  -0.378   2.029  0.00  0.00     0.060 C 
BRANCH   7   8
ATOM      8  C2' I4B d   1      -1.304  -1.597   1.213  0.00  0.00    -0.013 C 
ATOM      9  C4' I4B d   1      -1.105  -2.802   2.094  0.00  0.00     0.013 C 
ATOM     10  C3' I4B d   1      -2.390  -1.835   0.207  0.00  0.00     0.013 C 
ENDBRANCH   7   8
ENDBRANCH   1   7
TORSDOF 2
ENDMDL
