MODEL 1
REMARK minimizedAffinity 12.1766777
REMARK minimizedRMSD -1
REMARK  2 active torsions:
REMARK  status: ('A' for Active; 'I' for Inactive)
REMARK    1  A    between atoms: C2'_3  and  C1'_4 
REMARK    2  A    between atoms: C1'_4  and  C1_5 
ROOT
ATOM      1  C1  I4B d   1       3.384   3.420   1.711  0.00  0.00    -0.075 A 
ATOM      2  C2  I4B d   1       3.199   4.331   0.702  0.00  0.00     0.003 A 
ATOM      3  C3  I4B d   1       3.741   5.634   0.809  0.00  0.00     0.002 A 
ATOM      4  C4  I4B d   1       4.413   5.998   1.958  0.00  0.00    -0.004 A 
ATOM      5  C5  I4B d   1       4.620   5.066   2.971  0.00  0.00     0.002 A 
ATOM      6  C6  I4B d   1       4.113   3.765   2.842  0.00  0.00     0.003 A 
ENDROOT
BRANCH   1   7
ATOM      7  C1' I4B d   1       2.770   2.062   1.579  0.00  0.00     0.060 C 
BRANCH   7   8
ATOM      8  C2' I4B d   1       3.723   1.195   0.782  0.00  0.00    -0.013 C 
ATOM      9  C4' I4B d   1       4.056   1.827  -0.544  0.00  0.00     0.013 C 
ATOM     10  C3' I4B d   1       4.957   0.983   1.606  0.00  0.00     0.013 C 
ENDBRANCH   7   8
ENDBRANCH   1   7
TORSDOF 2
ENDMDL
