MODEL 1
REMARK minimizedAffinity 10.4015255
REMARK minimizedRMSD -1
REMARK  2 active torsions:
REMARK  status: ('A' for Active; 'I' for Inactive)
REMARK    1  A    between atoms: C2'_3  and  C1'_4 
REMARK    2  A    between atoms: C1'_4  and  C1_5 
ROOT
ATOM      1  C1  I4B d   1       5.226  -4.524  -3.982  0.00  0.00    -0.075 A 
ATOM      2  C2  I4B d   1       3.864  -4.682  -3.935  0.00  0.00     0.003 A 
ATOM      3  C3  I4B d   1       3.201  -5.450  -4.924  0.00  0.00     0.002 A 
ATOM      4  C4  I4B d   1       3.929  -5.996  -5.961  0.00  0.00    -0.004 A 
ATOM      5  C5  I4B d   1       5.313  -5.853  -5.994  0.00  0.00     0.002 A 
ATOM      6  C6  I4B d   1       5.968  -5.123  -4.992  0.00  0.00     0.003 A 
ENDROOT
BRANCH   1   7
ATOM      7  C1' I4B d   1       5.890  -3.679  -2.940  0.00  0.00     0.060 C 
BRANCH   7   8
ATOM      8  C2' I4B d   1       4.891  -2.637  -2.479  0.00  0.00    -0.013 C 
ATOM      9  C4' I4B d   1       4.451  -2.894  -1.062  0.00  0.00     0.013 C 
ATOM     10  C3' I4B d   1       5.534  -1.289  -2.610  0.00  0.00     0.013 C 
ENDBRANCH   7   8
ENDBRANCH   1   7
TORSDOF 2
ENDMDL
