MODEL 1
REMARK minimizedAffinity 11.8217707
REMARK minimizedRMSD -1
REMARK  2 active torsions:
REMARK  status: ('A' for Active; 'I' for Inactive)
REMARK    1  A    between atoms: C2'_3  and  C1'_4 
REMARK    2  A    between atoms: C1'_4  and  C1_5 
ROOT
ATOM      1  C1  I4B d   1       2.184  -5.430  -3.857  0.00  0.00    -0.075 A 
ATOM      2  C2  I4B d   1       1.083  -5.219  -3.064  0.00  0.00     0.003 A 
ATOM      3  C3  I4B d   1       1.174  -5.383  -1.661  0.00  0.00     0.002 A 
ATOM      4  C4  I4B d   1       2.362  -5.806  -1.101  0.00  0.00    -0.004 A 
ATOM      5  C5  I4B d   1       3.483  -5.998  -1.904  0.00  0.00     0.002 A 
ATOM      6  C6  I4B d   1       3.397  -5.797  -3.289  0.00  0.00     0.003 A 
ENDROOT
BRANCH   1   7
ATOM      7  C1' I4B d   1       2.044  -5.279  -5.339  0.00  0.00     0.060 C 
BRANCH   7   8
ATOM      8  C2' I4B d   1       3.376  -4.808  -5.887  0.00  0.00    -0.013 C 
ATOM      9  C4' I4B d   1       3.979  -3.740  -5.013  0.00  0.00     0.013 C 
ATOM     10  C3' I4B d   1       4.282  -5.999  -5.990  0.00  0.00     0.013 C 
ENDBRANCH   7   8
ENDBRANCH   1   7
TORSDOF 2
ENDMDL
