MODEL 1
REMARK minimizedAffinity 0.297400117
REMARK minimizedRMSD -1
REMARK  2 active torsions:
REMARK  status: ('A' for Active; 'I' for Inactive)
REMARK    1  A    between atoms: C2'_3  and  C1'_4 
REMARK    2  A    between atoms: C1'_4  and  C1_5 
ROOT
ATOM      1  C1  I4B d   1       2.917   2.351   0.965  0.00  0.00    -0.075 A 
ATOM      2  C2  I4B d   1       2.940   1.933  -0.343  0.00  0.00     0.003 A 
ATOM      3  C3  I4B d   1       4.134   2.024  -1.099  0.00  0.00     0.002 A 
ATOM      4  C4  I4B d   1       5.260   2.582  -0.527  0.00  0.00    -0.004 A 
ATOM      5  C5  I4B d   1       5.240   2.983   0.806  0.00  0.00     0.002 A 
ATOM      6  C6  I4B d   1       4.065   2.856   1.560  0.00  0.00     0.003 A 
ENDROOT
BRANCH   1   7
ATOM      7  C1' I4B d   1       1.630   2.271   1.723  0.00  0.00     0.060 C 
BRANCH   7   8
ATOM      8  C2' I4B d   1       0.509   2.670   0.785  0.00  0.00    -0.013 C 
ATOM      9  C4' I4B d   1      -0.822   2.653   1.489  0.00  0.00     0.013 C 
ATOM     10  C3' I4B d   1       0.820   4.035   0.248  0.00  0.00     0.013 C 
ENDBRANCH   7   8
ENDBRANCH   1   7
TORSDOF 2
ENDMDL
