MODEL 1
REMARK minimizedAffinity 0.941569328
REMARK minimizedRMSD -1
REMARK  2 active torsions:
REMARK  status: ('A' for Active; 'I' for Inactive)
REMARK    1  A    between atoms: C2'_3  and  C1'_4 
REMARK    2  A    between atoms: C1'_4  and  C1_5 
ROOT
ATOM      1  C1  I4B d   1       3.432  -5.481  -4.118  0.00  0.00    -0.075 A 
ATOM      2  C2  I4B d   1       4.538  -5.156  -3.372  0.00  0.00     0.003 A 
ATOM      3  C3  I4B d   1       5.831  -5.236  -3.943  0.00  0.00     0.002 A 
ATOM      4  C4  I4B d   1       5.976  -5.692  -5.238  0.00  0.00    -0.004 A 
ATOM      5  C5  I4B d   1       4.852  -5.999  -6.000  0.00  0.00     0.002 A 
ATOM      6  C6  I4B d   1       3.571  -5.882  -5.440  0.00  0.00     0.003 A 
ENDROOT
BRANCH   1   7
ATOM      7  C1' I4B d   1       2.084  -5.417  -3.473  0.00  0.00     0.060 C 
BRANCH   7   8
ATOM      8  C2' I4B d   1       2.287  -5.188  -1.989  0.00  0.00    -0.013 C 
ATOM      9  C4' I4B d   1       1.054  -5.558  -1.207  0.00  0.00     0.013 C 
ATOM     10  C3' I4B d   1       3.469  -6.000  -1.552  0.00  0.00     0.013 C 
ENDBRANCH   7   8
ENDBRANCH   1   7
TORSDOF 2
ENDMDL
