MODEL 1
REMARK minimizedAffinity 10.475214
REMARK minimizedRMSD -1
REMARK  2 active torsions:
REMARK  status: ('A' for Active; 'I' for Inactive)
REMARK    1  A    between atoms: C2'_3  and  C1'_4 
REMARK    2  A    between atoms: C1'_4  and  C1_5 
ROOT
ATOM      1  C1  I4B d   1       2.730   1.568  -0.976  0.00  0.00    -0.075 A 
ATOM      2  C2  I4B d   1       1.489   1.390  -0.417  0.00  0.00     0.003 A 
ATOM      3  C3  I4B d   1       1.293   1.614   0.967  0.00  0.00     0.002 A 
ATOM      4  C4  I4B d   1       2.368   1.964   1.759  0.00  0.00    -0.004 A 
ATOM      5  C5  I4B d   1       3.620   2.166   1.185  0.00  0.00     0.002 A 
ATOM      6  C6  I4B d   1       3.800   1.979  -0.193  0.00  0.00     0.003 A 
ENDROOT
BRANCH   1   7
ATOM      7  C1' I4B d   1       2.909   1.290  -2.435  0.00  0.00     0.060 C 
BRANCH   7   8
ATOM      8  C2' I4B d   1       1.877   2.100  -3.194  0.00  0.00    -0.013 C 
ATOM      9  C4' I4B d   1       2.376   2.470  -4.566  0.00  0.00     0.013 C 
ATOM     10  C3' I4B d   1       0.620   1.286  -3.277  0.00  0.00     0.013 C 
ENDBRANCH   7   8
ENDBRANCH   1   7
TORSDOF 2
ENDMDL
