MODEL 1
REMARK minimizedAffinity 6.31601763
REMARK minimizedRMSD -1
REMARK  2 active torsions:
REMARK  status: ('A' for Active; 'I' for Inactive)
REMARK    1  A    between atoms: C2'_3  and  C1'_4 
REMARK    2  A    between atoms: C1'_4  and  C1_5 
ROOT
ATOM      1  C1  I4B d   1      -1.609  -5.066  -0.046  0.00  0.00    -0.075 A 
ATOM      2  C2  I4B d   1      -0.618  -5.132  -0.993  0.00  0.00     0.003 A 
ATOM      3  C3  I4B d   1      -0.806  -4.539  -2.265  0.00  0.00     0.002 A 
ATOM      4  C4  I4B d   1      -2.013  -3.940  -2.563  0.00  0.00    -0.004 A 
ATOM      5  C5  I4B d   1      -3.009  -3.854  -1.594  0.00  0.00     0.002 A 
ATOM      6  C6  I4B d   1      -2.801  -4.410  -0.324  0.00  0.00     0.003 A 
ENDROOT
BRANCH   1   7
ATOM      7  C1' I4B d   1      -1.389  -5.731   1.276  0.00  0.00     0.060 C 
BRANCH   7   8
ATOM      8  C2' I4B d   1      -0.140  -5.137   1.895  0.00  0.00    -0.013 C 
ATOM      9  C4' I4B d   1      -0.352  -3.694   2.270  0.00  0.00     0.013 C 
ATOM     10  C3' I4B d   1       0.219  -5.961   3.095  0.00  0.00     0.013 C 
ENDBRANCH   7   8
ENDBRANCH   1   7
TORSDOF 2
ENDMDL
