MODEL 1
REMARK minimizedAffinity 12.1200132
REMARK minimizedRMSD -1
REMARK  2 active torsions:
REMARK  status: ('A' for Active; 'I' for Inactive)
REMARK    1  A    between atoms: C2'_3  and  C1'_4 
REMARK    2  A    between atoms: C1'_4  and  C1_5 
ROOT
ATOM      1  C1  I4B d   1      -0.621  -4.264   1.520  0.00  0.00    -0.075 A 
ATOM      2  C2  I4B d   1      -1.141  -3.433   0.560  0.00  0.00     0.003 A 
ATOM      3  C3  I4B d   1      -2.409  -3.704  -0.007  0.00  0.00     0.002 A 
ATOM      4  C4  I4B d   1      -3.097  -4.837   0.376  0.00  0.00    -0.004 A 
ATOM      5  C5  I4B d   1      -2.579  -5.667   1.366  0.00  0.00     0.002 A 
ATOM      6  C6  I4B d   1      -1.339  -5.372   1.951  0.00  0.00     0.003 A 
ENDROOT
BRANCH   1   7
ATOM      7  C1' I4B d   1       0.736  -3.966   2.074  0.00  0.00     0.060 C 
BRANCH   7   8
ATOM      8  C2' I4B d   1       1.752  -4.206   0.976  0.00  0.00    -0.013 C 
ATOM      9  C4' I4B d   1       2.837  -3.162   1.000  0.00  0.00     0.013 C 
ATOM     10  C3' I4B d   1       2.319  -5.582   1.162  0.00  0.00     0.013 C 
ENDBRANCH   7   8
ENDBRANCH   1   7
TORSDOF 2
ENDMDL
