MODEL 1
REMARK minimizedAffinity 2.78996706
REMARK minimizedRMSD -1
REMARK  2 active torsions:
REMARK  status: ('A' for Active; 'I' for Inactive)
REMARK    1  A    between atoms: C2'_3  and  C1'_4 
REMARK    2  A    between atoms: C1'_4  and  C1_5 
ROOT
ATOM      1  C1  I4B d   1       1.755   0.524  -0.120  0.00  0.00    -0.075 A 
ATOM      2  C2  I4B d   1       3.033   0.871   0.242  0.00  0.00     0.003 A 
ATOM      3  C3  I4B d   1       3.324   2.195   0.651  0.00  0.00     0.002 A 
ATOM      4  C4  I4B d   1       2.324   3.146   0.636  0.00  0.00    -0.004 A 
ATOM      5  C5  I4B d   1       1.024   2.787   0.291  0.00  0.00     0.002 A 
ATOM      6  C6  I4B d   1       0.735   1.466  -0.077  0.00  0.00     0.003 A 
ENDROOT
BRANCH   1   7
ATOM      7  C1' I4B d   1       1.490  -0.874  -0.579  0.00  0.00     0.060 C 
BRANCH   7   8
ATOM      8  C2' I4B d   1       2.154  -1.056  -1.928  0.00  0.00    -0.013 C 
ATOM      9  C4' I4B d   1       2.613  -2.478  -2.123  0.00  0.00     0.013 C 
ATOM     10  C3' I4B d   1       1.169  -0.656  -2.986  0.00  0.00     0.013 C 
ENDBRANCH   7   8
ENDBRANCH   1   7
TORSDOF 2
ENDMDL
