MODEL 1
REMARK minimizedAffinity 5.19230509
REMARK minimizedRMSD -1
REMARK  2 active torsions:
REMARK  status: ('A' for Active; 'I' for Inactive)
REMARK    1  A    between atoms: C2'_3  and  C1'_4 
REMARK    2  A    between atoms: C1'_4  and  C1_5 
ROOT
ATOM      1  C1  I4B d   1       2.328   1.191  -0.263  0.00  0.00    -0.075 A 
ATOM      2  C2  I4B d   1       2.366  -0.145   0.051  0.00  0.00     0.003 A 
ATOM      3  C3  I4B d   1       2.229  -1.120  -0.966  0.00  0.00     0.002 A 
ATOM      4  C4  I4B d   1       2.007  -0.719  -2.267  0.00  0.00    -0.004 A 
ATOM      5  C5  I4B d   1       1.992   0.636  -2.588  0.00  0.00     0.002 A 
ATOM      6  C6  I4B d   1       2.166   1.597  -1.582  0.00  0.00     0.003 A 
ENDROOT
BRANCH   1   7
ATOM      7  C1' I4B d   1       2.443   2.195   0.840  0.00  0.00     0.060 C 
BRANCH   7   8
ATOM      8  C2' I4B d   1       1.171   3.017   0.857  0.00  0.00    -0.013 C 
ATOM      9  C4' I4B d   1       0.798   3.474  -0.529  0.00  0.00     0.013 C 
ATOM     10  C3' I4B d   1       0.085   2.178   1.461  0.00  0.00     0.013 C 
ENDBRANCH   7   8
ENDBRANCH   1   7
TORSDOF 2
ENDMDL
