MODEL 1
REMARK minimizedAffinity 16.9690819
REMARK minimizedRMSD -1
REMARK  2 active torsions:
REMARK  status: ('A' for Active; 'I' for Inactive)
REMARK    1  A    between atoms: C1_2  and  C2_3 
REMARK    2  A    between atoms: C2_3  and  C3_4 
ROOT
ATOM      1  C3  UNL d   1      -0.106  -0.033   2.281  0.00  0.00    -0.075 A 
ATOM      2  C4  UNL d   1      -1.375   0.563   2.259  0.00  0.00     0.002 A 
ATOM      3  C5  UNL d   1      -2.443  -0.067   1.619  0.00  0.00     0.002 A 
ATOM      4  C6  UNL d   1      -2.253  -1.293   0.984  0.00  0.00    -0.004 A 
ATOM      5  C7  UNL d   1      -0.993  -1.886   0.985  0.00  0.00     0.002 A 
ATOM      6  C8  UNL d   1       0.076  -1.260   1.629  0.00  0.00     0.002 A 
ENDROOT
BRANCH   1   7
ATOM      7  C2  UNL d   1       1.046   0.629   2.998  0.00  0.00     0.056 C 
BRANCH   7   8
ATOM      8  C1  UNL d   1       2.024  -0.355   3.649  0.00  0.00     0.007 C 
ATOM      9  C   UNL d   1       3.354   0.283   4.028  0.00  0.00     0.009 C 
ENDBRANCH   7   8
ENDBRANCH   1   7
TORSDOF 2
ENDMDL
