MODEL 1
REMARK minimizedAffinity 10.7299051
REMARK minimizedRMSD -1
REMARK  2 active torsions:
REMARK  status: ('A' for Active; 'I' for Inactive)
REMARK    1  A    between atoms: C1_2  and  C2_3 
REMARK    2  A    between atoms: C2_3  and  C3_4 
ROOT
ATOM      1  C3  UNL d   1      -0.766  -2.692  -4.087  0.00  0.00    -0.075 A 
ATOM      2  C4  UNL d   1      -1.602  -3.499  -3.301  0.00  0.00     0.002 A 
ATOM      3  C5  UNL d   1      -2.248  -4.603  -3.858  0.00  0.00     0.002 A 
ATOM      4  C6  UNL d   1      -2.075  -4.908  -5.206  0.00  0.00    -0.004 A 
ATOM      5  C7  UNL d   1      -1.260  -4.104  -6.000  0.00  0.00     0.002 A 
ATOM      6  C8  UNL d   1      -0.609  -3.001  -5.444  0.00  0.00     0.002 A 
ENDROOT
BRANCH   1   7
ATOM      7  C2  UNL d   1      -0.040  -1.513  -3.483  0.00  0.00     0.056 C 
BRANCH   7   8
ATOM      8  C1  UNL d   1       0.252  -0.385  -4.478  0.00  0.00     0.007 C 
ATOM      9  C   UNL d   1       1.480   0.437  -4.110  0.00  0.00     0.009 C 
ENDBRANCH   7   8
ENDBRANCH   1   7
TORSDOF 2
ENDMDL
