MODEL 1
REMARK minimizedAffinity 13.9811401
REMARK minimizedRMSD -1
REMARK  2 active torsions:
REMARK  status: ('A' for Active; 'I' for Inactive)
REMARK    1  A    between atoms: C1_2  and  C2_3 
REMARK    2  A    between atoms: C2_3  and  C3_4 
ROOT
ATOM      1  C3  UNL d   1       2.602  -0.714  -4.657  0.00  0.00    -0.075 A 
ATOM      2  C4  UNL d   1       1.481   0.105  -4.852  0.00  0.00     0.002 A 
ATOM      3  C5  UNL d   1       0.219  -0.456  -5.050  0.00  0.00     0.002 A 
ATOM      4  C6  UNL d   1       0.064  -1.840  -5.068  0.00  0.00    -0.004 A 
ATOM      5  C7  UNL d   1       1.174  -2.664  -4.893  0.00  0.00     0.002 A 
ATOM      6  C8  UNL d   1       2.437  -2.105  -4.689  0.00  0.00     0.002 A 
ENDROOT
BRANCH   1   7
ATOM      7  C2  UNL d   1       3.966  -0.113  -4.412  0.00  0.00     0.056 C 
BRANCH   7   8
ATOM      8  C1  UNL d   1       4.093   1.347  -4.859  0.00  0.00     0.007 C 
ATOM      9  C   UNL d   1       5.511   1.890  -4.739  0.00  0.00     0.009 C 
ENDBRANCH   7   8
ENDBRANCH   1   7
TORSDOF 2
ENDMDL
