MODEL 1
REMARK minimizedAffinity 14.2717228
REMARK minimizedRMSD -1
REMARK  2 active torsions:
REMARK  status: ('A' for Active; 'I' for Inactive)
REMARK    1  A    between atoms: C1_2  and  C2_3 
REMARK    2  A    between atoms: C2_3  and  C3_4 
ROOT
ATOM      1  C3  UNL d   1       1.371  -2.724   3.870  0.00  0.00    -0.075 A 
ATOM      2  C4  UNL d   1       0.105  -3.312   3.727  0.00  0.00     0.002 A 
ATOM      3  C5  UNL d   1      -0.400  -4.155   4.717  0.00  0.00     0.002 A 
ATOM      4  C6  UNL d   1       0.355  -4.429   5.855  0.00  0.00    -0.004 A 
ATOM      5  C7  UNL d   1       1.620  -3.863   6.000  0.00  0.00     0.002 A 
ATOM      6  C8  UNL d   1       2.127  -3.016   5.013  0.00  0.00     0.002 A 
ENDROOT
BRANCH   1   7
ATOM      7  C2  UNL d   1       1.911  -1.787   2.816  0.00  0.00     0.056 C 
BRANCH   7   8
ATOM      8  C1  UNL d   1       2.373  -0.432   3.363  0.00  0.00     0.007 C 
ATOM      9  C   UNL d   1       1.446   0.715   2.985  0.00  0.00     0.009 C 
ENDBRANCH   7   8
ENDBRANCH   1   7
TORSDOF 2
ENDMDL
