MODEL 1
REMARK minimizedAffinity 3.5688746
REMARK minimizedRMSD -1
REMARK  2 active torsions:
REMARK  status: ('A' for Active; 'I' for Inactive)
REMARK    1  A    between atoms: C1_2  and  C2_3 
REMARK    2  A    between atoms: C2_3  and  C3_4 
ROOT
ATOM      1  C3  UNL d   1      -1.305  -2.969  -4.669  0.00  0.00    -0.075 A 
ATOM      2  C4  UNL d   1      -1.312  -3.597  -3.415  0.00  0.00     0.002 A 
ATOM      3  C5  UNL d   1      -1.667  -4.941  -3.299  0.00  0.00     0.002 A 
ATOM      4  C6  UNL d   1      -2.029  -5.670  -4.430  0.00  0.00    -0.004 A 
ATOM      5  C7  UNL d   1      -2.041  -5.051  -5.678  0.00  0.00     0.002 A 
ATOM      6  C8  UNL d   1      -1.681  -3.708  -5.798  0.00  0.00     0.002 A 
ENDROOT
BRANCH   1   7
ATOM      7  C2  UNL d   1      -0.893  -1.522  -4.806  0.00  0.00     0.056 C 
BRANCH   7   8
ATOM      8  C1  UNL d   1       0.414  -1.175  -4.085  0.00  0.00     0.007 C 
ATOM      9  C   UNL d   1       0.890   0.246  -4.356  0.00  0.00     0.009 C 
ENDBRANCH   7   8
ENDBRANCH   1   7
TORSDOF 2
ENDMDL
