MODEL 1
REMARK minimizedAffinity 7.37080336
REMARK minimizedRMSD -1
REMARK  2 active torsions:
REMARK  status: ('A' for Active; 'I' for Inactive)
REMARK    1  A    between atoms: C1_2  and  C2_3 
REMARK    2  A    between atoms: C2_3  and  C3_4 
ROOT
ATOM      1  C3  UNL d   1       4.168  -2.688   5.229  0.00  0.00    -0.075 A 
ATOM      2  C4  UNL d   1       4.638  -1.373   5.094  0.00  0.00     0.002 A 
ATOM      3  C5  UNL d   1       3.844  -0.396   4.492  0.00  0.00     0.002 A 
ATOM      4  C6  UNL d   1       2.579  -0.722   4.009  0.00  0.00    -0.004 A 
ATOM      5  C7  UNL d   1       2.109  -2.028   4.123  0.00  0.00     0.002 A 
ATOM      6  C8  UNL d   1       2.898  -3.007   4.729  0.00  0.00     0.002 A 
ENDROOT
BRANCH   1   7
ATOM      7  C2  UNL d   1       5.010  -3.743   5.906  0.00  0.00     0.056 C 
BRANCH   7   8
ATOM      8  C1  UNL d   1       5.936  -4.507   4.954  0.00  0.00     0.007 C 
ATOM      9  C   UNL d   1       6.000  -6.000   5.248  0.00  0.00     0.009 C 
ENDBRANCH   7   8
ENDBRANCH   1   7
TORSDOF 2
ENDMDL
