MODEL 1
REMARK minimizedAffinity 16.5614624
REMARK minimizedRMSD -1
REMARK  2 active torsions:
REMARK  status: ('A' for Active; 'I' for Inactive)
REMARK    1  A    between atoms: C1_2  and  C2_3 
REMARK    2  A    between atoms: C2_3  and  C3_4 
ROOT
ATOM      1  C3  UNL d   1      -1.352  -2.716  -4.973  0.00  0.00    -0.075 A 
ATOM      2  C4  UNL d   1      -0.283  -1.874  -5.313  0.00  0.00     0.002 A 
ATOM      3  C5  UNL d   1       0.297  -1.043  -4.355  0.00  0.00     0.002 A 
ATOM      4  C6  UNL d   1      -0.188  -1.036  -3.049  0.00  0.00    -0.004 A 
ATOM      5  C7  UNL d   1      -1.260  -1.856  -2.703  0.00  0.00     0.002 A 
ATOM      6  C8  UNL d   1      -1.840  -2.691  -3.659  0.00  0.00     0.002 A 
ENDROOT
BRANCH   1   7
ATOM      7  C2  UNL d   1      -1.966  -3.639  -5.998  0.00  0.00     0.056 C 
BRANCH   7   8
ATOM      8  C1  UNL d   1      -1.653  -5.121  -5.770  0.00  0.00     0.007 C 
ATOM      9  C   UNL d   1      -0.185  -5.465  -5.985  0.00  0.00     0.009 C 
ENDBRANCH   7   8
ENDBRANCH   1   7
TORSDOF 2
ENDMDL
