MODEL 1
REMARK minimizedAffinity 3.38001323
REMARK minimizedRMSD -1
REMARK  2 active torsions:
REMARK  status: ('A' for Active; 'I' for Inactive)
REMARK    1  A    between atoms: C1_2  and  C2_3 
REMARK    2  A    between atoms: C2_3  and  C3_4 
ROOT
ATOM      1  C3  UNL d   1      -1.790  -3.230  -3.679  0.00  0.00    -0.075 A 
ATOM      2  C4  UNL d   1      -2.002  -3.970  -4.851  0.00  0.00     0.002 A 
ATOM      3  C5  UNL d   1      -2.224  -5.346  -4.790  0.00  0.00     0.002 A 
ATOM      4  C6  UNL d   1      -2.227  -6.000  -3.559  0.00  0.00    -0.004 A 
ATOM      5  C7  UNL d   1      -2.001  -5.277  -2.390  0.00  0.00     0.002 A 
ATOM      6  C8  UNL d   1      -1.783  -3.899  -2.448  0.00  0.00     0.002 A 
ENDROOT
BRANCH   1   7
ATOM      7  C2  UNL d   1      -1.579  -1.736  -3.737  0.00  0.00     0.056 C 
BRANCH   7   8
ATOM      8  C1  UNL d   1      -0.609  -1.285  -4.835  0.00  0.00     0.007 C 
ATOM      9  C   UNL d   1       0.673  -0.671  -4.289  0.00  0.00     0.009 C 
ENDBRANCH   7   8
ENDBRANCH   1   7
TORSDOF 2
ENDMDL
