MODEL 1
REMARK minimizedAffinity 11.438817
REMARK minimizedRMSD -1
REMARK  1 active torsions:
REMARK  status: ('A' for Active; 'I' for Inactive)
REMARK    1  A    between atoms: C3_4  and  O_7 
ROOT
ATOM      1  C   UNL d   1      -3.356   0.976  -1.680  0.00  0.00    -0.033 A 
ATOM      2  C1  UNL d   1      -2.060   0.601  -1.321  0.00  0.00     0.039 A 
ATOM      3  C2  UNL d   1      -0.962   1.279  -1.854  0.00  0.00    -0.080 A 
ATOM      4  C3  UNL d   1      -1.173   2.331  -2.742  0.00  0.00     0.150 A 
ATOM      5  C4  UNL d   1      -2.462   2.712  -3.101  0.00  0.00    -0.007 A 
ATOM      6  C5  UNL d   1      -3.557   2.033  -2.569  0.00  0.00     0.039 A 
ENDROOT
BRANCH   4   7
ATOM      7  O   UNL d   1      -0.133   3.020  -3.291  0.00  0.00    -0.526 OA
ATOM      8  H5  UNL d   1       0.698   2.627  -2.974  0.00  0.00     0.418 HD
ENDBRANCH   4   7
TORSDOF 1
ENDMDL
