MODEL 1
REMARK minimizedAffinity 5.13195992
REMARK minimizedRMSD -1
REMARK  1 active torsions:
REMARK  status: ('A' for Active; 'I' for Inactive)
REMARK    1  A    between atoms: C3_4  and  O_7 
ROOT
ATOM      1  C   UNL d   1      -2.757   2.067   4.470  0.00  0.00    -0.033 A 
ATOM      2  C1  UNL d   1      -3.727   2.097   5.473  0.00  0.00     0.039 A 
ATOM      3  C2  UNL d   1      -4.152   3.319   6.000  0.00  0.00    -0.080 A 
ATOM      4  C3  UNL d   1      -3.601   4.501   5.514  0.00  0.00     0.150 A 
ATOM      5  C4  UNL d   1      -2.637   4.478   4.511  0.00  0.00    -0.007 A 
ATOM      6  C5  UNL d   1      -2.213   3.258   3.987  0.00  0.00     0.039 A 
ENDROOT
BRANCH   4   7
ATOM      7  O   UNL d   1      -3.980   5.717   6.000  0.00  0.00    -0.526 OA
ATOM      8  H5  UNL d   1      -4.631   5.576   6.708  0.00  0.00     0.418 HD
ENDBRANCH   4   7
TORSDOF 1
ENDMDL
