MODEL 1
REMARK minimizedAffinity 11.2163429
REMARK minimizedRMSD -1
REMARK  1 active torsions:
REMARK  status: ('A' for Active; 'I' for Inactive)
REMARK    1  A    between atoms: C3_4  and  O_7 
ROOT
ATOM      1  C   UNL d   1       0.195  -1.258   2.990  0.00  0.00    -0.033 A 
ATOM      2  C1  UNL d   1      -0.679  -2.026   2.218  0.00  0.00     0.039 A 
ATOM      3  C2  UNL d   1      -0.216  -2.668   1.068  0.00  0.00    -0.080 A 
ATOM      4  C3  UNL d   1       1.120  -2.536   0.702  0.00  0.00     0.150 A 
ATOM      5  C4  UNL d   1       1.997  -1.775   1.469  0.00  0.00    -0.007 A 
ATOM      6  C5  UNL d   1       1.533  -1.134   2.616  0.00  0.00     0.039 A 
ENDROOT
BRANCH   4   7
ATOM      7  O   UNL d   1       1.617  -3.140  -0.415  0.00  0.00    -0.526 OA
ATOM      8  H5  UNL d   1       0.891  -3.607  -0.860  0.00  0.00     0.418 HD
ENDBRANCH   4   7
TORSDOF 1
ENDMDL
