MODEL 1
REMARK minimizedAffinity 4.00148964
REMARK minimizedRMSD -1
REMARK  1 active torsions:
REMARK  status: ('A' for Active; 'I' for Inactive)
REMARK    1  A    between atoms: C3_4  and  O_7 
ROOT
ATOM      1  C   UNL d   1       1.075   5.989   5.998  0.00  0.00    -0.033 A 
ATOM      2  C1  UNL d   1      -0.222   5.990   5.481  0.00  0.00     0.039 A 
ATOM      3  C2  UNL d   1      -0.485   5.389   4.249  0.00  0.00    -0.080 A 
ATOM      4  C3  UNL d   1       0.556   4.790   3.545  0.00  0.00     0.150 A 
ATOM      5  C4  UNL d   1       1.850   4.782   4.055  0.00  0.00    -0.007 A 
ATOM      6  C5  UNL d   1       2.111   5.383   5.285  0.00  0.00     0.039 A 
ENDROOT
BRANCH   4   7
ATOM      7  O   UNL d   1       0.349   4.195   2.336  0.00  0.00    -0.526 OA
ATOM      8  H5  UNL d   1      -0.586   4.303   2.096  0.00  0.00     0.418 HD
ENDBRANCH   4   7
TORSDOF 1
ENDMDL
