MODEL 1
REMARK minimizedAffinity 2.61360788
REMARK minimizedRMSD -1
REMARK  1 active torsions:
REMARK  status: ('A' for Active; 'I' for Inactive)
REMARK    1  A    between atoms: C3_4  and  O_7 
ROOT
ATOM      1  C   UNL d   1       0.756  -3.142   1.461  0.00  0.00    -0.033 A 
ATOM      2  C1  UNL d   1      -0.163  -2.887   2.480  0.00  0.00     0.039 A 
ATOM      3  C2  UNL d   1       0.066  -1.848   3.385  0.00  0.00    -0.080 A 
ATOM      4  C3  UNL d   1       1.215  -1.073   3.259  0.00  0.00     0.150 A 
ATOM      5  C4  UNL d   1       2.133  -1.320   2.243  0.00  0.00    -0.007 A 
ATOM      6  C5  UNL d   1       1.903  -2.358   1.341  0.00  0.00     0.039 A 
ENDROOT
BRANCH   4   7
ATOM      7  O   UNL d   1       1.485  -0.052   4.121  0.00  0.00    -0.526 OA
ATOM      8  H5  UNL d   1       0.778  -0.018   4.787  0.00  0.00     0.418 HD
ENDBRANCH   4   7
TORSDOF 1
ENDMDL
