MODEL 1
REMARK minimizedAffinity 8.06031322
REMARK minimizedRMSD -1
REMARK  1 active torsions:
REMARK  status: ('A' for Active; 'I' for Inactive)
REMARK    1  A    between atoms: C3_4  and  O_7 
ROOT
ATOM      1  C   UNL d   1       1.095  -3.270   0.805  0.00  0.00    -0.033 A 
ATOM      2  C1  UNL d   1       1.580  -2.093   1.378  0.00  0.00     0.039 A 
ATOM      3  C2  UNL d   1       2.903  -1.703   1.161  0.00  0.00    -0.080 A 
ATOM      4  C3  UNL d   1       3.729  -2.497   0.370  0.00  0.00     0.150 A 
ATOM      5  C4  UNL d   1       3.251  -3.669  -0.207  0.00  0.00    -0.007 A 
ATOM      6  C5  UNL d   1       1.930  -4.058   0.011  0.00  0.00     0.039 A 
ENDROOT
BRANCH   4   7
ATOM      7  O   UNL d   1       5.029  -2.160   0.135  0.00  0.00    -0.526 OA
ATOM      8  H5  UNL d   1       5.228  -1.342   0.620  0.00  0.00     0.418 HD
ENDBRANCH   4   7
TORSDOF 1
ENDMDL
