MODEL 1
REMARK minimizedAffinity 4.59873581
REMARK minimizedRMSD -1
REMARK  1 active torsions:
REMARK  status: ('A' for Active; 'I' for Inactive)
REMARK    1  A    between atoms: C3_4  and  O_7 
ROOT
ATOM      1  C   UNL d   1      -5.999   0.215   2.309  0.00  0.00    -0.033 A 
ATOM      2  C1  UNL d   1      -5.999   1.611   2.363  0.00  0.00     0.039 A 
ATOM      3  C2  UNL d   1      -5.998   2.263   3.598  0.00  0.00    -0.080 A 
ATOM      4  C3  UNL d   1      -5.996   1.509   4.768  0.00  0.00     0.150 A 
ATOM      5  C4  UNL d   1      -5.992   0.119   4.721  0.00  0.00    -0.007 A 
ATOM      6  C5  UNL d   1      -5.995  -0.530   3.488  0.00  0.00     0.039 A 
ENDROOT
BRANCH   4   7
ATOM      7  O   UNL d   1      -5.999   2.101   5.997  0.00  0.00    -0.526 OA
ATOM      8  H5  UNL d   1      -6.031   3.065   5.874  0.00  0.00     0.418 HD
ENDBRANCH   4   7
TORSDOF 1
ENDMDL
