MODEL 1
REMARK minimizedAffinity 6.49625492
REMARK minimizedRMSD -1
REMARK  0 active torsions:
REMARK  status: ('A' for Active; 'I' for Inactive)
ROOT
ATOM      1  C2' OXE d   1       2.490   0.189  -1.496  0.00  0.00     0.078 C 
ATOM      2  C1' OXE d   1       0.031  -0.923  -2.267  0.00  0.00     0.078 C 
ATOM      3  C1  OXE d   1       0.694  -1.472  -1.029  0.00  0.00    -0.078 A 
ATOM      4  C2  OXE d   1       1.920  -0.954  -0.685  0.00  0.00    -0.078 A 
ATOM      5  C3  OXE d   1       2.550  -1.388   0.478  0.00  0.00     0.003 A 
ATOM      6  C4  OXE d   1       2.020  -2.453   1.216  0.00  0.00    -0.002 A 
ATOM      7  C5  OXE d   1       0.792  -3.021   0.862  0.00  0.00    -0.002 A 
ATOM      8  C6  OXE d   1       0.097  -2.515  -0.231  0.00  0.00     0.003 A 
ENDROOT
TORSDOF 0
ENDMDL
