MODEL 1
REMARK minimizedAffinity 8.01289368
REMARK minimizedRMSD -1
REMARK  0 active torsions:
REMARK  status: ('A' for Active; 'I' for Inactive)
ROOT
ATOM      1  C2' OXE d   1      -1.312   0.040   4.515  0.00  0.00     0.078 C 
ATOM      2  C1' OXE d   1      -3.056   2.234   4.362  0.00  0.00     0.078 C 
ATOM      3  C1  OXE d   1      -3.509   0.931   3.751  0.00  0.00    -0.078 A 
ATOM      4  C2  OXE d   1      -2.630  -0.124   3.790  0.00  0.00    -0.078 A 
ATOM      5  C3  OXE d   1      -3.019  -1.364   3.290  0.00  0.00     0.003 A 
ATOM      6  C4  OXE d   1      -4.236  -1.504   2.611  0.00  0.00    -0.002 A 
ATOM      7  C5  OXE d   1      -5.129  -0.431   2.526  0.00  0.00    -0.002 A 
ATOM      8  C6  OXE d   1      -4.800   0.779   3.126  0.00  0.00     0.003 A 
ENDROOT
TORSDOF 0
ENDMDL
