MODEL 1
REMARK minimizedAffinity -1.8628968
REMARK minimizedRMSD -1
REMARK  0 active torsions:
REMARK  status: ('A' for Active; 'I' for Inactive)
ROOT
ATOM      1  C2' OXE d   1      -0.463  -3.754   0.893  0.00  0.00     0.078 C 
ATOM      2  C1' OXE d   1      -1.988  -2.255  -0.926  0.00  0.00     0.078 C 
ATOM      3  C1  OXE d   1      -0.523  -1.920  -0.792  0.00  0.00    -0.078 A 
ATOM      4  C2  OXE d   1       0.205  -2.628   0.134  0.00  0.00    -0.078 A 
ATOM      5  C3  OXE d   1       1.572  -2.397   0.258  0.00  0.00     0.003 A 
ATOM      6  C4  OXE d   1       2.180  -1.347  -0.440  0.00  0.00    -0.002 A 
ATOM      7  C5  OXE d   1       1.448  -0.588  -1.359  0.00  0.00    -0.002 A 
ATOM      8  C6  OXE d   1       0.108  -0.889  -1.578  0.00  0.00     0.003 A 
ENDROOT
TORSDOF 0
ENDMDL
