MODEL 1
REMARK minimizedAffinity -0.164909467
REMARK minimizedRMSD -1
REMARK  0 active torsions:
REMARK  status: ('A' for Active; 'I' for Inactive)
ROOT
ATOM      1  C2' OXE d   1      -0.655  -3.649   0.731  0.00  0.00     0.078 C 
ATOM      2  C1' OXE d   1      -1.461  -1.842  -1.261  0.00  0.00     0.078 C 
ATOM      3  C1  OXE d   1      -0.096  -1.650  -0.648  0.00  0.00    -0.078 A 
ATOM      4  C2  OXE d   1       0.271  -2.510   0.359  0.00  0.00    -0.078 A 
ATOM      5  C3  OXE d   1       1.541  -2.412   0.920  0.00  0.00     0.003 A 
ATOM      6  C4  OXE d   1       2.387  -1.350   0.578  0.00  0.00    -0.002 A 
ATOM      7  C5  OXE d   1       2.016  -0.439  -0.417  0.00  0.00    -0.002 A 
ATOM      8  C6  OXE d   1       0.798  -0.600  -1.068  0.00  0.00     0.003 A 
ENDROOT
TORSDOF 0
ENDMDL
