MODEL 1
REMARK minimizedAffinity 4.6962781
REMARK minimizedRMSD -1
REMARK  0 active torsions:
REMARK  status: ('A' for Active; 'I' for Inactive)
ROOT
ATOM      1  C2' OXE d   1       0.344  -1.580  -4.458  0.00  0.00     0.078 C 
ATOM      2  C1' OXE d   1      -1.632  -2.790  -2.875  0.00  0.00     0.078 C 
ATOM      3  C1  OXE d   1      -0.605  -1.930  -2.182  0.00  0.00    -0.078 A 
ATOM      4  C2  OXE d   1       0.386  -1.380  -2.959  0.00  0.00    -0.078 A 
ATOM      5  C3  OXE d   1       1.327  -0.534  -2.379  0.00  0.00     0.003 A 
ATOM      6  C4  OXE d   1       1.364  -0.362  -0.990  0.00  0.00    -0.002 A 
ATOM      7  C5  OXE d   1       0.388  -0.945  -0.176  0.00  0.00    -0.002 A 
ATOM      8  C6  OXE d   1      -0.627  -1.696  -0.759  0.00  0.00     0.003 A 
ENDROOT
TORSDOF 0
ENDMDL
