MODEL 1
REMARK minimizedAffinity -2.85150337
REMARK minimizedRMSD -1
REMARK  0 active torsions:
REMARK  status: ('A' for Active; 'I' for Inactive)
ROOT
ATOM      1  C2' OXE d   1       1.488  -4.254   1.121  0.00  0.00     0.078 C 
ATOM      2  C1' OXE d   1      -1.248  -3.704   0.825  0.00  0.00     0.078 C 
ATOM      3  C1  OXE d   1      -0.265  -2.724   0.233  0.00  0.00    -0.078 A 
ATOM      4  C2  OXE d   1       1.072  -2.977   0.424  0.00  0.00    -0.078 A 
ATOM      5  C3  OXE d   1       2.021  -2.135  -0.148  0.00  0.00     0.003 A 
ATOM      6  C4  OXE d   1       1.627  -0.951  -0.783  0.00  0.00    -0.002 A 
ATOM      7  C5  OXE d   1       0.271  -0.654  -0.953  0.00  0.00    -0.002 A 
ATOM      8  C6  OXE d   1      -0.686  -1.549  -0.489  0.00  0.00     0.003 A 
ENDROOT
TORSDOF 0
ENDMDL
