MODEL 1
REMARK minimizedAffinity 4.39468002
REMARK minimizedRMSD -1
REMARK  0 active torsions:
REMARK  status: ('A' for Active; 'I' for Inactive)
ROOT
ATOM      1  C2' OXE d   1       2.906  -2.198   2.112  0.00  0.00     0.078 C 
ATOM      2  C1' OXE d   1       1.024  -3.895   0.905  0.00  0.00     0.078 C 
ATOM      3  C1  OXE d   1       1.446  -2.661   0.148  0.00  0.00    -0.078 A 
ATOM      4  C2  OXE d   1       2.332  -1.812   0.766  0.00  0.00    -0.078 A 
ATOM      5  C3  OXE d   1       2.797  -0.688   0.089  0.00  0.00     0.003 A 
ATOM      6  C4  OXE d   1       2.253  -0.333  -1.151  0.00  0.00    -0.002 A 
ATOM      7  C5  OXE d   1       1.320  -1.163  -1.781  0.00  0.00    -0.002 A 
ATOM      8  C6  OXE d   1       0.939  -2.350  -1.166  0.00  0.00     0.003 A 
ENDROOT
TORSDOF 0
ENDMDL
