MODEL 1
REMARK minimizedAffinity -1.19780183
REMARK minimizedRMSD -1
REMARK  0 active torsions:
REMARK  status: ('A' for Active; 'I' for Inactive)
ROOT
ATOM      1  C2' OXE d   1      -0.367  -3.845   1.163  0.00  0.00     0.078 C 
ATOM      2  C1' OXE d   1      -1.727  -2.988  -1.139  0.00  0.00     0.078 C 
ATOM      3  C1  OXE d   1      -0.528  -2.189  -0.692  0.00  0.00    -0.078 A 
ATOM      4  C2  OXE d   1       0.103  -2.588   0.462  0.00  0.00    -0.078 A 
ATOM      5  C3  OXE d   1       1.247  -1.919   0.888  0.00  0.00     0.003 A 
ATOM      6  C4  OXE d   1       1.669  -0.752   0.240  0.00  0.00    -0.002 A 
ATOM      7  C5  OXE d   1       1.016  -0.306  -0.914  0.00  0.00    -0.002 A 
ATOM      8  C6  OXE d   1      -0.056  -1.035  -1.416  0.00  0.00     0.003 A 
ENDROOT
TORSDOF 0
ENDMDL
