MODEL 1
REMARK minimizedAffinity 2.80111146
REMARK minimizedRMSD -1
REMARK  0 active torsions:
REMARK  status: ('A' for Active; 'I' for Inactive)
ROOT
ATOM      1  C2' OXE d   1       1.946  -3.219   0.749  0.00  0.00     0.078 C 
ATOM      2  C1' OXE d   1      -0.835  -3.326   0.382  0.00  0.00     0.078 C 
ATOM      3  C1  OXE d   1      -0.101  -2.120  -0.149  0.00  0.00    -0.078 A 
ATOM      4  C2  OXE d   1       1.253  -2.054   0.076  0.00  0.00    -0.078 A 
ATOM      5  C3  OXE d   1       1.987  -0.991  -0.441  0.00  0.00     0.003 A 
ATOM      6  C4  OXE d   1       1.337   0.088  -1.054  0.00  0.00    -0.002 A 
ATOM      7  C5  OXE d   1      -0.047   0.059  -1.258  0.00  0.00    -0.002 A 
ATOM      8  C6  OXE d   1      -0.773  -1.054  -0.851  0.00  0.00     0.003 A 
ENDROOT
TORSDOF 0
ENDMDL
