MODEL 1
REMARK minimizedAffinity 4.55703878
REMARK minimizedRMSD -1
REMARK  0 active torsions:
REMARK  status: ('A' for Active; 'I' for Inactive)
ROOT
ATOM      1  C2' OXE d   1       3.763  -0.477  -1.106  0.00  0.00     0.078 C 
ATOM      2  C1' OXE d   1       1.723  -1.744  -2.560  0.00  0.00     0.078 C 
ATOM      3  C1  OXE d   1       1.517  -1.555  -1.078  0.00  0.00    -0.078 A 
ATOM      4  C2  OXE d   1       2.540  -0.976  -0.366  0.00  0.00    -0.078 A 
ATOM      5  C3  OXE d   1       2.379  -0.728   0.994  0.00  0.00     0.003 A 
ATOM      6  C4  OXE d   1       1.250  -1.201   1.673  0.00  0.00    -0.002 A 
ATOM      7  C5  OXE d   1       0.213  -1.829   0.974  0.00  0.00    -0.002 A 
ATOM      8  C6  OXE d   1       0.312  -1.975  -0.406  0.00  0.00     0.003 A 
ENDROOT
TORSDOF 0
ENDMDL
