MODEL 1
REMARK minimizedAffinity 1.42794704
REMARK minimizedRMSD -1
REMARK  0 active torsions:
REMARK  status: ('A' for Active; 'I' for Inactive)
ROOT
ATOM      1  C2' OXE d   1       1.095  -5.078   1.362  0.00  0.00     0.078 C 
ATOM      2  C1' OXE d   1       2.764  -2.843   1.679  0.00  0.00     0.078 C 
ATOM      3  C1  OXE d   1       1.492  -2.665   0.888  0.00  0.00    -0.078 A 
ATOM      4  C2  OXE d   1       0.704  -3.775   0.699  0.00  0.00    -0.078 A 
ATOM      5  C3  OXE d   1      -0.507  -3.653   0.023  0.00  0.00     0.003 A 
ATOM      6  C4  OXE d   1      -0.856  -2.447  -0.595  0.00  0.00    -0.002 A 
ATOM      7  C5  OXE d   1      -0.048  -1.314  -0.448  0.00  0.00    -0.002 A 
ATOM      8  C6  OXE d   1       1.105  -1.395   0.325  0.00  0.00     0.003 A 
ENDROOT
TORSDOF 0
ENDMDL
