MODEL 1
REMARK minimizedAffinity 1.88729644
REMARK minimizedRMSD -1
REMARK  0 active torsions:
REMARK  status: ('A' for Active; 'I' for Inactive)
ROOT
ATOM      1  C2' OXE d   1       1.308   2.194  -4.296  0.00  0.00     0.078 C 
ATOM      2  C1' OXE d   1      -0.016   2.969  -1.946  0.00  0.00     0.078 C 
ATOM      3  C1  OXE d   1       0.568   1.580  -1.999  0.00  0.00    -0.078 A 
ATOM      4  C2  OXE d   1       1.173   1.192  -3.170  0.00  0.00    -0.078 A 
ATOM      5  C3  OXE d   1       1.777  -0.059  -3.253  0.00  0.00     0.003 A 
ATOM      6  C4  OXE d   1       1.639  -0.983  -2.210  0.00  0.00    -0.002 A 
ATOM      7  C5  OXE d   1       0.992  -0.623  -1.023  0.00  0.00    -0.002 A 
ATOM      8  C6  OXE d   1       0.489   0.666  -0.886  0.00  0.00     0.003 A 
ENDROOT
TORSDOF 0
ENDMDL
