MODEL 1
REMARK minimizedAffinity 1.15958989
REMARK minimizedRMSD -1
REMARK  0 active torsions:
REMARK  status: ('A' for Active; 'I' for Inactive)
ROOT
ATOM      1  C2' OXE d   1       0.533  -1.521  -0.182  0.00  0.00     0.078 C 
ATOM      2  C1' OXE d   1       0.868  -2.773  -2.673  0.00  0.00     0.078 C 
ATOM      3  C1  OXE d   1       0.879  -1.265  -2.636  0.00  0.00    -0.078 A 
ATOM      4  C2  OXE d   1       0.668  -0.661  -1.420  0.00  0.00    -0.078 A 
ATOM      5  C3  OXE d   1       0.723   0.727  -1.321  0.00  0.00     0.003 A 
ATOM      6  C4  OXE d   1       0.838   1.515  -2.472  0.00  0.00    -0.002 A 
ATOM      7  C5  OXE d   1       1.014   0.920  -3.726  0.00  0.00    -0.002 A 
ATOM      8  C6  OXE d   1       1.079  -0.465  -3.819  0.00  0.00     0.003 A 
ENDROOT
TORSDOF 0
ENDMDL
