MODEL 1
REMARK minimizedAffinity 0.804115891
REMARK minimizedRMSD -1
REMARK  0 active torsions:
REMARK  status: ('A' for Active; 'I' for Inactive)
ROOT
ATOM      1  C2' OXE d   1      -4.084   6.000   3.297  0.00  0.00     0.078 C 
ATOM      2  C1' OXE d   1      -4.877   5.896   5.988  0.00  0.00     0.078 C 
ATOM      3  C1  OXE d   1      -4.519   4.597   5.309  0.00  0.00    -0.078 A 
ATOM      4  C2  OXE d   1      -4.178   4.652   3.979  0.00  0.00    -0.078 A 
ATOM      5  C3  OXE d   1      -3.787   3.490   3.319  0.00  0.00     0.003 A 
ATOM      6  C4  OXE d   1      -3.886   2.247   3.955  0.00  0.00    -0.002 A 
ATOM      7  C5  OXE d   1      -4.270   2.164   5.298  0.00  0.00    -0.002 A 
ATOM      8  C6  OXE d   1      -4.548   3.332   6.000  0.00  0.00     0.003 A 
ENDROOT
TORSDOF 0
ENDMDL
