MODEL 1
REMARK minimizedAffinity 0.582385778
REMARK minimizedRMSD -1
REMARK  0 active torsions:
REMARK  status: ('A' for Active; 'I' for Inactive)
ROOT
ATOM      1  C2' OXE d   1      -3.495   6.000   4.089  0.00  0.00     0.078 C 
ATOM      2  C1' OXE d   1      -5.892   5.993   5.550  0.00  0.00     0.078 C 
ATOM      3  C1  OXE d   1      -5.154   4.685   5.401  0.00  0.00    -0.078 A 
ATOM      4  C2  OXE d   1      -4.007   4.689   4.645  0.00  0.00    -0.078 A 
ATOM      5  C3  OXE d   1      -3.259   3.521   4.521  0.00  0.00     0.003 A 
ATOM      6  C4  OXE d   1      -3.745   2.311   5.030  0.00  0.00    -0.002 A 
ATOM      7  C5  OXE d   1      -4.932   2.278   5.770  0.00  0.00    -0.002 A 
ATOM      8  C6  OXE d   1      -5.625   3.461   6.000  0.00  0.00     0.003 A 
ENDROOT
TORSDOF 0
ENDMDL
