MODEL 1
REMARK minimizedAffinity 5.03780079
REMARK minimizedRMSD -1
REMARK  0 active torsions:
REMARK  status: ('A' for Active; 'I' for Inactive)
ROOT
ATOM      1  C2' OXE d   1       2.397  -0.293  -4.627  0.00  0.00     0.078 C 
ATOM      2  C1' OXE d   1       1.264  -2.577  -3.451  0.00  0.00     0.078 C 
ATOM      3  C1  OXE d   1       1.027  -1.248  -2.779  0.00  0.00    -0.078 A 
ATOM      4  C2  OXE d   1       1.623  -0.142  -3.335  0.00  0.00    -0.078 A 
ATOM      5  C3  OXE d   1       1.392   1.116  -2.785  0.00  0.00     0.003 A 
ATOM      6  C4  OXE d   1       0.684   1.245  -1.585  0.00  0.00    -0.002 A 
ATOM      7  C5  OXE d   1       0.101   0.127  -0.980  0.00  0.00    -0.002 A 
ATOM      8  C6  OXE d   1       0.227  -1.119  -1.586  0.00  0.00     0.003 A 
ENDROOT
TORSDOF 0
ENDMDL
