MODEL 1
REMARK minimizedAffinity -1.31421506
REMARK minimizedRMSD -1
REMARK  1 active torsions:
REMARK  status: ('A' for Active; 'I' for Inactive)
REMARK    1  A    between atoms: C1_2  and  C2_3 
ROOT
ATOM      1  C2  UNL d   1       0.197  -1.086  -0.630  0.00  0.00    -0.076 A 
ATOM      2  C3  UNL d   1       0.607  -1.710  -1.820  0.00  0.00     0.004 A 
ATOM      3  C4  UNL d   1       0.107  -2.960  -2.184  0.00  0.00    -0.003 A 
ATOM      4  C5  UNL d   1      -0.812  -3.604  -1.363  0.00  0.00     0.000 A 
ATOM      5  C6  UNL d   1      -1.243  -2.991  -0.187  0.00  0.00     0.000 A 
ATOM      6  C7  UNL d   1      -0.761  -1.725   0.186  0.00  0.00    -0.073 A 
ATOM      7  C8  UNL d   1      -1.256  -1.113   1.468  0.00  0.00     0.078 C 
ENDROOT
BRANCH   1   8
ATOM      8  C1  UNL d   1       0.794   0.257  -0.273  0.00  0.00     0.053 C 
ATOM      9  C   UNL d   1       2.042   0.130   0.586  0.00  0.00     0.018 C 
ENDBRANCH   1   8
TORSDOF 1
ENDMDL
