MODEL 1
REMARK minimizedAffinity -3.55581951
REMARK minimizedRMSD -1
REMARK  1 active torsions:
REMARK  status: ('A' for Active; 'I' for Inactive)
REMARK    1  A    between atoms: C1_2  and  C2_3 
ROOT
ATOM      1  C2  UNL d   1       1.051   2.367   1.328  0.00  0.00    -0.076 A 
ATOM      2  C3  UNL d   1      -0.244   2.890   1.486  0.00  0.00     0.004 A 
ATOM      3  C4  UNL d   1      -1.365   2.167   1.082  0.00  0.00    -0.003 A 
ATOM      4  C5  UNL d   1      -1.209   0.908   0.514  0.00  0.00     0.000 A 
ATOM      5  C6  UNL d   1       0.067   0.365   0.365  0.00  0.00     0.000 A 
ATOM      6  C7  UNL d   1       1.206   1.075   0.782  0.00  0.00    -0.073 A 
ATOM      7  C8  UNL d   1       2.559   0.445   0.592  0.00  0.00     0.078 C 
ENDROOT
BRANCH   1   8
ATOM      8  C1  UNL d   1       2.230   3.209   1.759  0.00  0.00     0.053 C 
ATOM      9  C   UNL d   1       2.546   3.054   3.239  0.00  0.00     0.018 C 
ENDBRANCH   1   8
TORSDOF 1
ENDMDL
