MODEL 1
REMARK minimizedAffinity -4.41894007
REMARK minimizedRMSD -1
REMARK  1 active torsions:
REMARK  status: ('A' for Active; 'I' for Inactive)
REMARK    1  A    between atoms: C1_2  and  C2_3 
ROOT
ATOM      1  C2  UNL d   1      -0.306  -0.121  -0.189  0.00  0.00    -0.076 A 
ATOM      2  C3  UNL d   1       0.982   0.389  -0.431  0.00  0.00     0.004 A 
ATOM      3  C4  UNL d   1       1.215   1.763  -0.462  0.00  0.00    -0.003 A 
ATOM      4  C5  UNL d   1       0.164   2.649  -0.251  0.00  0.00     0.000 A 
ATOM      5  C6  UNL d   1      -1.116   2.161   0.008  0.00  0.00     0.000 A 
ATOM      6  C7  UNL d   1      -1.365   0.778   0.059  0.00  0.00    -0.073 A 
ATOM      7  C8  UNL d   1      -2.766   0.307   0.337  0.00  0.00     0.078 C 
ENDROOT
BRANCH   1   8
ATOM      8  C1  UNL d   1      -0.504  -1.620  -0.193  0.00  0.00     0.053 C 
ATOM      9  C   UNL d   1       0.344  -2.316  -1.247  0.00  0.00     0.018 C 
ENDBRANCH   1   8
TORSDOF 1
ENDMDL
