MODEL 1
REMARK minimizedAffinity -3.38423014
REMARK minimizedRMSD -1
REMARK  1 active torsions:
REMARK  status: ('A' for Active; 'I' for Inactive)
REMARK    1  A    between atoms: C1_2  and  C2_3 
ROOT
ATOM      1  C2  UNL d   1       0.145  -0.232   0.329  0.00  0.00    -0.076 A 
ATOM      2  C3  UNL d   1      -1.224   0.052   0.477  0.00  0.00     0.004 A 
ATOM      3  C4  UNL d   1      -1.680   1.367   0.545  0.00  0.00    -0.003 A 
ATOM      4  C5  UNL d   1      -0.775   2.420   0.466  0.00  0.00     0.000 A 
ATOM      5  C6  UNL d   1       0.584   2.157   0.301  0.00  0.00     0.000 A 
ATOM      6  C7  UNL d   1       1.059   0.837   0.215  0.00  0.00    -0.073 A 
ATOM      7  C8  UNL d   1       2.536   0.611   0.043  0.00  0.00     0.078 C 
ENDROOT
BRANCH   1   8
ATOM      8  C1  UNL d   1       0.584  -1.679   0.288  0.00  0.00     0.053 C 
ATOM      9  C   UNL d   1      -0.323  -2.539  -0.578  0.00  0.00     0.018 C 
ENDBRANCH   1   8
TORSDOF 1
ENDMDL
