MODEL 1
REMARK minimizedAffinity -4.32974529
REMARK minimizedRMSD -1
REMARK  1 active torsions:
REMARK  status: ('A' for Active; 'I' for Inactive)
REMARK    1  A    between atoms: C1_2  and  C2_3 
ROOT
ATOM      1  C2  UNL d   1      -0.077  -0.054   0.079  0.00  0.00    -0.076 A 
ATOM      2  C3  UNL d   1      -1.409   0.264   0.396  0.00  0.00     0.004 A 
ATOM      3  C4  UNL d   1      -1.815   1.590   0.540  0.00  0.00    -0.003 A 
ATOM      4  C5  UNL d   1      -0.896   2.619   0.368  0.00  0.00     0.000 A 
ATOM      5  C6  UNL d   1       0.425   2.322   0.036  0.00  0.00     0.000 A 
ATOM      6  C7  UNL d   1       0.847   0.992  -0.129  0.00  0.00    -0.073 A 
ATOM      7  C8  UNL d   1       2.286   0.729  -0.481  0.00  0.00     0.078 C 
ENDROOT
BRANCH   1   8
ATOM      8  C1  UNL d   1       0.311  -1.511  -0.037  0.00  0.00     0.053 C 
ATOM      9  C   UNL d   1      -0.440  -2.227  -1.149  0.00  0.00     0.018 C 
ENDBRANCH   1   8
TORSDOF 1
ENDMDL
