MODEL 1
REMARK minimizedAffinity -5.01936722
REMARK minimizedRMSD -1
REMARK  1 active torsions:
REMARK  status: ('A' for Active; 'I' for Inactive)
REMARK    1  A    between atoms: C1_2  and  C2_3 
ROOT
ATOM      1  C2  UNL d   1       0.287  -0.249   0.290  0.00  0.00    -0.076 A 
ATOM      2  C3  UNL d   1      -1.065   0.136   0.317  0.00  0.00     0.004 A 
ATOM      3  C4  UNL d   1      -1.431   1.479   0.244  0.00  0.00    -0.003 A 
ATOM      4  C5  UNL d   1      -0.450   2.460   0.142  0.00  0.00     0.000 A 
ATOM      5  C6  UNL d   1       0.895   2.095   0.096  0.00  0.00     0.000 A 
ATOM      6  C7  UNL d   1       1.280   0.745   0.152  0.00  0.00    -0.073 A 
ATOM      7  C8  UNL d   1       2.745   0.409   0.105  0.00  0.00     0.078 C 
ENDROOT
BRANCH   1   8
ATOM      8  C1  UNL d   1       0.624  -1.718   0.400  0.00  0.00     0.053 C 
ATOM      9  C   UNL d   1       0.029  -2.539  -0.733  0.00  0.00     0.018 C 
ENDBRANCH   1   8
TORSDOF 1
ENDMDL
