MODEL 1
REMARK minimizedAffinity -2.87609959
REMARK minimizedRMSD -1
REMARK  1 active torsions:
REMARK  status: ('A' for Active; 'I' for Inactive)
REMARK    1  A    between atoms: C1_2  and  C2_3 
ROOT
ATOM      1  C2  UNL d   1       0.527   0.661   0.089  0.00  0.00    -0.076 A 
ATOM      2  C3  UNL d   1       0.024  -0.476   0.744  0.00  0.00     0.004 A 
ATOM      3  C4  UNL d   1      -1.309  -0.541   1.146  0.00  0.00    -0.003 A 
ATOM      4  C5  UNL d   1      -2.160   0.531   0.900  0.00  0.00     0.000 A 
ATOM      5  C6  UNL d   1      -1.682   1.660   0.237  0.00  0.00     0.000 A 
ATOM      6  C7  UNL d   1      -0.345   1.735  -0.191  0.00  0.00    -0.073 A 
ATOM      7  C8  UNL d   1       0.119   2.979  -0.897  0.00  0.00     0.078 C 
ENDROOT
BRANCH   1   8
ATOM      8  C1  UNL d   1       1.988   0.685  -0.300  0.00  0.00     0.053 C 
ATOM      9  C   UNL d   1       2.881   0.037   0.747  0.00  0.00     0.018 C 
ENDBRANCH   1   8
TORSDOF 1
ENDMDL
