MODEL 1
REMARK minimizedAffinity -3.04723024
REMARK minimizedRMSD -1
REMARK  1 active torsions:
REMARK  status: ('A' for Active; 'I' for Inactive)
REMARK    1  A    between atoms: C1_2  and  C2_3 
ROOT
ATOM      1  C2  UNL d   1       0.347   0.099  -0.077  0.00  0.00    -0.076 A 
ATOM      2  C3  UNL d   1       1.338   0.774  -0.811  0.00  0.00     0.004 A 
ATOM      3  C4  UNL d   1       1.532   2.146  -0.659  0.00  0.00    -0.003 A 
ATOM      4  C5  UNL d   1       0.740   2.865   0.228  0.00  0.00     0.000 A 
ATOM      5  C6  UNL d   1      -0.236   2.208   0.977  0.00  0.00     0.000 A 
ATOM      6  C7  UNL d   1      -0.434   0.822   0.849  0.00  0.00    -0.073 A 
ATOM      7  C8  UNL d   1      -1.505   0.166   1.677  0.00  0.00     0.078 C 
ENDROOT
BRANCH   1   8
ATOM      8  C1  UNL d   1       0.164  -1.385  -0.303  0.00  0.00     0.053 C 
ATOM      9  C   UNL d   1      -0.302  -1.706  -1.715  0.00  0.00     0.018 C 
ENDBRANCH   1   8
TORSDOF 1
ENDMDL
