MODEL 1
REMARK minimizedAffinity -3.94799113
REMARK minimizedRMSD -1
REMARK  1 active torsions:
REMARK  status: ('A' for Active; 'I' for Inactive)
REMARK    1  A    between atoms: C1_2  and  C2_3 
ROOT
ATOM      1  C2  UNL d   1       1.621   1.898   1.144  0.00  0.00    -0.076 A 
ATOM      2  C3  UNL d   1       0.524   2.777   1.105  0.00  0.00     0.004 A 
ATOM      3  C4  UNL d   1      -0.742   2.328   0.733  0.00  0.00    -0.003 A 
ATOM      4  C5  UNL d   1      -0.932   0.993   0.393  0.00  0.00     0.000 A 
ATOM      5  C6  UNL d   1       0.141   0.104   0.442  0.00  0.00     0.000 A 
ATOM      6  C7  UNL d   1       1.420   0.536   0.832  0.00  0.00    -0.073 A 
ATOM      7  C8  UNL d   1       2.543  -0.464   0.862  0.00  0.00     0.078 C 
ENDROOT
BRANCH   1   8
ATOM      8  C1  UNL d   1       2.975   2.448   1.529  0.00  0.00     0.053 C 
ATOM      9  C   UNL d   1       3.197   2.449   3.034  0.00  0.00     0.018 C 
ENDBRANCH   1   8
TORSDOF 1
ENDMDL
