MODEL 1
REMARK minimizedAffinity 0.0413530469
REMARK minimizedRMSD -1
REMARK  1 active torsions:
REMARK  status: ('A' for Active; 'I' for Inactive)
REMARK    1  A    between atoms: C3_4  and  O_7 
ROOT
ATOM      1  C   UNL d   1       0.926   0.430   0.728  0.00  0.00    -0.033 A 
ATOM      2  C1  UNL d   1       0.099  -0.240   1.631  0.00  0.00     0.039 A 
ATOM      3  C2  UNL d   1      -0.958   0.435   2.245  0.00  0.00    -0.080 A 
ATOM      4  C3  UNL d   1      -1.178   1.777   1.946  0.00  0.00     0.150 A 
ATOM      5  C4  UNL d   1      -0.360   2.449   1.044  0.00  0.00    -0.007 A 
ATOM      6  C5  UNL d   1       0.695   1.774   0.433  0.00  0.00     0.039 A 
ENDROOT
BRANCH   4   7
ATOM      7  O   UNL d   1      -2.195   2.478   2.524  0.00  0.00    -0.526 OA
ATOM      8  H5  UNL d   1      -2.658   1.893   3.146  0.00  0.00     0.418 HD
ENDBRANCH   4   7
TORSDOF 1
ENDMDL
