MODEL 1
REMARK minimizedAffinity -0.277232081
REMARK minimizedRMSD -1
REMARK  1 active torsions:
REMARK  status: ('A' for Active; 'I' for Inactive)
REMARK    1  A    between atoms: C3_4  and  O_7 
ROOT
ATOM      1  C   UNL d   1       1.361   0.025   0.939  0.00  0.00    -0.033 A 
ATOM      2  C1  UNL d   1       2.172  -0.947   0.350  0.00  0.00     0.039 A 
ATOM      3  C2  UNL d   1       2.927  -0.635  -0.783  0.00  0.00    -0.080 A 
ATOM      4  C3  UNL d   1       2.861   0.649  -1.316  0.00  0.00     0.150 A 
ATOM      5  C4  UNL d   1       2.058   1.623  -0.732  0.00  0.00    -0.007 A 
ATOM      6  C5  UNL d   1       1.305   1.310   0.399  0.00  0.00     0.039 A 
ENDROOT
BRANCH   4   7
ATOM      7  O   UNL d   1       3.576   0.999  -2.423  0.00  0.00    -0.526 OA
ATOM      8  H5  UNL d   1       4.062   0.217  -2.734  0.00  0.00     0.418 HD
ENDBRANCH   4   7
TORSDOF 1
ENDMDL
