MODEL 1
REMARK minimizedAffinity 1.83932984
REMARK minimizedRMSD -1
REMARK  1 active torsions:
REMARK  status: ('A' for Active; 'I' for Inactive)
REMARK    1  A    between atoms: C3_4  and  O_7 
ROOT
ATOM      1  C   UNL d   1       0.715  -0.024   1.114  0.00  0.00    -0.033 A 
ATOM      2  C1  UNL d   1       1.102   1.143   0.453  0.00  0.00     0.039 A 
ATOM      3  C2  UNL d   1       0.304   2.286   0.526  0.00  0.00    -0.080 A 
ATOM      4  C3  UNL d   1      -0.878   2.249   1.262  0.00  0.00     0.150 A 
ATOM      5  C4  UNL d   1      -1.268   1.090   1.926  0.00  0.00    -0.007 A 
ATOM      6  C5  UNL d   1      -0.470  -0.050   1.851  0.00  0.00     0.039 A 
ENDROOT
BRANCH   4   7
ATOM      7  O   UNL d   1      -1.692   3.338   1.358  0.00  0.00    -0.526 OA
ATOM      8  H5  UNL d   1      -1.310   4.056   0.826  0.00  0.00     0.418 HD
ENDBRANCH   4   7
TORSDOF 1
ENDMDL
