MODEL 1
REMARK minimizedAffinity -2.50646377
REMARK minimizedRMSD -1
REMARK  1 active torsions:
REMARK  status: ('A' for Active; 'I' for Inactive)
REMARK    1  A    between atoms: C3_4  and  O_7 
ROOT
ATOM      1  C   UNL d   1      -2.130   0.593   1.917  0.00  0.00    -0.033 A 
ATOM      2  C1  UNL d   1      -1.446   1.800   1.760  0.00  0.00     0.039 A 
ATOM      3  C2  UNL d   1      -0.171   1.813   1.190  0.00  0.00    -0.080 A 
ATOM      4  C3  UNL d   1       0.406   0.615   0.780  0.00  0.00     0.150 A 
ATOM      5  C4  UNL d   1      -0.271  -0.591   0.929  0.00  0.00    -0.007 A 
ATOM      6  C5  UNL d   1      -1.543  -0.603   1.500  0.00  0.00     0.039 A 
ENDROOT
BRANCH   4   7
ATOM      7  O   UNL d   1       1.650   0.577   0.222  0.00  0.00    -0.526 OA
ATOM      8  H5  UNL d   1       2.008   1.480   0.209  0.00  0.00     0.418 HD
ENDBRANCH   4   7
TORSDOF 1
ENDMDL
