MODEL 1
REMARK minimizedAffinity 1.74038243
REMARK minimizedRMSD -1
REMARK  1 active torsions:
REMARK  status: ('A' for Active; 'I' for Inactive)
REMARK    1  A    between atoms: C3_4  and  O_7 
ROOT
ATOM      1  C   UNL d   1       0.413   0.127   0.955  0.00  0.00    -0.033 A 
ATOM      2  C1  UNL d   1      -0.880  -0.352   1.170  0.00  0.00     0.039 A 
ATOM      3  C2  UNL d   1      -1.898   0.527   1.547  0.00  0.00    -0.080 A 
ATOM      4  C3  UNL d   1      -1.609   1.880   1.704  0.00  0.00     0.150 A 
ATOM      5  C4  UNL d   1      -0.323   2.364   1.487  0.00  0.00    -0.007 A 
ATOM      6  C5  UNL d   1       0.692   1.485   1.112  0.00  0.00     0.039 A 
ENDROOT
BRANCH   4   7
ATOM      7  O   UNL d   1      -2.568   2.775   2.075  0.00  0.00    -0.526 OA
ATOM      8  H5  UNL d   1      -3.400   2.294   2.218  0.00  0.00     0.418 HD
ENDBRANCH   4   7
TORSDOF 1
ENDMDL
