MODEL 1
REMARK minimizedAffinity 0.0179522596
REMARK minimizedRMSD -1
REMARK  1 active torsions:
REMARK  status: ('A' for Active; 'I' for Inactive)
REMARK    1  A    between atoms: C3_4  and  O_7 
ROOT
ATOM      1  C   UNL d   1       0.652   1.127   0.858  0.00  0.00    -0.033 A 
ATOM      2  C1  UNL d   1      -0.557   1.826   0.853  0.00  0.00     0.039 A 
ATOM      3  C2  UNL d   1      -1.744   1.173   1.188  0.00  0.00    -0.080 A 
ATOM      4  C3  UNL d   1      -1.709  -0.177   1.527  0.00  0.00     0.150 A 
ATOM      5  C4  UNL d   1      -0.508  -0.879   1.537  0.00  0.00    -0.007 A 
ATOM      6  C5  UNL d   1       0.677  -0.225   1.202  0.00  0.00     0.039 A 
ENDROOT
BRANCH   4   7
ATOM      7  O   UNL d   1      -2.843  -0.859   1.856  0.00  0.00    -0.526 OA
ATOM      8  H5  UNL d   1      -3.600  -0.254   1.778  0.00  0.00     0.418 HD
ENDBRANCH   4   7
TORSDOF 1
ENDMDL
