MODEL 1
REMARK minimizedAffinity 5.28919363
REMARK minimizedRMSD -1
REMARK  1 active torsions:
REMARK  status: ('A' for Active; 'I' for Inactive)
REMARK    1  A    between atoms: C3_4  and  O_7 
ROOT
ATOM      1  C   UNL d   1      -3.856  -2.058  -0.706  0.00  0.00    -0.033 A 
ATOM      2  C1  UNL d   1      -3.883  -0.933  -1.532  0.00  0.00     0.039 A 
ATOM      3  C2  UNL d   1      -3.648  -1.065  -2.902  0.00  0.00    -0.080 A 
ATOM      4  C3  UNL d   1      -3.388  -2.325  -3.433  0.00  0.00     0.150 A 
ATOM      5  C4  UNL d   1      -3.364  -3.451  -2.616  0.00  0.00    -0.007 A 
ATOM      6  C5  UNL d   1      -3.598  -3.317  -1.248  0.00  0.00     0.039 A 
ENDROOT
BRANCH   4   7
ATOM      7  O   UNL d   1      -3.148  -2.503  -4.763  0.00  0.00    -0.526 OA
ATOM      8  H5  UNL d   1      -3.168  -1.634  -5.198  0.00  0.00     0.418 HD
ENDBRANCH   4   7
TORSDOF 1
ENDMDL
