MODEL 1
REMARK minimizedAffinity 0.858930409
REMARK minimizedRMSD -1
REMARK  1 active torsions:
REMARK  status: ('A' for Active; 'I' for Inactive)
REMARK    1  A    between atoms: C3_4  and  O_7 
ROOT
ATOM      1  C   UNL d   1       0.773   1.254   1.061  0.00  0.00    -0.033 A 
ATOM      2  C1  UNL d   1       0.759   0.001   1.677  0.00  0.00     0.039 A 
ATOM      3  C2  UNL d   1      -0.453  -0.659   1.892  0.00  0.00    -0.080 A 
ATOM      4  C3  UNL d   1      -1.640  -0.057   1.485  0.00  0.00     0.150 A 
ATOM      5  C4  UNL d   1      -1.633   1.189   0.867  0.00  0.00    -0.007 A 
ATOM      6  C5  UNL d   1      -0.422   1.847   0.655  0.00  0.00     0.039 A 
ENDROOT
BRANCH   4   7
ATOM      7  O   UNL d   1      -2.848  -0.661   1.677  0.00  0.00    -0.526 OA
ATOM      8  H5  UNL d   1      -2.701  -1.503   2.140  0.00  0.00     0.418 HD
ENDBRANCH   4   7
TORSDOF 1
ENDMDL
