MODEL 1
REMARK minimizedAffinity -0.467054039
REMARK minimizedRMSD -1
REMARK  1 active torsions:
REMARK  status: ('A' for Active; 'I' for Inactive)
REMARK    1  A    between atoms: C3_4  and  O_7 
ROOT
ATOM      1  C   UNL d   1       0.371   0.432   1.135  0.00  0.00    -0.033 A 
ATOM      2  C1  UNL d   1      -0.609  -0.385   1.701  0.00  0.00     0.039 A 
ATOM      3  C2  UNL d   1      -1.715   0.185   2.335  0.00  0.00    -0.080 A 
ATOM      4  C3  UNL d   1      -1.829   1.571   2.395  0.00  0.00     0.150 A 
ATOM      5  C4  UNL d   1      -0.859   2.391   1.829  0.00  0.00    -0.007 A 
ATOM      6  C5  UNL d   1       0.246   1.820   1.197  0.00  0.00     0.039 A 
ENDROOT
BRANCH   4   7
ATOM      7  O   UNL d   1      -2.888   2.173   3.007  0.00  0.00    -0.526 OA
ATOM      8  H5  UNL d   1      -3.463   1.482   3.377  0.00  0.00     0.418 HD
ENDBRANCH   4   7
TORSDOF 1
ENDMDL
