MODEL 1
REMARK minimizedAffinity -1.16747546
REMARK minimizedRMSD -1
REMARK  1 active torsions:
REMARK  status: ('A' for Active; 'I' for Inactive)
REMARK    1  A    between atoms: C3_4  and  O_7 
ROOT
ATOM      1  C   UNL d   1      -0.026  -0.660   0.962  0.00  0.00    -0.033 A 
ATOM      2  C1  UNL d   1      -1.206  -0.682   1.709  0.00  0.00     0.039 A 
ATOM      3  C2  UNL d   1      -1.736   0.507   2.214  0.00  0.00    -0.080 A 
ATOM      4  C3  UNL d   1      -1.078   1.709   1.964  0.00  0.00     0.150 A 
ATOM      5  C4  UNL d   1       0.095   1.738   1.218  0.00  0.00    -0.007 A 
ATOM      6  C5  UNL d   1       0.624   0.549   0.715  0.00  0.00     0.039 A 
ENDROOT
BRANCH   4   7
ATOM      7  O   UNL d   1      -1.555   2.894   2.440  0.00  0.00    -0.526 OA
ATOM      8  H5  UNL d   1      -2.356   2.717   2.961  0.00  0.00     0.418 HD
ENDBRANCH   4   7
TORSDOF 1
ENDMDL
