MODEL 1
REMARK minimizedAffinity 1.9957428
REMARK minimizedRMSD -1
REMARK  1 active torsions:
REMARK  status: ('A' for Active; 'I' for Inactive)
REMARK    1  A    between atoms: C3_4  and  O_7 
ROOT
ATOM      1  C   UNL d   1      -3.257  -2.128  -0.519  0.00  0.00    -0.033 A 
ATOM      2  C1  UNL d   1      -3.465  -3.375  -1.111  0.00  0.00     0.039 A 
ATOM      3  C2  UNL d   1      -3.574  -3.482  -2.499  0.00  0.00    -0.080 A 
ATOM      4  C3  UNL d   1      -3.473  -2.336  -3.282  0.00  0.00     0.150 A 
ATOM      5  C4  UNL d   1      -3.262  -1.090  -2.700  0.00  0.00    -0.007 A 
ATOM      6  C5  UNL d   1      -3.154  -0.986  -1.314  0.00  0.00     0.039 A 
ENDROOT
BRANCH   4   7
ATOM      7  O   UNL d   1      -3.578  -2.390  -4.640  0.00  0.00    -0.526 OA
ATOM      8  H5  UNL d   1      -3.751  -3.310  -4.900  0.00  0.00     0.418 HD
ENDBRANCH   4   7
TORSDOF 1
ENDMDL
