MODEL 1
REMARK minimizedAffinity 1.86844671
REMARK minimizedRMSD -1
REMARK  1 active torsions:
REMARK  status: ('A' for Active; 'I' for Inactive)
REMARK    1  A    between atoms: C3_4  and  O_7 
ROOT
ATOM      1  C   UNL d   1       2.418   3.024  -4.554  0.00  0.00    -0.033 A 
ATOM      2  C1  UNL d   1       3.761   2.828  -4.226  0.00  0.00     0.039 A 
ATOM      3  C2  UNL d   1       4.716   3.779  -4.592  0.00  0.00    -0.080 A 
ATOM      4  C3  UNL d   1       4.316   4.919  -5.284  0.00  0.00     0.150 A 
ATOM      5  C4  UNL d   1       2.979   5.122  -5.610  0.00  0.00    -0.007 A 
ATOM      6  C5  UNL d   1       2.027   4.171  -5.245  0.00  0.00     0.039 A 
ENDROOT
BRANCH   4   7
ATOM      7  O   UNL d   1       5.213   5.871  -5.667  0.00  0.00    -0.526 OA
ATOM      8  H5  UNL d   1       6.101   5.583  -5.399  0.00  0.00     0.418 HD
ENDBRANCH   4   7
TORSDOF 1
ENDMDL
