MODEL 1
REMARK minimizedAffinity -1.42907691
REMARK minimizedRMSD -1
REMARK  1 active torsions:
REMARK  status: ('A' for Active; 'I' for Inactive)
REMARK    1  A    between atoms: C3_4  and  O_7 
ROOT
ATOM      1  C   UNL d   1      -2.057   1.071   2.136  0.00  0.00    -0.033 A 
ATOM      2  C1  UNL d   1      -0.774   0.521   2.167  0.00  0.00     0.039 A 
ATOM      3  C2  UNL d   1       0.280   1.167   1.519  0.00  0.00    -0.080 A 
ATOM      4  C3  UNL d   1       0.039   2.361   0.845  0.00  0.00     0.150 A 
ATOM      5  C4  UNL d   1      -1.236   2.916   0.813  0.00  0.00    -0.007 A 
ATOM      6  C5  UNL d   1      -2.288   2.269   1.460  0.00  0.00     0.039 A 
ENDROOT
BRANCH   4   7
ATOM      7  O   UNL d   1       1.035   3.026   0.194  0.00  0.00    -0.526 OA
ATOM      8  H5  UNL d   1       1.854   2.510   0.277  0.00  0.00     0.418 HD
ENDBRANCH   4   7
TORSDOF 1
ENDMDL
