MODEL 1
REMARK minimizedAffinity 2.51499629
REMARK minimizedRMSD -1
REMARK  1 active torsions:
REMARK  status: ('A' for Active; 'I' for Inactive)
REMARK    1  A    between atoms: C3_4  and  O_7 
ROOT
ATOM      1  C   UNL d   1      -0.084   2.241   0.503  0.00  0.00    -0.033 A 
ATOM      2  C1  UNL d   1      -0.238   1.129   1.333  0.00  0.00     0.039 A 
ATOM      3  C2  UNL d   1      -1.232   1.120   2.313  0.00  0.00    -0.080 A 
ATOM      4  C3  UNL d   1      -2.065   2.226   2.452  0.00  0.00     0.150 A 
ATOM      5  C4  UNL d   1      -1.920   3.336   1.625  0.00  0.00    -0.007 A 
ATOM      6  C5  UNL d   1      -0.926   3.344   0.648  0.00  0.00     0.039 A 
ENDROOT
BRANCH   4   7
ATOM      7  O   UNL d   1      -3.047   2.265   3.397  0.00  0.00    -0.526 OA
ATOM      8  H5  UNL d   1      -3.010   1.442   3.913  0.00  0.00     0.418 HD
ENDBRANCH   4   7
TORSDOF 1
ENDMDL
