MODEL 1
REMARK minimizedAffinity -5.99793625
REMARK minimizedRMSD -1
REMARK  1 active torsions:
REMARK  status: ('A' for Active; 'I' for Inactive)
REMARK    1  A    between atoms: C1_2  and  C2_3 
ROOT
ATOM      1  C2  UNL d   1       2.468  -0.545   0.236  0.00  0.00    -0.077 A 
ATOM      2  C3  UNL d   1       1.586   0.281  -0.475  0.00  0.00     0.002 A 
ATOM      3  C4  UNL d   1       0.209   0.191  -0.263  0.00  0.00     0.002 A 
ATOM      4  C5  UNL d   1      -0.297  -0.721   0.661  0.00  0.00    -0.004 A 
ATOM      5  C6  UNL d   1       0.572  -1.548   1.371  0.00  0.00     0.002 A 
ATOM      6  C7  UNL d   1       1.948  -1.460   1.160  0.00  0.00     0.002 A 
ENDROOT
BRANCH   1   7
ATOM      7  C1  UNL d   1       3.957  -0.415   0.045  0.00  0.00     0.055 C 
ATOM      8  C   UNL d   1       4.298   0.009  -1.376  0.00  0.00     0.019 C 
ENDBRANCH   1   7
TORSDOF 1
ENDMDL
