MODEL 1
REMARK minimizedAffinity -4.73874903
REMARK minimizedRMSD -1
REMARK  1 active torsions:
REMARK  status: ('A' for Active; 'I' for Inactive)
REMARK    1  A    between atoms: C1_2  and  C2_3 
ROOT
ATOM      1  C2  UNL d   1       2.279   0.046   0.092  0.00  0.00    -0.077 A 
ATOM      2  C3  UNL d   1       0.899   0.289   0.050  0.00  0.00     0.002 A 
ATOM      3  C4  UNL d   1       0.017  -0.522   0.768  0.00  0.00     0.002 A 
ATOM      4  C5  UNL d   1       0.506  -1.577   1.535  0.00  0.00    -0.004 A 
ATOM      5  C6  UNL d   1       1.877  -1.828   1.581  0.00  0.00     0.002 A 
ATOM      6  C7  UNL d   1       2.759  -1.020   0.863  0.00  0.00     0.002 A 
ENDROOT
BRANCH   1   7
ATOM      7  C1  UNL d   1       3.236   0.949  -0.642  0.00  0.00     0.055 C 
ATOM      8  C   UNL d   1       4.265   0.146  -1.425  0.00  0.00     0.019 C 
ENDBRANCH   1   7
TORSDOF 1
ENDMDL
