MODEL 1
REMARK minimizedAffinity -5.31537962
REMARK minimizedRMSD -1
REMARK  1 active torsions:
REMARK  status: ('A' for Active; 'I' for Inactive)
REMARK    1  A    between atoms: C1_2  and  C2_3 
ROOT
ATOM      1  C2  UNL d   1      -1.929   1.374  -2.832  0.00  0.00    -0.077 A 
ATOM      2  C3  UNL d   1      -1.342   2.306  -3.699  0.00  0.00     0.002 A 
ATOM      3  C4  UNL d   1      -0.406   3.224  -3.219  0.00  0.00     0.002 A 
ATOM      4  C5  UNL d   1      -0.045   3.216  -1.873  0.00  0.00    -0.004 A 
ATOM      5  C6  UNL d   1      -0.625   2.293  -1.003  0.00  0.00     0.002 A 
ATOM      6  C7  UNL d   1      -1.563   1.376  -1.480  0.00  0.00     0.002 A 
ENDROOT
BRANCH   1   7
ATOM      7  C1  UNL d   1      -2.903   0.351  -3.357  0.00  0.00     0.055 C 
ATOM      8  C   UNL d   1      -2.197  -0.945  -3.729  0.00  0.00     0.019 C 
ENDBRANCH   1   7
TORSDOF 1
ENDMDL
