MODEL 1
REMARK minimizedAffinity -5.78968287
REMARK minimizedRMSD -1
REMARK  1 active torsions:
REMARK  status: ('A' for Active; 'I' for Inactive)
REMARK    1  A    between atoms: C1_2  and  C2_3 
ROOT
ATOM      1  C2  UNL d   1       0.212   0.645   0.134  0.00  0.00    -0.077 A 
ATOM      2  C3  UNL d   1      -0.219  -0.447   0.899  0.00  0.00     0.002 A 
ATOM      3  C4  UNL d   1       0.683  -1.446   1.275  0.00  0.00     0.002 A 
ATOM      4  C5  UNL d   1       2.020  -1.359   0.893  0.00  0.00    -0.004 A 
ATOM      5  C6  UNL d   1       2.457  -0.277   0.129  0.00  0.00     0.002 A 
ATOM      6  C7  UNL d   1       1.557   0.721  -0.248  0.00  0.00     0.002 A 
ENDROOT
BRANCH   1   7
ATOM      7  C1  UNL d   1      -0.748   1.748  -0.230  0.00  0.00     0.055 C 
ATOM      8  C   UNL d   1      -0.143   2.691  -1.260  0.00  0.00     0.019 C 
ENDBRANCH   1   7
TORSDOF 1
ENDMDL
