MODEL 1
REMARK minimizedAffinity -4.33051014
REMARK minimizedRMSD -1
REMARK  1 active torsions:
REMARK  status: ('A' for Active; 'I' for Inactive)
REMARK    1  A    between atoms: C1_2  and  C2_3 
ROOT
ATOM      1  C2  UNL d   1       0.194   0.119   0.046  0.00  0.00    -0.077 A 
ATOM      2  C3  UNL d   1       0.132  -0.960   0.939  0.00  0.00     0.002 A 
ATOM      3  C4  UNL d   1       1.251  -1.767   1.152  0.00  0.00     0.002 A 
ATOM      4  C5  UNL d   1       2.442  -1.500   0.479  0.00  0.00    -0.004 A 
ATOM      5  C6  UNL d   1       2.514  -0.430  -0.413  0.00  0.00     0.002 A 
ATOM      6  C7  UNL d   1       1.395   0.376  -0.627  0.00  0.00     0.002 A 
ENDROOT
BRANCH   1   7
ATOM      7  C1  UNL d   1      -0.998   1.020  -0.148  0.00  0.00     0.055 C 
ATOM      8  C   UNL d   1      -1.306   1.220  -1.624  0.00  0.00     0.019 C 
ENDBRANCH   1   7
TORSDOF 1
ENDMDL
