MODEL 1
REMARK minimizedAffinity -2.83250618
REMARK minimizedRMSD -1
REMARK  1 active torsions:
REMARK  status: ('A' for Active; 'I' for Inactive)
REMARK    1  A    between atoms: C1_2  and  C2_3 
ROOT
ATOM      1  C2  UNL d   1       0.108   0.358  -0.138  0.00  0.00    -0.077 A 
ATOM      2  C3  UNL d   1       1.360   0.649  -0.698  0.00  0.00     0.002 A 
ATOM      3  C4  UNL d   1       2.467  -0.152  -0.410  0.00  0.00     0.002 A 
ATOM      4  C5  UNL d   1       2.332  -1.251   0.435  0.00  0.00    -0.004 A 
ATOM      5  C6  UNL d   1       1.092  -1.548   0.999  0.00  0.00     0.002 A 
ATOM      6  C7  UNL d   1      -0.015  -0.748   0.713  0.00  0.00     0.002 A 
ENDROOT
BRANCH   1   7
ATOM      7  C1  UNL d   1      -1.097   1.191  -0.487  0.00  0.00     0.055 C 
ATOM      8  C   UNL d   1      -0.991   1.756  -1.896  0.00  0.00     0.019 C 
ENDBRANCH   1   7
TORSDOF 1
ENDMDL
