MODEL 1
REMARK minimizedAffinity -4.36355972
REMARK minimizedRMSD -1
REMARK  1 active torsions:
REMARK  status: ('A' for Active; 'I' for Inactive)
REMARK    1  A    between atoms: C1_2  and  C2_3 
ROOT
ATOM      1  C2  UNL d   1       0.156   0.609  -0.573  0.00  0.00    -0.077 A 
ATOM      2  C3  UNL d   1       0.165  -0.663   0.016  0.00  0.00     0.002 A 
ATOM      3  C4  UNL d   1       1.373  -1.306   0.289  0.00  0.00     0.002 A 
ATOM      4  C5  UNL d   1       2.581  -0.683  -0.019  0.00  0.00    -0.004 A 
ATOM      5  C6  UNL d   1       2.583   0.581  -0.607  0.00  0.00     0.002 A 
ATOM      6  C7  UNL d   1       1.375   1.225  -0.882  0.00  0.00     0.002 A 
ENDROOT
BRANCH   1   7
ATOM      7  C1  UNL d   1      -1.146   1.326  -0.823  0.00  0.00     0.055 C 
ATOM      8  C   UNL d   1      -0.966   2.473  -1.806  0.00  0.00     0.019 C 
ENDBRANCH   1   7
TORSDOF 1
ENDMDL
