MODEL 1
REMARK minimizedAffinity -2.23341179
REMARK minimizedRMSD -1
REMARK  1 active torsions:
REMARK  status: ('A' for Active; 'I' for Inactive)
REMARK    1  A    between atoms: C1_2  and  C2_3 
ROOT
ATOM      1  C2  UNL d   1      -0.022   0.771  -0.622  0.00  0.00    -0.077 A 
ATOM      2  C3  UNL d   1      -0.089  -0.496  -0.026  0.00  0.00     0.002 A 
ATOM      3  C4  UNL d   1       1.077  -1.219   0.230  0.00  0.00     0.002 A 
ATOM      4  C5  UNL d   1       2.319  -0.682  -0.103  0.00  0.00    -0.004 A 
ATOM      5  C6  UNL d   1       2.397   0.576  -0.698  0.00  0.00     0.002 A 
ATOM      6  C7  UNL d   1       1.232   1.300  -0.956  0.00  0.00     0.002 A 
ENDROOT
BRANCH   1   7
ATOM      7  C1  UNL d   1      -1.275   1.574  -0.853  0.00  0.00     0.055 C 
ATOM      8  C   UNL d   1      -1.291   2.186  -2.246  0.00  0.00     0.019 C 
ENDBRANCH   1   7
TORSDOF 1
ENDMDL
