MODEL 1
REMARK minimizedAffinity -4.42538834
REMARK minimizedRMSD -1
REMARK  1 active torsions:
REMARK  status: ('A' for Active; 'I' for Inactive)
REMARK    1  A    between atoms: C1_2  and  C2_3 
ROOT
ATOM      1  C2  UNL d   1       0.127  -1.347   0.635  0.00  0.00    -0.077 A 
ATOM      2  C3  UNL d   1       0.518  -0.442  -0.361  0.00  0.00     0.002 A 
ATOM      3  C4  UNL d   1      -0.191   0.746  -0.552  0.00  0.00     0.002 A 
ATOM      4  C5  UNL d   1      -1.290   1.041   0.251  0.00  0.00    -0.004 A 
ATOM      5  C6  UNL d   1      -1.688   0.146   1.242  0.00  0.00     0.002 A 
ATOM      6  C7  UNL d   1      -0.983  -1.043   1.435  0.00  0.00     0.002 A 
ENDROOT
BRANCH   1   7
ATOM      7  C1  UNL d   1       0.919  -2.606   0.876  0.00  0.00     0.055 C 
ATOM      8  C   UNL d   1       2.316  -2.291   1.391  0.00  0.00     0.019 C 
ENDBRANCH   1   7
TORSDOF 1
ENDMDL
