MODEL 1
REMARK minimizedAffinity -4.81403351
REMARK minimizedRMSD -1
REMARK  1 active torsions:
REMARK  status: ('A' for Active; 'I' for Inactive)
REMARK    1  A    between atoms: C1_2  and  C2_3 
ROOT
ATOM      1  C2  UNL d   1      -0.245   0.390   0.072  0.00  0.00    -0.077 A 
ATOM      2  C3  UNL d   1       1.068   0.726  -0.287  0.00  0.00     0.002 A 
ATOM      3  C4  UNL d   1       2.104  -0.194  -0.119  0.00  0.00     0.002 A 
ATOM      4  C5  UNL d   1       1.838  -1.458   0.405  0.00  0.00    -0.004 A 
ATOM      5  C6  UNL d   1       0.536  -1.801   0.767  0.00  0.00     0.002 A 
ATOM      6  C7  UNL d   1      -0.501  -0.882   0.601  0.00  0.00     0.002 A 
ENDROOT
BRANCH   1   7
ATOM      7  C1  UNL d   1      -1.372   1.363  -0.154  0.00  0.00     0.055 C 
ATOM      8  C   UNL d   1      -1.557   1.661  -1.635  0.00  0.00     0.019 C 
ENDBRANCH   1   7
TORSDOF 1
ENDMDL
