MODEL 1
REMARK minimizedAffinity -3.86095858
REMARK minimizedRMSD -1
REMARK  1 active torsions:
REMARK  status: ('A' for Active; 'I' for Inactive)
REMARK    1  A    between atoms: C1_2  and  C2_3 
ROOT
ATOM      1  C2  UNL d   1       0.713   0.017   0.147  0.00  0.00    -0.077 A 
ATOM      2  C3  UNL d   1      -0.094  -1.021   0.634  0.00  0.00     0.002 A 
ATOM      3  C4  UNL d   1       0.474  -2.240   1.008  0.00  0.00     0.002 A 
ATOM      4  C5  UNL d   1       1.850  -2.431   0.904  0.00  0.00    -0.004 A 
ATOM      5  C6  UNL d   1       2.661  -1.406   0.420  0.00  0.00     0.002 A 
ATOM      6  C7  UNL d   1       2.095  -0.187   0.044  0.00  0.00     0.002 A 
ENDROOT
BRANCH   1   7
ATOM      7  C1  UNL d   1       0.109   1.350  -0.211  0.00  0.00     0.055 C 
ATOM      8  C   UNL d   1      -1.395   1.240  -0.411  0.00  0.00     0.019 C 
ENDBRANCH   1   7
TORSDOF 1
ENDMDL
