MODEL 1
REMARK minimizedAffinity -2.54780984
REMARK minimizedRMSD -1
REMARK  1 active torsions:
REMARK  status: ('A' for Active; 'I' for Inactive)
REMARK    1  A    between atoms: C1_2  and  C2_3 
ROOT
ATOM      1  C2  UNL d   1      -1.183   3.224  -3.544  0.00  0.00    -0.077 A 
ATOM      2  C3  UNL d   1      -0.862   1.928  -3.116  0.00  0.00     0.002 A 
ATOM      3  C4  UNL d   1      -1.865   1.059  -2.682  0.00  0.00     0.002 A 
ATOM      4  C5  UNL d   1      -3.195   1.475  -2.675  0.00  0.00    -0.004 A 
ATOM      5  C6  UNL d   1      -3.524   2.763  -3.098  0.00  0.00     0.002 A 
ATOM      6  C7  UNL d   1      -2.522   3.633  -3.531  0.00  0.00     0.002 A 
ENDROOT
BRANCH   1   7
ATOM      7  C1  UNL d   1      -0.108   4.146  -4.060  0.00  0.00     0.055 C 
ATOM      8  C   UNL d   1       0.040   5.373  -3.173  0.00  0.00     0.019 C 
ENDBRANCH   1   7
TORSDOF 1
ENDMDL
