MODEL 1
REMARK minimizedAffinity -4.17248964
REMARK minimizedRMSD -1
REMARK  1 active torsions:
REMARK  status: ('A' for Active; 'I' for Inactive)
REMARK    1  A    between atoms: C1_2  and  C2_3 
ROOT
ATOM      1  C2  UNL d   1       1.912  -0.542   0.445  0.00  0.00    -0.077 A 
ATOM      2  C3  UNL d   1       1.453  -1.864   0.521  0.00  0.00     0.002 A 
ATOM      3  C4  UNL d   1       0.085  -2.140   0.484  0.00  0.00     0.002 A 
ATOM      4  C5  UNL d   1      -0.834  -1.100   0.366  0.00  0.00    -0.004 A 
ATOM      5  C6  UNL d   1      -0.388   0.218   0.291  0.00  0.00     0.002 A 
ATOM      6  C7  UNL d   1       0.979   0.497   0.330  0.00  0.00     0.002 A 
ENDROOT
BRANCH   1   7
ATOM      7  C1  UNL d   1       3.389  -0.245   0.435  0.00  0.00     0.055 C 
ATOM      8  C   UNL d   1       3.822   0.369  -0.888  0.00  0.00     0.019 C 
ENDBRANCH   1   7
TORSDOF 1
ENDMDL
