MODEL 1
REMARK minimizedAffinity -5.09742832
REMARK minimizedRMSD -1
REMARK  1 active torsions:
REMARK  status: ('A' for Active; 'I' for Inactive)
REMARK    1  A    between atoms: C1_2  and  C2_3 
ROOT
ATOM      1  C2  UNL d   1       0.900  -0.526   0.009  0.00  0.00    -0.077 A 
ATOM      2  C3  UNL d   1       0.191  -1.735   0.049  0.00  0.00     0.002 A 
ATOM      3  C4  UNL d   1       0.807  -2.899   0.512  0.00  0.00     0.002 A 
ATOM      4  C5  UNL d   1       2.132  -2.865   0.942  0.00  0.00    -0.004 A 
ATOM      5  C6  UNL d   1       2.845  -1.668   0.905  0.00  0.00     0.002 A 
ATOM      6  C7  UNL d   1       2.232  -0.503   0.441  0.00  0.00     0.002 A 
ENDROOT
BRANCH   1   7
ATOM      7  C1  UNL d   1       0.222   0.742  -0.443  0.00  0.00     0.055 C 
ATOM      8  C   UNL d   1      -1.257   0.736  -0.087  0.00  0.00     0.019 C 
ENDBRANCH   1   7
TORSDOF 1
ENDMDL
