MODEL 1
REMARK minimizedAffinity -4.29392862
REMARK minimizedRMSD -1
REMARK  3 active torsions:
REMARK  status: ('A' for Active; 'I' for Inactive)
REMARK    1  A    between atoms: C3'_2  and  C2'_3 
REMARK    2  A    between atoms: C2'_3  and  C1'_4 
REMARK    3  A    between atoms: C1'_4  and  C1_5 
ROOT
ATOM      1  C1  N4B d   1      -0.272   0.521  -0.418  0.00  0.00    -0.075 A 
ATOM      2  C2  N4B d   1       0.296   1.802  -0.240  0.00  0.00     0.002 A 
ATOM      3  C3  N4B d   1       1.474   1.940   0.453  0.00  0.00     0.002 A 
ATOM      4  C4  N4B d   1       2.089   0.820   0.990  0.00  0.00    -0.004 A 
ATOM      5  C5  N4B d   1       1.548  -0.417   0.791  0.00  0.00     0.002 A 
ATOM      6  C6  N4B d   1       0.367  -0.571   0.094  0.00  0.00     0.002 A 
ENDROOT
BRANCH   1   7
ATOM      7  C1' N4B d   1      -1.602   0.329  -1.093  0.00  0.00     0.057 C 
BRANCH   7   8
ATOM      8  C2' N4B d   1      -1.405   0.361  -2.606  0.00  0.00     0.009 C 
BRANCH   8   9
ATOM      9  C3' N4B d   1      -1.402  -1.033  -3.208  0.00  0.00     0.004 C 
ATOM     10  C4' N4B d   1      -1.014  -1.039  -4.657  0.00  0.00     0.003 C 
ENDBRANCH   8   9
ENDBRANCH   7   8
ENDBRANCH   1   7
TORSDOF 3
ENDMDL
