MODEL 1
REMARK minimizedAffinity -3.8839047
REMARK minimizedRMSD -1
REMARK  3 active torsions:
REMARK  status: ('A' for Active; 'I' for Inactive)
REMARK    1  A    between atoms: C3'_2  and  C2'_3 
REMARK    2  A    between atoms: C2'_3  and  C1'_4 
REMARK    3  A    between atoms: C1'_4  and  C1_5 
ROOT
ATOM      1  C1  N4B d   1      -3.134   0.373  -0.274  0.00  0.00    -0.075 A 
ATOM      2  C2  N4B d   1      -4.277  -0.349  -0.683  0.00  0.00     0.002 A 
ATOM      3  C3  N4B d   1      -5.443  -0.253   0.037  0.00  0.00     0.002 A 
ATOM      4  C4  N4B d   1      -5.484   0.539   1.174  0.00  0.00    -0.004 A 
ATOM      5  C5  N4B d   1      -4.383   1.253   1.548  0.00  0.00     0.002 A 
ATOM      6  C6  N4B d   1      -3.206   1.170   0.832  0.00  0.00     0.002 A 
ENDROOT
BRANCH   1   7
ATOM      7  C1' N4B d   1      -1.813   0.233  -0.979  0.00  0.00     0.057 C 
BRANCH   7   8
ATOM      8  C2' N4B d   1      -0.701   0.739  -0.065  0.00  0.00     0.009 C 
BRANCH   8   9
ATOM      9  C3' N4B d   1       0.674   0.327  -0.561  0.00  0.00     0.004 C 
ATOM     10  C4' N4B d   1       1.115  -0.999  -0.015  0.00  0.00     0.003 C 
ENDBRANCH   8   9
ENDBRANCH   7   8
ENDBRANCH   1   7
TORSDOF 3
ENDMDL
