MODEL 1
REMARK minimizedAffinity -2.56721592
REMARK minimizedRMSD -1
REMARK  3 active torsions:
REMARK  status: ('A' for Active; 'I' for Inactive)
REMARK    1  A    between atoms: C3'_2  and  C2'_3 
REMARK    2  A    between atoms: C2'_3  and  C1'_4 
REMARK    3  A    between atoms: C1'_4  and  C1_5 
ROOT
ATOM      1  C1  N4B d   1       0.460  -1.379  -0.695  0.00  0.00    -0.075 A 
ATOM      2  C2  N4B d   1       1.768  -1.907  -0.761  0.00  0.00     0.002 A 
ATOM      3  C3  N4B d   1       2.662  -1.654   0.251  0.00  0.00     0.002 A 
ATOM      4  C4  N4B d   1       2.278  -0.863   1.323  0.00  0.00    -0.004 A 
ATOM      5  C5  N4B d   1       1.004  -0.378   1.391  0.00  0.00     0.002 A 
ATOM      6  C6  N4B d   1       0.094  -0.628   0.384  0.00  0.00     0.002 A 
ENDROOT
BRANCH   1   7
ATOM      7  C1' N4B d   1      -0.526  -1.558  -1.818  0.00  0.00     0.057 C 
BRANCH   7   8
ATOM      8  C2' N4B d   1      -1.306  -0.261  -2.010  0.00  0.00     0.009 C 
BRANCH   8   9
ATOM      9  C3' N4B d   1      -1.631  -0.004  -3.472  0.00  0.00     0.004 C 
ATOM     10  C4' N4B d   1      -1.361  -1.194  -4.344  0.00  0.00     0.003 C 
ENDBRANCH   8   9
ENDBRANCH   7   8
ENDBRANCH   1   7
TORSDOF 3
ENDMDL
