MODEL 1
REMARK minimizedAffinity 3.73611188
REMARK minimizedRMSD -1
REMARK  3 active torsions:
REMARK  status: ('A' for Active; 'I' for Inactive)
REMARK    1  A    between atoms: C3'_2  and  C2'_3 
REMARK    2  A    between atoms: C2'_3  and  C1'_4 
REMARK    3  A    between atoms: C1'_4  and  C1_5 
ROOT
ATOM      1  C1  N4B d   1       0.308  -0.984  -1.009  0.00  0.00    -0.075 A 
ATOM      2  C2  N4B d   1       1.715  -1.082  -0.924  0.00  0.00     0.002 A 
ATOM      3  C3  N4B d   1       2.386  -0.459   0.099  0.00  0.00     0.002 A 
ATOM      4  C4  N4B d   1       1.677   0.279   1.035  0.00  0.00    -0.004 A 
ATOM      5  C5  N4B d   1       0.317   0.348   0.961  0.00  0.00     0.002 A 
ATOM      6  C6  N4B d   1      -0.371  -0.276  -0.060  0.00  0.00     0.002 A 
ENDROOT
BRANCH   1   7
ATOM      7  C1' N4B d   1      -0.461  -1.576  -2.158  0.00  0.00     0.057 C 
BRANCH   7   8
ATOM      8  C2' N4B d   1      -1.154  -0.456  -2.927  0.00  0.00     0.009 C 
BRANCH   8   9
ATOM      9  C3' N4B d   1      -1.327  -0.798  -4.397  0.00  0.00     0.004 C 
ATOM     10  C4' N4B d   1      -1.648  -2.245  -4.622  0.00  0.00     0.003 C 
ENDBRANCH   8   9
ENDBRANCH   7   8
ENDBRANCH   1   7
TORSDOF 3
ENDMDL
