MODEL 1
REMARK minimizedAffinity -3.72858047
REMARK minimizedRMSD -1
REMARK  0 active torsions:
REMARK  status: ('A' for Active; 'I' for Inactive)
ROOT
ATOM      1  C4' PXY d   1      -1.133   1.862  -0.879  0.00  0.00     0.077 C 
ATOM      2  C1' PXY d   1       1.615  -2.935   0.810  0.00  0.00     0.077 C 
ATOM      3  C1  PXY d   1       0.904  -1.670   0.372  0.00  0.00    -0.082 A 
ATOM      4  C2  PXY d   1      -0.403  -1.693   0.163  0.00  0.00     0.003 A 
ATOM      5  C3  PXY d   1      -1.056  -0.566  -0.264  0.00  0.00     0.003 A 
ATOM      6  C4  PXY d   1      -0.375   0.611  -0.427  0.00  0.00    -0.082 A 
ATOM      7  C5  PXY d   1       0.956   0.645  -0.205  0.00  0.00     0.003 A 
ATOM      8  C6  PXY d   1       1.608  -0.521   0.188  0.00  0.00     0.003 A 
ENDROOT
TORSDOF 0
ENDMDL
