MODEL 1
REMARK minimizedAffinity -4.12181282
REMARK minimizedRMSD -1
REMARK  0 active torsions:
REMARK  status: ('A' for Active; 'I' for Inactive)
ROOT
ATOM      1  C4' PXY d   1      -1.125   1.995  -0.930  0.00  0.00     0.077 C 
ATOM      2  C1' PXY d   1       1.773  -2.567   1.121  0.00  0.00     0.077 C 
ATOM      3  C1  PXY d   1       1.024  -1.366   0.577  0.00  0.00    -0.082 A 
ATOM      4  C2  PXY d   1      -0.035  -0.907   1.224  0.00  0.00     0.003 A 
ATOM      5  C3  PXY d   1      -0.743   0.157   0.729  0.00  0.00     0.003 A 
ATOM      6  C4  PXY d   1      -0.332   0.792  -0.412  0.00  0.00    -0.082 A 
ATOM      7  C5  PXY d   1       0.753   0.336  -1.073  0.00  0.00     0.003 A 
ATOM      8  C6  PXY d   1       1.434  -0.771  -0.576  0.00  0.00     0.003 A 
ENDROOT
TORSDOF 0
ENDMDL
