MODEL 1
REMARK minimizedAffinity -3.88180804
REMARK minimizedRMSD -1
REMARK  0 active torsions:
REMARK  status: ('A' for Active; 'I' for Inactive)
ROOT
ATOM      1  C4' PXY d   1      -1.182   1.511  -1.381  0.00  0.00     0.077 C 
ATOM      2  C1' PXY d   1       1.566  -2.853   1.230  0.00  0.00     0.077 C 
ATOM      3  C1  PXY d   1       0.855  -1.701   0.548  0.00  0.00    -0.082 A 
ATOM      4  C2  PXY d   1      -0.463  -1.717   0.440  0.00  0.00     0.003 A 
ATOM      5  C3  PXY d   1      -1.119  -0.699  -0.202  0.00  0.00     0.003 A 
ATOM      6  C4  PXY d   1      -0.423   0.374  -0.692  0.00  0.00    -0.082 A 
ATOM      7  C5  PXY d   1       0.921   0.403  -0.577  0.00  0.00     0.003 A 
ATOM      8  C6  PXY d   1       1.572  -0.661   0.042  0.00  0.00     0.003 A 
ENDROOT
TORSDOF 0
ENDMDL
