MODEL 1
REMARK minimizedAffinity -4.93553543
REMARK minimizedRMSD -1
REMARK  0 active torsions:
REMARK  status: ('A' for Active; 'I' for Inactive)
ROOT
ATOM      1  C4' PXY d   1      -0.880   1.554  -0.774  0.00  0.00     0.077 C 
ATOM      2  C1' PXY d   1       1.483  -3.360   1.146  0.00  0.00     0.077 C 
ATOM      3  C1  PXY d   1       0.875  -2.065   0.644  0.00  0.00    -0.082 A 
ATOM      4  C2  PXY d   1      -0.427  -1.863   0.765  0.00  0.00     0.003 A 
ATOM      5  C3  PXY d   1      -0.998  -0.712   0.287  0.00  0.00     0.003 A 
ATOM      6  C4  PXY d   1      -0.221   0.266  -0.273  0.00  0.00    -0.082 A 
ATOM      7  C5  PXY d   1       1.110   0.073  -0.391  0.00  0.00     0.003 A 
ATOM      8  C6  PXY d   1       1.664  -1.121   0.063  0.00  0.00     0.003 A 
ENDROOT
TORSDOF 0
ENDMDL
