MODEL 1
REMARK minimizedAffinity -5.37785053
REMARK minimizedRMSD -1
REMARK  0 active torsions:
REMARK  status: ('A' for Active; 'I' for Inactive)
ROOT
ATOM      1  C4' PXY d   1      -0.724   1.853  -1.154  0.00  0.00     0.077 C 
ATOM      2  C1' PXY d   1       1.372  -2.607   1.868  0.00  0.00     0.077 C 
ATOM      3  C1  PXY d   1       0.835  -1.433   1.074  0.00  0.00    -0.082 A 
ATOM      4  C2  PXY d   1      -0.435  -1.083   1.203  0.00  0.00     0.003 A 
ATOM      5  C3  PXY d   1      -0.946  -0.043   0.469  0.00  0.00     0.003 A 
ATOM      6  C4  PXY d   1      -0.135   0.679  -0.365  0.00  0.00    -0.082 A 
ATOM      7  C5  PXY d   1       1.163   0.335  -0.494  0.00  0.00     0.003 A 
ATOM      8  C6  PXY d   1       1.652  -0.749   0.229  0.00  0.00     0.003 A 
ENDROOT
TORSDOF 0
ENDMDL
