MODEL 1
REMARK minimizedAffinity -0.679185331
REMARK minimizedRMSD -1
REMARK  0 active torsions:
REMARK  status: ('A' for Active; 'I' for Inactive)
ROOT
ATOM      1  C4' PXY d   1      -1.637   1.600  -0.394  0.00  0.00     0.077 C 
ATOM      2  C1' PXY d   1       2.515  -2.080   1.226  0.00  0.00     0.077 C 
ATOM      3  C1  PXY d   1       1.417  -1.125   0.802  0.00  0.00    -0.082 A 
ATOM      4  C2  PXY d   1       1.726  -0.038   0.113  0.00  0.00     0.003 A 
ATOM      5  C3  PXY d   1       0.750   0.853  -0.251  0.00  0.00     0.003 A 
ATOM      6  C4  PXY d   1      -0.563   0.603   0.047  0.00  0.00    -0.082 A 
ATOM      7  C5  PXY d   1      -0.887  -0.509   0.741  0.00  0.00     0.003 A 
ATOM      8  C6  PXY d   1       0.124  -1.380   1.137  0.00  0.00     0.003 A 
ENDROOT
TORSDOF 0
ENDMDL
