MODEL 1
REMARK minimizedAffinity -5.5271883
REMARK minimizedRMSD -1
REMARK  0 active torsions:
REMARK  status: ('A' for Active; 'I' for Inactive)
ROOT
ATOM      1  C4' PXY d   1      -0.254   1.257  -0.928  0.00  0.00     0.077 C 
ATOM      2  C1' PXY d   1       1.334  -3.101   2.522  0.00  0.00     0.077 C 
ATOM      3  C1  PXY d   1       0.930  -1.955   1.615  0.00  0.00    -0.082 A 
ATOM      4  C2  PXY d   1      -0.288  -1.446   1.708  0.00  0.00     0.003 A 
ATOM      5  C3  PXY d   1      -0.680  -0.430   0.874  0.00  0.00     0.003 A 
ATOM      6  C4  PXY d   1       0.200   0.105  -0.027  0.00  0.00    -0.082 A 
ATOM      7  C5  PXY d   1       1.448  -0.402  -0.120  0.00  0.00     0.003 A 
ATOM      8  C6  PXY d   1       1.813  -1.460   0.706  0.00  0.00     0.003 A 
ENDROOT
TORSDOF 0
ENDMDL
