MODEL 1
REMARK minimizedAffinity -6.15911055
REMARK minimizedRMSD -1
REMARK  0 active torsions:
REMARK  status: ('A' for Active; 'I' for Inactive)
ROOT
ATOM      1  C4' PXY d   1       1.818  -2.908   0.834  0.00  0.00     0.077 C 
ATOM      2  C1' PXY d   1      -0.962   1.806  -1.027  0.00  0.00     0.077 C 
ATOM      3  C1  PXY d   1      -0.242   0.569  -0.529  0.00  0.00    -0.082 A 
ATOM      4  C2  PXY d   1       1.027   0.376  -0.853  0.00  0.00     0.003 A 
ATOM      5  C3  PXY d   1       1.684  -0.753  -0.438  0.00  0.00     0.003 A 
ATOM      6  C4  PXY d   1       1.053  -1.668   0.362  0.00  0.00    -0.082 A 
ATOM      7  C5  PXY d   1      -0.237  -1.473   0.706  0.00  0.00     0.003 A 
ATOM      8  C6  PXY d   1      -0.899  -0.341   0.240  0.00  0.00     0.003 A 
ENDROOT
TORSDOF 0
ENDMDL
