MODEL 1
REMARK minimizedAffinity -6.03031349
REMARK minimizedRMSD -1
REMARK  0 active torsions:
REMARK  status: ('A' for Active; 'I' for Inactive)
ROOT
ATOM      1  C4' PXY d   1      -0.696   2.139  -0.470  0.00  0.00     0.077 C 
ATOM      2  C1' PXY d   1       1.324  -3.091   0.936  0.00  0.00     0.077 C 
ATOM      3  C1  PXY d   1       0.806  -1.716   0.565  0.00  0.00    -0.082 A 
ATOM      4  C2  PXY d   1      -0.330  -1.282   1.085  0.00  0.00     0.003 A 
ATOM      5  C3  PXY d   1      -0.829  -0.053   0.735  0.00  0.00     0.003 A 
ATOM      6  C4  PXY d   1      -0.131   0.761  -0.116  0.00  0.00    -0.082 A 
ATOM      7  C5  PXY d   1       1.035   0.330  -0.643  0.00  0.00     0.003 A 
ATOM      8  C6  PXY d   1       1.503  -0.937  -0.307  0.00  0.00     0.003 A 
ENDROOT
TORSDOF 0
ENDMDL
