MODEL 1
REMARK minimizedAffinity -4.70759773
REMARK minimizedRMSD -1
REMARK  0 active torsions:
REMARK  status: ('A' for Active; 'I' for Inactive)
ROOT
ATOM      1  C4' PXY d   1      -0.842   1.381  -1.139  0.00  0.00     0.077 C 
ATOM      2  C1' PXY d   1       1.983  -3.071   1.231  0.00  0.00     0.077 C 
ATOM      3  C1  PXY d   1       1.254  -1.898   0.607  0.00  0.00    -0.082 A 
ATOM      4  C2  PXY d   1      -0.001  -1.652   0.947  0.00  0.00     0.003 A 
ATOM      5  C3  PXY d   1      -0.686  -0.614   0.369  0.00  0.00     0.003 A 
ATOM      6  C4  PXY d   1      -0.063   0.213  -0.527  0.00  0.00    -0.082 A 
ATOM      7  C5  PXY d   1       1.220  -0.025  -0.872  0.00  0.00     0.003 A 
ATOM      8  C6  PXY d   1       1.885  -1.109  -0.305  0.00  0.00     0.003 A 
ENDROOT
TORSDOF 0
ENDMDL
