MODEL 1
REMARK minimizedAffinity -3.51813173
REMARK minimizedRMSD -1
REMARK  0 active torsions:
REMARK  status: ('A' for Active; 'I' for Inactive)
ROOT
ATOM      1  C4' PXY d   1      -1.598  -2.236   2.309  0.00  0.00     0.077 C 
ATOM      2  C1' PXY d   1       2.324   0.722  -0.738  0.00  0.00     0.077 C 
ATOM      3  C1  PXY d   1       1.299  -0.065   0.055  0.00  0.00    -0.082 A 
ATOM      4  C2  PXY d   1       0.208   0.540   0.496  0.00  0.00     0.003 A 
ATOM      5  C3  PXY d   1      -0.713  -0.149   1.242  0.00  0.00     0.003 A 
ATOM      6  C4  PXY d   1      -0.542  -1.483   1.495  0.00  0.00    -0.082 A 
ATOM      7  C5  PXY d   1       0.564  -2.110   1.041  0.00  0.00     0.003 A 
ATOM      8  C6  PXY d   1       1.507  -1.383   0.320  0.00  0.00     0.003 A 
ENDROOT
TORSDOF 0
ENDMDL
