MODEL 1
REMARK minimizedAffinity -3.95018864
REMARK minimizedRMSD -1
REMARK  0 active torsions:
REMARK  status: ('A' for Active; 'I' for Inactive)
ROOT
ATOM      1  C4' PXY d   1       0.009  -2.388   2.880  0.00  0.00     0.077 C 
ATOM      2  C1' PXY d   1      -0.515   2.106  -0.718  0.00  0.00     0.077 C 
ATOM      3  C1  PXY d   1      -0.371   0.921   0.216  0.00  0.00    -0.082 A 
ATOM      4  C2  PXY d   1      -1.259   0.735   1.179  0.00  0.00     0.003 A 
ATOM      5  C3  PXY d   1      -1.126  -0.313   2.053  0.00  0.00     0.003 A 
ATOM      6  C4  PXY d   1      -0.103  -1.211   1.907  0.00  0.00    -0.082 A 
ATOM      7  C5  PXY d   1       0.802  -1.034   0.921  0.00  0.00     0.003 A 
ATOM      8  C6  PXY d   1       0.672   0.059   0.070  0.00  0.00     0.003 A 
ENDROOT
TORSDOF 0
ENDMDL
