MODEL 1
REMARK minimizedAffinity -4.52570343
REMARK minimizedRMSD -1
REMARK  0 active torsions:
REMARK  status: ('A' for Active; 'I' for Inactive)
ROOT
ATOM      1  C4' PXY d   1      -1.320   1.667  -0.753  0.00  0.00     0.077 C 
ATOM      2  C1' PXY d   1       2.096  -2.557   1.222  0.00  0.00     0.077 C 
ATOM      3  C1  PXY d   1       1.190  -1.456   0.708  0.00  0.00    -0.082 A 
ATOM      4  C2  PXY d   1       1.603  -0.675  -0.278  0.00  0.00     0.003 A 
ATOM      5  C3  PXY d   1       0.809   0.346  -0.733  0.00  0.00     0.003 A 
ATOM      6  C4  PXY d   1      -0.442   0.537  -0.209  0.00  0.00    -0.082 A 
ATOM      7  C5  PXY d   1      -0.874  -0.262   0.790  0.00  0.00     0.003 A 
ATOM      8  C6  PXY d   1      -0.037  -1.267   1.265  0.00  0.00     0.003 A 
ENDROOT
TORSDOF 0
ENDMDL
