MODEL 1
REMARK minimizedAffinity -0.818780363
REMARK minimizedRMSD -1
REMARK  0 active torsions:
REMARK  status: ('A' for Active; 'I' for Inactive)
ROOT
ATOM      1  C4' PXY d   1      -1.464   1.982  -0.849  0.00  0.00     0.077 C 
ATOM      2  C1' PXY d   1       2.269  -1.952   1.153  0.00  0.00     0.077 C 
ATOM      3  C1  PXY d   1       1.280  -0.927   0.632  0.00  0.00    -0.082 A 
ATOM      4  C2  PXY d   1       1.640  -0.106  -0.340  0.00  0.00     0.003 A 
ATOM      5  C3  PXY d   1       0.769   0.848  -0.801  0.00  0.00     0.003 A 
ATOM      6  C4  PXY d   1      -0.502   0.926  -0.298  0.00  0.00    -0.082 A 
ATOM      7  C5  PXY d   1      -0.881   0.085   0.687  0.00  0.00     0.003 A 
ATOM      8  C6  PXY d   1       0.032  -0.849   1.169  0.00  0.00     0.003 A 
ENDROOT
TORSDOF 0
ENDMDL
