MODEL 1
REMARK minimizedAffinity -3.39237499
REMARK minimizedRMSD -1
REMARK  0 active torsions:
REMARK  status: ('A' for Active; 'I' for Inactive)
ROOT
ATOM      1  C4' PXY d   1       1.598  -2.936   1.521  0.00  0.00     0.077 C 
ATOM      2  C1' PXY d   1      -0.803   1.810  -0.744  0.00  0.00     0.077 C 
ATOM      3  C1  PXY d   1      -0.165   0.565  -0.159  0.00  0.00    -0.082 A 
ATOM      4  C2  PXY d   1      -0.876  -0.229   0.624  0.00  0.00     0.003 A 
ATOM      5  C3  PXY d   1      -0.305  -1.341   1.187  0.00  0.00     0.003 A 
ATOM      6  C4  PXY d   1       0.992  -1.673   0.902  0.00  0.00    -0.082 A 
ATOM      7  C5  PXY d   1       1.721  -0.874   0.094  0.00  0.00     0.003 A 
ATOM      8  C6  PXY d   1       1.136   0.272  -0.434  0.00  0.00     0.003 A 
ENDROOT
TORSDOF 0
ENDMDL
