MODEL 1
REMARK minimizedAffinity -5.44608641
REMARK minimizedRMSD -1
REMARK  0 active torsions:
REMARK  status: ('A' for Active; 'I' for Inactive)
ROOT
ATOM      1  C4' PXY d   1       1.829   0.265  -1.356  0.00  0.00     0.077 C 
ATOM      2  C1' PXY d   1      -0.242  -2.496   3.281  0.00  0.00     0.077 C 
ATOM      3  C1  PXY d   1       0.313  -1.772   2.070  0.00  0.00    -0.082 A 
ATOM      4  C2  PXY d   1      -0.487  -1.014   1.338  0.00  0.00     0.003 A 
ATOM      5  C3  PXY d   1      -0.009  -0.378   0.221  0.00  0.00     0.003 A 
ATOM      6  C4  PXY d   1       1.314  -0.477  -0.120  0.00  0.00    -0.082 A 
ATOM      7  C5  PXY d   1       2.138  -1.240   0.628  0.00  0.00     0.003 A 
ATOM      8  C6  PXY d   1       1.624  -1.911   1.734  0.00  0.00     0.003 A 
ENDROOT
TORSDOF 0
ENDMDL
