MODEL 1
REMARK minimizedAffinity -3.47409105
REMARK minimizedRMSD -1
REMARK  0 active torsions:
REMARK  status: ('A' for Active; 'I' for Inactive)
ROOT
ATOM      1  C4' PXY d   1      -0.604   1.509  -0.798  0.00  0.00     0.077 C 
ATOM      2  C1' PXY d   1       1.579  -3.172   1.799  0.00  0.00     0.077 C 
ATOM      3  C1  PXY d   1       1.019  -1.940   1.116  0.00  0.00    -0.082 A 
ATOM      4  C2  PXY d   1      -0.213  -1.542   1.392  0.00  0.00     0.003 A 
ATOM      5  C3  PXY d   1      -0.746  -0.448   0.760  0.00  0.00     0.003 A 
ATOM      6  C4  PXY d   1       0.007   0.276  -0.125  0.00  0.00    -0.082 A 
ATOM      7  C5  PXY d   1       1.267  -0.117  -0.404  0.00  0.00     0.003 A 
ATOM      8  C6  PXY d   1       1.776  -1.254   0.218  0.00  0.00     0.003 A 
ENDROOT
TORSDOF 0
ENDMDL
