MODEL 1
REMARK minimizedAffinity -4.82632303
REMARK minimizedRMSD -1
REMARK  0 active torsions:
REMARK  status: ('A' for Active; 'I' for Inactive)
ROOT
ATOM      1  C4' PXY d   1      -0.959   1.363  -0.732  0.00  0.00     0.077 C 
ATOM      2  C1' PXY d   1       1.804  -3.335   1.194  0.00  0.00     0.077 C 
ATOM      3  C1  PXY d   1       1.091  -2.096   0.689  0.00  0.00    -0.082 A 
ATOM      4  C2  PXY d   1      -0.217  -1.982   0.854  0.00  0.00     0.003 A 
ATOM      5  C3  PXY d   1      -0.883  -0.883   0.375  0.00  0.00     0.003 A 
ATOM      6  C4  PXY d   1      -0.196   0.134  -0.230  0.00  0.00    -0.082 A 
ATOM      7  C5  PXY d   1       1.140   0.030  -0.392  0.00  0.00     0.003 A 
ATOM      8  C6  PXY d   1       1.792  -1.112   0.064  0.00  0.00     0.003 A 
ENDROOT
TORSDOF 0
ENDMDL
