MODEL 1
REMARK minimizedAffinity -3.68234468
REMARK minimizedRMSD -1
REMARK  0 active torsions:
REMARK  status: ('A' for Active; 'I' for Inactive)
ROOT
ATOM      1  C4' PXY d   1      -0.718   1.870  -0.086  0.00  0.00     0.077 C 
ATOM      2  C1' PXY d   1       1.434  -3.384   1.003  0.00  0.00     0.077 C 
ATOM      3  C1  PXY d   1       0.882  -2.001   0.718  0.00  0.00    -0.082 A 
ATOM      4  C2  PXY d   1      -0.385  -1.733   0.993  0.00  0.00     0.003 A 
ATOM      5  C3  PXY d   1      -0.909  -0.498   0.712  0.00  0.00     0.003 A 
ATOM      6  C4  PXY d   1      -0.115   0.490   0.194  0.00  0.00    -0.082 A 
ATOM      7  C5  PXY d   1       1.181   0.228  -0.079  0.00  0.00     0.003 A 
ATOM      8  C6  PXY d   1       1.683  -1.045   0.175  0.00  0.00     0.003 A 
ENDROOT
TORSDOF 0
ENDMDL
