MODEL 1
REMARK minimizedAffinity 4.2842555
REMARK minimizedRMSD -1
REMARK  1 active torsions:
REMARK  status: ('A' for Active; 'I' for Inactive)
REMARK    1  A    between atoms: N_2  and  C1_3 
ROOT
ATOM      1  C1  UNL d   1      -0.331   0.348  -4.870  0.00  0.00     0.143 A 
ATOM      2  C2  UNL d   1      -0.523   1.524  -4.137  0.00  0.00    -0.057 A 
ATOM      3  C3  UNL d   1      -1.437   1.578  -3.078  0.00  0.00     0.033 A 
ATOM      4  C4  UNL d   1      -2.200   0.461  -2.751  0.00  0.00    -0.042 A 
ATOM      5  C5  UNL d   1      -2.044  -0.711  -3.483  0.00  0.00     0.033 A 
ATOM      6  C6  UNL d   1      -1.125  -0.761  -4.535  0.00  0.00    -0.057 A 
ENDROOT
BRANCH   1   7
ATOM      7  N   UNL d   1       0.490   0.259  -5.997  0.00  0.00    -0.732 N 
ATOM      8  C   UNL d   1       1.878   0.664  -5.930  0.00  0.00     0.284 C 
ATOM      9  H3  UNL d   1       0.332  -0.595  -6.527  0.00  0.00     0.395 HD
ENDBRANCH   1   7
TORSDOF 1
ENDMDL
