MODEL 1
REMARK minimizedAffinity 6.12275648
REMARK minimizedRMSD -1
REMARK  1 active torsions:
REMARK  status: ('A' for Active; 'I' for Inactive)
REMARK    1  A    between atoms: N_2  and  C1_3 
ROOT
ATOM      1  C1  UNL d   1       2.568  -1.403   4.011  0.00  0.00     0.143 A 
ATOM      2  C2  UNL d   1       1.647  -0.495   4.546  0.00  0.00    -0.057 A 
ATOM      3  C3  UNL d   1       0.497  -0.126   3.838  0.00  0.00     0.033 A 
ATOM      4  C4  UNL d   1       0.262  -0.636   2.566  0.00  0.00    -0.042 A 
ATOM      5  C5  UNL d   1       1.177  -1.520   2.004  0.00  0.00     0.033 A 
ATOM      6  C6  UNL d   1       2.320  -1.891   2.719  0.00  0.00    -0.057 A 
ENDROOT
BRANCH   1   7
ATOM      7  N   UNL d   1       3.779  -1.734   4.624  0.00  0.00    -0.732 N 
ATOM      8  C   UNL d   1       4.485  -0.765   5.434  0.00  0.00     0.284 C 
ATOM      9  H3  UNL d   1       3.773  -2.675   5.012  0.00  0.00     0.395 HD
ENDBRANCH   1   7
TORSDOF 1
ENDMDL
