MODEL 1
REMARK minimizedAffinity 3.34158874
REMARK minimizedRMSD -1
REMARK  1 active torsions:
REMARK  status: ('A' for Active; 'I' for Inactive)
REMARK    1  A    between atoms: N_2  and  C1_3 
ROOT
ATOM      1  C1  UNL d   1       2.628  -0.986   4.223  0.00  0.00     0.143 A 
ATOM      2  C2  UNL d   1       1.618  -1.953   4.243  0.00  0.00    -0.057 A 
ATOM      3  C3  UNL d   1       0.827  -2.201   3.115  0.00  0.00     0.033 A 
ATOM      4  C4  UNL d   1       1.013  -1.462   1.951  0.00  0.00    -0.042 A 
ATOM      5  C5  UNL d   1       1.995  -0.477   1.916  0.00  0.00     0.033 A 
ATOM      6  C6  UNL d   1       2.786  -0.240   3.044  0.00  0.00    -0.057 A 
ENDROOT
BRANCH   1   7
ATOM      7  N   UNL d   1       3.382  -0.625   5.342  0.00  0.00    -0.732 N 
ATOM      8  C   UNL d   1       4.584  -1.352   5.687  0.00  0.00     0.284 C 
ATOM      9  H3  UNL d   1       3.461   0.384   5.448  0.00  0.00     0.395 HD
ENDBRANCH   1   7
TORSDOF 1
ENDMDL
