MODEL 1
REMARK minimizedAffinity 5.63360643
REMARK minimizedRMSD -1
REMARK  1 active torsions:
REMARK  status: ('A' for Active; 'I' for Inactive)
REMARK    1  A    between atoms: N_2  and  C1_3 
ROOT
ATOM      1  C1  UNL d   1       0.863   4.903  -0.400  0.00  0.00     0.143 A 
ATOM      2  C2  UNL d   1       0.671   3.871  -1.324  0.00  0.00    -0.057 A 
ATOM      3  C3  UNL d   1      -0.378   3.911  -2.251  0.00  0.00     0.033 A 
ATOM      4  C4  UNL d   1      -1.274   4.975  -2.249  0.00  0.00    -0.042 A 
ATOM      5  C5  UNL d   1      -1.118   6.000  -1.323  0.00  0.00     0.033 A 
ATOM      6  C6  UNL d   1      -0.064   5.957  -0.405  0.00  0.00    -0.057 A 
ENDROOT
BRANCH   1   7
ATOM      7  N   UNL d   1       1.827   4.873   0.611  0.00  0.00    -0.732 N 
ATOM      8  C   UNL d   1       2.629   3.688   0.830  0.00  0.00     0.284 C 
ATOM      9  H3  UNL d   1       2.347   5.745   0.677  0.00  0.00     0.395 HD
ENDBRANCH   1   7
TORSDOF 1
ENDMDL
