MODEL 1
REMARK minimizedAffinity -4.28783512
REMARK minimizedRMSD -1
REMARK  0 active torsions:
REMARK  status: ('A' for Active; 'I' for Inactive)
ROOT
ATOM      1  O1  BZF d   1       2.192   0.968   0.476  0.00  0.00    -0.204 OA
ATOM      2  C2  BZF d   1       3.000   0.607   1.537  0.00  0.00     0.174 A 
ATOM      3  C3  BZF d   1       2.259   0.304   2.622  0.00  0.00    -0.012 A 
ATOM      4  C3A BZF d   1       0.899   0.398   2.186  0.00  0.00    -0.107 A 
ATOM      5  C4  BZF d   1      -0.301   0.197   2.806  0.00  0.00     0.055 A 
ATOM      6  C5  BZF d   1      -1.448   0.444   2.120  0.00  0.00    -0.016 A 
ATOM      7  C6  BZF d   1      -1.432   0.897   0.817  0.00  0.00     0.022 A 
ATOM      8  C7  BZF d   1      -0.265   1.107   0.159  0.00  0.00     0.029 A 
ATOM      9  C7A BZF d   1       0.895   0.826   0.839  0.00  0.00     0.058 A 
ENDROOT
TORSDOF 0
ENDMDL
