MODEL 1
REMARK minimizedAffinity -2.31974483
REMARK minimizedRMSD -1
REMARK  0 active torsions:
REMARK  status: ('A' for Active; 'I' for Inactive)
ROOT
ATOM      1  O1  BZF d   1       1.294  -0.660   0.779  0.00  0.00    -0.204 OA
ATOM      2  C2  BZF d   1       2.398   0.126   0.510  0.00  0.00     0.174 A 
ATOM      3  C3  BZF d   1       2.267   1.344   1.073  0.00  0.00    -0.012 A 
ATOM      4  C3A BZF d   1       1.044   1.286   1.813  0.00  0.00    -0.107 A 
ATOM      5  C4  BZF d   1       0.380   2.183   2.601  0.00  0.00     0.055 A 
ATOM      6  C5  BZF d   1      -0.829   1.839   3.119  0.00  0.00    -0.016 A 
ATOM      7  C6  BZF d   1      -1.404   0.611   2.867  0.00  0.00     0.022 A 
ATOM      8  C7  BZF d   1      -0.781  -0.314   2.096  0.00  0.00     0.029 A 
ATOM      9  C7A BZF d   1       0.455   0.019   1.598  0.00  0.00     0.058 A 
ENDROOT
TORSDOF 0
ENDMDL
