MODEL 1
REMARK minimizedAffinity -3.86844873
REMARK minimizedRMSD -1
REMARK  0 active torsions:
REMARK  status: ('A' for Active; 'I' for Inactive)
ROOT
ATOM      1  O1  BZF d   1       1.642   0.375   0.385  0.00  0.00    -0.204 OA
ATOM      2  C2  BZF d   1       2.216   1.124   1.394  0.00  0.00     0.174 A 
ATOM      3  C3  BZF d   1       1.311   1.409   2.353  0.00  0.00    -0.012 A 
ATOM      4  C3A BZF d   1       0.118   0.722   1.961  0.00  0.00    -0.107 A 
ATOM      5  C4  BZF d   1      -1.124   0.606   2.515  0.00  0.00     0.055 A 
ATOM      6  C5  BZF d   1      -2.087  -0.078   1.843  0.00  0.00    -0.016 A 
ATOM      7  C6  BZF d   1      -1.843  -0.654   0.613  0.00  0.00     0.022 A 
ATOM      8  C7  BZF d   1      -0.625  -0.570   0.025  0.00  0.00     0.029 A 
ATOM      9  C7A BZF d   1       0.359   0.092   0.717  0.00  0.00     0.058 A 
ENDROOT
TORSDOF 0
ENDMDL
