MODEL 1
REMARK minimizedAffinity -4.372118
REMARK minimizedRMSD -1
REMARK  0 active torsions:
REMARK  status: ('A' for Active; 'I' for Inactive)
ROOT
ATOM      1  O1  BZF d   1      -0.247  -1.100  -0.250  0.00  0.00    -0.204 OA
ATOM      2  C2  BZF d   1      -1.539  -0.652  -0.051  0.00  0.00     0.174 A 
ATOM      3  C3  BZF d   1      -1.554   0.412   0.778  0.00  0.00    -0.012 A 
ATOM      4  C3A BZF d   1      -0.178   0.701   1.044  0.00  0.00    -0.107 A 
ATOM      5  C4  BZF d   1       0.453   1.656   1.789  0.00  0.00     0.055 A 
ATOM      6  C5  BZF d   1       1.807   1.618   1.901  0.00  0.00    -0.016 A 
ATOM      7  C6  BZF d   1       2.559   0.637   1.287  0.00  0.00     0.022 A 
ATOM      8  C7  BZF d   1       1.978  -0.328   0.535  0.00  0.00     0.029 A 
ATOM      9  C7A BZF d   1       0.613  -0.273   0.392  0.00  0.00     0.058 A 
ENDROOT
TORSDOF 0
ENDMDL
