MODEL 1
REMARK minimizedAffinity 0.405061781
REMARK minimizedRMSD -1
REMARK  0 active torsions:
REMARK  status: ('A' for Active; 'I' for Inactive)
ROOT
ATOM      1  O1  BZF d   1      -2.457   0.126   1.948  0.00  0.00    -0.204 OA
ATOM      2  C2  BZF d   1      -2.622  -0.528   0.743  0.00  0.00     0.174 A 
ATOM      3  C3  BZF d   1      -1.493  -0.470   0.008  0.00  0.00    -0.012 A 
ATOM      4  C3A BZF d   1      -0.534   0.187   0.843  0.00  0.00    -0.107 A 
ATOM      5  C4  BZF d   1       0.779   0.525   0.678  0.00  0.00     0.055 A 
ATOM      6  C5  BZF d   1       1.408   1.225   1.658  0.00  0.00    -0.016 A 
ATOM      7  C6  BZF d   1       0.755   1.608   2.811  0.00  0.00     0.022 A 
ATOM      8  C7  BZF d   1      -0.546   1.291   3.022  0.00  0.00     0.029 A 
ATOM      9  C7A BZF d   1      -1.176   0.555   2.048  0.00  0.00     0.058 A 
ENDROOT
TORSDOF 0
ENDMDL
