MODEL 1
REMARK minimizedAffinity 1.67904341
REMARK minimizedRMSD -1
REMARK  0 active torsions:
REMARK  status: ('A' for Active; 'I' for Inactive)
ROOT
ATOM      1  O1  BZF d   1      -0.039   1.830   3.259  0.00  0.00    -0.204 OA
ATOM      2  C2  BZF d   1      -0.817   0.953   3.990  0.00  0.00     0.174 A 
ATOM      3  C3  BZF d   1      -1.472   0.101   3.176  0.00  0.00    -0.012 A 
ATOM      4  C3A BZF d   1      -1.009   0.409   1.858  0.00  0.00    -0.107 A 
ATOM      5  C4  BZF d   1      -1.281  -0.106   0.622  0.00  0.00     0.055 A 
ATOM      6  C5  BZF d   1      -0.716   0.469  -0.472  0.00  0.00    -0.016 A 
ATOM      7  C6  BZF d   1       0.120   1.561  -0.368  0.00  0.00     0.022 A 
ATOM      8  C7  BZF d   1       0.424   2.104   0.836  0.00  0.00     0.029 A 
ATOM      9  C7A BZF d   1      -0.119   1.505   1.946  0.00  0.00     0.058 A 
ENDROOT
TORSDOF 0
ENDMDL
