MODEL 1
REMARK minimizedAffinity 1.05942082
REMARK minimizedRMSD -1
REMARK  0 active torsions:
REMARK  status: ('A' for Active; 'I' for Inactive)
ROOT
ATOM      1  O1  BZF d   1       1.425   1.610   2.816  0.00  0.00    -0.204 OA
ATOM      2  C2  BZF d   1       2.268   1.674   1.723  0.00  0.00     0.174 A 
ATOM      3  C3  BZF d   1       1.703   1.087   0.648  0.00  0.00    -0.012 A 
ATOM      4  C3A BZF d   1       0.390   0.708   1.073  0.00  0.00    -0.107 A 
ATOM      5  C4  BZF d   1      -0.659   0.097   0.448  0.00  0.00     0.055 A 
ATOM      6  C5  BZF d   1      -1.776  -0.195   1.165  0.00  0.00    -0.016 A 
ATOM      7  C6  BZF d   1      -1.876   0.106   2.508  0.00  0.00     0.022 A 
ATOM      8  C7  BZF d   1      -0.863   0.717   3.170  0.00  0.00     0.029 A 
ATOM      9  C7A BZF d   1       0.254   1.043   2.440  0.00  0.00     0.058 A 
ENDROOT
TORSDOF 0
ENDMDL
