MODEL 1
REMARK minimizedAffinity 2.85530353
REMARK minimizedRMSD -1
REMARK  0 active torsions:
REMARK  status: ('A' for Active; 'I' for Inactive)
ROOT
ATOM      1  O1  BZF d   1      -1.925  -0.107   1.904  0.00  0.00    -0.204 OA
ATOM      2  C2  BZF d   1      -1.961  -0.813   0.717  0.00  0.00     0.174 A 
ATOM      3  C3  BZF d   1      -0.992  -0.390  -0.120  0.00  0.00    -0.012 A 
ATOM      4  C3A BZF d   1      -0.250   0.582   0.623  0.00  0.00    -0.107 A 
ATOM      5  C4  BZF d   1       0.844   1.348   0.338  0.00  0.00     0.055 A 
ATOM      6  C5  BZF d   1       1.275   2.251   1.257  0.00  0.00    -0.016 A 
ATOM      7  C6  BZF d   1       0.635   2.418   2.467  0.00  0.00     0.022 A 
ATOM      8  C7  BZF d   1      -0.451   1.678   2.798  0.00  0.00     0.029 A 
ATOM      9  C7A BZF d   1      -0.870   0.741   1.885  0.00  0.00     0.058 A 
ENDROOT
TORSDOF 0
ENDMDL
