MODEL 1
REMARK minimizedAffinity 2.24674654
REMARK minimizedRMSD -1
REMARK  0 active torsions:
REMARK  status: ('A' for Active; 'I' for Inactive)
ROOT
ATOM      1  O1  BZF d   1      -0.710   0.387  -0.577  0.00  0.00    -0.204 OA
ATOM      2  C2  BZF d   1      -1.750  -0.521  -0.553  0.00  0.00     0.174 A 
ATOM      3  C3  BZF d   1      -2.181  -0.723   0.709  0.00  0.00    -0.012 A 
ATOM      4  C3A BZF d   1      -1.420   0.182   1.515  0.00  0.00    -0.107 A 
ATOM      5  C4  BZF d   1      -1.402   0.462   2.852  0.00  0.00     0.055 A 
ATOM      6  C5  BZF d   1      -0.488   1.346   3.330  0.00  0.00    -0.016 A 
ATOM      7  C6  BZF d   1       0.426   1.964   2.502  0.00  0.00     0.022 A 
ATOM      8  C7  BZF d   1       0.444   1.722   1.168  0.00  0.00     0.029 A 
ATOM      9  C7A BZF d   1      -0.500   0.854   0.677  0.00  0.00     0.058 A 
ENDROOT
TORSDOF 0
ENDMDL
