MODEL 1
REMARK minimizedAffinity -0.802151263
REMARK minimizedRMSD -1
REMARK  0 active torsions:
REMARK  status: ('A' for Active; 'I' for Inactive)
ROOT
ATOM      1  O1  BZF d   1       1.630   1.141   2.305  0.00  0.00    -0.204 OA
ATOM      2  C2  BZF d   1       2.363   1.203   1.135  0.00  0.00     0.174 A 
ATOM      3  C3  BZF d   1       1.603   0.855   0.077  0.00  0.00    -0.012 A 
ATOM      4  C3A BZF d   1       0.291   0.646   0.607  0.00  0.00    -0.107 A 
ATOM      5  C4  BZF d   1      -0.904   0.297   0.046  0.00  0.00     0.055 A 
ATOM      6  C5  BZF d   1      -1.981   0.104   0.852  0.00  0.00    -0.016 A 
ATOM      7  C6  BZF d   1      -1.898   0.247   2.221  0.00  0.00     0.022 A 
ATOM      8  C7  BZF d   1      -0.735   0.597   2.824  0.00  0.00     0.029 A 
ATOM      9  C7A BZF d   1       0.347   0.824   2.009  0.00  0.00     0.058 A 
ENDROOT
TORSDOF 0
ENDMDL
