MODEL 1
REMARK minimizedAffinity -5.72514486
REMARK minimizedRMSD -1
REMARK  1 active torsions:
REMARK  status: ('A' for Active; 'I' for Inactive)
REMARK    1  A    between atoms: C1_2  and  C2_3 
ROOT
ATOM      1  C2  UNL d   1       0.721  -1.451   0.969  0.00  0.00    -0.073 A 
ATOM      2  C3  UNL d   1      -0.654  -1.204   1.033  0.00  0.00    -0.002 A 
ATOM      3  C4  UNL d   1      -1.165   0.040   0.659  0.00  0.00     0.004 A 
ATOM      4  C5  UNL d   1      -0.308   1.045   0.210  0.00  0.00    -0.004 A 
ATOM      5  C6  UNL d   1       1.069   0.812   0.128  0.00  0.00    -0.075 A 
ATOM      6  C7  UNL d   1       2.005   1.883  -0.351  0.00  0.00     0.076 C 
ATOM      7  C8  UNL d   1       1.574  -0.438   0.508  0.00  0.00     0.001 A 
ENDROOT
BRANCH   1   8
ATOM      8  C1  UNL d   1       1.277  -2.795   1.365  0.00  0.00     0.053 C 
ATOM      9  C   UNL d   1       2.599  -3.091   0.676  0.00  0.00     0.018 C 
ENDBRANCH   1   8
TORSDOF 1
ENDMDL
