MODEL 1
REMARK minimizedAffinity -2.14370084
REMARK minimizedRMSD -1
REMARK  1 active torsions:
REMARK  status: ('A' for Active; 'I' for Inactive)
REMARK    1  A    between atoms: C1_2  and  C2_3 
ROOT
ATOM      1  C2  UNL d   1       0.402  -1.561   1.211  0.00  0.00    -0.073 A 
ATOM      2  C3  UNL d   1      -0.979  -1.341   1.246  0.00  0.00    -0.002 A 
ATOM      3  C4  UNL d   1      -1.555  -0.347   0.454  0.00  0.00     0.004 A 
ATOM      4  C5  UNL d   1      -0.758   0.432  -0.384  0.00  0.00    -0.004 A 
ATOM      5  C6  UNL d   1       0.623   0.219  -0.442  0.00  0.00    -0.075 A 
ATOM      6  C7  UNL d   1       1.495   1.050  -1.338  0.00  0.00     0.076 C 
ATOM      7  C8  UNL d   1       1.194  -0.780   0.358  0.00  0.00     0.001 A 
ENDROOT
BRANCH   1   8
ATOM      8  C1  UNL d   1       1.028  -2.638   2.060  0.00  0.00     0.053 C 
ATOM      9  C   UNL d   1       0.510  -2.611   3.489  0.00  0.00     0.018 C 
ENDBRANCH   1   8
TORSDOF 1
ENDMDL
