MODEL 1
REMARK minimizedAffinity -2.82374811
REMARK minimizedRMSD -1
REMARK  1 active torsions:
REMARK  status: ('A' for Active; 'I' for Inactive)
REMARK    1  A    between atoms: C1_2  and  C2_3 
ROOT
ATOM      1  C2  UNL d   1      -1.771  -0.840   0.410  0.00  0.00    -0.073 A 
ATOM      2  C3  UNL d   1      -2.591   0.206   0.847  0.00  0.00    -0.002 A 
ATOM      3  C4  UNL d   1      -2.234   1.532   0.599  0.00  0.00     0.004 A 
ATOM      4  C5  UNL d   1      -1.059   1.825  -0.094  0.00  0.00    -0.004 A 
ATOM      5  C6  UNL d   1      -0.233   0.793  -0.550  0.00  0.00    -0.075 A 
ATOM      6  C7  UNL d   1       1.035   1.092  -1.294  0.00  0.00     0.076 C 
ATOM      7  C8  UNL d   1      -0.597  -0.536  -0.294  0.00  0.00     0.001 A 
ENDROOT
BRANCH   1   8
ATOM      8  C1  UNL d   1      -2.155  -2.274   0.669  0.00  0.00     0.053 C 
ATOM      9  C   UNL d   1      -1.644  -2.766   2.014  0.00  0.00     0.018 C 
ENDBRANCH   1   8
TORSDOF 1
ENDMDL
