MODEL 1
REMARK minimizedAffinity 1.60130036
REMARK minimizedRMSD -1
REMARK  1 active torsions:
REMARK  status: ('A' for Active; 'I' for Inactive)
REMARK    1  A    between atoms: C1_2  and  C2_3 
ROOT
ATOM      1  C2  UNL d   1      -0.124   0.583  -1.736  0.00  0.00    -0.073 A 
ATOM      2  C3  UNL d   1       0.318   1.717  -1.045  0.00  0.00    -0.002 A 
ATOM      3  C4  UNL d   1       0.213   1.780   0.345  0.00  0.00     0.004 A 
ATOM      4  C5  UNL d   1      -0.325   0.710   1.059  0.00  0.00    -0.004 A 
ATOM      5  C6  UNL d   1      -0.761  -0.437   0.387  0.00  0.00    -0.075 A 
ATOM      6  C7  UNL d   1      -1.345  -1.597   1.140  0.00  0.00     0.076 C 
ATOM      7  C8  UNL d   1      -0.655  -0.492  -1.009  0.00  0.00     0.001 A 
ENDROOT
BRANCH   1   8
ATOM      8  C1  UNL d   1      -0.007   0.507  -3.236  0.00  0.00     0.053 C 
ATOM      9  C   UNL d   1       0.222   1.874  -3.860  0.00  0.00     0.018 C 
ENDBRANCH   1   8
TORSDOF 1
ENDMDL
