MODEL 1
REMARK minimizedAffinity -3.77056122
REMARK minimizedRMSD -1
REMARK  1 active torsions:
REMARK  status: ('A' for Active; 'I' for Inactive)
REMARK    1  A    between atoms: C1_2  and  C2_3 
ROOT
ATOM      1  C2  UNL d   1       0.218   0.855  -0.879  0.00  0.00    -0.073 A 
ATOM      2  C3  UNL d   1      -0.417   1.015  -2.116  0.00  0.00    -0.002 A 
ATOM      3  C4  UNL d   1       0.184   1.770  -3.124  0.00  0.00     0.004 A 
ATOM      4  C5  UNL d   1       1.426   2.367  -2.909  0.00  0.00    -0.004 A 
ATOM      5  C6  UNL d   1       2.082   2.209  -1.683  0.00  0.00    -0.075 A 
ATOM      6  C7  UNL d   1       3.417   2.846  -1.434  0.00  0.00     0.076 C 
ATOM      7  C8  UNL d   1       1.470   1.451  -0.675  0.00  0.00     0.001 A 
ENDROOT
BRANCH   1   8
ATOM      8  C1  UNL d   1      -0.424   0.035   0.210  0.00  0.00     0.053 C 
ATOM      9  C   UNL d   1       0.529  -1.006   0.777  0.00  0.00     0.018 C 
ENDBRANCH   1   8
TORSDOF 1
ENDMDL
