MODEL 1
REMARK minimizedAffinity -6.41832972
REMARK minimizedRMSD -1
REMARK  1 active torsions:
REMARK  status: ('A' for Active; 'I' for Inactive)
REMARK    1  A    between atoms: C1_2  and  C2_3 
ROOT
ATOM      1  C2  UNL d   1       0.336   0.197  -0.401  0.00  0.00    -0.073 A 
ATOM      2  C3  UNL d   1       0.736  -1.123  -0.164  0.00  0.00    -0.002 A 
ATOM      3  C4  UNL d   1      -0.007  -1.943   0.686  0.00  0.00     0.004 A 
ATOM      4  C5  UNL d   1      -1.160  -1.455   1.301  0.00  0.00    -0.004 A 
ATOM      5  C6  UNL d   1      -1.582  -0.142   1.068  0.00  0.00    -0.075 A 
ATOM      6  C7  UNL d   1      -2.819   0.398   1.724  0.00  0.00     0.076 C 
ATOM      7  C8  UNL d   1      -0.829   0.676   0.215  0.00  0.00     0.001 A 
ENDROOT
BRANCH   1   8
ATOM      8  C1  UNL d   1       1.132   1.085  -1.323  0.00  0.00     0.053 C 
ATOM      9  C   UNL d   1       0.276   1.659  -2.440  0.00  0.00     0.018 C 
ENDBRANCH   1   8
TORSDOF 1
ENDMDL
