MODEL 1
REMARK minimizedAffinity -3.83396602
REMARK minimizedRMSD -1
REMARK  1 active torsions:
REMARK  status: ('A' for Active; 'I' for Inactive)
REMARK    1  A    between atoms: C1_2  and  C2_3 
ROOT
ATOM      1  C2  UNL d   1      -0.356  -0.166  -0.178  0.00  0.00    -0.073 A 
ATOM      2  C3  UNL d   1      -1.748  -0.131  -0.037  0.00  0.00    -0.002 A 
ATOM      3  C4  UNL d   1      -2.411  -1.140   0.664  0.00  0.00     0.004 A 
ATOM      4  C5  UNL d   1      -1.689  -2.188   1.235  0.00  0.00    -0.004 A 
ATOM      5  C6  UNL d   1      -0.296  -2.234   1.115  0.00  0.00    -0.075 A 
ATOM      6  C7  UNL d   1       0.495  -3.355   1.722  0.00  0.00     0.076 C 
ATOM      7  C8  UNL d   1       0.361  -1.218   0.408  0.00  0.00     0.001 A 
ENDROOT
BRANCH   1   8
ATOM      8  C1  UNL d   1       0.364   0.925  -0.928  0.00  0.00     0.053 C 
ATOM      9  C   UNL d   1       0.407   2.225  -0.141  0.00  0.00     0.018 C 
ENDBRANCH   1   8
TORSDOF 1
ENDMDL
