MODEL 1
REMARK minimizedAffinity -4.68414354
REMARK minimizedRMSD -1
REMARK  1 active torsions:
REMARK  status: ('A' for Active; 'I' for Inactive)
REMARK    1  A    between atoms: C1_2  and  C2_3 
ROOT
ATOM      1  C2  UNL d   1       0.311  -0.183  -0.034  0.00  0.00    -0.073 A 
ATOM      2  C3  UNL d   1       0.734  -1.514   0.046  0.00  0.00    -0.002 A 
ATOM      3  C4  UNL d   1       0.084  -2.410   0.895  0.00  0.00     0.004 A 
ATOM      4  C5  UNL d   1      -0.998  -1.987   1.667  0.00  0.00    -0.004 A 
ATOM      5  C6  UNL d   1      -1.443  -0.663   1.591  0.00  0.00    -0.075 A 
ATOM      6  C7  UNL d   1      -2.605  -0.192   2.417  0.00  0.00     0.076 C 
ATOM      7  C8  UNL d   1      -0.783   0.231   0.738  0.00  0.00     0.001 A 
ENDROOT
BRANCH   1   8
ATOM      8  C1  UNL d   1       1.006   0.787  -0.955  0.00  0.00     0.053 C 
ATOM      9  C   UNL d   1       0.062   1.354  -2.003  0.00  0.00     0.018 C 
ENDBRANCH   1   8
TORSDOF 1
ENDMDL
