MODEL 1
REMARK minimizedAffinity -4.43740702
REMARK minimizedRMSD -1
REMARK  1 active torsions:
REMARK  status: ('A' for Active; 'I' for Inactive)
REMARK    1  A    between atoms: C1_2  and  C2_3 
ROOT
ATOM      1  C2  UNL d   1      -0.049  -1.699   0.607  0.00  0.00    -0.073 A 
ATOM      2  C3  UNL d   1       1.277  -1.480   0.220  0.00  0.00    -0.002 A 
ATOM      3  C4  UNL d   1       1.710  -0.198  -0.119  0.00  0.00     0.004 A 
ATOM      4  C5  UNL d   1       0.824   0.879  -0.067  0.00  0.00    -0.004 A 
ATOM      5  C6  UNL d   1      -0.502   0.682   0.330  0.00  0.00    -0.075 A 
ATOM      6  C7  UNL d   1      -1.468   1.829   0.389  0.00  0.00     0.076 C 
ATOM      7  C8  UNL d   1      -0.930  -0.610   0.666  0.00  0.00     0.001 A 
ENDROOT
BRANCH   1   8
ATOM      8  C1  UNL d   1      -0.519  -3.082   0.980  0.00  0.00     0.053 C 
ATOM      9  C   UNL d   1      -2.022  -3.131   1.207  0.00  0.00     0.018 C 
ENDBRANCH   1   8
TORSDOF 1
ENDMDL
