MODEL 1
REMARK minimizedAffinity -4.91537476
REMARK minimizedRMSD -1
REMARK  1 active torsions:
REMARK  status: ('A' for Active; 'I' for Inactive)
REMARK    1  A    between atoms: C1_2  and  C2_3 
ROOT
ATOM      1  C2  UNL d   1      -0.864  -0.982   0.284  0.00  0.00    -0.073 A 
ATOM      2  C3  UNL d   1      -0.897   0.380  -0.037  0.00  0.00    -0.002 A 
ATOM      3  C4  UNL d   1       0.290   1.084  -0.242  0.00  0.00     0.004 A 
ATOM      4  C5  UNL d   1       1.520   0.435  -0.135  0.00  0.00    -0.004 A 
ATOM      5  C6  UNL d   1       1.573  -0.929   0.174  0.00  0.00    -0.075 A 
ATOM      6  C7  UNL d   1       2.888  -1.642   0.295  0.00  0.00     0.076 C 
ATOM      7  C8  UNL d   1       0.377  -1.629   0.381  0.00  0.00     0.001 A 
ENDROOT
BRANCH   1   8
ATOM      8  C1  UNL d   1      -2.143  -1.749   0.500  0.00  0.00     0.053 C 
ATOM      9  C   UNL d   1      -1.887  -3.140   1.058  0.00  0.00     0.018 C 
ENDBRANCH   1   8
TORSDOF 1
ENDMDL
