MODEL 1
REMARK minimizedAffinity -3.98656034
REMARK minimizedRMSD -1
REMARK  0 active torsions:
REMARK  status: ('A' for Active; 'I' for Inactive)
ROOT
ATOM      1  C2' OXE d   1       4.899  -2.637   5.676  0.00  0.00     0.078 C 
ATOM      2  C1' OXE d   1       4.877  -5.438   5.853  0.00  0.00     0.078 C 
ATOM      3  C1  OXE d   1       5.291  -4.819   4.541  0.00  0.00    -0.078 A 
ATOM      4  C2  OXE d   1       5.253  -3.449   4.449  0.00  0.00    -0.078 A 
ATOM      5  C3  OXE d   1       5.677  -2.825   3.279  0.00  0.00     0.003 A 
ATOM      6  C4  OXE d   1       5.994  -3.583   2.146  0.00  0.00    -0.002 A 
ATOM      7  C5  OXE d   1       6.000  -4.981   2.206  0.00  0.00    -0.002 A 
ATOM      8  C6  OXE d   1       5.693  -5.613   3.406  0.00  0.00     0.003 A 
ENDROOT
TORSDOF 0
ENDMDL
