MODEL 1
REMARK minimizedAffinity -3.95574474
REMARK minimizedRMSD -1
REMARK  0 active torsions:
REMARK  status: ('A' for Active; 'I' for Inactive)
ROOT
ATOM      1  C2' OXE d   1       5.996  -2.974   5.997  0.00  0.00     0.078 C 
ATOM      2  C1' OXE d   1       6.000  -5.713   5.382  0.00  0.00     0.078 C 
ATOM      3  C1  OXE d   1       5.964  -4.735   4.235  0.00  0.00    -0.078 A 
ATOM      4  C2  OXE d   1       5.915  -3.397   4.546  0.00  0.00    -0.078 A 
ATOM      5  C3  OXE d   1       5.936  -2.451   3.526  0.00  0.00     0.003 A 
ATOM      6  C4  OXE d   1       5.850  -2.850   2.187  0.00  0.00    -0.002 A 
ATOM      7  C5  OXE d   1       5.858  -4.208   1.849  0.00  0.00    -0.002 A 
ATOM      8  C6  OXE d   1       5.958  -5.160   2.857  0.00  0.00     0.003 A 
ENDROOT
TORSDOF 0
ENDMDL
