MODEL 1
REMARK minimizedAffinity -1.47499168
REMARK minimizedRMSD -1
REMARK  0 active torsions:
REMARK  status: ('A' for Active; 'I' for Inactive)
ROOT
ATOM      1  C2' OXE d   1       3.282  -4.878   4.739  0.00  0.00     0.078 C 
ATOM      2  C1' OXE d   1       4.949  -3.004   5.999  0.00  0.00     0.078 C 
ATOM      3  C1  OXE d   1       5.038  -3.127   4.499  0.00  0.00    -0.078 A 
ATOM      4  C2  OXE d   1       4.252  -4.079   3.895  0.00  0.00    -0.078 A 
ATOM      5  C3  OXE d   1       4.255  -4.197   2.508  0.00  0.00     0.003 A 
ATOM      6  C4  OXE d   1       5.162  -3.462   1.736  0.00  0.00    -0.002 A 
ATOM      7  C5  OXE d   1       6.000  -2.515   2.335  0.00  0.00    -0.002 A 
ATOM      8  C6  OXE d   1       5.920  -2.305   3.707  0.00  0.00     0.003 A 
ENDROOT
TORSDOF 0
ENDMDL
