MODEL 1
REMARK minimizedAffinity -2.72394395
REMARK minimizedRMSD -1
REMARK  0 active torsions:
REMARK  status: ('A' for Active; 'I' for Inactive)
ROOT
ATOM      1  C2' OXE d   1       5.880  -2.482   5.998  0.00  0.00     0.078 C 
ATOM      2  C1' OXE d   1       5.858  -5.288   5.927  0.00  0.00     0.078 C 
ATOM      3  C1  OXE d   1       5.923  -4.552   4.613  0.00  0.00    -0.078 A 
ATOM      4  C2  OXE d   1       5.887  -3.179   4.655  0.00  0.00    -0.078 A 
ATOM      5  C3  OXE d   1       5.999  -2.450   3.474  0.00  0.00     0.003 A 
ATOM      6  C4  OXE d   1       5.994  -3.102   2.235  0.00  0.00    -0.002 A 
ATOM      7  C5  OXE d   1       5.992  -4.500   2.168  0.00  0.00    -0.002 A 
ATOM      8  C6  OXE d   1       5.999  -5.238   3.346  0.00  0.00     0.003 A 
ENDROOT
TORSDOF 0
ENDMDL
