MODEL 1
REMARK minimizedAffinity -2.85655594
REMARK minimizedRMSD -1
REMARK  0 active torsions:
REMARK  status: ('A' for Active; 'I' for Inactive)
ROOT
ATOM      1  C2' OXE d   1       5.888  -2.742   5.940  0.00  0.00     0.078 C 
ATOM      2  C1' OXE d   1       5.865  -5.549   5.978  0.00  0.00     0.078 C 
ATOM      3  C1  OXE d   1       5.927  -4.865   4.636  0.00  0.00    -0.078 A 
ATOM      4  C2  OXE d   1       5.890  -3.491   4.624  0.00  0.00    -0.078 A 
ATOM      5  C3  OXE d   1       6.000  -2.809   3.416  0.00  0.00     0.003 A 
ATOM      6  C4  OXE d   1       5.992  -3.508   2.203  0.00  0.00    -0.002 A 
ATOM      7  C5  OXE d   1       5.989  -4.907   2.191  0.00  0.00    -0.002 A 
ATOM      8  C6  OXE d   1       6.000  -5.599   3.397  0.00  0.00     0.003 A 
ENDROOT
TORSDOF 0
ENDMDL
