MODEL 1
REMARK minimizedAffinity -2.87295651
REMARK minimizedRMSD -1
REMARK  0 active torsions:
REMARK  status: ('A' for Active; 'I' for Inactive)
ROOT
ATOM      1  C2' OXE d   1       2.188  -4.519   4.170  0.00  0.00     0.078 C 
ATOM      2  C1' OXE d   1       3.050  -3.159   1.870  0.00  0.00     0.078 C 
ATOM      3  C1  OXE d   1       3.955  -3.144   3.076  0.00  0.00    -0.078 A 
ATOM      4  C2  OXE d   1       3.504  -3.773   4.212  0.00  0.00    -0.078 A 
ATOM      5  C3  OXE d   1       4.323  -3.836   5.336  0.00  0.00     0.003 A 
ATOM      6  C4  OXE d   1       5.535  -3.135   5.371  0.00  0.00    -0.002 A 
ATOM      7  C5  OXE d   1       5.994  -2.455   4.238  0.00  0.00    -0.002 A 
ATOM      8  C6  OXE d   1       5.238  -2.486   3.071  0.00  0.00     0.003 A 
ENDROOT
TORSDOF 0
ENDMDL
