MODEL 1
REMARK minimizedAffinity -1.6300602
REMARK minimizedRMSD -1
REMARK  0 active torsions:
REMARK  status: ('A' for Active; 'I' for Inactive)
ROOT
ATOM      1  C2' OXE d   1       5.240  -1.508   4.131  0.00  0.00     0.078 C 
ATOM      2  C1' OXE d   1       5.992  -1.849   1.448  0.00  0.00     0.078 C 
ATOM      3  C1  OXE d   1       5.819  -3.086   2.292  0.00  0.00    -0.078 A 
ATOM      4  C2  OXE d   1       5.496  -2.908   3.616  0.00  0.00    -0.078 A 
ATOM      5  C3  OXE d   1       5.271  -4.017   4.426  0.00  0.00     0.003 A 
ATOM      6  C4  OXE d   1       5.520  -5.308   3.945  0.00  0.00    -0.002 A 
ATOM      7  C5  OXE d   1       5.888  -5.510   2.610  0.00  0.00    -0.002 A 
ATOM      8  C6  OXE d   1       6.000  -4.415   1.761  0.00  0.00     0.003 A 
ENDROOT
TORSDOF 0
ENDMDL
