MODEL 1
REMARK minimizedAffinity -0.780879736
REMARK minimizedRMSD -1
REMARK  0 active torsions:
REMARK  status: ('A' for Active; 'I' for Inactive)
ROOT
ATOM      1  C2' OXE d   1       5.998  -4.380   1.438  0.00  0.00     0.078 C 
ATOM      2  C1' OXE d   1       5.992  -1.620   1.953  0.00  0.00     0.078 C 
ATOM      3  C1  OXE d   1       5.984  -2.556   3.135  0.00  0.00    -0.078 A 
ATOM      4  C2  OXE d   1       5.940  -3.904   2.874  0.00  0.00    -0.078 A 
ATOM      5  C3  OXE d   1       5.986  -4.812   3.928  0.00  0.00     0.003 A 
ATOM      6  C4  OXE d   1       5.922  -4.364   5.253  0.00  0.00    -0.002 A 
ATOM      7  C5  OXE d   1       5.926  -2.995   5.541  0.00  0.00    -0.002 A 
ATOM      8  C6  OXE d   1       6.000  -2.080   4.496  0.00  0.00     0.003 A 
ENDROOT
TORSDOF 0
ENDMDL
