MODEL 1
REMARK minimizedAffinity -3.44461131
REMARK minimizedRMSD -1
REMARK  0 active torsions:
REMARK  status: ('A' for Active; 'I' for Inactive)
ROOT
ATOM      1  C2' OXE d   1       5.998  -4.480   6.000  0.00  0.00     0.078 C 
ATOM      2  C1' OXE d   1       6.000  -3.091   3.561  0.00  0.00     0.078 C 
ATOM      3  C1  OXE d   1       4.667  -3.496   4.139  0.00  0.00    -0.078 A 
ATOM      4  C2  OXE d   1       4.677  -4.216   5.309  0.00  0.00    -0.078 A 
ATOM      5  C3  OXE d   1       3.474  -4.567   5.913  0.00  0.00     0.003 A 
ATOM      6  C4  OXE d   1       2.257  -4.327   5.263  0.00  0.00    -0.002 A 
ATOM      7  C5  OXE d   1       2.226  -3.630   4.050  0.00  0.00    -0.002 A 
ATOM      8  C6  OXE d   1       3.417  -3.171   3.497  0.00  0.00     0.003 A 
ENDROOT
TORSDOF 0
ENDMDL
