MODEL 1
REMARK minimizedAffinity -3.35831213
REMARK minimizedRMSD -1
REMARK  0 active torsions:
REMARK  status: ('A' for Active; 'I' for Inactive)
ROOT
ATOM      1  C2' OXE d   1       5.107  -2.971   5.995  0.00  0.00     0.078 C 
ATOM      2  C1' OXE d   1       5.691  -5.686   5.587  0.00  0.00     0.078 C 
ATOM      3  C1  OXE d   1       5.689  -4.778   4.383  0.00  0.00    -0.078 A 
ATOM      4  C2  OXE d   1       5.357  -3.460   4.585  0.00  0.00    -0.078 A 
ATOM      5  C3  OXE d   1       5.393  -2.568   3.517  0.00  0.00     0.003 A 
ATOM      6  C4  OXE d   1       5.615  -3.031   2.215  0.00  0.00    -0.002 A 
ATOM      7  C5  OXE d   1       5.917  -4.376   1.981  0.00  0.00    -0.002 A 
ATOM      8  C6  OXE d   1       6.000  -5.253   3.057  0.00  0.00     0.003 A 
ENDROOT
TORSDOF 0
ENDMDL
