MODEL 1
REMARK minimizedAffinity 0.320791125
REMARK minimizedRMSD -1
REMARK  0 active torsions:
REMARK  status: ('A' for Active; 'I' for Inactive)
ROOT
ATOM      1  C2' OXE d   1       5.924  -1.059   2.626  0.00  0.00     0.078 C 
ATOM      2  C1' OXE d   1       5.972  -3.742   1.803  0.00  0.00     0.078 C 
ATOM      3  C1  OXE d   1       5.960  -3.461   3.284  0.00  0.00    -0.078 A 
ATOM      4  C2  OXE d   1       5.983  -2.145   3.679  0.00  0.00    -0.078 A 
ATOM      5  C3  OXE d   1       5.918  -1.830   5.033  0.00  0.00     0.003 A 
ATOM      6  C4  OXE d   1       5.983  -2.840   6.000  0.00  0.00    -0.002 A 
ATOM      7  C5  OXE d   1       6.000  -4.186   5.620  0.00  0.00    -0.002 A 
ATOM      8  C6  OXE d   1       5.946  -4.514   4.270  0.00  0.00     0.003 A 
ENDROOT
TORSDOF 0
ENDMDL
