MODEL 1
REMARK minimizedAffinity -2.28467584
REMARK minimizedRMSD -1
REMARK  0 active torsions:
REMARK  status: ('A' for Active; 'I' for Inactive)
ROOT
ATOM      1  C2' OXE d   1       5.934  -2.945   2.244  0.00  0.00     0.078 C 
ATOM      2  C1' OXE d   1       6.000  -5.750   2.184  0.00  0.00     0.078 C 
ATOM      3  C1  OXE d   1       5.971  -5.076   3.533  0.00  0.00    -0.078 A 
ATOM      4  C2  OXE d   1       5.986  -3.702   3.553  0.00  0.00    -0.078 A 
ATOM      5  C3  OXE d   1       5.904  -3.029   4.769  0.00  0.00     0.003 A 
ATOM      6  C4  OXE d   1       5.963  -3.737   5.976  0.00  0.00    -0.002 A 
ATOM      7  C5  OXE d   1       5.988  -5.136   5.978  0.00  0.00    -0.002 A 
ATOM      8  C6  OXE d   1       5.949  -5.820   4.768  0.00  0.00     0.003 A 
ENDROOT
TORSDOF 0
ENDMDL
