MODEL 1
REMARK minimizedAffinity -3.93635654
REMARK minimizedRMSD -1
REMARK  0 active torsions:
REMARK  status: ('A' for Active; 'I' for Inactive)
ROOT
ATOM      1  C2' OXE d   1       5.821  -3.000   5.887  0.00  0.00     0.078 C 
ATOM      2  C1' OXE d   1       5.801  -5.663   5.000  0.00  0.00     0.078 C 
ATOM      3  C1  OXE d   1       5.889  -4.576   3.959  0.00  0.00    -0.078 A 
ATOM      4  C2  OXE d   1       5.850  -3.274   4.399  0.00  0.00    -0.078 A 
ATOM      5  C3  OXE d   1       5.983  -2.233   3.485  0.00  0.00     0.003 A 
ATOM      6  C4  OXE d   1       6.000  -2.496   2.109  0.00  0.00    -0.002 A 
ATOM      7  C5  OXE d   1       6.000  -3.813   1.638  0.00  0.00    -0.002 A 
ATOM      8  C6  OXE d   1       5.987  -4.863   2.549  0.00  0.00     0.003 A 
ENDROOT
TORSDOF 0
ENDMDL
