MODEL 1
REMARK minimizedAffinity 3.2402544
REMARK minimizedRMSD -1
REMARK  0 active torsions:
REMARK  status: ('A' for Active; 'I' for Inactive)
ROOT
ATOM      1  C2' OXE d   1       5.127  -2.106   4.111  0.00  0.00     0.078 C 
ATOM      2  C1' OXE d   1       5.937  -2.265   1.428  0.00  0.00     0.078 C 
ATOM      3  C1  OXE d   1       5.777  -3.555   2.192  0.00  0.00    -0.078 A 
ATOM      4  C2  OXE d   1       5.425  -3.466   3.518  0.00  0.00    -0.078 A 
ATOM      5  C3  OXE d   1       5.211  -4.627   4.254  0.00  0.00     0.003 A 
ATOM      6  C4  OXE d   1       5.499  -5.881   3.701  0.00  0.00    -0.002 A 
ATOM      7  C5  OXE d   1       5.897  -5.992   2.364  0.00  0.00    -0.002 A 
ATOM      8  C6  OXE d   1       5.999  -4.844   1.586  0.00  0.00     0.003 A 
ENDROOT
TORSDOF 0
ENDMDL
