MODEL 1
REMARK minimizedAffinity -0.622064948
REMARK minimizedRMSD -1
REMARK  0 active torsions:
REMARK  status: ('A' for Active; 'I' for Inactive)
ROOT
ATOM      1  C2' OXE d   1       4.118  -2.349   5.998  0.00  0.00     0.078 C 
ATOM      2  C1' OXE d   1       5.999  -4.432   5.978  0.00  0.00     0.078 C 
ATOM      3  C1  OXE d   1       5.513  -3.910   4.649  0.00  0.00    -0.078 A 
ATOM      4  C2  OXE d   1       4.558  -2.923   4.668  0.00  0.00    -0.078 A 
ATOM      5  C3  OXE d   1       4.115  -2.368   3.471  0.00  0.00     0.003 A 
ATOM      6  C4  OXE d   1       4.520  -2.911   2.246  0.00  0.00    -0.002 A 
ATOM      7  C5  OXE d   1       5.463  -3.944   2.204  0.00  0.00    -0.002 A 
ATOM      8  C6  OXE d   1       6.000  -4.425   3.393  0.00  0.00     0.003 A 
ENDROOT
TORSDOF 0
ENDMDL
