MODEL 1
REMARK minimizedAffinity -3.67143345
REMARK minimizedRMSD -1
REMARK  0 active torsions:
REMARK  status: ('A' for Active; 'I' for Inactive)
ROOT
ATOM      1  C2' OXE d   1       5.992  -5.118   2.204  0.00  0.00     0.078 C 
ATOM      2  C1' OXE d   1       5.987  -2.326   1.913  0.00  0.00     0.078 C 
ATOM      3  C1  OXE d   1       5.981  -2.888   3.313  0.00  0.00    -0.078 A 
ATOM      4  C2  OXE d   1       5.937  -4.255   3.445  0.00  0.00    -0.078 A 
ATOM      5  C3  OXE d   1       5.985  -4.826   4.714  0.00  0.00     0.003 A 
ATOM      6  C4  OXE d   1       5.923  -4.020   5.857  0.00  0.00    -0.002 A 
ATOM      7  C5  OXE d   1       5.928  -2.626   5.744  0.00  0.00    -0.002 A 
ATOM      8  C6  OXE d   1       5.999  -2.045   4.482  0.00  0.00     0.003 A 
ENDROOT
TORSDOF 0
ENDMDL
