MODEL 1
REMARK minimizedAffinity -3.11207008
REMARK minimizedRMSD -1
REMARK  0 active torsions:
REMARK  status: ('A' for Active; 'I' for Inactive)
ROOT
ATOM      1  C2' OXE d   1       6.000  -2.759   2.153  0.00  0.00     0.078 C 
ATOM      2  C1' OXE d   1       6.000  -5.542   2.519  0.00  0.00     0.078 C 
ATOM      3  C1  OXE d   1       5.580  -4.680   3.683  0.00  0.00    -0.078 A 
ATOM      4  C2  OXE d   1       5.628  -3.318   3.510  0.00  0.00    -0.078 A 
ATOM      5  C3  OXE d   1       5.198  -2.478   4.533  0.00  0.00     0.003 A 
ATOM      6  C4  OXE d   1       4.865  -3.002   5.788  0.00  0.00    -0.002 A 
ATOM      7  C5  OXE d   1       4.848  -4.385   5.998  0.00  0.00    -0.002 A 
ATOM      8  C6  OXE d   1       5.161  -5.238   4.945  0.00  0.00     0.003 A 
ENDROOT
TORSDOF 0
ENDMDL
