MODEL 1
REMARK minimizedAffinity 1.28981769
REMARK minimizedRMSD -1
REMARK  3 active torsions:
REMARK  status: ('A' for Active; 'I' for Inactive)
REMARK    1  A    between atoms: C3'_2  and  C2'_3 
REMARK    2  A    between atoms: C2'_3  and  C1'_4 
REMARK    3  A    between atoms: C1'_4  and  C1_5 
ROOT
ATOM      1  C1  N4B d   1       1.596   0.386  -0.037  0.00  0.00    -0.075 A 
ATOM      2  C2  N4B d   1       2.658  -0.132  -0.810  0.00  0.00     0.002 A 
ATOM      3  C3  N4B d   1       3.824   0.583  -0.942  0.00  0.00     0.002 A 
ATOM      4  C4  N4B d   1       3.942   1.820  -0.328  0.00  0.00    -0.004 A 
ATOM      5  C5  N4B d   1       2.921   2.302   0.438  0.00  0.00     0.002 A 
ATOM      6  C6  N4B d   1       1.746   1.593   0.583  0.00  0.00     0.002 A 
ENDROOT
BRANCH   1   7
ATOM      7  C1' N4B d   1       0.272  -0.320   0.066  0.00  0.00     0.057 C 
BRANCH   7   8
ATOM      8  C2' N4B d   1       0.506  -1.827   0.076  0.00  0.00     0.009 C 
BRANCH   8   9
ATOM      9  C3' N4B d   1      -0.417  -2.552  -0.888  0.00  0.00     0.004 C 
ATOM     10  C4' N4B d   1      -0.895  -1.675  -2.006  0.00  0.00     0.003 C 
ENDBRANCH   8   9
ENDBRANCH   7   8
ENDBRANCH   1   7
TORSDOF 3
ENDMDL
