MODEL 1
REMARK minimizedAffinity 3.20638299
REMARK minimizedRMSD -1
REMARK  3 active torsions:
REMARK  status: ('A' for Active; 'I' for Inactive)
REMARK    1  A    between atoms: C3'_2  and  C2'_3 
REMARK    2  A    between atoms: C2'_3  and  C1'_4 
REMARK    3  A    between atoms: C1'_4  and  C1_5 
ROOT
ATOM      1  C1  N4B d   1       2.974   0.805   0.427  0.00  0.00    -0.075 A 
ATOM      2  C2  N4B d   1       3.503   2.068   0.082  0.00  0.00     0.002 A 
ATOM      3  C3  N4B d   1       2.722   3.192   0.191  0.00  0.00     0.002 A 
ATOM      4  C4  N4B d   1       1.409   3.076   0.623  0.00  0.00    -0.004 A 
ATOM      5  C5  N4B d   1       0.914   1.856   0.979  0.00  0.00     0.002 A 
ATOM      6  C6  N4B d   1       1.689   0.718   0.878  0.00  0.00     0.002 A 
ENDROOT
BRANCH   1   7
ATOM      7  C1' N4B d   1       3.762  -0.463   0.243  0.00  0.00     0.057 C 
BRANCH   7   8
ATOM      8  C2' N4B d   1       3.162  -1.263  -0.910  0.00  0.00     0.009 C 
BRANCH   8   9
ATOM      9  C3' N4B d   1       2.534  -2.561  -0.435  0.00  0.00     0.004 C 
ATOM     10  C4' N4B d   1       2.711  -2.788   1.037  0.00  0.00     0.003 C 
ENDBRANCH   8   9
ENDBRANCH   7   8
ENDBRANCH   1   7
TORSDOF 3
ENDMDL
