MODEL 1
REMARK minimizedAffinity 1.83698964
REMARK minimizedRMSD -1
REMARK  3 active torsions:
REMARK  status: ('A' for Active; 'I' for Inactive)
REMARK    1  A    between atoms: C3'_2  and  C2'_3 
REMARK    2  A    between atoms: C2'_3  and  C1'_4 
REMARK    3  A    between atoms: C1'_4  and  C1_5 
ROOT
ATOM      1  C1  N4B d   1       1.204  -0.404  -0.535  0.00  0.00    -0.075 A 
ATOM      2  C2  N4B d   1      -0.094  -0.344  -1.088  0.00  0.00     0.002 A 
ATOM      3  C3  N4B d   1      -0.779  -1.503  -1.360  0.00  0.00     0.002 A 
ATOM      4  C4  N4B d   1      -0.181  -2.728  -1.106  0.00  0.00    -0.004 A 
ATOM      5  C5  N4B d   1       1.063  -2.777  -0.548  0.00  0.00     0.002 A 
ATOM      6  C6  N4B d   1       1.761  -1.620  -0.266  0.00  0.00     0.002 A 
ENDROOT
BRANCH   1   7
ATOM      7  C1' N4B d   1       2.025   0.835  -0.301  0.00  0.00     0.057 C 
BRANCH   7   8
ATOM      8  C2' N4B d   1       3.474   0.556  -0.692  0.00  0.00     0.009 C 
BRANCH   8   9
ATOM      9  C3' N4B d   1       4.246   1.837  -0.959  0.00  0.00     0.004 C 
ATOM     10  C4' N4B d   1       5.628   1.814  -0.376  0.00  0.00     0.003 C 
ENDBRANCH   8   9
ENDBRANCH   7   8
ENDBRANCH   1   7
TORSDOF 3
ENDMDL
