MODEL 1
REMARK minimizedAffinity 20.5158768
REMARK minimizedRMSD -1
REMARK  0 active torsions:
REMARK  status: ('A' for Active; 'I' for Inactive)
ROOT
ATOM      1  N1  IND d   1       3.728   0.907  -2.135  0.00  0.00    -0.196 N 
ATOM      2  C2  IND d   1       4.824   1.721  -2.062  0.00  0.00     0.054 A 
ATOM      3  C3  IND d   1       5.227   1.853  -0.778  0.00  0.00    -0.031 A 
ATOM      4  C4  IND d   1       4.299   0.742   1.350  0.00  0.00     0.051 A 
ATOM      5  C5  IND d   1       3.280  -0.054   1.793  0.00  0.00    -0.031 A 
ATOM      6  C6  IND d   1       2.342  -0.584   0.931  0.00  0.00     0.015 A 
ATOM      7  C7  IND d   1       2.394  -0.345  -0.413  0.00  0.00    -0.016 A 
ATOM      8  C8  IND d   1       3.422   0.469  -0.865  0.00  0.00    -0.047 A 
ATOM      9  C9  IND d   1       4.353   1.044   0.010  0.00  0.00    -0.096 A 
ATOM     10  HN1 IND d   1       3.302   0.703  -2.853  0.00  0.00     0.298 HD
ENDROOT
TORSDOF 0
ENDMDL
