MODEL 1
REMARK minimizedAffinity 15.3531713
REMARK minimizedRMSD -1
REMARK  0 active torsions:
REMARK  status: ('A' for Active; 'I' for Inactive)
ROOT
ATOM      1  N1  IND d   1       3.533   1.083   0.825  0.00  0.00    -0.196 N 
ATOM      2  C2  IND d   1       2.417   0.499   0.292  0.00  0.00     0.054 A 
ATOM      3  C3  IND d   1       2.411   0.636  -1.053  0.00  0.00    -0.031 A 
ATOM      4  C4  IND d   1       4.179   1.695  -2.597  0.00  0.00     0.051 A 
ATOM      5  C5  IND d   1       5.354   2.392  -2.569  0.00  0.00    -0.031 A 
ATOM      6  C6  IND d   1       5.997   2.692  -1.386  0.00  0.00     0.015 A 
ATOM      7  C7  IND d   1       5.491   2.294  -0.180  0.00  0.00    -0.016 A 
ATOM      8  C8  IND d   1       4.294   1.592  -0.204  0.00  0.00    -0.047 A 
ATOM      9  C9  IND d   1       3.616   1.322  -1.399  0.00  0.00    -0.096 A 
ATOM     10  HN1 IND d   1       3.726   1.125   1.662  0.00  0.00     0.298 HD
ENDROOT
TORSDOF 0
ENDMDL
