MODEL 1
REMARK minimizedAffinity 14.1708994
REMARK minimizedRMSD -1
REMARK  0 active torsions:
REMARK  status: ('A' for Active; 'I' for Inactive)
ROOT
ATOM      1  N1  IND d   1       5.677   2.348  -0.480  0.00  0.00    -0.196 N 
ATOM      2  C2  IND d   1       6.000   2.565  -1.790  0.00  0.00     0.054 A 
ATOM      3  C3  IND d   1       5.164   1.876  -2.600  0.00  0.00    -0.031 A 
ATOM      4  C4  IND d   1       3.134   0.414  -1.993  0.00  0.00     0.051 A 
ATOM      5  C5  IND d   1       2.466  -0.111  -0.923  0.00  0.00    -0.031 A 
ATOM      6  C6  IND d   1       2.841   0.164   0.377  0.00  0.00     0.015 A 
ATOM      7  C7  IND d   1       3.895   0.988   0.655  0.00  0.00    -0.016 A 
ATOM      8  C8  IND d   1       4.579   1.518  -0.430  0.00  0.00    -0.047 A 
ATOM      9  C9  IND d   1       4.230   1.208  -1.751  0.00  0.00    -0.096 A 
ATOM     10  HN1 IND d   1       6.090   2.676   0.200  0.00  0.00     0.298 HD
ENDROOT
TORSDOF 0
ENDMDL
