MODEL 1
REMARK minimizedAffinity 12.6751938
REMARK minimizedRMSD -1
REMARK  0 active torsions:
REMARK  status: ('A' for Active; 'I' for Inactive)
ROOT
ATOM      1  N1  IND d   1      -1.684  -4.347  -2.808  0.00  0.00    -0.196 N 
ATOM      2  C2  IND d   1      -0.809  -3.552  -2.121  0.00  0.00     0.054 A 
ATOM      3  C3  IND d   1      -0.957  -2.260  -2.491  0.00  0.00    -0.031 A 
ATOM      4  C4  IND d   1      -2.642  -1.211  -4.129  0.00  0.00     0.051 A 
ATOM      5  C5  IND d   1      -3.620  -1.539  -5.027  0.00  0.00    -0.031 A 
ATOM      6  C6  IND d   1      -4.012  -2.846  -5.232  0.00  0.00     0.015 A 
ATOM      7  C7  IND d   1      -3.446  -3.877  -4.537  0.00  0.00    -0.016 A 
ATOM      8  C8  IND d   1      -2.448  -3.548  -3.630  0.00  0.00    -0.047 A 
ATOM      9  C9  IND d   1      -2.017  -2.228  -3.448  0.00  0.00    -0.096 A 
ATOM     10  HN1 IND d   1      -1.746  -5.201  -2.738  0.00  0.00     0.298 HD
ENDROOT
TORSDOF 0
ENDMDL
