MODEL 1
REMARK minimizedAffinity 19.7529812
REMARK minimizedRMSD -1
REMARK  0 active torsions:
REMARK  status: ('A' for Active; 'I' for Inactive)
ROOT
ATOM      1  N1  IND d   1       0.775   4.026   1.143  0.00  0.00    -0.196 N 
ATOM      2  C2  IND d   1      -0.465   4.457   1.521  0.00  0.00     0.054 A 
ATOM      3  C3  IND d   1      -0.767   3.998   2.756  0.00  0.00    -0.031 A 
ATOM      4  C4  IND d   1       0.668   2.607   4.379  0.00  0.00     0.051 A 
ATOM      5  C5  IND d   1       1.860   1.944   4.465  0.00  0.00    -0.031 A 
ATOM      6  C6  IND d   1       2.771   1.943   3.429  0.00  0.00     0.015 A 
ATOM      7  C7  IND d   1       2.527   2.618   2.266  0.00  0.00    -0.016 A 
ATOM      8  C8  IND d   1       1.315   3.287   2.172  0.00  0.00    -0.047 A 
ATOM      9  C9  IND d   1       0.368   3.256   3.204  0.00  0.00    -0.096 A 
ATOM     10  HN1 IND d   1       1.155   4.189   0.388  0.00  0.00     0.298 HD
ENDROOT
TORSDOF 0
ENDMDL
