MODEL 1
REMARK minimizedAffinity 6.82371759
REMARK minimizedRMSD -1
REMARK  0 active torsions:
REMARK  status: ('A' for Active; 'I' for Inactive)
ROOT
ATOM      1  N1  IND d   1       4.671   1.532  -2.636  0.00  0.00    -0.196 N 
ATOM      2  C2  IND d   1       5.795   2.303  -2.526  0.00  0.00     0.054 A 
ATOM      3  C3  IND d   1       5.972   2.697  -1.245  0.00  0.00    -0.031 A 
ATOM      4  C4  IND d   1       4.599   2.109   0.851  0.00  0.00     0.051 A 
ATOM      5  C5  IND d   1       3.460   1.464   1.247  0.00  0.00    -0.031 A 
ATOM      6  C6  IND d   1       2.653   0.794   0.352  0.00  0.00     0.015 A 
ATOM      7  C7  IND d   1       2.961   0.733  -0.978  0.00  0.00    -0.016 A 
ATOM      8  C8  IND d   1       4.112   1.392  -1.385  0.00  0.00    -0.047 A 
ATOM      9  C9  IND d   1       4.913   2.110  -0.487  0.00  0.00    -0.096 A 
ATOM     10  HN1 IND d   1       4.365   1.192  -3.364  0.00  0.00     0.298 HD
ENDROOT
TORSDOF 0
ENDMDL
