MODEL 1
REMARK minimizedAffinity 6.45106268
REMARK minimizedRMSD -1
REMARK  0 active torsions:
REMARK  status: ('A' for Active; 'I' for Inactive)
ROOT
ATOM      1  N1  IND d   1       4.682   1.081  -3.077  0.00  0.00    -0.196 N 
ATOM      2  C2  IND d   1       5.790   1.881  -3.041  0.00  0.00     0.054 A 
ATOM      3  C3  IND d   1       5.999   2.338  -1.786  0.00  0.00    -0.031 A 
ATOM      4  C4  IND d   1       4.708   1.821   0.380  0.00  0.00     0.051 A 
ATOM      5  C5  IND d   1       3.598   1.171   0.843  0.00  0.00    -0.031 A 
ATOM      6  C6  IND d   1       2.778   0.441   0.007  0.00  0.00     0.015 A 
ATOM      7  C7  IND d   1       3.045   0.324  -1.328  0.00  0.00    -0.016 A 
ATOM      8  C8  IND d   1       4.167   0.988  -1.803  0.00  0.00    -0.047 A 
ATOM      9  C9  IND d   1       4.979   1.765  -0.967  0.00  0.00    -0.096 A 
ATOM     10  HN1 IND d   1       4.361   0.700  -3.778  0.00  0.00     0.298 HD
ENDROOT
TORSDOF 0
ENDMDL
