MODEL 1
REMARK minimizedAffinity 17.5266247
REMARK minimizedRMSD -1
REMARK  0 active torsions:
REMARK  status: ('A' for Active; 'I' for Inactive)
ROOT
ATOM      1  N1  IND d   1       0.167   3.138   0.012  0.00  0.00    -0.196 N 
ATOM      2  C2  IND d   1       0.201   4.095   0.988  0.00  0.00     0.054 A 
ATOM      3  C3  IND d   1       1.267   3.903   1.797  0.00  0.00    -0.031 A 
ATOM      4  C4  IND d   1       3.142   2.146   1.644  0.00  0.00     0.051 A 
ATOM      5  C5  IND d   1       3.524   1.037   0.943  0.00  0.00    -0.031 A 
ATOM      6  C6  IND d   1       2.793   0.563  -0.128  0.00  0.00     0.015 A 
ATOM      7  C7  IND d   1       1.654   1.191  -0.546  0.00  0.00    -0.016 A 
ATOM      8  C8  IND d   1       1.259   2.314   0.168  0.00  0.00    -0.047 A 
ATOM      9  C9  IND d   1       1.974   2.774   1.281  0.00  0.00    -0.096 A 
ATOM     10  HN1 IND d   1      -0.436   3.064  -0.597  0.00  0.00     0.298 HD
ENDROOT
TORSDOF 0
ENDMDL
