MODEL 1
REMARK minimizedAffinity 8.85173225
REMARK minimizedRMSD -1
REMARK  0 active torsions:
REMARK  status: ('A' for Active; 'I' for Inactive)
ROOT
ATOM      1  N1  IND d   1       3.398   0.980   1.231  0.00  0.00    -0.196 N 
ATOM      2  C2  IND d   1       2.393   0.327   0.574  0.00  0.00     0.054 A 
ATOM      3  C3  IND d   1       2.537   0.465  -0.763  0.00  0.00    -0.031 A 
ATOM      4  C4  IND d   1       4.404   1.635  -2.094  0.00  0.00     0.051 A 
ATOM      5  C5  IND d   1       5.522   2.405  -1.933  0.00  0.00    -0.031 A 
ATOM      6  C6  IND d   1       6.000   2.744  -0.683  0.00  0.00     0.015 A 
ATOM      7  C7  IND d   1       5.382   2.314   0.457  0.00  0.00    -0.016 A 
ATOM      8  C8  IND d   1       4.243   1.538   0.297  0.00  0.00    -0.047 A 
ATOM      9  C9  IND d   1       3.729   1.226  -0.969  0.00  0.00    -0.096 A 
ATOM     10  HN1 IND d   1       3.488   1.033   2.085  0.00  0.00     0.298 HD
ENDROOT
TORSDOF 0
ENDMDL
