MODEL 1
REMARK minimizedAffinity -2.85854816
REMARK minimizedRMSD -1
REMARK  1 active torsions:
REMARK  status: ('A' for Active; 'I' for Inactive)
REMARK    1  A    between atoms: C1_2  and  C2_3 
ROOT
ATOM      1  C2  UNL d   1       0.046   0.384   0.345  0.00  0.00    -0.076 A 
ATOM      2  C3  UNL d   1      -1.153   1.007  -0.042  0.00  0.00     0.004 A 
ATOM      3  C4  UNL d   1      -1.798   1.908   0.803  0.00  0.00    -0.003 A 
ATOM      4  C5  UNL d   1      -1.255   2.201   2.049  0.00  0.00     0.000 A 
ATOM      5  C6  UNL d   1      -0.057   1.606   2.442  0.00  0.00     0.000 A 
ATOM      6  C7  UNL d   1       0.615   0.708   1.595  0.00  0.00    -0.073 A 
ATOM      7  C8  UNL d   1       1.901   0.090   2.072  0.00  0.00     0.078 C 
ENDROOT
BRANCH   1   8
ATOM      8  C1  UNL d   1       0.687  -0.605  -0.603  0.00  0.00     0.053 C 
ATOM      9  C   UNL d   1       0.032  -1.977  -0.543  0.00  0.00     0.018 C 
ENDBRANCH   1   8
TORSDOF 1
ENDMDL
