MODEL 1
REMARK minimizedAffinity -6.09487629
REMARK minimizedRMSD -1
REMARK  1 active torsions:
REMARK  status: ('A' for Active; 'I' for Inactive)
REMARK    1  A    between atoms: C1_2  and  C2_3 
ROOT
ATOM      1  C2  UNL d   1      -0.141   0.372  -0.193  0.00  0.00    -0.076 A 
ATOM      2  C3  UNL d   1      -0.052  -0.193   1.091  0.00  0.00     0.004 A 
ATOM      3  C4  UNL d   1      -0.260   0.580   2.232  0.00  0.00    -0.003 A 
ATOM      4  C5  UNL d   1      -0.561   1.932   2.107  0.00  0.00     0.000 A 
ATOM      5  C6  UNL d   1      -0.670   2.506   0.841  0.00  0.00     0.000 A 
ATOM      6  C7  UNL d   1      -0.480   1.736  -0.320  0.00  0.00    -0.073 A 
ATOM      7  C8  UNL d   1      -0.604   2.408  -1.660  0.00  0.00     0.078 C 
ENDROOT
BRANCH   1   8
ATOM      8  C1  UNL d   1       0.122  -0.510  -1.393  0.00  0.00     0.053 C 
ATOM      9  C   UNL d   1      -0.177  -1.975  -1.115  0.00  0.00     0.018 C 
ENDBRANCH   1   8
TORSDOF 1
ENDMDL
