MODEL 1
REMARK minimizedAffinity -4.88039446
REMARK minimizedRMSD -1
REMARK  1 active torsions:
REMARK  status: ('A' for Active; 'I' for Inactive)
REMARK    1  A    between atoms: C1_2  and  C2_3 
ROOT
ATOM      1  C2  UNL d   1      -0.078   0.528   0.279  0.00  0.00    -0.076 A 
ATOM      2  C3  UNL d   1       0.097   0.118   1.612  0.00  0.00     0.004 A 
ATOM      3  C4  UNL d   1      -0.221   0.967   2.671  0.00  0.00    -0.003 A 
ATOM      4  C5  UNL d   1      -0.720   2.240   2.414  0.00  0.00     0.000 A 
ATOM      5  C6  UNL d   1      -0.916   2.656   1.098  0.00  0.00     0.000 A 
ATOM      6  C7  UNL d   1      -0.616   1.807   0.019  0.00  0.00    -0.073 A 
ATOM      7  C8  UNL d   1      -0.842   2.310  -1.381  0.00  0.00     0.078 C 
ENDROOT
BRANCH   1   8
ATOM      8  C1  UNL d   1       0.310  -0.426  -0.828  0.00  0.00     0.053 C 
ATOM      9  C   UNL d   1      -0.475  -1.727  -0.778  0.00  0.00     0.018 C 
ENDBRANCH   1   8
TORSDOF 1
ENDMDL
