MODEL 1
REMARK minimizedAffinity -3.10624909
REMARK minimizedRMSD -1
REMARK  1 active torsions:
REMARK  status: ('A' for Active; 'I' for Inactive)
REMARK    1  A    between atoms: C1_2  and  C2_3 
ROOT
ATOM      1  C2  UNL d   1       0.249   0.390  -0.145  0.00  0.00    -0.076 A 
ATOM      2  C3  UNL d   1       0.457  -0.180   1.122  0.00  0.00     0.004 A 
ATOM      3  C4  UNL d   1       0.313   0.578   2.283  0.00  0.00    -0.003 A 
ATOM      4  C5  UNL d   1      -0.041   1.920   2.194  0.00  0.00     0.000 A 
ATOM      5  C6  UNL d   1      -0.268   2.498   0.946  0.00  0.00     0.000 A 
ATOM      6  C7  UNL d   1      -0.144   1.743  -0.233  0.00  0.00    -0.073 A 
ATOM      7  C8  UNL d   1      -0.395   2.419  -1.553  0.00  0.00     0.078 C 
ENDROOT
BRANCH   1   8
ATOM      8  C1  UNL d   1       0.445  -0.475  -1.370  0.00  0.00     0.053 C 
ATOM      9  C   UNL d   1       0.145  -1.941  -1.102  0.00  0.00     0.018 C 
ENDBRANCH   1   8
TORSDOF 1
ENDMDL
