MODEL 1
REMARK minimizedAffinity -5.19374084
REMARK minimizedRMSD -1
REMARK  1 active torsions:
REMARK  status: ('A' for Active; 'I' for Inactive)
REMARK    1  A    between atoms: C1_2  and  C2_3 
ROOT
ATOM      1  C2  UNL d   1      -0.350   1.625   0.846  0.00  0.00    -0.076 A 
ATOM      2  C3  UNL d   1       0.229   1.672   2.126  0.00  0.00     0.004 A 
ATOM      3  C4  UNL d   1       0.747   2.860   2.637  0.00  0.00    -0.003 A 
ATOM      4  C5  UNL d   1       0.696   4.023   1.875  0.00  0.00     0.000 A 
ATOM      5  C6  UNL d   1       0.110   3.999   0.610  0.00  0.00     0.000 A 
ATOM      6  C7  UNL d   1      -0.433   2.813   0.087  0.00  0.00    -0.073 A 
ATOM      7  C8  UNL d   1      -1.047   2.843  -1.286  0.00  0.00     0.078 C 
ENDROOT
BRANCH   1   8
ATOM      8  C1  UNL d   1      -0.871   0.302   0.334  0.00  0.00     0.053 C 
ATOM      9  C   UNL d   1       0.189  -0.789   0.353  0.00  0.00     0.018 C 
ENDBRANCH   1   8
TORSDOF 1
ENDMDL
