MODEL 1
REMARK minimizedAffinity -4.86045265
REMARK minimizedRMSD -1
REMARK  1 active torsions:
REMARK  status: ('A' for Active; 'I' for Inactive)
REMARK    1  A    between atoms: C1_2  and  C2_3 
ROOT
ATOM      1  C2  UNL d   1       0.246  -1.240   0.585  0.00  0.00    -0.076 A 
ATOM      2  C3  UNL d   1       0.082  -2.304   1.488  0.00  0.00     0.004 A 
ATOM      3  C4  UNL d   1       0.016  -3.622   1.040  0.00  0.00    -0.003 A 
ATOM      4  C5  UNL d   1       0.112  -3.897  -0.320  0.00  0.00     0.000 A 
ATOM      5  C6  UNL d   1       0.292  -2.855  -1.229  0.00  0.00     0.000 A 
ATOM      6  C7  UNL d   1       0.378  -1.522  -0.792  0.00  0.00    -0.073 A 
ATOM      7  C8  UNL d   1       0.566  -0.437  -1.817  0.00  0.00     0.078 C 
ENDROOT
BRANCH   1   8
ATOM      8  C1  UNL d   1       0.284   0.171   1.127  0.00  0.00     0.053 C 
ATOM      9  C   UNL d   1      -1.051   0.886   0.984  0.00  0.00     0.018 C 
ENDBRANCH   1   8
TORSDOF 1
ENDMDL
