MODEL 1
REMARK minimizedAffinity -3.66488242
REMARK minimizedRMSD -1
REMARK  1 active torsions:
REMARK  status: ('A' for Active; 'I' for Inactive)
REMARK    1  A    between atoms: C1_2  and  C2_3 
ROOT
ATOM      1  C2  UNL d   1       0.146   0.782   1.242  0.00  0.00    -0.076 A 
ATOM      2  C3  UNL d   1       0.772  -0.199   0.454  0.00  0.00     0.004 A 
ATOM      3  C4  UNL d   1       0.438  -0.360  -0.890  0.00  0.00    -0.003 A 
ATOM      4  C5  UNL d   1      -0.528   0.457  -1.467  0.00  0.00     0.000 A 
ATOM      5  C6  UNL d   1      -1.146   1.447  -0.704  0.00  0.00     0.000 A 
ATOM      6  C7  UNL d   1      -0.809   1.634   0.648  0.00  0.00    -0.073 A 
ATOM      7  C8  UNL d   1      -1.512   2.713   1.425  0.00  0.00     0.078 C 
ENDROOT
BRANCH   1   8
ATOM      8  C1  UNL d   1       0.530   0.893   2.701  0.00  0.00     0.053 C 
ATOM      9  C   UNL d   1       1.691   1.850   2.927  0.00  0.00     0.018 C 
ENDBRANCH   1   8
TORSDOF 1
ENDMDL
