MODEL 1
REMARK minimizedAffinity -2.31390858
REMARK minimizedRMSD -1
REMARK  1 active torsions:
REMARK  status: ('A' for Active; 'I' for Inactive)
REMARK    1  A    between atoms: C1_2  and  C2_3 
ROOT
ATOM      1  C2  UNL d   1      -0.435   0.863   0.020  0.00  0.00    -0.076 A 
ATOM      2  C3  UNL d   1       0.378  -0.220  -0.358  0.00  0.00     0.004 A 
ATOM      3  C4  UNL d   1       1.343  -0.729   0.508  0.00  0.00    -0.003 A 
ATOM      4  C5  UNL d   1       1.511  -0.165   1.768  0.00  0.00     0.000 A 
ATOM      5  C6  UNL d   1       0.701   0.898   2.167  0.00  0.00     0.000 A 
ATOM      6  C7  UNL d   1      -0.288   1.413   1.312  0.00  0.00    -0.073 A 
ATOM      7  C8  UNL d   1      -1.128   2.565   1.791  0.00  0.00     0.078 C 
ENDROOT
BRANCH   1   8
ATOM      8  C1  UNL d   1      -1.447   1.391  -0.972  0.00  0.00     0.053 C 
ATOM      9  C   UNL d   1      -0.794   2.106  -2.145  0.00  0.00     0.018 C 
ENDBRANCH   1   8
TORSDOF 1
ENDMDL
