MODEL 1
REMARK minimizedAffinity 15.0904169
REMARK minimizedRMSD -1
REMARK  0 active torsions:
REMARK  status: ('A' for Active; 'I' for Inactive)
ROOT
ATOM      1  C   UNL d   1       5.769   3.236   4.767  0.00  0.00    -0.002 A 
ATOM      2  C1  UNL d   1       5.409   2.153   3.978  0.00  0.00     0.010 A 
ATOM      3  C2  UNL d   1       4.772   2.348   2.751  0.00  0.00     0.041 A 
ATOM      4  C3  UNL d   1       4.501   3.664   2.326  0.00  0.00    -0.075 A 
ATOM      5  S   UNL d   1       3.731   4.145   0.860  0.00  0.00     0.015 SA
ATOM      6  C4  UNL d   1       3.862   5.799   1.247  0.00  0.00     0.022 A 
ATOM      7  C5  UNL d   1       4.476   5.998   2.461  0.00  0.00     0.026 A 
ATOM      8  C6  UNL d   1       4.855   4.771   3.102  0.00  0.00    -0.082 A 
ATOM      9  C7  UNL d   1       5.499   4.539   4.342  0.00  0.00     0.045 A 
ENDROOT
TORSDOF 0
ENDMDL
