MODEL 1
REMARK minimizedAffinity 13.8271513
REMARK minimizedRMSD -1
REMARK  0 active torsions:
REMARK  status: ('A' for Active; 'I' for Inactive)
ROOT
ATOM      1  C   UNL d   1      -1.552  -1.191  -4.799  0.00  0.00    -0.002 A 
ATOM      2  C1  UNL d   1      -1.241  -2.475  -5.226  0.00  0.00     0.010 A 
ATOM      3  C2  UNL d   1       0.090  -2.876  -5.360  0.00  0.00     0.041 A 
ATOM      4  C3  UNL d   1       1.113  -1.957  -5.053  0.00  0.00    -0.075 A 
ATOM      5  S   UNL d   1       2.813  -2.227  -5.143  0.00  0.00     0.015 SA
ATOM      6  C4  UNL d   1       3.167  -0.646  -4.615  0.00  0.00     0.022 A 
ATOM      7  C5  UNL d   1       2.028   0.084  -4.372  0.00  0.00     0.026 A 
ATOM      8  C6  UNL d   1       0.825  -0.660  -4.620  0.00  0.00    -0.082 A 
ATOM      9  C7  UNL d   1      -0.534  -0.283  -4.495  0.00  0.00     0.045 A 
ENDROOT
TORSDOF 0
ENDMDL
