MODEL 1
REMARK minimizedAffinity 7.63113308
REMARK minimizedRMSD -1
REMARK  0 active torsions:
REMARK  status: ('A' for Active; 'I' for Inactive)
ROOT
ATOM      1  C   UNL d   1       0.716  -4.438   4.920  0.00  0.00    -0.002 A 
ATOM      2  C1  UNL d   1       1.237  -3.440   4.108  0.00  0.00     0.010 A 
ATOM      3  C2  UNL d   1       2.617  -3.308   3.942  0.00  0.00     0.041 A 
ATOM      4  C3  UNL d   1       3.473  -4.205   4.610  0.00  0.00    -0.075 A 
ATOM      5  S   UNL d   1       5.196  -4.235   4.554  0.00  0.00     0.015 SA
ATOM      6  C4  UNL d   1       5.282  -5.573   5.606  0.00  0.00     0.022 A 
ATOM      7  C5  UNL d   1       4.036  -5.999   6.000  0.00  0.00     0.026 A 
ATOM      8  C6  UNL d   1       2.973  -5.219   5.432  0.00  0.00    -0.082 A 
ATOM      9  C7  UNL d   1       1.569  -5.326   5.582  0.00  0.00     0.045 A 
ENDROOT
TORSDOF 0
ENDMDL
