MODEL 1
REMARK minimizedAffinity 5.50406313
REMARK minimizedRMSD -1
REMARK  0 active torsions:
REMARK  status: ('A' for Active; 'I' for Inactive)
ROOT
ATOM      1  O1  BZF d   1      -0.614  -1.471   1.160  0.00  0.00    -0.204 OA
ATOM      2  C2  BZF d   1      -0.995  -2.349   0.164  0.00  0.00     0.174 A 
ATOM      3  C3  BZF d   1      -0.143  -3.393   0.096  0.00  0.00    -0.012 A 
ATOM      4  C3A BZF d   1       0.778  -3.198   1.174  0.00  0.00    -0.107 A 
ATOM      5  C4  BZF d   1       1.848  -3.910   1.634  0.00  0.00     0.055 A 
ATOM      6  C5  BZF d   1       2.582  -3.409   2.662  0.00  0.00    -0.016 A 
ATOM      7  C6  BZF d   1       2.277  -2.198   3.249  0.00  0.00     0.022 A 
ATOM      8  C7  BZF d   1       1.222  -1.459   2.830  0.00  0.00     0.029 A 
ATOM      9  C7A BZF d   1       0.459  -1.978   1.813  0.00  0.00     0.058 A 
ENDROOT
TORSDOF 0
ENDMDL
