MODEL 1
REMARK minimizedAffinity 3.32066822
REMARK minimizedRMSD -1
REMARK  0 active torsions:
REMARK  status: ('A' for Active; 'I' for Inactive)
ROOT
ATOM      1  O1  BZF d   1       3.579   1.891   0.539  0.00  0.00    -0.204 OA
ATOM      2  C2  BZF d   1       2.960   0.867   1.230  0.00  0.00     0.174 A 
ATOM      3  C3  BZF d   1       1.637   1.099   1.347  0.00  0.00    -0.012 A 
ATOM      4  C3A BZF d   1       1.399   2.301   0.607  0.00  0.00    -0.107 A 
ATOM      5  C4  BZF d   1       0.277   3.031   0.338  0.00  0.00     0.055 A 
ATOM      6  C5  BZF d   1       0.397   4.195  -0.353  0.00  0.00    -0.016 A 
ATOM      7  C6  BZF d   1       1.621   4.661  -0.785  0.00  0.00     0.022 A 
ATOM      8  C7  BZF d   1       2.762   3.968  -0.547  0.00  0.00     0.029 A 
ATOM      9  C7A BZF d   1       2.640   2.775   0.123  0.00  0.00     0.058 A 
ENDROOT
TORSDOF 0
ENDMDL
