MODEL 1
REMARK minimizedAffinity 10.3756361
REMARK minimizedRMSD -1
REMARK  0 active torsions:
REMARK  status: ('A' for Active; 'I' for Inactive)
ROOT
ATOM      1  O1  BZF d   1       1.070   0.160   2.439  0.00  0.00    -0.204 OA
ATOM      2  C2  BZF d   1       2.357  -0.336   2.517  0.00  0.00     0.174 A 
ATOM      3  C3  BZF d   1       2.613  -1.168   1.487  0.00  0.00    -0.012 A 
ATOM      4  C3A BZF d   1       1.442  -1.121   0.666  0.00  0.00    -0.107 A 
ATOM      5  C4  BZF d   1       1.095  -1.722  -0.510  0.00  0.00     0.055 A 
ATOM      6  C5  BZF d   1      -0.152  -1.523  -1.011  0.00  0.00    -0.016 A 
ATOM      7  C6  BZF d   1      -1.079  -0.735  -0.360  0.00  0.00     0.022 A 
ATOM      8  C7  BZF d   1      -0.780  -0.114   0.807  0.00  0.00     0.029 A 
ATOM      9  C7A BZF d   1       0.491  -0.287   1.299  0.00  0.00     0.058 A 
ENDROOT
TORSDOF 0
ENDMDL
