MODEL 1
REMARK minimizedAffinity 9.77114296
REMARK minimizedRMSD -1
REMARK  0 active torsions:
REMARK  status: ('A' for Active; 'I' for Inactive)
ROOT
ATOM      1  O1  BZF d   1       4.973  -1.104   2.309  0.00  0.00    -0.204 OA
ATOM      2  C2  BZF d   1       6.000  -1.755   2.966  0.00  0.00     0.174 A 
ATOM      3  C3  BZF d   1       5.530  -2.440   4.028  0.00  0.00    -0.012 A 
ATOM      4  C3A BZF d   1       4.109  -2.278   3.982  0.00  0.00    -0.107 A 
ATOM      5  C4  BZF d   1       3.086  -2.737   4.761  0.00  0.00     0.055 A 
ATOM      6  C5  BZF d   1       1.817  -2.337   4.488  0.00  0.00    -0.016 A 
ATOM      7  C6  BZF d   1       1.535  -1.475   3.448  0.00  0.00     0.022 A 
ATOM      8  C7  BZF d   1       2.516  -0.998   2.644  0.00  0.00     0.029 A 
ATOM      9  C7A BZF d   1       3.796  -1.427   2.897  0.00  0.00     0.058 A 
ENDROOT
TORSDOF 0
ENDMDL
