MODEL 1
REMARK minimizedAffinity 3.80167294
REMARK minimizedRMSD -1
REMARK  0 active torsions:
REMARK  status: ('A' for Active; 'I' for Inactive)
ROOT
ATOM      1  O1  BZF d   1       4.768  -3.170   6.000  0.00  0.00    -0.204 OA
ATOM      2  C2  BZF d   1       5.998  -2.607   5.719  0.00  0.00     0.174 A 
ATOM      3  C3  BZF d   1       5.910  -1.764   4.669  0.00  0.00    -0.012 A 
ATOM      4  C3A BZF d   1       4.521  -1.733   4.327  0.00  0.00    -0.107 A 
ATOM      5  C4  BZF d   1       3.803  -1.065   3.377  0.00  0.00     0.055 A 
ATOM      6  C5  BZF d   1       2.472  -1.312   3.260  0.00  0.00    -0.016 A 
ATOM      7  C6  BZF d   1       1.828  -2.222   4.073  0.00  0.00     0.022 A 
ATOM      8  C7  BZF d   1       2.498  -2.905   5.033  0.00  0.00     0.029 A 
ATOM      9  C7A BZF d   1       3.836  -2.634   5.175  0.00  0.00     0.058 A 
ENDROOT
TORSDOF 0
ENDMDL
