MODEL 1
REMARK minimizedAffinity 9.26502895
REMARK minimizedRMSD -1
REMARK  0 active torsions:
REMARK  status: ('A' for Active; 'I' for Inactive)
ROOT
ATOM      1  O1  BZF d   1       2.358  -2.056   2.998  0.00  0.00    -0.204 OA
ATOM      2  C2  BZF d   1       2.351  -2.725   4.207  0.00  0.00     0.174 A 
ATOM      3  C3  BZF d   1       2.398  -1.855   5.236  0.00  0.00    -0.012 A 
ATOM      4  C3A BZF d   1       2.344  -0.557   4.635  0.00  0.00    -0.107 A 
ATOM      5  C4  BZF d   1       2.340   0.712   5.139  0.00  0.00     0.055 A 
ATOM      6  C5  BZF d   1       2.354   1.764   4.279  0.00  0.00    -0.016 A 
ATOM      7  C6  BZF d   1       2.378   1.584   2.911  0.00  0.00     0.022 A 
ATOM      8  C7  BZF d   1       2.378   0.344   2.364  0.00  0.00     0.029 A 
ATOM      9  C7A BZF d   1       2.330  -0.721   3.230  0.00  0.00     0.058 A 
ENDROOT
TORSDOF 0
ENDMDL
