MODEL 1
REMARK minimizedAffinity 2.02536154
REMARK minimizedRMSD -1
REMARK  0 active torsions:
REMARK  status: ('A' for Active; 'I' for Inactive)
ROOT
ATOM      1  O1  BZF d   1       4.811  -2.829   5.706  0.00  0.00    -0.204 OA
ATOM      2  C2  BZF d   1       5.996  -2.289   5.243  0.00  0.00     0.174 A 
ATOM      3  C3  BZF d   1       5.794  -1.595   4.105  0.00  0.00    -0.012 A 
ATOM      4  C3A BZF d   1       4.380  -1.631   3.889  0.00  0.00    -0.107 A 
ATOM      5  C4  BZF d   1       3.563  -1.106   2.928  0.00  0.00     0.055 A 
ATOM      6  C5  BZF d   1       2.234  -1.386   2.966  0.00  0.00    -0.016 A 
ATOM      7  C6  BZF d   1       1.689  -2.190   3.945  0.00  0.00     0.022 A 
ATOM      8  C7  BZF d   1       2.458  -2.729   4.923  0.00  0.00     0.029 A 
ATOM      9  C7A BZF d   1       3.797  -2.421   4.906  0.00  0.00     0.058 A 
ENDROOT
TORSDOF 0
ENDMDL
