MODEL 1
REMARK minimizedAffinity 3.0940814
REMARK minimizedRMSD -1
REMARK  0 active torsions:
REMARK  status: ('A' for Active; 'I' for Inactive)
ROOT
ATOM      1  O1  BZF d   1       4.790  -3.058   5.702  0.00  0.00    -0.204 OA
ATOM      2  C2  BZF d   1       6.000  -2.427   5.485  0.00  0.00     0.174 A 
ATOM      3  C3  BZF d   1       5.901  -1.539   4.475  0.00  0.00    -0.012 A 
ATOM      4  C3A BZF d   1       4.522  -1.553   4.094  0.00  0.00    -0.107 A 
ATOM      5  C4  BZF d   1       3.800  -0.872   3.156  0.00  0.00     0.055 A 
ATOM      6  C5  BZF d   1       2.485  -1.172   2.989  0.00  0.00    -0.016 A 
ATOM      7  C6  BZF d   1       1.863  -2.149   3.737  0.00  0.00     0.022 A 
ATOM      8  C7  BZF d   1       2.536  -2.848   4.683  0.00  0.00     0.029 A 
ATOM      9  C7A BZF d   1       3.857  -2.524   4.877  0.00  0.00     0.058 A 
ENDROOT
TORSDOF 0
ENDMDL
