MODEL 1
REMARK minimizedAffinity 16.2336521
REMARK minimizedRMSD -1
REMARK  0 active torsions:
REMARK  status: ('A' for Active; 'I' for Inactive)
ROOT
ATOM      1  O1  BZF d   1       4.839  -2.542   4.350  0.00  0.00    -0.204 OA
ATOM      2  C2  BZF d   1       6.000  -2.237   3.665  0.00  0.00     0.174 A 
ATOM      3  C3  BZF d   1       5.739  -1.429   2.617  0.00  0.00    -0.012 A 
ATOM      4  C3A BZF d   1       4.340  -1.140   2.704  0.00  0.00    -0.107 A 
ATOM      5  C4  BZF d   1       3.491  -0.378   1.954  0.00  0.00     0.055 A 
ATOM      6  C5  BZF d   1       2.168  -0.366   2.262  0.00  0.00    -0.016 A 
ATOM      7  C6  BZF d   1       1.659  -1.106   3.309  0.00  0.00     0.022 A 
ATOM      8  C7  BZF d   1       2.464  -1.874   4.085  0.00  0.00     0.029 A 
ATOM      9  C7A BZF d   1       3.806  -1.863   3.796  0.00  0.00     0.058 A 
ENDROOT
TORSDOF 0
ENDMDL
