MODEL 1
REMARK minimizedAffinity 8.63091183
REMARK minimizedRMSD -1
REMARK  0 active torsions:
REMARK  status: ('A' for Active; 'I' for Inactive)
ROOT
ATOM      1  O1  BZF d   1      -5.889  -0.461  -5.999  0.00  0.00    -0.204 OA
ATOM      2  C2  BZF d   1      -5.990  -1.662  -5.324  0.00  0.00     0.174 A 
ATOM      3  C3  BZF d   1      -5.993  -1.464  -3.991  0.00  0.00    -0.012 A 
ATOM      4  C3A BZF d   1      -5.981  -0.043  -3.822  0.00  0.00    -0.107 A 
ATOM      5  C4  BZF d   1      -5.993   0.773  -2.726  0.00  0.00     0.055 A 
ATOM      6  C5  BZF d   1      -5.901   2.117  -2.903  0.00  0.00    -0.016 A 
ATOM      7  C6  BZF d   1      -5.791   2.679  -4.158  0.00  0.00     0.022 A 
ATOM      8  C7  BZF d   1      -5.780   1.911  -5.275  0.00  0.00     0.029 A 
ATOM      9  C7A BZF d   1      -5.906   0.554  -5.101  0.00  0.00     0.058 A 
ENDROOT
TORSDOF 0
ENDMDL
