MODEL 1
REMARK minimizedAffinity -1.12857592
REMARK minimizedRMSD -1
REMARK  0 active torsions:
REMARK  status: ('A' for Active; 'I' for Inactive)
ROOT
ATOM      1  O1  BZF d   1       3.292  -1.312   2.632  0.00  0.00    -0.204 OA
ATOM      2  C2  BZF d   1       2.046  -1.029   3.158  0.00  0.00     0.174 A 
ATOM      3  C3  BZF d   1       2.023  -1.264   4.486  0.00  0.00    -0.012 A 
ATOM      4  C3A BZF d   1       3.363  -1.634   4.826  0.00  0.00    -0.107 A 
ATOM      5  C4  BZF d   1       3.974  -1.973   5.999  0.00  0.00     0.055 A 
ATOM      6  C5  BZF d   1       5.279  -2.353   5.978  0.00  0.00    -0.016 A 
ATOM      7  C6  BZF d   1       5.999  -2.412   4.803  0.00  0.00     0.022 A 
ATOM      8  C7  BZF d   1       5.437  -2.081   3.615  0.00  0.00     0.029 A 
ATOM      9  C7A BZF d   1       4.128  -1.664   3.638  0.00  0.00     0.058 A 
ENDROOT
TORSDOF 0
ENDMDL
