MODEL 1
REMARK minimizedAffinity 11.5634604
REMARK minimizedRMSD -1
REMARK  0 active torsions:
REMARK  status: ('A' for Active; 'I' for Inactive)
ROOT
ATOM      1  O1  BZF d   1       0.136   5.985   0.378  0.00  0.00    -0.204 OA
ATOM      2  C2  BZF d   1      -0.784   6.000   1.409  0.00  0.00     0.174 A 
ATOM      3  C3  BZF d   1      -1.004   4.752   1.871  0.00  0.00    -0.012 A 
ATOM      4  C3A BZF d   1      -0.100   3.916   1.143  0.00  0.00    -0.107 A 
ATOM      5  C4  BZF d   1       0.165   2.576   1.166  0.00  0.00     0.055 A 
ATOM      6  C5  BZF d   1       1.054   2.064   0.275  0.00  0.00    -0.016 A 
ATOM      7  C6  BZF d   1       1.691   2.859  -0.654  0.00  0.00     0.022 A 
ATOM      8  C7  BZF d   1       1.465   4.194  -0.712  0.00  0.00     0.029 A 
ATOM      9  C7A BZF d   1       0.592   4.720   0.208  0.00  0.00     0.058 A 
ENDROOT
TORSDOF 0
ENDMDL
