MODEL 1
REMARK minimizedAffinity 6.24501801
REMARK minimizedRMSD -1
REMARK  0 active torsions:
REMARK  status: ('A' for Active; 'I' for Inactive)
ROOT
ATOM      1  O1  BZF d   1       1.689  -2.474   4.622  0.00  0.00    -0.204 OA
ATOM      2  C2  BZF d   1       1.482  -1.858   3.403  0.00  0.00     0.174 A 
ATOM      3  C3  BZF d   1       2.642  -1.387   2.902  0.00  0.00    -0.012 A 
ATOM      4  C3A BZF d   1       3.650  -1.812   3.825  0.00  0.00    -0.107 A 
ATOM      5  C4  BZF d   1       5.007  -1.664   3.866  0.00  0.00     0.055 A 
ATOM      6  C5  BZF d   1       5.690  -2.134   4.942  0.00  0.00    -0.016 A 
ATOM      7  C6  BZF d   1       5.049  -2.753   5.995  0.00  0.00     0.022 A 
ATOM      8  C7  BZF d   1       3.705  -2.927   5.997  0.00  0.00     0.029 A 
ATOM      9  C7A BZF d   1       3.015  -2.482   4.896  0.00  0.00     0.058 A 
ENDROOT
TORSDOF 0
ENDMDL
