MODEL 1
REMARK minimizedAffinity 10.1528368
REMARK minimizedRMSD -1
REMARK  0 active torsions:
REMARK  status: ('A' for Active; 'I' for Inactive)
ROOT
ATOM      1  O1  BZF d   1       3.741  -5.036  -3.241  0.00  0.00    -0.204 OA
ATOM      2  C2  BZF d   1       3.352  -5.998  -2.329  0.00  0.00     0.174 A 
ATOM      3  C3  BZF d   1       3.913  -5.769  -1.124  0.00  0.00    -0.012 A 
ATOM      4  C3A BZF d   1       4.627  -4.538  -1.269  0.00  0.00    -0.107 A 
ATOM      5  C4  BZF d   1       5.376  -3.781  -0.414  0.00  0.00     0.055 A 
ATOM      6  C5  BZF d   1       5.999  -2.670  -0.888  0.00  0.00    -0.016 A 
ATOM      7  C6  BZF d   1       5.900  -2.291  -2.211  0.00  0.00     0.022 A 
ATOM      8  C7  BZF d   1       5.165  -3.008  -3.096  0.00  0.00     0.029 A 
ATOM      9  C7A BZF d   1       4.507  -4.112  -2.612  0.00  0.00     0.058 A 
ENDROOT
TORSDOF 0
ENDMDL
