MODEL 1
REMARK minimizedAffinity 12.4848614
REMARK minimizedRMSD -1
REMARK  0 active torsions:
REMARK  status: ('A' for Active; 'I' for Inactive)
ROOT
ATOM      1  O1  BZF d   1      -0.022  -0.386   4.419  0.00  0.00    -0.204 OA
ATOM      2  C2  BZF d   1       1.264  -0.886   4.487  0.00  0.00     0.174 A 
ATOM      3  C3  BZF d   1       2.041  -0.340   3.529  0.00  0.00    -0.012 A 
ATOM      4  C3A BZF d   1       1.211   0.625   2.877  0.00  0.00    -0.107 A 
ATOM      5  C4  BZF d   1       1.420   1.503   1.851  0.00  0.00     0.055 A 
ATOM      6  C5  BZF d   1       0.381   2.256   1.404  0.00  0.00    -0.016 A 
ATOM      7  C6  BZF d   1      -0.880   2.153   1.955  0.00  0.00     0.022 A 
ATOM      8  C7  BZF d   1      -1.135   1.301   2.977  0.00  0.00     0.029 A 
ATOM      9  C7A BZF d   1      -0.079   0.562   3.453  0.00  0.00     0.058 A 
ENDROOT
TORSDOF 0
ENDMDL
