MODEL 1
REMARK minimizedAffinity 2.71513629
REMARK minimizedRMSD -1
REMARK  0 active torsions:
REMARK  status: ('A' for Active; 'I' for Inactive)
ROOT
ATOM      1  O1  BZF d   1      -0.446   1.708   2.281  0.00  0.00    -0.204 OA
ATOM      2  C2  BZF d   1      -1.767   1.453   2.593  0.00  0.00     0.174 A 
ATOM      3  C3  BZF d   1      -2.582   2.340   1.987  0.00  0.00    -0.012 A 
ATOM      4  C3A BZF d   1      -1.722   3.147   1.175  0.00  0.00    -0.107 A 
ATOM      5  C4  BZF d   1      -1.943   4.190   0.323  0.00  0.00     0.055 A 
ATOM      6  C5  BZF d   1      -0.880   4.805  -0.258  0.00  0.00    -0.016 A 
ATOM      7  C6  BZF d   1       0.417   4.407  -0.004  0.00  0.00     0.022 A 
ATOM      8  C7  BZF d   1       0.686   3.374   0.830  0.00  0.00     0.029 A 
ATOM      9  C7A BZF d   1      -0.389   2.729   1.393  0.00  0.00     0.058 A 
ENDROOT
TORSDOF 0
ENDMDL
