MODEL 1
REMARK minimizedAffinity 11.0055847
REMARK minimizedRMSD -1
REMARK  0 active torsions:
REMARK  status: ('A' for Active; 'I' for Inactive)
ROOT
ATOM      1  O1  BZF d   1      -1.724   0.357  -3.690  0.00  0.00    -0.204 OA
ATOM      2  C2  BZF d   1      -0.931  -0.738  -3.402  0.00  0.00     0.174 A 
ATOM      3  C3  BZF d   1      -1.027  -1.067  -2.098  0.00  0.00    -0.012 A 
ATOM      4  C3A BZF d   1      -2.007  -0.177  -1.556  0.00  0.00    -0.107 A 
ATOM      5  C4  BZF d   1      -2.549  -0.022  -0.312  0.00  0.00     0.055 A 
ATOM      6  C5  BZF d   1      -3.430   0.990  -0.096  0.00  0.00    -0.016 A 
ATOM      7  C6  BZF d   1      -3.787   1.867  -1.099  0.00  0.00     0.022 A 
ATOM      8  C7  BZF d   1      -3.280   1.750  -2.351  0.00  0.00     0.029 A 
ATOM      9  C7A BZF d   1      -2.415   0.709  -2.580  0.00  0.00     0.058 A 
ENDROOT
TORSDOF 0
ENDMDL
