MODEL 1
REMARK minimizedAffinity 14.9133768
REMARK minimizedRMSD -1
REMARK  0 active torsions:
REMARK  status: ('A' for Active; 'I' for Inactive)
ROOT
ATOM      1  O1  BZF d   1       3.343  -4.926  -3.489  0.00  0.00    -0.204 OA
ATOM      2  C2  BZF d   1       2.992  -6.000  -2.694  0.00  0.00     0.174 A 
ATOM      3  C3  BZF d   1       3.695  -5.994  -1.543  0.00  0.00    -0.012 A 
ATOM      4  C3A BZF d   1       4.471  -4.792  -1.583  0.00  0.00    -0.107 A 
ATOM      5  C4  BZF d   1       5.358  -4.219  -0.717  0.00  0.00     0.055 A 
ATOM      6  C5  BZF d   1       6.000  -3.080  -1.088  0.00  0.00    -0.016 A 
ATOM      7  C6  BZF d   1       5.782  -2.491  -2.316  0.00  0.00     0.022 A 
ATOM      8  C7  BZF d   1       4.908  -3.020  -3.206  0.00  0.00     0.029 A 
ATOM      9  C7A BZF d   1       4.233  -4.153  -2.821  0.00  0.00     0.058 A 
ENDROOT
TORSDOF 0
ENDMDL
