MODEL 1
REMARK minimizedAffinity 10.3994694
REMARK minimizedRMSD -1
REMARK  0 active torsions:
REMARK  status: ('A' for Active; 'I' for Inactive)
ROOT
ATOM      1  O1  BZF d   1      -2.380   0.583  -5.205  0.00  0.00    -0.204 OA
ATOM      2  C2  BZF d   1      -3.168   1.704  -5.030  0.00  0.00     0.174 A 
ATOM      3  C3  BZF d   1      -3.388   1.935  -3.720  0.00  0.00    -0.012 A 
ATOM      4  C3A BZF d   1      -2.618   0.947  -3.029  0.00  0.00    -0.107 A 
ATOM      5  C4  BZF d   1      -2.414   0.670  -1.707  0.00  0.00     0.055 A 
ATOM      6  C5  BZF d   1      -1.663  -0.410  -1.367  0.00  0.00    -0.016 A 
ATOM      7  C6  BZF d   1      -1.106  -1.237  -2.320  0.00  0.00     0.022 A 
ATOM      8  C7  BZF d   1      -1.276  -1.000  -3.644  0.00  0.00     0.029 A 
ATOM      9  C7A BZF d   1      -2.007   0.110  -3.991  0.00  0.00     0.058 A 
ENDROOT
TORSDOF 0
ENDMDL
