MODEL 1
REMARK minimizedAffinity 11.7851849
REMARK minimizedRMSD -1
REMARK  0 active torsions:
REMARK  status: ('A' for Active; 'I' for Inactive)
ROOT
ATOM      1  O1  BZF d   1       0.779   4.302   0.141  0.00  0.00    -0.204 OA
ATOM      2  C2  BZF d   1      -0.215   3.362  -0.059  0.00  0.00     0.174 A 
ATOM      3  C3  BZF d   1      -0.002   2.272   0.705  0.00  0.00    -0.012 A 
ATOM      4  C3A BZF d   1       1.148   2.584   1.496  0.00  0.00    -0.107 A 
ATOM      5  C4  BZF d   1       1.839   1.905   2.458  0.00  0.00     0.055 A 
ATOM      6  C5  BZF d   1       2.962   2.462   2.983  0.00  0.00    -0.016 A 
ATOM      7  C6  BZF d   1       3.426   3.692   2.565  0.00  0.00     0.022 A 
ATOM      8  C7  BZF d   1       2.772   4.406   1.616  0.00  0.00     0.029 A 
ATOM      9  C7A BZF d   1       1.618   3.861   1.108  0.00  0.00     0.058 A 
ENDROOT
TORSDOF 0
ENDMDL
