MODEL 1
REMARK minimizedAffinity 10.7042732
REMARK minimizedRMSD -1
REMARK  0 active torsions:
REMARK  status: ('A' for Active; 'I' for Inactive)
ROOT
ATOM      1  O1  BZF d   1       2.566   3.852   1.148  0.00  0.00    -0.204 OA
ATOM      2  C2  BZF d   1       3.086   5.132   1.130  0.00  0.00     0.174 A 
ATOM      3  C3  BZF d   1       2.202   6.000   0.597  0.00  0.00    -0.012 A 
ATOM      4  C3A BZF d   1       1.022   5.230   0.346  0.00  0.00    -0.107 A 
ATOM      5  C4  BZF d   1      -0.207   5.535  -0.164  0.00  0.00     0.055 A 
ATOM      6  C5  BZF d   1      -1.112   4.537  -0.347  0.00  0.00    -0.016 A 
ATOM      7  C6  BZF d   1      -0.820   3.225  -0.036  0.00  0.00     0.022 A 
ATOM      8  C7  BZF d   1       0.385   2.875   0.477  0.00  0.00     0.029 A 
ATOM      9  C7A BZF d   1       1.290   3.885   0.694  0.00  0.00     0.058 A 
ENDROOT
TORSDOF 0
ENDMDL
