MODEL 1
REMARK minimizedAffinity 14.2099485
REMARK minimizedRMSD -1
REMARK  0 active torsions:
REMARK  status: ('A' for Active; 'I' for Inactive)
ROOT
ATOM      1  O1  BZF d   1       3.936  -1.024  -0.044  0.00  0.00    -0.204 OA
ATOM      2  C2  BZF d   1       2.834  -1.329   0.732  0.00  0.00     0.174 A 
ATOM      3  C3  BZF d   1       2.666  -2.665   0.819  0.00  0.00    -0.012 A 
ATOM      4  C3A BZF d   1       3.783  -3.231   0.127  0.00  0.00    -0.107 A 
ATOM      5  C4  BZF d   1       4.184  -4.513  -0.117  0.00  0.00     0.055 A 
ATOM      6  C5  BZF d   1       5.283  -4.726  -0.888  0.00  0.00    -0.016 A 
ATOM      7  C6  BZF d   1       6.000  -3.682  -1.434  0.00  0.00     0.022 A 
ATOM      8  C7  BZF d   1       5.644  -2.393  -1.215  0.00  0.00     0.029 A 
ATOM      9  C7A BZF d   1       4.553  -2.174  -0.410  0.00  0.00     0.058 A 
ENDROOT
TORSDOF 0
ENDMDL
