MODEL 1
REMARK minimizedAffinity 12.7695274
REMARK minimizedRMSD -1
REMARK  0 active torsions:
REMARK  status: ('A' for Active; 'I' for Inactive)
ROOT
ATOM      1  O1  BZF d   1       0.628  -0.019   4.239  0.00  0.00    -0.204 OA
ATOM      2  C2  BZF d   1       1.321  -0.820   5.126  0.00  0.00     0.174 A 
ATOM      3  C3  BZF d   1       2.597  -0.404   5.250  0.00  0.00    -0.012 A 
ATOM      4  C3A BZF d   1       2.685   0.784   4.458  0.00  0.00    -0.107 A 
ATOM      5  C4  BZF d   1       3.694   1.665   4.194  0.00  0.00     0.055 A 
ATOM      6  C5  BZF d   1       3.473   2.682   3.320  0.00  0.00    -0.016 A 
ATOM      7  C6  BZF d   1       2.257   2.845   2.689  0.00  0.00     0.022 A 
ATOM      8  C7  BZF d   1       1.224   2.000   2.923  0.00  0.00     0.029 A 
ATOM      9  C7A BZF d   1       1.434   0.990   3.830  0.00  0.00     0.058 A 
ENDROOT
TORSDOF 0
ENDMDL
