MODEL 1
REMARK minimizedAffinity -4.00867939
REMARK minimizedRMSD -1
REMARK  0 active torsions:
REMARK  status: ('A' for Active; 'I' for Inactive)
ROOT
ATOM      1  C   UNL d   1      -2.267  -0.189  -3.711  0.00  0.00    -0.002 A 
ATOM      2  C1  UNL d   1      -2.744   1.003  -3.185  0.00  0.00     0.010 A 
ATOM      3  C2  UNL d   1      -2.272   1.476  -1.959  0.00  0.00     0.041 A 
ATOM      4  C3  UNL d   1      -1.303   0.725  -1.265  0.00  0.00    -0.075 A 
ATOM      5  S   UNL d   1      -0.579   1.110   0.252  0.00  0.00     0.015 SA
ATOM      6  C4  UNL d   1       0.380  -0.299   0.236  0.00  0.00     0.022 A 
ATOM      7  C5  UNL d   1       0.166  -1.056  -0.891  0.00  0.00     0.026 A 
ATOM      8  C6  UNL d   1      -0.807  -0.478  -1.775  0.00  0.00    -0.082 A 
ATOM      9  C7  UNL d   1      -1.306  -0.932  -3.020  0.00  0.00     0.045 A 
ENDROOT
TORSDOF 0
ENDMDL
