MODEL 1
REMARK minimizedAffinity -3.45350313
REMARK minimizedRMSD -1
REMARK  0 active torsions:
REMARK  status: ('A' for Active; 'I' for Inactive)
ROOT
ATOM      1  C   UNL d   1       0.272  -3.098   0.440  0.00  0.00    -0.002 A 
ATOM      2  C1  UNL d   1       0.821  -2.519  -0.695  0.00  0.00     0.010 A 
ATOM      3  C2  UNL d   1       0.565  -1.183  -1.006  0.00  0.00     0.041 A 
ATOM      4  C3  UNL d   1      -0.260  -0.429  -0.148  0.00  0.00    -0.075 A 
ATOM      5  S   UNL d   1      -0.711   1.225  -0.328  0.00  0.00     0.015 SA
ATOM      6  C4  UNL d   1      -1.643   1.204   1.098  0.00  0.00     0.022 A 
ATOM      7  C5  UNL d   1      -1.622  -0.028   1.710  0.00  0.00     0.026 A 
ATOM      8  C6  UNL d   1      -0.824  -0.989   1.002  0.00  0.00    -0.082 A 
ATOM      9  C7  UNL d   1      -0.546  -2.347   1.289  0.00  0.00     0.045 A 
ENDROOT
TORSDOF 0
ENDMDL
