MODEL 1
REMARK minimizedAffinity 0.385405093
REMARK minimizedRMSD -1
REMARK  0 active torsions:
REMARK  status: ('A' for Active; 'I' for Inactive)
ROOT
ATOM      1  C   UNL d   1       2.954  -1.820   1.159  0.00  0.00    -0.002 A 
ATOM      2  C1  UNL d   1       3.066  -1.045   0.014  0.00  0.00     0.010 A 
ATOM      3  C2  UNL d   1       1.946  -0.411  -0.527  0.00  0.00     0.041 A 
ATOM      4  C3  UNL d   1       0.699  -0.569   0.110  0.00  0.00    -0.075 A 
ATOM      5  S   UNL d   1      -0.809   0.114  -0.372  0.00  0.00     0.015 SA
ATOM      6  C4  UNL d   1      -1.637  -0.607   0.931  0.00  0.00     0.022 A 
ATOM      7  C5  UNL d   1      -0.799  -1.354   1.725  0.00  0.00     0.026 A 
ATOM      8  C6  UNL d   1       0.561  -1.344   1.265  0.00  0.00    -0.082 A 
ATOM      9  C7  UNL d   1       1.716  -1.975   1.788  0.00  0.00     0.045 A 
ENDROOT
TORSDOF 0
ENDMDL
