MODEL 1
REMARK minimizedAffinity -0.956195891
REMARK minimizedRMSD -1
REMARK  0 active torsions:
REMARK  status: ('A' for Active; 'I' for Inactive)
ROOT
ATOM      1  C   UNL d   1       0.260  -2.705   2.021  0.00  0.00    -0.002 A 
ATOM      2  C1  UNL d   1      -0.926  -2.049   1.723  0.00  0.00     0.010 A 
ATOM      3  C2  UNL d   1      -0.935  -0.960   0.850  0.00  0.00     0.041 A 
ATOM      4  C3  UNL d   1       0.279  -0.537   0.274  0.00  0.00    -0.075 A 
ATOM      5  S   UNL d   1       0.509   0.773  -0.823  0.00  0.00     0.015 SA
ATOM      6  C4  UNL d   1       2.187   0.493  -0.922  0.00  0.00     0.022 A 
ATOM      7  C5  UNL d   1       2.580  -0.570  -0.144  0.00  0.00     0.026 A 
ATOM      8  C6  UNL d   1       1.486  -1.181   0.559  0.00  0.00    -0.082 A 
ATOM      9  C7  UNL d   1       1.463  -2.282   1.448  0.00  0.00     0.045 A 
ENDROOT
TORSDOF 0
ENDMDL
