MODEL 1
REMARK minimizedAffinity -1.79949534
REMARK minimizedRMSD -1
REMARK  0 active torsions:
REMARK  status: ('A' for Active; 'I' for Inactive)
ROOT
ATOM      1  C   UNL d   1      -0.942  -0.692   2.237  0.00  0.00    -0.002 A 
ATOM      2  C1  UNL d   1      -1.447   0.177   1.281  0.00  0.00     0.010 A 
ATOM      3  C2  UNL d   1      -0.670   0.559   0.185  0.00  0.00     0.041 A 
ATOM      4  C3  UNL d   1       0.636   0.044   0.065  0.00  0.00    -0.075 A 
ATOM      5  S   UNL d   1       1.770   0.371  -1.192  0.00  0.00     0.015 SA
ATOM      6  C4  UNL d   1       2.952  -0.637  -0.490  0.00  0.00     0.022 A 
ATOM      7  C5  UNL d   1       2.509  -1.217   0.675  0.00  0.00     0.026 A 
ATOM      8  C6  UNL d   1       1.167  -0.834   1.014  0.00  0.00    -0.082 A 
ATOM      9  C7  UNL d   1       0.354  -1.200   2.114  0.00  0.00     0.045 A 
ENDROOT
TORSDOF 0
ENDMDL
