MODEL 1
REMARK minimizedAffinity -0.929871798
REMARK minimizedRMSD -1
REMARK  0 active torsions:
REMARK  status: ('A' for Active; 'I' for Inactive)
ROOT
ATOM      1  C   UNL d   1       2.356  -1.834  -0.184  0.00  0.00    -0.002 A 
ATOM      2  C1  UNL d   1       1.985  -1.603   1.133  0.00  0.00     0.010 A 
ATOM      3  C2  UNL d   1       0.996  -0.665   1.438  0.00  0.00     0.041 A 
ATOM      4  C3  UNL d   1       0.379   0.041   0.387  0.00  0.00    -0.075 A 
ATOM      5  S   UNL d   1      -0.857   1.236   0.522  0.00  0.00     0.015 SA
ATOM      6  C4  UNL d   1      -0.922   1.467  -1.165  0.00  0.00     0.022 A 
ATOM      7  C5  UNL d   1      -0.029   0.660  -1.831  0.00  0.00     0.026 A 
ATOM      8  C6  UNL d   1       0.735  -0.175  -0.947  0.00  0.00    -0.082 A 
ATOM      9  C7  UNL d   1       1.741  -1.131  -1.224  0.00  0.00     0.045 A 
ENDROOT
TORSDOF 0
ENDMDL
