MODEL 1
REMARK minimizedAffinity -3.6154058
REMARK minimizedRMSD -1
REMARK  0 active torsions:
REMARK  status: ('A' for Active; 'I' for Inactive)
ROOT
ATOM      1  C   UNL d   1       1.813  -2.746   1.370  0.00  0.00    -0.002 A 
ATOM      2  C1  UNL d   1       0.490  -2.563   1.746  0.00  0.00     0.010 A 
ATOM      3  C2  UNL d   1      -0.203  -1.411   1.369  0.00  0.00     0.041 A 
ATOM      4  C3  UNL d   1       0.462  -0.437   0.598  0.00  0.00    -0.075 A 
ATOM      5  S   UNL d   1      -0.187   1.052   0.020  0.00  0.00     0.015 SA
ATOM      6  C4  UNL d   1       1.277   1.480  -0.741  0.00  0.00     0.022 A 
ATOM      7  C5  UNL d   1       2.248   0.522  -0.568  0.00  0.00     0.026 A 
ATOM      8  C6  UNL d   1       1.794  -0.599   0.206  0.00  0.00    -0.082 A 
ATOM      9  C7  UNL d   1       2.469  -1.778   0.605  0.00  0.00     0.045 A 
ENDROOT
TORSDOF 0
ENDMDL
