MODEL 1
REMARK minimizedAffinity 5.36376524
REMARK minimizedRMSD -1
REMARK  0 active torsions:
REMARK  status: ('A' for Active; 'I' for Inactive)
ROOT
ATOM      1  C   UNL d   1      -1.141   0.075  -0.654  0.00  0.00    -0.002 A 
ATOM      2  C1  UNL d   1      -1.642   0.571   0.542  0.00  0.00     0.010 A 
ATOM      3  C2  UNL d   1      -1.018   0.268   1.754  0.00  0.00     0.041 A 
ATOM      4  C3  UNL d   1       0.130  -0.548   1.743  0.00  0.00    -0.075 A 
ATOM      5  S   UNL d   1       1.061  -1.050   3.105  0.00  0.00     0.015 SA
ATOM      6  C4  UNL d   1       2.145  -1.934   2.132  0.00  0.00     0.022 A 
ATOM      7  C5  UNL d   1       1.820  -1.859   0.798  0.00  0.00     0.026 A 
ATOM      8  C6  UNL d   1       0.654  -1.059   0.552  0.00  0.00    -0.082 A 
ATOM      9  C7  UNL d   1      -0.002  -0.734  -0.660  0.00  0.00     0.045 A 
ENDROOT
TORSDOF 0
ENDMDL
