MODEL 1
REMARK minimizedAffinity 0.0904643089
REMARK minimizedRMSD -1
REMARK  0 active torsions:
REMARK  status: ('A' for Active; 'I' for Inactive)
ROOT
ATOM      1  C   UNL d   1       2.676  -1.356   0.454  0.00  0.00    -0.002 A 
ATOM      2  C1  UNL d   1       2.931  -0.016   0.196  0.00  0.00     0.010 A 
ATOM      3  C2  UNL d   1       1.900   0.840  -0.198  0.00  0.00     0.041 A 
ATOM      4  C3  UNL d   1       0.596   0.322  -0.328  0.00  0.00    -0.075 A 
ATOM      5  S   UNL d   1      -0.822   1.182  -0.796  0.00  0.00     0.015 SA
ATOM      6  C4  UNL d   1      -1.800  -0.208  -0.663  0.00  0.00     0.022 A 
ATOM      7  C5  UNL d   1      -1.078  -1.310  -0.273  0.00  0.00     0.026 A 
ATOM      8  C6  UNL d   1       0.315  -1.024  -0.073  0.00  0.00    -0.082 A 
ATOM      9  C7  UNL d   1       1.382  -1.866   0.324  0.00  0.00     0.045 A 
ENDROOT
TORSDOF 0
ENDMDL
