MODEL 1
REMARK minimizedAffinity -0.200684711
REMARK minimizedRMSD -1
REMARK  0 active torsions:
REMARK  status: ('A' for Active; 'I' for Inactive)
ROOT
ATOM      1  C   UNL d   1       1.186  -0.158   0.505  0.00  0.00    -0.002 A 
ATOM      2  C1  UNL d   1       1.410  -1.052  -0.532  0.00  0.00     0.010 A 
ATOM      3  C2  UNL d   1       0.749  -0.904  -1.753  0.00  0.00     0.041 A 
ATOM      4  C3  UNL d   1      -0.150   0.168  -1.916  0.00  0.00    -0.075 A 
ATOM      5  S   UNL d   1      -1.073   0.547  -3.322  0.00  0.00     0.015 SA
ATOM      6  C4  UNL d   1      -1.786   1.905  -2.579  0.00  0.00     0.022 A 
ATOM      7  C5  UNL d   1      -1.343   2.080  -1.289  0.00  0.00     0.026 A 
ATOM      8  C6  UNL d   1      -0.393   1.082  -0.886  0.00  0.00    -0.082 A 
ATOM      9  C7  UNL d   1       0.293   0.905   0.340  0.00  0.00     0.045 A 
ENDROOT
TORSDOF 0
ENDMDL
