MODEL 1
REMARK minimizedAffinity -1.04035783
REMARK minimizedRMSD -1
REMARK  0 active torsions:
REMARK  status: ('A' for Active; 'I' for Inactive)
ROOT
ATOM      1  C   UNL d   1       2.729  -1.329  -0.021  0.00  0.00    -0.002 A 
ATOM      2  C1  UNL d   1       1.827  -2.145   0.648  0.00  0.00     0.010 A 
ATOM      3  C2  UNL d   1       0.483  -1.783   0.749  0.00  0.00     0.041 A 
ATOM      4  C3  UNL d   1       0.055  -0.577   0.160  0.00  0.00    -0.075 A 
ATOM      5  S   UNL d   1      -1.544   0.068   0.157  0.00  0.00     0.015 SA
ATOM      6  C4  UNL d   1      -1.068   1.441  -0.733  0.00  0.00     0.022 A 
ATOM      7  C5  UNL d   1       0.274   1.424  -1.028  0.00  0.00     0.026 A 
ATOM      8  C6  UNL d   1       0.944   0.260  -0.519  0.00  0.00    -0.082 A 
ATOM      9  C7  UNL d   1       2.301  -0.133  -0.604  0.00  0.00     0.045 A 
ENDROOT
TORSDOF 0
ENDMDL
