MODEL 1
REMARK minimizedAffinity -0.653946817
REMARK minimizedRMSD -1
REMARK  0 active torsions:
REMARK  status: ('A' for Active; 'I' for Inactive)
ROOT
ATOM      1  C   UNL d   1       2.037  -0.360   1.595  0.00  0.00     0.078 C 
ATOM      2  C1  UNL d   1       0.987   0.291   0.745  0.00  0.00    -0.077 A 
ATOM      3  C2  UNL d   1       0.853   1.684   0.704  0.00  0.00    -0.001 A 
ATOM      4  C3  UNL d   1      -0.135   2.276  -0.084  0.00  0.00     0.003 A 
ATOM      5  C4  UNL d   1      -0.998   1.482  -0.837  0.00  0.00    -0.005 A 
ATOM      6  C5  UNL d   1      -0.873   0.094  -0.802  0.00  0.00     0.003 A 
ATOM      7  C6  UNL d   1       0.114  -0.499  -0.014  0.00  0.00    -0.001 A 
ENDROOT
TORSDOF 0
ENDMDL
