MODEL 1
REMARK minimizedAffinity 4.69243765
REMARK minimizedRMSD -1
REMARK  0 active torsions:
REMARK  status: ('A' for Active; 'I' for Inactive)
ROOT
ATOM      1  C   UNL d   1       1.839   2.029   0.298  0.00  0.00     0.078 C 
ATOM      2  C1  UNL d   1       2.340   0.617   0.374  0.00  0.00    -0.077 A 
ATOM      3  C2  UNL d   1       2.989   0.143   1.521  0.00  0.00    -0.001 A 
ATOM      4  C3  UNL d   1       3.459  -1.170   1.574  0.00  0.00     0.003 A 
ATOM      5  C4  UNL d   1       3.286  -2.020   0.483  0.00  0.00    -0.005 A 
ATOM      6  C5  UNL d   1       2.643  -1.556  -0.663  0.00  0.00     0.003 A 
ATOM      7  C6  UNL d   1       2.173  -0.243  -0.718  0.00  0.00    -0.001 A 
ENDROOT
TORSDOF 0
ENDMDL
