MODEL 1
REMARK minimizedAffinity -2.95529819
REMARK minimizedRMSD -1
REMARK  0 active torsions:
REMARK  status: ('A' for Active; 'I' for Inactive)
ROOT
ATOM      1  C   UNL d   1       1.053   1.999   0.060  0.00  0.00     0.078 C 
ATOM      2  C1  UNL d   1      -0.150   1.981   0.955  0.00  0.00    -0.077 A 
ATOM      3  C2  UNL d   1      -0.090   1.410   2.232  0.00  0.00    -0.001 A 
ATOM      4  C3  UNL d   1      -1.220   1.392   3.051  0.00  0.00     0.003 A 
ATOM      5  C4  UNL d   1      -2.420   1.940   2.601  0.00  0.00    -0.005 A 
ATOM      6  C5  UNL d   1      -2.490   2.508   1.330  0.00  0.00     0.003 A 
ATOM      7  C6  UNL d   1      -1.360   2.528   0.510  0.00  0.00    -0.001 A 
ENDROOT
TORSDOF 0
ENDMDL
