MODEL 1
REMARK minimizedAffinity 4.27024031
REMARK minimizedRMSD -1
REMARK  0 active torsions:
REMARK  status: ('A' for Active; 'I' for Inactive)
ROOT
ATOM      1  C   UNL d   1      -5.255  -0.887  -5.176  0.00  0.00     0.078 C 
ATOM      2  C1  UNL d   1      -4.962   0.499  -4.684  0.00  0.00    -0.077 A 
ATOM      3  C2  UNL d   1      -5.144   0.840  -3.338  0.00  0.00    -0.001 A 
ATOM      4  C3  UNL d   1      -4.876   2.136  -2.895  0.00  0.00     0.003 A 
ATOM      5  C4  UNL d   1      -4.427   3.103  -3.793  0.00  0.00    -0.005 A 
ATOM      6  C5  UNL d   1      -4.245   2.774  -5.134  0.00  0.00     0.003 A 
ATOM      7  C6  UNL d   1      -4.512   1.478  -5.578  0.00  0.00    -0.001 A 
ENDROOT
TORSDOF 0
ENDMDL
