MODEL 1
REMARK minimizedAffinity 12.2576208
REMARK minimizedRMSD -1
REMARK  0 active torsions:
REMARK  status: ('A' for Active; 'I' for Inactive)
ROOT
ATOM      1  C   UNL d   1       0.864   2.982   0.328  0.00  0.00     0.078 C 
ATOM      2  C1  UNL d   1       0.032   2.427   1.446  0.00  0.00    -0.077 A 
ATOM      3  C2  UNL d   1      -1.313   2.789   1.591  0.00  0.00    -0.001 A 
ATOM      4  C3  UNL d   1      -2.073   2.273   2.642  0.00  0.00     0.003 A 
ATOM      5  C4  UNL d   1      -1.497   1.393   3.556  0.00  0.00    -0.005 A 
ATOM      6  C5  UNL d   1      -0.158   1.029   3.421  0.00  0.00     0.003 A 
ATOM      7  C6  UNL d   1       0.603   1.545   2.371  0.00  0.00    -0.001 A 
ENDROOT
TORSDOF 0
ENDMDL
