MODEL 1
REMARK minimizedAffinity -4.15797997
REMARK minimizedRMSD -1
REMARK  2 active torsions:
REMARK  status: ('A' for Active; 'I' for Inactive)
REMARK    1  A    between atoms: C2'_3  and  C1'_4 
REMARK    2  A    between atoms: C1'_4  and  C1_5 
ROOT
ATOM      1  C1  I4B d   1       0.032   2.587  -0.932  0.00  0.00    -0.075 A 
ATOM      2  C2  I4B d   1      -1.078   2.201  -1.641  0.00  0.00     0.003 A 
ATOM      3  C3  I4B d   1      -1.486   2.933  -2.782  0.00  0.00     0.002 A 
ATOM      4  C4  I4B d   1      -0.788   4.066  -3.147  0.00  0.00    -0.004 A 
ATOM      5  C5  I4B d   1       0.350   4.444  -2.441  0.00  0.00     0.002 A 
ATOM      6  C6  I4B d   1       0.771   3.692  -1.333  0.00  0.00     0.003 A 
ENDROOT
BRANCH   1   7
ATOM      7  C1' I4B d   1       0.415   1.810   0.287  0.00  0.00     0.060 C 
BRANCH   7   8
ATOM      8  C2' I4B d   1       0.324   0.336  -0.051  0.00  0.00    -0.013 C 
ATOM      9  C4' I4B d   1       1.641  -0.358   0.177  0.00  0.00     0.013 C 
ATOM     10  C3' I4B d   1      -0.759  -0.267   0.794  0.00  0.00     0.013 C 
ENDBRANCH   7   8
ENDBRANCH   1   7
TORSDOF 2
ENDMDL
