MODEL 1
REMARK minimizedAffinity -5.59417248
REMARK minimizedRMSD -1
REMARK  2 active torsions:
REMARK  status: ('A' for Active; 'I' for Inactive)
REMARK    1  A    between atoms: C2'_3  and  C1'_4 
REMARK    2  A    between atoms: C1'_4  and  C1_5 
ROOT
ATOM      1  C1  I4B d   1      -0.865  -0.360  -0.345  0.00  0.00    -0.075 A 
ATOM      2  C2  I4B d   1      -1.016   0.046  -1.647  0.00  0.00     0.003 A 
ATOM      3  C3  I4B d   1      -2.269  -0.084  -2.294  0.00  0.00     0.002 A 
ATOM      4  C4  I4B d   1      -3.323  -0.668  -1.622  0.00  0.00    -0.004 A 
ATOM      5  C5  I4B d   1      -3.175  -1.058  -0.294  0.00  0.00     0.002 A 
ATOM      6  C6  I4B d   1      -1.942  -0.892   0.353  0.00  0.00     0.003 A 
ENDROOT
BRANCH   1   7
ATOM      7  C1' I4B d   1       0.480  -0.238   0.297  0.00  0.00     0.060 C 
BRANCH   7   8
ATOM      8  C2' I4B d   1       0.284   0.323   1.690  0.00  0.00    -0.013 C 
ATOM      9  C4' I4B d   1       1.314  -0.217   2.646  0.00  0.00     0.013 C 
ATOM     10  C3' I4B d   1       0.359   1.818   1.602  0.00  0.00     0.013 C 
ENDBRANCH   7   8
ENDBRANCH   1   7
TORSDOF 2
ENDMDL
