MODEL 1
REMARK minimizedAffinity -0.0948349014
REMARK minimizedRMSD -1
REMARK  2 active torsions:
REMARK  status: ('A' for Active; 'I' for Inactive)
REMARK    1  A    between atoms: C2'_3  and  C1'_4 
REMARK    2  A    between atoms: C1'_4  and  C1_5 
ROOT
ATOM      1  C1  I4B d   1       0.332   1.422  -0.329  0.00  0.00    -0.075 A 
ATOM      2  C2  I4B d   1       0.352   0.272  -1.078  0.00  0.00     0.003 A 
ATOM      3  C3  I4B d   1       1.027  -0.878  -0.601  0.00  0.00     0.002 A 
ATOM      4  C4  I4B d   1       1.707  -0.818   0.598  0.00  0.00    -0.004 A 
ATOM      5  C5  I4B d   1       1.667   0.341   1.367  0.00  0.00     0.002 A 
ATOM      6  C6  I4B d   1       0.965   1.465   0.906  0.00  0.00     0.003 A 
ENDROOT
BRANCH   1   7
ATOM      7  C1' I4B d   1      -0.362   2.627  -0.878  0.00  0.00     0.060 C 
BRANCH   7   8
ATOM      8  C2' I4B d   1      -0.053   2.710  -2.360  0.00  0.00    -0.013 C 
ATOM      9  C4' I4B d   1      -1.316   2.799  -3.176  0.00  0.00     0.013 C 
ATOM     10  C3' I4B d   1       0.823   3.906  -2.584  0.00  0.00     0.013 C 
ENDBRANCH   7   8
ENDBRANCH   1   7
TORSDOF 2
ENDMDL
