MODEL 1
REMARK minimizedAffinity 2.51258969
REMARK minimizedRMSD -1
REMARK  2 active torsions:
REMARK  status: ('A' for Active; 'I' for Inactive)
REMARK    1  A    between atoms: C2'_3  and  C1'_4 
REMARK    2  A    between atoms: C1'_4  and  C1_5 
ROOT
ATOM      1  C1  I4B d   1      -0.387   1.564  -1.833  0.00  0.00    -0.075 A 
ATOM      2  C2  I4B d   1      -1.583   2.235  -1.888  0.00  0.00     0.003 A 
ATOM      3  C3  I4B d   1      -1.633   3.565  -2.371  0.00  0.00     0.002 A 
ATOM      4  C4  I4B d   1      -0.464   4.198  -2.740  0.00  0.00    -0.004 A 
ATOM      5  C5  I4B d   1       0.744   3.509  -2.706  0.00  0.00     0.002 A 
ATOM      6  C6  I4B d   1       0.782   2.180  -2.262  0.00  0.00     0.003 A 
ENDROOT
BRANCH   1   7
ATOM      7  C1' I4B d   1      -0.365   0.172  -1.286  0.00  0.00     0.060 C 
BRANCH   7   8
ATOM      8  C2' I4B d   1       0.866   0.033  -0.413  0.00  0.00    -0.013 C 
ATOM      9  C4' I4B d   1       0.495  -0.359   0.993  0.00  0.00     0.013 C 
ATOM     10  C3' I4B d   1       1.765  -0.990  -1.041  0.00  0.00     0.013 C 
ENDBRANCH   7   8
ENDBRANCH   1   7
TORSDOF 2
ENDMDL
