MODEL 1
REMARK minimizedAffinity -2.71856594
REMARK minimizedRMSD -1
REMARK  2 active torsions:
REMARK  status: ('A' for Active; 'I' for Inactive)
REMARK    1  A    between atoms: C2'_3  and  C1'_4 
REMARK    2  A    between atoms: C1'_4  and  C1_5 
ROOT
ATOM      1  C1  I4B d   1      -0.040   0.646  -0.686  0.00  0.00    -0.075 A 
ATOM      2  C2  I4B d   1      -0.849   0.408   0.397  0.00  0.00     0.003 A 
ATOM      3  C3  I4B d   1      -0.313  -0.164   1.576  0.00  0.00     0.002 A 
ATOM      4  C4  I4B d   1       1.018  -0.528   1.610  0.00  0.00    -0.004 A 
ATOM      5  C5  I4B d   1       1.842  -0.266   0.519  0.00  0.00     0.002 A 
ATOM      6  C6  I4B d   1       1.313   0.336  -0.631  0.00  0.00     0.003 A 
ENDROOT
BRANCH   1   7
ATOM      7  C1' I4B d   1      -0.646   1.221  -1.926  0.00  0.00     0.060 C 
BRANCH   7   8
ATOM      8  C2' I4B d   1       0.138   2.465  -2.295  0.00  0.00    -0.013 C 
ATOM      9  C4' I4B d   1       0.859   2.286  -3.605  0.00  0.00     0.013 C 
ATOM     10  C3' I4B d   1      -0.822   3.615  -2.358  0.00  0.00     0.013 C 
ENDBRANCH   7   8
ENDBRANCH   1   7
TORSDOF 2
ENDMDL
