MODEL 1
REMARK minimizedAffinity -5.18739748
REMARK minimizedRMSD -1
REMARK  1 active torsions:
REMARK  status: ('A' for Active; 'I' for Inactive)
REMARK    1  A    between atoms: N_2  and  C1_3 
ROOT
ATOM      1  C1  UNL d   1      -0.148  -1.006   0.105  0.00  0.00     0.143 A 
ATOM      2  C2  UNL d   1      -0.776  -2.155   0.597  0.00  0.00    -0.057 A 
ATOM      3  C3  UNL d   1      -0.707  -3.372  -0.092  0.00  0.00     0.033 A 
ATOM      4  C4  UNL d   1      -0.031  -3.454  -1.306  0.00  0.00    -0.042 A 
ATOM      5  C5  UNL d   1       0.579  -2.318  -1.826  0.00  0.00     0.033 A 
ATOM      6  C6  UNL d   1       0.512  -1.108  -1.130  0.00  0.00    -0.057 A 
ENDROOT
BRANCH   1   7
ATOM      7  N   UNL d   1      -0.263   0.256   0.694  0.00  0.00    -0.732 N 
ATOM      8  C   UNL d   1       0.146   1.444  -0.024  0.00  0.00     0.284 C 
ATOM      9  H3  UNL d   1      -1.129   0.363   1.216  0.00  0.00     0.395 HD
ENDBRANCH   1   7
TORSDOF 1
ENDMDL
