MODEL 1
REMARK minimizedAffinity -2.29750323
REMARK minimizedRMSD -1
REMARK  1 active torsions:
REMARK  status: ('A' for Active; 'I' for Inactive)
REMARK    1  A    between atoms: N_2  and  C1_3 
ROOT
ATOM      1  C1  UNL d   1      -0.427   0.089   0.753  0.00  0.00     0.143 A 
ATOM      2  C2  UNL d   1      -1.535  -0.515   1.358  0.00  0.00    -0.057 A 
ATOM      3  C3  UNL d   1      -1.727  -1.900   1.302  0.00  0.00     0.033 A 
ATOM      4  C4  UNL d   1      -0.827  -2.706   0.612  0.00  0.00    -0.042 A 
ATOM      5  C5  UNL d   1       0.267  -2.125  -0.018  0.00  0.00     0.033 A 
ATOM      6  C6  UNL d   1       0.458  -0.741   0.048  0.00  0.00    -0.057 A 
ENDROOT
BRANCH   1   7
ATOM      7  N   UNL d   1      -0.232   1.471   0.690  0.00  0.00    -0.732 N 
ATOM      8  C   UNL d   1       0.240   2.094  -0.528  0.00  0.00     0.284 C 
ATOM      9  H3  UNL d   1      -0.969   1.989   1.163  0.00  0.00     0.395 HD
ENDBRANCH   1   7
TORSDOF 1
ENDMDL
