MODEL 1
REMARK minimizedAffinity -4.14309978
REMARK minimizedRMSD -1
REMARK  1 active torsions:
REMARK  status: ('A' for Active; 'I' for Inactive)
REMARK    1  A    between atoms: N_2  and  C1_3 
ROOT
ATOM      1  C1  UNL d   1       0.086   1.229  -0.513  0.00  0.00     0.143 A 
ATOM      2  C2  UNL d   1       0.113   0.800  -1.844  0.00  0.00    -0.057 A 
ATOM      3  C3  UNL d   1       0.117  -0.562  -2.169  0.00  0.00     0.033 A 
ATOM      4  C4  UNL d   1       0.122  -1.523  -1.163  0.00  0.00    -0.042 A 
ATOM      5  C5  UNL d   1       0.121  -1.120   0.168  0.00  0.00     0.033 A 
ATOM      6  C6  UNL d   1       0.111   0.242   0.485  0.00  0.00    -0.057 A 
ENDROOT
BRANCH   1   7
ATOM      7  N   UNL d   1       0.181   2.567  -0.125  0.00  0.00    -0.732 N 
ATOM      8  C   UNL d   1       1.466   3.156   0.184  0.00  0.00     0.284 C 
ATOM      9  H3  UNL d   1      -0.435   3.172  -0.663  0.00  0.00     0.395 HD
ENDBRANCH   1   7
TORSDOF 1
ENDMDL
