MODEL 1
REMARK minimizedAffinity -3.44031048
REMARK minimizedRMSD -1
REMARK  1 active torsions:
REMARK  status: ('A' for Active; 'I' for Inactive)
REMARK    1  A    between atoms: N_2  and  C1_3 
ROOT
ATOM      1  C1  UNL d   1      -0.182  -0.091  -0.333  0.00  0.00     0.143 A 
ATOM      2  C2  UNL d   1       0.225  -1.394  -0.031  0.00  0.00    -0.057 A 
ATOM      3  C3  UNL d   1       0.821  -2.212  -0.999  0.00  0.00     0.033 A 
ATOM      4  C4  UNL d   1       0.993  -1.749  -2.299  0.00  0.00    -0.042 A 
ATOM      5  C5  UNL d   1       0.573  -0.465  -2.628  0.00  0.00     0.033 A 
ATOM      6  C6  UNL d   1      -0.015   0.349  -1.656  0.00  0.00    -0.057 A 
ENDROOT
BRANCH   1   7
ATOM      7  N   UNL d   1      -0.870   0.736   0.559  0.00  0.00    -0.732 N 
ATOM      8  C   UNL d   1      -1.979   0.224   1.333  0.00  0.00     0.284 C 
ATOM      9  H3  UNL d   1      -0.246   1.349   1.080  0.00  0.00     0.395 HD
ENDBRANCH   1   7
TORSDOF 1
ENDMDL
