MODEL 1
REMARK minimizedAffinity -3.96997213
REMARK minimizedRMSD -1
REMARK  1 active torsions:
REMARK  status: ('A' for Active; 'I' for Inactive)
REMARK    1  A    between atoms: N_2  and  C1_3 
ROOT
ATOM      1  C1  UNL d   1       0.342   5.290   1.872  0.00  0.00     0.143 A 
ATOM      2  C2  UNL d   1       1.703   5.606   1.798  0.00  0.00    -0.057 A 
ATOM      3  C3  UNL d   1       2.593   4.816   1.060  0.00  0.00     0.033 A 
ATOM      4  C4  UNL d   1       2.141   3.676   0.404  0.00  0.00    -0.042 A 
ATOM      5  C5  UNL d   1       0.797   3.329   0.483  0.00  0.00     0.033 A 
ATOM      6  C6  UNL d   1      -0.088   4.125   1.217  0.00  0.00    -0.057 A 
ENDROOT
BRANCH   1   7
ATOM      7  N   UNL d   1      -0.574   5.979   2.669  0.00  0.00    -0.732 N 
ATOM      8  C   UNL d   1      -1.980   5.999   2.328  0.00  0.00     0.284 C 
ATOM      9  H3  UNL d   1      -0.389   5.862   3.663  0.00  0.00     0.395 HD
ENDBRANCH   1   7
TORSDOF 1
ENDMDL
