MODEL 1
REMARK minimizedAffinity -5.15307617
REMARK minimizedRMSD -1
REMARK  1 active torsions:
REMARK  status: ('A' for Active; 'I' for Inactive)
REMARK    1  A    between atoms: N_2  and  C1_3 
ROOT
ATOM      1  C1  UNL d   1      -0.120  -0.006  -0.127  0.00  0.00     0.143 A 
ATOM      2  C2  UNL d   1       0.818  -0.886  -0.678  0.00  0.00    -0.057 A 
ATOM      3  C3  UNL d   1       0.885  -2.224  -0.272  0.00  0.00     0.033 A 
ATOM      4  C4  UNL d   1       0.032  -2.700   0.718  0.00  0.00    -0.042 A 
ATOM      5  C5  UNL d   1      -0.891  -1.838   1.298  0.00  0.00     0.033 A 
ATOM      6  C6  UNL d   1      -0.958  -0.504   0.883  0.00  0.00    -0.057 A 
ENDROOT
BRANCH   1   7
ATOM      7  N   UNL d   1      -0.171   1.359  -0.418  0.00  0.00    -0.732 N 
ATOM      8  C   UNL d   1       0.795   2.272   0.155  0.00  0.00     0.284 C 
ATOM      9  H3  UNL d   1      -0.385   1.540  -1.396  0.00  0.00     0.395 HD
ENDBRANCH   1   7
TORSDOF 1
ENDMDL
