MODEL 1
REMARK minimizedAffinity -3.95753884
REMARK minimizedRMSD -1
REMARK  1 active torsions:
REMARK  status: ('A' for Active; 'I' for Inactive)
REMARK    1  A    between atoms: N_2  and  C1_3 
ROOT
ATOM      1  C1  UNL d   1      -0.280   0.510   0.148  0.00  0.00     0.143 A 
ATOM      2  C2  UNL d   1       0.528  -0.174  -0.766  0.00  0.00    -0.057 A 
ATOM      3  C3  UNL d   1       0.643  -1.569  -0.733  0.00  0.00     0.033 A 
ATOM      4  C4  UNL d   1      -0.029  -2.304   0.238  0.00  0.00    -0.042 A 
ATOM      5  C5  UNL d   1      -0.818  -1.643   1.173  0.00  0.00     0.033 A 
ATOM      6  C6  UNL d   1      -0.934  -0.251   1.130  0.00  0.00    -0.057 A 
ENDROOT
BRANCH   1   7
ATOM      7  N   UNL d   1      -0.357   1.903   0.228  0.00  0.00    -0.732 N 
ATOM      8  C   UNL d   1       0.836   2.698   0.422  0.00  0.00     0.284 C 
ATOM      9  H3  UNL d   1      -1.013   2.295  -0.444  0.00  0.00     0.395 HD
ENDBRANCH   1   7
TORSDOF 1
ENDMDL
