MODEL 1
REMARK minimizedAffinity -3.18853617
REMARK minimizedRMSD -1
REMARK  1 active torsions:
REMARK  status: ('A' for Active; 'I' for Inactive)
REMARK    1  A    between atoms: N_2  and  C1_3 
ROOT
ATOM      1  C1  UNL d   1      -0.053   0.325  -0.220  0.00  0.00     0.143 A 
ATOM      2  C2  UNL d   1      -0.608  -0.444   0.808  0.00  0.00    -0.057 A 
ATOM      3  C3  UNL d   1      -0.604  -1.843   0.752  0.00  0.00     0.033 A 
ATOM      4  C4  UNL d   1      -0.069  -2.499  -0.351  0.00  0.00    -0.042 A 
ATOM      5  C5  UNL d   1       0.466  -1.755  -1.396  0.00  0.00     0.033 A 
ATOM      6  C6  UNL d   1       0.465  -0.358  -1.332  0.00  0.00    -0.057 A 
ENDROOT
BRANCH   1   7
ATOM      7  N   UNL d   1      -0.114   1.720  -0.269  0.00  0.00    -0.732 N 
ATOM      8  C   UNL d   1       0.965   2.524   0.263  0.00  0.00     0.284 C 
ATOM      9  H3  UNL d   1      -0.493   2.061  -1.150  0.00  0.00     0.395 HD
ENDBRANCH   1   7
TORSDOF 1
ENDMDL
