MODEL 1
REMARK minimizedAffinity -4.81699181
REMARK minimizedRMSD -1
REMARK  1 active torsions:
REMARK  status: ('A' for Active; 'I' for Inactive)
REMARK    1  A    between atoms: N_2  and  C1_3 
ROOT
ATOM      1  C1  UNL d   1      -0.347   0.195   0.011  0.00  0.00     0.143 A 
ATOM      2  C2  UNL d   1      -1.154  -0.053   1.127  0.00  0.00    -0.057 A 
ATOM      3  C3  UNL d   1      -1.313  -1.348   1.635  0.00  0.00     0.033 A 
ATOM      4  C4  UNL d   1      -0.688  -2.426   1.016  0.00  0.00    -0.042 A 
ATOM      5  C5  UNL d   1       0.099  -2.206  -0.109  0.00  0.00     0.033 A 
ATOM      6  C6  UNL d   1       0.259  -0.910  -0.608  0.00  0.00    -0.057 A 
ENDROOT
BRANCH   1   7
ATOM      7  N   UNL d   1      -0.228   1.445  -0.601  0.00  0.00    -0.732 N 
ATOM      8  C   UNL d   1       0.334   2.568   0.120  0.00  0.00     0.284 C 
ATOM      9  H3  UNL d   1       0.079   1.377  -1.568  0.00  0.00     0.395 HD
ENDBRANCH   1   7
TORSDOF 1
ENDMDL
