MODEL 1
REMARK minimizedAffinity -2.57543254
REMARK minimizedRMSD -1
REMARK  1 active torsions:
REMARK  status: ('A' for Active; 'I' for Inactive)
REMARK    1  A    between atoms: N_2  and  C1_3 
ROOT
ATOM      1  C1  UNL d   1       0.526   1.821   0.224  0.00  0.00     0.143 A 
ATOM      2  C2  UNL d   1       1.899   1.634   0.417  0.00  0.00    -0.057 A 
ATOM      3  C3  UNL d   1       2.754   2.717   0.654  0.00  0.00     0.033 A 
ATOM      4  C4  UNL d   1       2.253   4.014   0.674  0.00  0.00    -0.042 A 
ATOM      5  C5  UNL d   1       0.896   4.227   0.460  0.00  0.00     0.033 A 
ATOM      6  C6  UNL d   1       0.046   3.141   0.230  0.00  0.00    -0.057 A 
ENDROOT
BRANCH   1   7
ATOM      7  N   UNL d   1      -0.359   0.795  -0.114  0.00  0.00    -0.732 N 
ATOM      8  C   UNL d   1      -0.668  -0.254   0.834  0.00  0.00     0.284 C 
ATOM      9  H3  UNL d   1      -1.164   1.133  -0.637  0.00  0.00     0.395 HD
ENDBRANCH   1   7
TORSDOF 1
ENDMDL
