MODEL 1
REMARK minimizedAffinity -4.27750587
REMARK minimizedRMSD -1
REMARK  1 active torsions:
REMARK  status: ('A' for Active; 'I' for Inactive)
REMARK    1  A    between atoms: N_2  and  C1_3 
ROOT
ATOM      1  C1  UNL d   1      -0.214  -1.306   0.079  0.00  0.00     0.143 A 
ATOM      2  C2  UNL d   1      -0.490  -2.550   0.657  0.00  0.00    -0.057 A 
ATOM      3  C3  UNL d   1      -0.336  -3.738  -0.068  0.00  0.00     0.033 A 
ATOM      4  C4  UNL d   1       0.070  -3.700  -1.398  0.00  0.00    -0.042 A 
ATOM      5  C5  UNL d   1       0.326  -2.473  -2.000  0.00  0.00     0.033 A 
ATOM      6  C6  UNL d   1       0.177  -1.291  -1.269  0.00  0.00    -0.057 A 
ENDROOT
BRANCH   1   7
ATOM      7  N   UNL d   1      -0.443  -0.084   0.717  0.00  0.00    -0.732 N 
ATOM      8  C   UNL d   1      -0.420   1.154  -0.031  0.00  0.00     0.284 C 
ATOM      9  H3  UNL d   1      -1.189  -0.140   1.407  0.00  0.00     0.395 HD
ENDBRANCH   1   7
TORSDOF 1
ENDMDL
