MODEL 1
REMARK minimizedAffinity -3.22841215
REMARK minimizedRMSD -1
REMARK  1 active torsions:
REMARK  status: ('A' for Active; 'I' for Inactive)
REMARK    1  A    between atoms: N_2  and  C1_3 
ROOT
ATOM      1  C1  UNL d   1      -0.394   0.181   0.107  0.00  0.00     0.143 A 
ATOM      2  C2  UNL d   1      -0.662  -0.094   1.452  0.00  0.00    -0.057 A 
ATOM      3  C3  UNL d   1      -0.823  -1.408   1.907  0.00  0.00     0.033 A 
ATOM      4  C4  UNL d   1      -0.747  -2.473   1.014  0.00  0.00    -0.042 A 
ATOM      5  C5  UNL d   1      -0.506  -2.221  -0.332  0.00  0.00     0.033 A 
ATOM      6  C6  UNL d   1      -0.340  -0.907  -0.778  0.00  0.00    -0.057 A 
ENDROOT
BRANCH   1   7
ATOM      7  N   UNL d   1      -0.322   1.472  -0.423  0.00  0.00    -0.732 N 
ATOM      8  C   UNL d   1       0.527   2.473   0.186  0.00  0.00     0.284 C 
ATOM      9  H3  UNL d   1      -0.301   1.473  -1.441  0.00  0.00     0.395 HD
ENDBRANCH   1   7
TORSDOF 1
ENDMDL
