MODEL 1
REMARK minimizedAffinity -5.42033815
REMARK minimizedRMSD -1
REMARK  1 active torsions:
REMARK  status: ('A' for Active; 'I' for Inactive)
REMARK    1  A    between atoms: N_2  and  C1_3 
ROOT
ATOM      1  C1  UNL d   1       0.007  -0.393  -0.768  0.00  0.00     0.143 A 
ATOM      2  C2  UNL d   1       0.115  -1.252  -1.866  0.00  0.00    -0.057 A 
ATOM      3  C3  UNL d   1       0.087  -2.643  -1.706  0.00  0.00     0.033 A 
ATOM      4  C4  UNL d   1      -0.021  -3.200  -0.436  0.00  0.00    -0.042 A 
ATOM      5  C5  UNL d   1      -0.106  -2.365   0.673  0.00  0.00     0.033 A 
ATOM      6  C6  UNL d   1      -0.084  -0.977   0.505  0.00  0.00    -0.057 A 
ENDROOT
BRANCH   1   7
ATOM      7  N   UNL d   1       0.127   0.997  -0.852  0.00  0.00    -0.732 N 
ATOM      8  C   UNL d   1       1.009   1.716   0.042  0.00  0.00     0.284 C 
ATOM      9  H3  UNL d   1       0.151   1.327  -1.815  0.00  0.00     0.395 HD
ENDBRANCH   1   7
TORSDOF 1
ENDMDL
