MODEL 1
REMARK minimizedAffinity -5.56002712
REMARK minimizedRMSD -1
REMARK  2 active torsions:
REMARK  status: ('A' for Active; 'I' for Inactive)
REMARK    1  A    between atoms: C2'_3  and  C1'_4 
REMARK    2  A    between atoms: C1'_4  and  C1_5 
ROOT
ATOM      1  C1  I4B d   1       0.676  -0.484   0.878  0.00  0.00    -0.075 A 
ATOM      2  C2  I4B d   1       1.622  -1.145   0.134  0.00  0.00     0.003 A 
ATOM      3  C3  I4B d   1       2.447  -2.124   0.737  0.00  0.00     0.002 A 
ATOM      4  C4  I4B d   1       2.329  -2.372   2.090  0.00  0.00    -0.004 A 
ATOM      5  C5  I4B d   1       1.355  -1.718   2.838  0.00  0.00     0.002 A 
ATOM      6  C6  I4B d   1       0.514  -0.777   2.226  0.00  0.00     0.003 A 
ENDROOT
BRANCH   1   7
ATOM      7  C1' I4B d   1      -0.157   0.567   0.215  0.00  0.00     0.060 C 
BRANCH   7   8
ATOM      8  C2' I4B d   1      -0.078   0.350  -1.282  0.00  0.00    -0.013 C 
ATOM      9  C4' I4B d   1      -1.180  -0.558  -1.760  0.00  0.00     0.013 C 
ATOM     10  C3' I4B d   1      -0.153   1.691  -1.949  0.00  0.00     0.013 C 
ENDBRANCH   7   8
ENDBRANCH   1   7
TORSDOF 2
ENDMDL
