MODEL 1
REMARK minimizedAffinity -4.04359674
REMARK minimizedRMSD -1
REMARK  2 active torsions:
REMARK  status: ('A' for Active; 'I' for Inactive)
REMARK    1  A    between atoms: C2'_3  and  C1'_4 
REMARK    2  A    between atoms: C1'_4  and  C1_5 
ROOT
ATOM      1  C1  I4B d   1      -0.088  -0.449  -0.118  0.00  0.00    -0.075 A 
ATOM      2  C2  I4B d   1      -0.913  -0.260   0.963  0.00  0.00     0.003 A 
ATOM      3  C3  I4B d   1      -0.493  -0.651   2.257  0.00  0.00     0.002 A 
ATOM      4  C4  I4B d   1       0.731  -1.268   2.417  0.00  0.00    -0.004 A 
ATOM      5  C5  I4B d   1       1.576  -1.437   1.323  0.00  0.00     0.002 A 
ATOM      6  C6  I4B d   1       1.169  -1.014   0.050  0.00  0.00     0.003 A 
ENDROOT
BRANCH   1   7
ATOM      7  C1' I4B d   1      -0.578  -0.055  -1.476  0.00  0.00     0.060 C 
BRANCH   7   8
ATOM      8  C2' I4B d   1      -0.723   1.454  -1.500  0.00  0.00    -0.013 C 
ATOM      9  C4' I4B d   1       0.412   2.098  -2.251  0.00  0.00     0.013 C 
ATOM     10  C3' I4B d   1      -2.044   1.781  -2.129  0.00  0.00     0.013 C 
ENDBRANCH   7   8
ENDBRANCH   1   7
TORSDOF 2
ENDMDL
