MODEL 1
REMARK minimizedAffinity -4.90117168
REMARK minimizedRMSD -1
REMARK  2 active torsions:
REMARK  status: ('A' for Active; 'I' for Inactive)
REMARK    1  A    between atoms: C2'_3  and  C1'_4 
REMARK    2  A    between atoms: C1'_4  and  C1_5 
ROOT
ATOM      1  C1  I4B d   1      -0.346   0.135  -0.660  0.00  0.00    -0.075 A 
ATOM      2  C2  I4B d   1       0.738  -0.699  -0.777  0.00  0.00     0.003 A 
ATOM      3  C3  I4B d   1       1.254  -1.360   0.364  0.00  0.00     0.002 A 
ATOM      4  C4  I4B d   1       0.692  -1.120   1.601  0.00  0.00    -0.004 A 
ATOM      5  C5  I4B d   1      -0.421  -0.292   1.714  0.00  0.00     0.002 A 
ATOM      6  C6  I4B d   1      -0.952   0.330   0.574  0.00  0.00     0.003 A 
ENDROOT
BRANCH   1   7
ATOM      7  C1' I4B d   1      -0.845   0.843  -1.880  0.00  0.00     0.060 C 
BRANCH   7   8
ATOM      8  C2' I4B d   1      -0.161   2.194  -1.949  0.00  0.00    -0.013 C 
ATOM      9  C4' I4B d   1       0.562   2.372  -3.258  0.00  0.00     0.013 C 
ATOM     10  C3' I4B d   1      -1.206   3.252  -1.758  0.00  0.00     0.013 C 
ENDBRANCH   7   8
ENDBRANCH   1   7
TORSDOF 2
ENDMDL
