MODEL 1
REMARK minimizedAffinity -2.9824574
REMARK minimizedRMSD -1
REMARK  2 active torsions:
REMARK  status: ('A' for Active; 'I' for Inactive)
REMARK    1  A    between atoms: C2'_3  and  C1'_4 
REMARK    2  A    between atoms: C1'_4  and  C1_5 
ROOT
ATOM      1  C1  I4B d   1      -0.939   0.916  -0.618  0.00  0.00    -0.075 A 
ATOM      2  C2  I4B d   1      -0.677   2.049   0.111  0.00  0.00     0.003 A 
ATOM      3  C3  I4B d   1      -0.632   3.312  -0.526  0.00  0.00     0.002 A 
ATOM      4  C4  I4B d   1      -0.804   3.390  -1.893  0.00  0.00    -0.004 A 
ATOM      5  C5  I4B d   1      -1.093   2.244  -2.627  0.00  0.00     0.002 A 
ATOM      6  C6  I4B d   1      -1.173   1.000  -1.984  0.00  0.00     0.003 A 
ENDROOT
BRANCH   1   7
ATOM      7  C1' I4B d   1      -0.946  -0.406   0.082  0.00  0.00     0.060 C 
BRANCH   7   8
ATOM      8  C2' I4B d   1       0.298  -0.485   0.944  0.00  0.00    -0.013 C 
ATOM      9  C4' I4B d   1      -0.057  -0.600   2.403  0.00  0.00     0.013 C 
ATOM     10  C3' I4B d   1       1.104  -1.664   0.487  0.00  0.00     0.013 C 
ENDBRANCH   7   8
ENDBRANCH   1   7
TORSDOF 2
ENDMDL
