MODEL 1
REMARK minimizedAffinity 0.0219329577
REMARK minimizedRMSD -1
REMARK  2 active torsions:
REMARK  status: ('A' for Active; 'I' for Inactive)
REMARK    1  A    between atoms: C2'_3  and  C1'_4 
REMARK    2  A    between atoms: C1'_4  and  C1_5 
ROOT
ATOM      1  C1  I4B d   1      -0.825   1.502  -1.289  0.00  0.00    -0.075 A 
ATOM      2  C2  I4B d   1      -2.066   1.177  -1.779  0.00  0.00     0.003 A 
ATOM      3  C3  I4B d   1      -2.406   1.486  -3.118  0.00  0.00     0.002 A 
ATOM      4  C4  I4B d   1      -1.501   2.160  -3.911  0.00  0.00    -0.004 A 
ATOM      5  C5  I4B d   1      -0.236   2.469  -3.420  0.00  0.00     0.002 A 
ATOM      6  C6  I4B d   1       0.109   2.127  -2.104  0.00  0.00     0.003 A 
ENDROOT
BRANCH   1   7
ATOM      7  C1' I4B d   1      -0.510   1.191   0.140  0.00  0.00     0.060 C 
BRANCH   7   8
ATOM      8  C2' I4B d   1       0.157  -0.168   0.186  0.00  0.00    -0.013 C 
ATOM      9  C4' I4B d   1       1.654  -0.037   0.291  0.00  0.00     0.013 C 
ATOM     10  C3' I4B d   1      -0.404  -0.921   1.355  0.00  0.00     0.013 C 
ENDBRANCH   7   8
ENDBRANCH   1   7
TORSDOF 2
ENDMDL
