MODEL 1
REMARK minimizedAffinity -2.76094675
REMARK minimizedRMSD -1
REMARK  2 active torsions:
REMARK  status: ('A' for Active; 'I' for Inactive)
REMARK    1  A    between atoms: C2'_3  and  C1'_4 
REMARK    2  A    between atoms: C1'_4  and  C1_5 
ROOT
ATOM      1  C1  I4B d   1      -1.229   1.716  -1.465  0.00  0.00    -0.075 A 
ATOM      2  C2  I4B d   1      -0.491   2.375  -2.416  0.00  0.00     0.003 A 
ATOM      3  C3  I4B d   1      -1.008   2.554  -3.722  0.00  0.00     0.002 A 
ATOM      4  C4  I4B d   1      -2.237   2.017  -4.046  0.00  0.00    -0.004 A 
ATOM      5  C5  I4B d   1      -2.994   1.368  -3.074  0.00  0.00     0.002 A 
ATOM      6  C6  I4B d   1      -2.493   1.227  -1.772  0.00  0.00     0.003 A 
ENDROOT
BRANCH   1   7
ATOM      7  C1' I4B d   1      -0.639   1.516  -0.105  0.00  0.00     0.060 C 
BRANCH   7   8
ATOM      8  C2' I4B d   1      -0.315   0.044   0.051  0.00  0.00    -0.013 C 
ATOM      9  C4' I4B d   1       1.173  -0.191   0.030  0.00  0.00     0.013 C 
ATOM     10  C3' I4B d   1      -0.920  -0.429   1.339  0.00  0.00     0.013 C 
ENDBRANCH   7   8
ENDBRANCH   1   7
TORSDOF 2
ENDMDL
