MODEL 1
REMARK minimizedAffinity -4.52505875
REMARK minimizedRMSD -1
REMARK  2 active torsions:
REMARK  status: ('A' for Active; 'I' for Inactive)
REMARK    1  A    between atoms: C2'_3  and  C1'_4 
REMARK    2  A    between atoms: C1'_4  and  C1_5 
ROOT
ATOM      1  C1  I4B d   1      -0.923   0.594  -0.312  0.00  0.00    -0.075 A 
ATOM      2  C2  I4B d   1      -1.439  -0.075  -1.394  0.00  0.00     0.003 A 
ATOM      3  C3  I4B d   1      -2.296   0.593  -2.303  0.00  0.00     0.002 A 
ATOM      4  C4  I4B d   1      -2.648   1.906  -2.066  0.00  0.00    -0.004 A 
ATOM      5  C5  I4B d   1      -2.105   2.589  -0.981  0.00  0.00     0.002 A 
ATOM      6  C6  I4B d   1      -1.228   1.933  -0.105  0.00  0.00     0.003 A 
ENDROOT
BRANCH   1   7
ATOM      7  C1' I4B d   1      -0.049  -0.151   0.646  0.00  0.00     0.060 C 
BRANCH   7   8
ATOM      8  C2' I4B d   1       1.220  -0.539  -0.086  0.00  0.00    -0.013 C 
ATOM      9  C4' I4B d   1       2.001   0.679  -0.507  0.00  0.00     0.013 C 
ATOM     10  C3' I4B d   1       2.030  -1.413   0.824  0.00  0.00     0.013 C 
ENDBRANCH   7   8
ENDBRANCH   1   7
TORSDOF 2
ENDMDL
