MODEL 1
REMARK minimizedAffinity -3.67066455
REMARK minimizedRMSD -1
REMARK  2 active torsions:
REMARK  status: ('A' for Active; 'I' for Inactive)
REMARK    1  A    between atoms: C2'_3  and  C1'_4 
REMARK    2  A    between atoms: C1'_4  and  C1_5 
ROOT
ATOM      1  C1  I4B d   1      -0.054   0.778  -0.680  0.00  0.00    -0.075 A 
ATOM      2  C2  I4B d   1      -0.590  -0.198   0.122  0.00  0.00     0.003 A 
ATOM      3  C3  I4B d   1       0.248  -1.175   0.712  0.00  0.00     0.002 A 
ATOM      4  C4  I4B d   1       1.600  -1.168   0.435  0.00  0.00    -0.004 A 
ATOM      5  C5  I4B d   1       2.145  -0.164  -0.360  0.00  0.00     0.002 A 
ATOM      6  C6  I4B d   1       1.315   0.823  -0.911  0.00  0.00     0.003 A 
ENDROOT
BRANCH   1   7
ATOM      7  C1' I4B d   1      -0.972   1.775  -1.313  0.00  0.00     0.060 C 
BRANCH   7   8
ATOM      8  C2' I4B d   1      -1.836   1.041  -2.318  0.00  0.00    -0.013 C 
ATOM      9  C4' I4B d   1      -3.299   1.285  -2.061  0.00  0.00     0.013 C 
ATOM     10  C3' I4B d   1      -1.443   1.501  -3.690  0.00  0.00     0.013 C 
ENDBRANCH   7   8
ENDBRANCH   1   7
TORSDOF 2
ENDMDL
