MODEL 1
REMARK minimizedAffinity -2.67670059
REMARK minimizedRMSD -1
REMARK  2 active torsions:
REMARK  status: ('A' for Active; 'I' for Inactive)
REMARK    1  A    between atoms: C2'_3  and  C1'_4 
REMARK    2  A    between atoms: C1'_4  and  C1_5 
ROOT
ATOM      1  C1  I4B d   1       0.579  -0.087   0.193  0.00  0.00    -0.075 A 
ATOM      2  C2  I4B d   1       1.538   0.715  -0.373  0.00  0.00     0.003 A 
ATOM      3  C3  I4B d   1       2.895   0.310  -0.376  0.00  0.00     0.002 A 
ATOM      4  C4  I4B d   1       3.253  -0.872   0.239  0.00  0.00    -0.004 A 
ATOM      5  C5  I4B d   1       2.276  -1.695   0.793  0.00  0.00     0.002 A 
ATOM      6  C6  I4B d   1       0.929  -1.306   0.759  0.00  0.00     0.003 A 
ENDROOT
BRANCH   1   7
ATOM      7  C1' I4B d   1      -0.840   0.387   0.208  0.00  0.00     0.060 C 
BRANCH   7   8
ATOM      8  C2' I4B d   1      -1.687  -0.698   0.841  0.00  0.00    -0.013 C 
ATOM      9  C4' I4B d   1      -2.313  -0.221   2.126  0.00  0.00     0.013 C 
ATOM     10  C3' I4B d   1      -2.734  -1.106  -0.152  0.00  0.00     0.013 C 
ENDBRANCH   7   8
ENDBRANCH   1   7
TORSDOF 2
ENDMDL
