MODEL 1
REMARK minimizedAffinity 0.832335532
REMARK minimizedRMSD -1
REMARK  2 active torsions:
REMARK  status: ('A' for Active; 'I' for Inactive)
REMARK    1  A    between atoms: C2'_3  and  C1'_4 
REMARK    2  A    between atoms: C1'_4  and  C1_5 
ROOT
ATOM      1  C1  I4B d   1       2.054   0.838  -0.809  0.00  0.00    -0.075 A 
ATOM      2  C2  I4B d   1       2.680   1.645  -1.726  0.00  0.00     0.003 A 
ATOM      3  C3  I4B d   1       3.927   2.241  -1.416  0.00  0.00     0.002 A 
ATOM      4  C4  I4B d   1       4.483   2.045  -0.169  0.00  0.00    -0.004 A 
ATOM      5  C5  I4B d   1       3.858   1.207   0.751  0.00  0.00     0.002 A 
ATOM      6  C6  I4B d   1       2.641   0.590   0.424  0.00  0.00     0.003 A 
ENDROOT
BRANCH   1   7
ATOM      7  C1' I4B d   1       0.722   0.251  -1.157  0.00  0.00     0.060 C 
BRANCH   7   8
ATOM      8  C2' I4B d   1      -0.346   1.246  -0.750  0.00  0.00    -0.013 C 
ATOM      9  C4' I4B d   1      -1.434   1.332  -1.788  0.00  0.00     0.013 C 
ATOM     10  C3' I4B d   1      -0.897   0.817   0.577  0.00  0.00     0.013 C 
ENDBRANCH   7   8
ENDBRANCH   1   7
TORSDOF 2
ENDMDL
