MODEL 1
REMARK minimizedAffinity -2.23492002
REMARK minimizedRMSD -1
REMARK  2 active torsions:
REMARK  status: ('A' for Active; 'I' for Inactive)
REMARK    1  A    between atoms: C2'_3  and  C1'_4 
REMARK    2  A    between atoms: C1'_4  and  C1_5 
ROOT
ATOM      1  C1  I4B d   1       0.030   0.300  -0.132  0.00  0.00    -0.075 A 
ATOM      2  C2  I4B d   1      -0.055  -0.061   1.190  0.00  0.00     0.003 A 
ATOM      3  C3  I4B d   1      -1.241   0.190   1.922  0.00  0.00     0.002 A 
ATOM      4  C4  I4B d   1      -2.291   0.845   1.311  0.00  0.00    -0.004 A 
ATOM      5  C5  I4B d   1      -2.211   1.190  -0.035  0.00  0.00     0.002 A 
ATOM      6  C6  I4B d   1      -1.048   0.905  -0.765  0.00  0.00     0.003 A 
ENDROOT
BRANCH   1   7
ATOM      7  C1' I4B d   1       1.310   0.050  -0.865  0.00  0.00     0.060 C 
BRANCH   7   8
ATOM      8  C2' I4B d   1       2.453   0.497   0.023  0.00  0.00    -0.013 C 
ATOM      9  C4' I4B d   1       3.090  -0.674   0.722  0.00  0.00     0.013 C 
ATOM     10  C3' I4B d   1       3.447   1.224  -0.833  0.00  0.00     0.013 C 
ENDBRANCH   7   8
ENDBRANCH   1   7
TORSDOF 2
ENDMDL
