MODEL 1
REMARK minimizedAffinity -1.30499828
REMARK minimizedRMSD -1
REMARK  2 active torsions:
REMARK  status: ('A' for Active; 'I' for Inactive)
REMARK    1  A    between atoms: C2'_3  and  C1'_4 
REMARK    2  A    between atoms: C1'_4  and  C1_5 
ROOT
ATOM      1  C1  I4B d   1      -0.663   0.475  -0.880  0.00  0.00    -0.075 A 
ATOM      2  C2  I4B d   1      -0.607   1.303  -1.973  0.00  0.00     0.003 A 
ATOM      3  C3  I4B d   1      -1.671   1.323  -2.907  0.00  0.00     0.002 A 
ATOM      4  C4  I4B d   1      -2.740   0.467  -2.738  0.00  0.00    -0.004 A 
ATOM      5  C5  I4B d   1      -2.806  -0.355  -1.617  0.00  0.00     0.002 A 
ATOM      6  C6  I4B d   1      -1.767  -0.343  -0.675  0.00  0.00     0.003 A 
ENDROOT
BRANCH   1   7
ATOM      7  C1' I4B d   1       0.492   0.456   0.070  0.00  0.00     0.060 C 
BRANCH   7   8
ATOM      8  C2' I4B d   1       1.762   0.639  -0.736  0.00  0.00    -0.013 C 
ATOM      9  C4' I4B d   1       2.550   1.827  -0.250  0.00  0.00     0.013 C 
ATOM     10  C3' I4B d   1       2.565  -0.623  -0.630  0.00  0.00     0.013 C 
ENDBRANCH   7   8
ENDBRANCH   1   7
TORSDOF 2
ENDMDL
