MODEL 1
REMARK minimizedAffinity -4.02665663
REMARK minimizedRMSD -1
REMARK  2 active torsions:
REMARK  status: ('A' for Active; 'I' for Inactive)
REMARK    1  A    between atoms: C2'_3  and  C1'_4 
REMARK    2  A    between atoms: C1'_4  and  C1_5 
ROOT
ATOM      1  C1  I4B d   1      -0.572   0.332   0.573  0.00  0.00    -0.075 A 
ATOM      2  C2  I4B d   1       0.705  -0.123   0.361  0.00  0.00     0.003 A 
ATOM      3  C3  I4B d   1       1.208  -1.212   1.112  0.00  0.00     0.002 A 
ATOM      4  C4  I4B d   1       0.423  -1.781   2.094  0.00  0.00    -0.004 A 
ATOM      5  C5  I4B d   1      -0.880  -1.334   2.292  0.00  0.00     0.002 A 
ATOM      6  C6  I4B d   1      -1.386  -0.279   1.519  0.00  0.00     0.003 A 
ENDROOT
BRANCH   1   7
ATOM      7  C1' I4B d   1      -1.060   1.506  -0.215  0.00  0.00     0.060 C 
BRANCH   7   8
ATOM      8  C2' I4B d   1      -1.222   1.065  -1.656  0.00  0.00    -0.013 C 
ATOM      9  C4' I4B d   1      -2.564   0.421  -1.881  0.00  0.00     0.013 C 
ATOM     10  C3' I4B d   1      -1.047   2.271  -2.531  0.00  0.00     0.013 C 
ENDBRANCH   7   8
ENDBRANCH   1   7
TORSDOF 2
ENDMDL
