MODEL 1
REMARK minimizedAffinity 0.107233681
REMARK minimizedRMSD -1
REMARK  2 active torsions:
REMARK  status: ('A' for Active; 'I' for Inactive)
REMARK    1  A    between atoms: C2'_3  and  C1'_4 
REMARK    2  A    between atoms: C1'_4  and  C1_5 
ROOT
ATOM      1  C1  I4B d   1       1.136   0.340  -0.134  0.00  0.00    -0.075 A 
ATOM      2  C2  I4B d   1       1.764  -0.273   0.921  0.00  0.00     0.003 A 
ATOM      3  C3  I4B d   1       3.081  -0.773   0.774  0.00  0.00     0.002 A 
ATOM      4  C4  I4B d   1       3.708  -0.685  -0.452  0.00  0.00    -0.004 A 
ATOM      5  C5  I4B d   1       3.078  -0.043  -1.514  0.00  0.00     0.002 A 
ATOM      6  C6  I4B d   1       1.789   0.484  -1.351  0.00  0.00     0.003 A 
ENDROOT
BRANCH   1   7
ATOM      7  C1' I4B d   1      -0.267   0.827   0.047  0.00  0.00     0.060 C 
BRANCH   7   8
ATOM      8  C2' I4B d   1      -1.096  -0.324   0.578  0.00  0.00    -0.013 C 
ATOM      9  C4' I4B d   1      -1.726   0.022   1.901  0.00  0.00     0.013 C 
ATOM     10  C3' I4B d   1      -2.139  -0.655  -0.448  0.00  0.00     0.013 C 
ENDBRANCH   7   8
ENDBRANCH   1   7
TORSDOF 2
ENDMDL
