MODEL 1
REMARK minimizedAffinity 1.35847843
REMARK minimizedRMSD -1
REMARK  2 active torsions:
REMARK  status: ('A' for Active; 'I' for Inactive)
REMARK    1  A    between atoms: C2'_3  and  C1'_4 
REMARK    2  A    between atoms: C1'_4  and  C1_5 
ROOT
ATOM      1  C1  I4B d   1      -0.405   0.813  -0.226  0.00  0.00    -0.075 A 
ATOM      2  C2  I4B d   1      -1.073   0.206   0.808  0.00  0.00     0.003 A 
ATOM      3  C3  I4B d   1      -0.416  -0.755   1.614  0.00  0.00     0.002 A 
ATOM      4  C4  I4B d   1       0.884  -1.113   1.322  0.00  0.00    -0.004 A 
ATOM      5  C5  I4B d   1       1.567  -0.480   0.288  0.00  0.00     0.002 A 
ATOM      6  C6  I4B d   1       0.923   0.498  -0.484  0.00  0.00     0.003 A 
ENDROOT
BRANCH   1   7
ATOM      7  C1' I4B d   1      -1.139   1.799  -1.079  0.00  0.00     0.060 C 
BRANCH   7   8
ATOM      8  C2' I4B d   1      -1.714   1.053  -2.266  0.00  0.00    -0.013 C 
ATOM      9  C4' I4B d   1      -3.185   0.788  -2.083  0.00  0.00     0.013 C 
ATOM     10  C3' I4B d   1      -1.460   1.873  -3.495  0.00  0.00     0.013 C 
ENDBRANCH   7   8
ENDBRANCH   1   7
TORSDOF 2
ENDMDL
