MODEL 1
REMARK minimizedAffinity -2.98711157
REMARK minimizedRMSD -1
REMARK  2 active torsions:
REMARK  status: ('A' for Active; 'I' for Inactive)
REMARK    1  A    between atoms: C2'_3  and  C1'_4 
REMARK    2  A    between atoms: C1'_4  and  C1_5 
ROOT
ATOM      1  C1  I4B d   1      -0.122   0.369  -0.297  0.00  0.00    -0.075 A 
ATOM      2  C2  I4B d   1       1.083  -0.014   0.236  0.00  0.00     0.003 A 
ATOM      3  C3  I4B d   1       1.200  -0.269   1.624  0.00  0.00     0.002 A 
ATOM      4  C4  I4B d   1       0.106  -0.081   2.444  0.00  0.00    -0.004 A 
ATOM      5  C5  I4B d   1      -1.121   0.285   1.898  0.00  0.00     0.002 A 
ATOM      6  C6  I4B d   1      -1.239   0.500   0.517  0.00  0.00     0.003 A 
ENDROOT
BRANCH   1   7
ATOM      7  C1' I4B d   1      -0.201   0.662  -1.762  0.00  0.00     0.060 C 
BRANCH   7   8
ATOM      8  C2' I4B d   1       0.778  -0.249  -2.474  0.00  0.00    -0.013 C 
ATOM      9  C4' I4B d   1       0.064  -1.200  -3.399  0.00  0.00     0.013 C 
ATOM     10  C3' I4B d   1       1.748   0.612  -3.226  0.00  0.00     0.013 C 
ENDBRANCH   7   8
ENDBRANCH   1   7
TORSDOF 2
ENDMDL
