MODEL 1
REMARK minimizedAffinity -4.07609272
REMARK minimizedRMSD -1
REMARK  2 active torsions:
REMARK  status: ('A' for Active; 'I' for Inactive)
REMARK    1  A    between atoms: C2'_3  and  C1'_4 
REMARK    2  A    between atoms: C1'_4  and  C1_5 
ROOT
ATOM      1  C1  I4B d   1      -0.430  -0.070  -0.344  0.00  0.00    -0.075 A 
ATOM      2  C2  I4B d   1       0.268   0.851   0.397  0.00  0.00     0.003 A 
ATOM      3  C3  I4B d   1       0.256   0.784   1.812  0.00  0.00     0.002 A 
ATOM      4  C4  I4B d   1      -0.502  -0.183   2.440  0.00  0.00    -0.004 A 
ATOM      5  C5  I4B d   1      -1.191  -1.129   1.687  0.00  0.00     0.002 A 
ATOM      6  C6  I4B d   1      -1.144  -1.081   0.286  0.00  0.00     0.003 A 
ENDROOT
BRANCH   1   7
ATOM      7  C1' I4B d   1      -0.422   0.050  -1.835  0.00  0.00     0.060 C 
BRANCH   7   8
ATOM      8  C2' I4B d   1       0.856  -0.583  -2.347  0.00  0.00    -0.013 C 
ATOM      9  C4' I4B d   1       0.563  -1.784  -3.207  0.00  0.00     0.013 C 
ATOM     10  C3' I4B d   1       1.614   0.460  -3.114  0.00  0.00     0.013 C 
ENDBRANCH   7   8
ENDBRANCH   1   7
TORSDOF 2
ENDMDL
