MODEL 1
REMARK minimizedAffinity -1.85928428
REMARK minimizedRMSD -1
REMARK  2 active torsions:
REMARK  status: ('A' for Active; 'I' for Inactive)
REMARK    1  A    between atoms: C2'_3  and  C1'_4 
REMARK    2  A    between atoms: C1'_4  and  C1_5 
ROOT
ATOM      1  C1  I4B d   1       0.095   0.260  -0.606  0.00  0.00    -0.075 A 
ATOM      2  C2  I4B d   1       1.232   0.031   0.128  0.00  0.00     0.003 A 
ATOM      3  C3  I4B d   1       1.160  -0.082   1.537  0.00  0.00     0.002 A 
ATOM      4  C4  I4B d   1      -0.053   0.089   2.172  0.00  0.00    -0.004 A 
ATOM      5  C5  I4B d   1      -1.209   0.298   1.424  0.00  0.00     0.002 A 
ATOM      6  C6  I4B d   1      -1.137   0.372   0.026  0.00  0.00     0.003 A 
ENDROOT
BRANCH   1   7
ATOM      7  C1' I4B d   1       0.212   0.407  -2.090  0.00  0.00     0.060 C 
BRANCH   7   8
ATOM      8  C2' I4B d   1       0.745  -0.897  -2.648  0.00  0.00    -0.013 C 
ATOM      9  C4' I4B d   1      -0.250  -1.538  -3.579  0.00  0.00     0.013 C 
ATOM     10  C3' I4B d   1       2.036  -0.606  -3.352  0.00  0.00     0.013 C 
ENDBRANCH   7   8
ENDBRANCH   1   7
TORSDOF 2
ENDMDL
