MODEL 1
REMARK minimizedAffinity -3.47840357
REMARK minimizedRMSD -1
REMARK  2 active torsions:
REMARK  status: ('A' for Active; 'I' for Inactive)
REMARK    1  A    between atoms: C2'_3  and  C1'_4 
REMARK    2  A    between atoms: C1'_4  and  C1_5 
ROOT
ATOM      1  C1  I4B d   1      -0.251   0.104  -0.140  0.00  0.00    -0.075 A 
ATOM      2  C2  I4B d   1       0.772   0.274   0.760  0.00  0.00     0.003 A 
ATOM      3  C3  I4B d   1       0.561   0.014   2.136  0.00  0.00     0.002 A 
ATOM      4  C4  I4B d   1      -0.693  -0.363   2.572  0.00  0.00    -0.004 A 
ATOM      5  C5  I4B d   1      -1.722  -0.556   1.656  0.00  0.00     0.002 A 
ATOM      6  C6  I4B d   1      -1.497  -0.333   0.290  0.00  0.00     0.003 A 
ENDROOT
BRANCH   1   7
ATOM      7  C1' I4B d   1      -0.004   0.420  -1.581  0.00  0.00     0.060 C 
BRANCH   7   8
ATOM      8  C2' I4B d   1       0.691  -0.772  -2.207  0.00  0.00    -0.013 C 
ATOM      9  C4' I4B d   1      -0.272  -1.604  -3.012  0.00  0.00     0.013 C 
ATOM     10  C3' I4B d   1       1.810  -0.259  -3.063  0.00  0.00     0.013 C 
ENDBRANCH   7   8
ENDBRANCH   1   7
TORSDOF 2
ENDMDL
