MODEL 1
REMARK minimizedAffinity -4.02259636
REMARK minimizedRMSD -1
REMARK  2 active torsions:
REMARK  status: ('A' for Active; 'I' for Inactive)
REMARK    1  A    between atoms: C2'_3  and  C1'_4 
REMARK    2  A    between atoms: C1'_4  and  C1_5 
ROOT
ATOM      1  C1  I4B d   1       0.161   0.244  -0.047  0.00  0.00    -0.075 A 
ATOM      2  C2  I4B d   1      -1.094   0.097   0.491  0.00  0.00     0.003 A 
ATOM      3  C3  I4B d   1      -1.248  -0.306   1.840  0.00  0.00     0.002 A 
ATOM      4  C4  I4B d   1      -0.129  -0.599   2.594  0.00  0.00    -0.004 A 
ATOM      5  C5  I4B d   1       1.142  -0.427   2.053  0.00  0.00     0.002 A 
ATOM      6  C6  I4B d   1       1.288   0.008   0.728  0.00  0.00     0.003 A 
ENDROOT
BRANCH   1   7
ATOM      7  C1' I4B d   1       0.286   0.639  -1.484  0.00  0.00     0.060 C 
BRANCH   7   8
ATOM      8  C2' I4B d   1       1.087  -0.433  -2.195  0.00  0.00    -0.013 C 
ATOM      9  C4' I4B d   1       0.185  -1.472  -2.807  0.00  0.00     0.013 C 
ATOM     10  C3' I4B d   1       1.931   0.235  -3.239  0.00  0.00     0.013 C 
ENDBRANCH   7   8
ENDBRANCH   1   7
TORSDOF 2
ENDMDL
