MODEL 1
REMARK minimizedAffinity -1.65965343
REMARK minimizedRMSD -1
REMARK  2 active torsions:
REMARK  status: ('A' for Active; 'I' for Inactive)
REMARK    1  A    between atoms: C2'_3  and  C1'_4 
REMARK    2  A    between atoms: C1'_4  and  C1_5 
ROOT
ATOM      1  C1  I4B d   1      -0.026   0.243  -0.624  0.00  0.00    -0.075 A 
ATOM      2  C2  I4B d   1       1.214   0.252  -0.036  0.00  0.00     0.003 A 
ATOM      3  C3  I4B d   1       1.334   0.265   1.375  0.00  0.00     0.002 A 
ATOM      4  C4  I4B d   1       0.196   0.319   2.153  0.00  0.00    -0.004 A 
ATOM      5  C5  I4B d   1      -1.061   0.287   1.556  0.00  0.00     0.002 A 
ATOM      6  C6  I4B d   1      -1.173   0.236   0.159  0.00  0.00     0.003 A 
ENDROOT
BRANCH   1   7
ATOM      7  C1' I4B d   1      -0.115   0.262  -2.117  0.00  0.00     0.060 C 
BRANCH   7   8
ATOM      8  C2' I4B d   1       0.550  -0.994  -2.641  0.00  0.00    -0.013 C 
ATOM      9  C4' I4B d   1      -0.354  -1.735  -3.590  0.00  0.00     0.013 C 
ATOM     10  C3' I4B d   1       1.830  -0.594  -3.314  0.00  0.00     0.013 C 
ENDBRANCH   7   8
ENDBRANCH   1   7
TORSDOF 2
ENDMDL
