MODEL 1
REMARK minimizedAffinity -4.62264013
REMARK minimizedRMSD -1
REMARK  2 active torsions:
REMARK  status: ('A' for Active; 'I' for Inactive)
REMARK    1  A    between atoms: C2'_3  and  C1'_4 
REMARK    2  A    between atoms: C1'_4  and  C1_5 
ROOT
ATOM      1  C1  I4B d   1       0.333   0.029  -1.181  0.00  0.00    -0.075 A 
ATOM      2  C2  I4B d   1      -1.011   0.120  -0.917  0.00  0.00     0.003 A 
ATOM      3  C3  I4B d   1      -1.476   0.126   0.421  0.00  0.00     0.002 A 
ATOM      4  C4  I4B d   1      -0.573  -0.010   1.455  0.00  0.00    -0.004 A 
ATOM      5  C5  I4B d   1       0.791  -0.078   1.186  0.00  0.00     0.002 A 
ATOM      6  C6  I4B d   1       1.248  -0.046  -0.139  0.00  0.00     0.003 A 
ENDROOT
BRANCH   1   7
ATOM      7  C1' I4B d   1       0.786  -0.008  -2.605  0.00  0.00     0.060 C 
BRANCH   7   8
ATOM      8  C2' I4B d   1       0.877  -1.460  -3.029  0.00  0.00    -0.013 C 
ATOM      9  C4' I4B d   1      -0.199  -1.805  -4.024  0.00  0.00     0.013 C 
ATOM     10  C3' I4B d   1       2.242  -1.689  -3.606  0.00  0.00     0.013 C 
ENDBRANCH   7   8
ENDBRANCH   1   7
TORSDOF 2
ENDMDL
