MODEL 1
REMARK minimizedAffinity -0.782461047
REMARK minimizedRMSD -1
REMARK  2 active torsions:
REMARK  status: ('A' for Active; 'I' for Inactive)
REMARK    1  A    between atoms: C2'_3  and  C1'_4 
REMARK    2  A    between atoms: C1'_4  and  C1_5 
ROOT
ATOM      1  C1  I4B d   1       0.177  -0.385   0.140  0.00  0.00    -0.075 A 
ATOM      2  C2  I4B d   1       1.169  -0.244   1.078  0.00  0.00     0.003 A 
ATOM      3  C3  I4B d   1       0.873  -0.391   2.455  0.00  0.00     0.002 A 
ATOM      4  C4  I4B d   1      -0.428  -0.625   2.850  0.00  0.00    -0.004 A 
ATOM      5  C5  I4B d   1      -1.428  -0.790   1.896  0.00  0.00     0.002 A 
ATOM      6  C6  I4B d   1      -1.122  -0.681   0.532  0.00  0.00     0.003 A 
ENDROOT
BRANCH   1   7
ATOM      7  C1' I4B d   1       0.518  -0.191  -1.304  0.00  0.00     0.060 C 
BRANCH   7   8
ATOM      8  C2' I4B d   1       0.751  -1.557  -1.916  0.00  0.00    -0.013 C 
ATOM      9  C4' I4B d   1      -0.550  -2.207  -2.309  0.00  0.00     0.013 C 
ATOM     10  C3' I4B d   1       1.651  -1.386  -3.103  0.00  0.00     0.013 C 
ENDBRANCH   7   8
ENDBRANCH   1   7
TORSDOF 2
ENDMDL
