MODEL 1
REMARK minimizedAffinity -2.94676971
REMARK minimizedRMSD -1
REMARK  2 active torsions:
REMARK  status: ('A' for Active; 'I' for Inactive)
REMARK    1  A    between atoms: C2'_3  and  C1'_4 
REMARK    2  A    between atoms: C1'_4  and  C1_5 
ROOT
ATOM      1  C1  I4B d   1       0.444   0.245  -1.089  0.00  0.00    -0.075 A 
ATOM      2  C2  I4B d   1      -0.899   0.440  -0.887  0.00  0.00     0.003 A 
ATOM      3  C3  I4B d   1      -1.412   0.560   0.428  0.00  0.00     0.002 A 
ATOM      4  C4  I4B d   1      -0.560   0.428   1.505  0.00  0.00    -0.004 A 
ATOM      5  C5  I4B d   1       0.805   0.253   1.297  0.00  0.00     0.002 A 
ATOM      6  C6  I4B d   1       1.313   0.173  -0.008  0.00  0.00     0.003 A 
ENDROOT
BRANCH   1   7
ATOM      7  C1' I4B d   1       0.948   0.090  -2.489  0.00  0.00     0.060 C 
BRANCH   7   8
ATOM      8  C2' I4B d   1       1.227  -1.380  -2.725  0.00  0.00    -0.013 C 
ATOM      9  C4' I4B d   1       0.266  -1.963  -3.727  0.00  0.00     0.013 C 
ATOM     10  C3' I4B d   1       2.645  -1.513  -3.194  0.00  0.00     0.013 C 
ENDBRANCH   7   8
ENDBRANCH   1   7
TORSDOF 2
ENDMDL
