MODEL 1
REMARK minimizedAffinity -5.78024912
REMARK minimizedRMSD -1
REMARK  2 active torsions:
REMARK  status: ('A' for Active; 'I' for Inactive)
REMARK    1  A    between atoms: C2'_3  and  C1'_4 
REMARK    2  A    between atoms: C1'_4  and  C1_5 
ROOT
ATOM      1  C1  I4B d   1      -0.024   0.293  -0.043  0.00  0.00    -0.075 A 
ATOM      2  C2  I4B d   1      -1.243   0.410   0.578  0.00  0.00     0.003 A 
ATOM      3  C3  I4B d   1      -1.362   0.157   1.965  0.00  0.00     0.002 A 
ATOM      4  C4  I4B d   1      -0.256  -0.257   2.679  0.00  0.00    -0.004 A 
ATOM      5  C5  I4B d   1       0.983  -0.353   2.052  0.00  0.00     0.002 A 
ATOM      6  C6  I4B d   1       1.103  -0.064   0.685  0.00  0.00     0.003 A 
ENDROOT
BRANCH   1   7
ATOM      7  C1' I4B d   1       0.060   0.536  -1.517  0.00  0.00     0.060 C 
BRANCH   7   8
ATOM      8  C2' I4B d   1       1.033  -0.468  -2.101  0.00  0.00    -0.013 C 
ATOM      9  C4' I4B d   1       0.313  -1.679  -2.632  0.00  0.00     0.013 C 
ATOM     10  C3' I4B d   1       1.812   0.218  -3.184  0.00  0.00     0.013 C 
ENDBRANCH   7   8
ENDBRANCH   1   7
TORSDOF 2
ENDMDL
