MODEL 1
REMARK minimizedAffinity -3.31163287
REMARK minimizedRMSD -1
REMARK  2 active torsions:
REMARK  status: ('A' for Active; 'I' for Inactive)
REMARK    1  A    between atoms: C2'_3  and  C1'_4 
REMARK    2  A    between atoms: C1'_4  and  C1_5 
ROOT
ATOM      1  C1  I4B d   1       0.021   0.155  -0.909  0.00  0.00    -0.075 A 
ATOM      2  C2  I4B d   1      -1.194  -0.305  -0.466  0.00  0.00     0.003 A 
ATOM      3  C3  I4B d   1      -1.397  -0.573   0.909  0.00  0.00     0.002 A 
ATOM      4  C4  I4B d   1      -0.349  -0.417   1.794  0.00  0.00    -0.004 A 
ATOM      5  C5  I4B d   1       0.875   0.071   1.347  0.00  0.00     0.002 A 
ATOM      6  C6  I4B d   1       1.058   0.371  -0.011  0.00  0.00     0.003 A 
ENDROOT
BRANCH   1   7
ATOM      7  C1' I4B d   1       0.211   0.397  -2.373  0.00  0.00     0.060 C 
BRANCH   7   8
ATOM      8  C2' I4B d   1       1.402  -0.420  -2.830  0.00  0.00    -0.013 C 
ATOM      9  C4' I4B d   1       0.963  -1.700  -3.491  0.00  0.00     0.013 C 
ATOM     10  C3' I4B d   1       2.209   0.426  -3.770  0.00  0.00     0.013 C 
ENDBRANCH   7   8
ENDBRANCH   1   7
TORSDOF 2
ENDMDL
