MODEL 1
REMARK minimizedAffinity -4.17290497
REMARK minimizedRMSD -1
REMARK  0 active torsions:
REMARK  status: ('A' for Active; 'I' for Inactive)
ROOT
ATOM      1  N1  IND d   1       0.038   0.509  -0.911  0.00  0.00    -0.196 N 
ATOM      2  C2  IND d   1      -0.228   0.793   0.400  0.00  0.00     0.054 A 
ATOM      3  C3  IND d   1      -0.619  -0.324   1.053  0.00  0.00    -0.031 A 
ATOM      4  C4  IND d   1      -0.797  -2.744   0.193  0.00  0.00     0.051 A 
ATOM      5  C5  IND d   1      -0.694  -3.493  -0.946  0.00  0.00    -0.031 A 
ATOM      6  C6  IND d   1      -0.331  -2.936  -2.155  0.00  0.00     0.015 A 
ATOM      7  C7  IND d   1      -0.046  -1.604  -2.268  0.00  0.00    -0.016 A 
ATOM      8  C8  IND d   1      -0.157  -0.839  -1.116  0.00  0.00    -0.047 A 
ATOM      9  C9  IND d   1      -0.566  -1.392   0.105  0.00  0.00    -0.096 A 
ATOM     10  HN1 IND d   1       0.285   1.077  -1.507  0.00  0.00     0.298 HD
ENDROOT
TORSDOF 0
ENDMDL
