MODEL 1
REMARK minimizedAffinity -1.20845282
REMARK minimizedRMSD -1
REMARK  0 active torsions:
REMARK  status: ('A' for Active; 'I' for Inactive)
ROOT
ATOM      1  N1  IND d   1      -0.156  -0.806  -2.107  0.00  0.00    -0.196 N 
ATOM      2  C2  IND d   1       0.168   0.522  -2.060  0.00  0.00     0.054 A 
ATOM      3  C3  IND d   1      -0.080   1.022  -0.829  0.00  0.00    -0.031 A 
ATOM      4  C4  IND d   1      -0.921  -0.179   1.287  0.00  0.00     0.051 A 
ATOM      5  C5  IND d   1      -1.386  -1.387   1.727  0.00  0.00    -0.031 A 
ATOM      6  C6  IND d   1      -1.464  -2.485   0.895  0.00  0.00     0.015 A 
ATOM      7  C7  IND d   1      -1.067  -2.419  -0.411  0.00  0.00    -0.016 A 
ATOM      8  C8  IND d   1      -0.601  -1.193  -0.863  0.00  0.00    -0.047 A 
ATOM      9  C9  IND d   1      -0.559  -0.064  -0.035  0.00  0.00    -0.096 A 
ATOM     10  HN1 IND d   1      -0.092  -1.313  -2.799  0.00  0.00     0.298 HD
ENDROOT
TORSDOF 0
ENDMDL
