MODEL 1
REMARK minimizedAffinity -3.56010771
REMARK minimizedRMSD -1
REMARK  0 active torsions:
REMARK  status: ('A' for Active; 'I' for Inactive)
ROOT
ATOM      1  N1  IND d   1       1.957   1.628   0.551  0.00  0.00    -0.196 N 
ATOM      2  C2  IND d   1       1.386   2.516  -0.317  0.00  0.00     0.054 A 
ATOM      3  C3  IND d   1       0.134   2.120  -0.639  0.00  0.00    -0.031 A 
ATOM      4  C4  IND d   1      -1.215   0.103   0.222  0.00  0.00     0.051 A 
ATOM      5  C5  IND d   1      -1.103  -1.015   1.000  0.00  0.00    -0.031 A 
ATOM      6  C6  IND d   1       0.058  -1.313   1.685  0.00  0.00     0.015 A 
ATOM      7  C7  IND d   1       1.150  -0.495   1.625  0.00  0.00    -0.016 A 
ATOM      8  C8  IND d   1       1.043   0.637   0.830  0.00  0.00    -0.047 A 
ATOM      9  C9  IND d   1      -0.118   0.922   0.099  0.00  0.00    -0.096 A 
ATOM     10  HN1 IND d   1       2.754   1.680   0.870  0.00  0.00     0.298 HD
ENDROOT
TORSDOF 0
ENDMDL
