MODEL 1
REMARK minimizedAffinity -3.93442845
REMARK minimizedRMSD -1
REMARK  0 active torsions:
REMARK  status: ('A' for Active; 'I' for Inactive)
ROOT
ATOM      1  N1  IND d   1       0.049  -1.034  -2.315  0.00  0.00    -0.196 N 
ATOM      2  C2  IND d   1      -0.208  -2.364  -2.498  0.00  0.00     0.054 A 
ATOM      3  C3  IND d   1      -0.647  -2.921  -1.347  0.00  0.00    -0.031 A 
ATOM      4  C4  IND d   1      -1.116  -1.816   0.930  0.00  0.00     0.051 A 
ATOM      5  C5  IND d   1      -0.998  -0.628   1.595  0.00  0.00    -0.031 A 
ATOM      6  C6  IND d   1      -0.519   0.509   0.978  0.00  0.00     0.015 A 
ATOM      7  C7  IND d   1      -0.148   0.503  -0.337  0.00  0.00    -0.016 A 
ATOM      8  C8  IND d   1      -0.259  -0.703  -1.014  0.00  0.00    -0.047 A 
ATOM      9  C9  IND d   1      -0.705  -1.870  -0.381  0.00  0.00    -0.096 A 
ATOM     10  HN1 IND d   1       0.352  -0.494  -2.912  0.00  0.00     0.298 HD
ENDROOT
TORSDOF 0
ENDMDL
