MODEL 1
REMARK minimizedAffinity -2.86446381
REMARK minimizedRMSD -1
REMARK  0 active torsions:
REMARK  status: ('A' for Active; 'I' for Inactive)
ROOT
ATOM      1  N1  IND d   1       0.361   1.630  -0.614  0.00  0.00    -0.196 N 
ATOM      2  C2  IND d   1       1.340   2.351   0.010  0.00  0.00     0.054 A 
ATOM      3  C3  IND d   1       1.565   1.864   1.251  0.00  0.00    -0.031 A 
ATOM      4  C4  IND d   1       0.513  -0.173   2.423  0.00  0.00     0.051 A 
ATOM      5  C5  IND d   1      -0.455  -1.125   2.266  0.00  0.00    -0.031 A 
ATOM      6  C6  IND d   1      -1.213  -1.211   1.117  0.00  0.00     0.015 A 
ATOM      7  C7  IND d   1      -1.024  -0.351   0.072  0.00  0.00    -0.016 A 
ATOM      8  C8  IND d   1      -0.047   0.621   0.231  0.00  0.00    -0.047 A 
ATOM      9  C9  IND d   1       0.697   0.740   1.412  0.00  0.00    -0.096 A 
ATOM     10  HN1 IND d   1       0.052   1.780  -1.403  0.00  0.00     0.298 HD
ENDROOT
TORSDOF 0
ENDMDL
