MODEL 1
REMARK minimizedAffinity 0.431087106
REMARK minimizedRMSD -1
REMARK  0 active torsions:
REMARK  status: ('A' for Active; 'I' for Inactive)
ROOT
ATOM      1  N1  IND d   1       0.762   0.413  -0.292  0.00  0.00    -0.196 N 
ATOM      2  C2  IND d   1      -0.575   0.137  -0.208  0.00  0.00     0.054 A 
ATOM      3  C3  IND d   1      -1.247   1.205   0.275  0.00  0.00    -0.031 A 
ATOM      4  C4  IND d   1      -0.370   3.544   0.897  0.00  0.00     0.051 A 
ATOM      5  C5  IND d   1       0.786   4.263   1.023  0.00  0.00    -0.031 A 
ATOM      6  C6  IND d   1       2.017   3.725   0.708  0.00  0.00     0.015 A 
ATOM      7  C7  IND d   1       2.138   2.447   0.243  0.00  0.00    -0.016 A 
ATOM      8  C8  IND d   1       0.967   1.712   0.120  0.00  0.00    -0.047 A 
ATOM      9  C9  IND d   1      -0.281   2.238   0.479  0.00  0.00    -0.096 A 
ATOM     10  HN1 IND d   1       1.371  -0.132  -0.558  0.00  0.00     0.298 HD
ENDROOT
TORSDOF 0
ENDMDL
