MODEL 1
REMARK minimizedAffinity -2.68214226
REMARK minimizedRMSD -1
REMARK  0 active torsions:
REMARK  status: ('A' for Active; 'I' for Inactive)
ROOT
ATOM      1  N1  IND d   1       2.528   2.400  -0.395  0.00  0.00    -0.196 N 
ATOM      2  C2  IND d   1       3.117   2.928   0.720  0.00  0.00     0.054 A 
ATOM      3  C3  IND d   1       2.456   2.536   1.832  0.00  0.00    -0.031 A 
ATOM      4  C4  IND d   1       0.443   0.947   2.062  0.00  0.00     0.051 A 
ATOM      5  C5  IND d   1      -0.464   0.243   1.321  0.00  0.00    -0.031 A 
ATOM      6  C6  IND d   1      -0.418   0.220  -0.058  0.00  0.00     0.015 A 
ATOM      7  C7  IND d   1       0.549   0.893  -0.750  0.00  0.00    -0.016 A 
ATOM      8  C8  IND d   1       1.468   1.614  -0.000  0.00  0.00    -0.047 A 
ATOM      9  C9  IND d   1       1.400   1.676   1.397  0.00  0.00    -0.096 A 
ATOM     10  HN1 IND d   1       2.779   2.535  -1.206  0.00  0.00     0.298 HD
ENDROOT
TORSDOF 0
ENDMDL
