MODEL 1
REMARK minimizedAffinity -1.146348
REMARK minimizedRMSD -1
REMARK  0 active torsions:
REMARK  status: ('A' for Active; 'I' for Inactive)
ROOT
ATOM      1  N1  IND d   1      -0.296   2.436  -0.360  0.00  0.00    -0.196 N 
ATOM      2  C2  IND d   1       0.922   2.931   0.012  0.00  0.00     0.054 A 
ATOM      3  C3  IND d   1       1.580   2.034   0.780  0.00  0.00    -0.031 A 
ATOM      4  C4  IND d   1       0.890  -0.350   1.465  0.00  0.00     0.051 A 
ATOM      5  C5  IND d   1      -0.152  -1.232   1.395  0.00  0.00    -0.031 A 
ATOM      6  C6  IND d   1      -1.318  -0.931   0.721  0.00  0.00     0.015 A 
ATOM      7  C7  IND d   1      -1.481   0.264   0.079  0.00  0.00    -0.016 A 
ATOM      8  C8  IND d   1      -0.428   1.164   0.153  0.00  0.00    -0.047 A 
ATOM      9  C9  IND d   1       0.741   0.881   0.872  0.00  0.00    -0.096 A 
ATOM     10  HN1 IND d   1      -0.882   2.849  -0.836  0.00  0.00     0.298 HD
ENDROOT
TORSDOF 0
ENDMDL
