MODEL 1
REMARK minimizedAffinity 1.79556644
REMARK minimizedRMSD -1
REMARK  0 active torsions:
REMARK  status: ('A' for Active; 'I' for Inactive)
ROOT
ATOM      1  N1  IND d   1       0.178  -0.581  -2.481  0.00  0.00    -0.196 N 
ATOM      2  C2  IND d   1       0.081  -1.876  -2.054  0.00  0.00     0.054 A 
ATOM      3  C3  IND d   1      -0.017  -1.921  -0.707  0.00  0.00    -0.031 A 
ATOM      4  C4  IND d   1      -0.141   0.011   0.990  0.00  0.00     0.051 A 
ATOM      5  C5  IND d   1      -0.055   1.372   1.081  0.00  0.00    -0.031 A 
ATOM      6  C6  IND d   1       0.114   2.168  -0.034  0.00  0.00     0.015 A 
ATOM      7  C7  IND d   1       0.192   1.631  -1.288  0.00  0.00    -0.016 A 
ATOM      8  C8  IND d   1       0.112   0.248  -1.383  0.00  0.00    -0.047 A 
ATOM      9  C9  IND d   1      -0.017  -0.567  -0.251  0.00  0.00    -0.096 A 
ATOM     10  HN1 IND d   1       0.266  -0.327  -3.298  0.00  0.00     0.298 HD
ENDROOT
TORSDOF 0
ENDMDL
