MODEL 1
REMARK minimizedAffinity -2.71773815
REMARK minimizedRMSD -1
REMARK  0 active torsions:
REMARK  status: ('A' for Active; 'I' for Inactive)
ROOT
ATOM      1  N1  IND d   1      -0.313   0.247  -2.042  0.00  0.00    -0.196 N 
ATOM      2  C2  IND d   1      -0.542   1.363  -1.287  0.00  0.00     0.054 A 
ATOM      3  C3  IND d   1      -0.846   1.017  -0.016  0.00  0.00    -0.031 A 
ATOM      4  C4  IND d   1      -0.924  -1.316   1.070  0.00  0.00     0.051 A 
ATOM      5  C5  IND d   1      -0.824  -2.646   0.772  0.00  0.00    -0.031 A 
ATOM      6  C6  IND d   1      -0.539  -3.089  -0.503  0.00  0.00     0.015 A 
ATOM      7  C7  IND d   1      -0.332  -2.213  -1.531  0.00  0.00    -0.016 A 
ATOM      8  C8  IND d   1      -0.441  -0.862  -1.235  0.00  0.00    -0.047 A 
ATOM      9  C9  IND d   1      -0.771  -0.408   0.049  0.00  0.00    -0.096 A 
ATOM     10  HN1 IND d   1      -0.121   0.239  -2.880  0.00  0.00     0.298 HD
ENDROOT
TORSDOF 0
ENDMDL
