MODEL 1
REMARK minimizedAffinity -4.32220554
REMARK minimizedRMSD -1
REMARK  0 active torsions:
REMARK  status: ('A' for Active; 'I' for Inactive)
ROOT
ATOM      1  N1  IND d   1      -1.304  -2.335   0.995  0.00  0.00    -0.196 N 
ATOM      2  C2  IND d   1      -1.201  -1.317   1.902  0.00  0.00     0.054 A 
ATOM      3  C3  IND d   1      -0.674  -0.218   1.317  0.00  0.00    -0.031 A 
ATOM      4  C4  IND d   1      -0.006   0.166  -1.139  0.00  0.00     0.051 A 
ATOM      5  C5  IND d   1       0.116  -0.482  -2.336  0.00  0.00    -0.031 A 
ATOM      6  C6  IND d   1      -0.239  -1.807  -2.488  0.00  0.00     0.015 A 
ATOM      7  C7  IND d   1      -0.742  -2.533  -1.446  0.00  0.00    -0.016 A 
ATOM      8  C8  IND d   1      -0.861  -1.881  -0.227  0.00  0.00    -0.047 A 
ATOM      9  C9  IND d   1      -0.462  -0.548  -0.057  0.00  0.00    -0.096 A 
ATOM     10  HN1 IND d   1      -1.597  -3.127   1.161  0.00  0.00     0.298 HD
ENDROOT
TORSDOF 0
ENDMDL
