MODEL 1
REMARK minimizedAffinity -1.87774861
REMARK minimizedRMSD -1
REMARK  0 active torsions:
REMARK  status: ('A' for Active; 'I' for Inactive)
ROOT
ATOM      1  N1  IND d   1       0.049  -2.166  -1.155  0.00  0.00    -0.196 N 
ATOM      2  C2  IND d   1      -0.596  -3.072  -0.360  0.00  0.00     0.054 A 
ATOM      3  C3  IND d   1      -1.057  -2.471   0.760  0.00  0.00    -0.031 A 
ATOM      4  C4  IND d   1      -0.956   0.008   1.445  0.00  0.00     0.051 A 
ATOM      5  C5  IND d   1      -0.436   1.212   1.060  0.00  0.00    -0.031 A 
ATOM      6  C6  IND d   1       0.285   1.355  -0.108  0.00  0.00     0.015 A 
ATOM      7  C7  IND d   1       0.504   0.296  -0.943  0.00  0.00    -0.016 A 
ATOM      8  C8  IND d   1      -0.017  -0.929  -0.552  0.00  0.00    -0.047 A 
ATOM      9  C9  IND d   1      -0.713  -1.089   0.653  0.00  0.00    -0.096 A 
ATOM     10  HN1 IND d   1       0.432  -2.340  -1.905  0.00  0.00     0.298 HD
ENDROOT
TORSDOF 0
ENDMDL
