MODEL 1
REMARK minimizedAffinity -3.2759459
REMARK minimizedRMSD -1
REMARK  0 active torsions:
REMARK  status: ('A' for Active; 'I' for Inactive)
ROOT
ATOM      1  N1  IND d   1       0.107   1.901  -0.361  0.00  0.00    -0.196 N 
ATOM      2  C2  IND d   1       1.327   2.387   0.019  0.00  0.00     0.054 A 
ATOM      3  C3  IND d   1       1.896   1.568   0.932  0.00  0.00    -0.031 A 
ATOM      4  C4  IND d   1       1.049  -0.676   1.869  0.00  0.00     0.051 A 
ATOM      5  C5  IND d   1      -0.031  -1.513   1.848  0.00  0.00    -0.031 A 
ATOM      6  C6  IND d   1      -1.142  -1.251   1.073  0.00  0.00     0.015 A 
ATOM      7  C7  IND d   1      -1.209  -0.143   0.276  0.00  0.00    -0.016 A 
ATOM      8  C8  IND d   1      -0.117   0.713   0.300  0.00  0.00    -0.047 A 
ATOM      9  C9  IND d   1       0.995   0.474   1.117  0.00  0.00    -0.096 A 
ATOM     10  HN1 IND d   1      -0.430   2.274  -0.919  0.00  0.00     0.298 HD
ENDROOT
TORSDOF 0
ENDMDL
