MODEL 1
REMARK minimizedAffinity -1.91545618
REMARK minimizedRMSD -1
REMARK  0 active torsions:
REMARK  status: ('A' for Active; 'I' for Inactive)
ROOT
ATOM      1  N1  IND d   1       0.423   0.222  -1.855  0.00  0.00    -0.196 N 
ATOM      2  C2  IND d   1       0.461   1.483  -1.326  0.00  0.00     0.054 A 
ATOM      3  C3  IND d   1       0.007   1.472  -0.053  0.00  0.00    -0.031 A 
ATOM      4  C4  IND d   1      -0.753  -0.515   1.397  0.00  0.00     0.051 A 
ATOM      5  C5  IND d   1      -0.997  -1.859   1.340  0.00  0.00    -0.031 A 
ATOM      6  C6  IND d   1      -0.773  -2.593   0.193  0.00  0.00     0.015 A 
ATOM      7  C7  IND d   1      -0.284  -2.009  -0.942  0.00  0.00    -0.016 A 
ATOM      8  C8  IND d   1      -0.041  -0.644  -0.890  0.00  0.00    -0.047 A 
ATOM      9  C9  IND d   1      -0.307   0.114   0.258  0.00  0.00    -0.096 A 
ATOM     10  HN1 IND d   1       0.651   0.007  -2.655  0.00  0.00     0.298 HD
ENDROOT
TORSDOF 0
ENDMDL
