MODEL 1
REMARK minimizedAffinity -2.277035
REMARK minimizedRMSD -1
REMARK  0 active torsions:
REMARK  status: ('A' for Active; 'I' for Inactive)
ROOT
ATOM      1  N1  IND d   1       0.083  -1.195  -2.235  0.00  0.00    -0.196 N 
ATOM      2  C2  IND d   1      -0.199  -2.490  -2.572  0.00  0.00     0.054 A 
ATOM      3  C3  IND d   1      -0.522  -3.203  -1.471  0.00  0.00    -0.031 A 
ATOM      4  C4  IND d   1      -0.751  -2.426   0.973  0.00  0.00     0.051 A 
ATOM      5  C5  IND d   1      -0.559  -1.340   1.780  0.00  0.00    -0.031 A 
ATOM      6  C6  IND d   1      -0.137  -0.125   1.280  0.00  0.00     0.015 A 
ATOM      7  C7  IND d   1       0.098   0.053  -0.054  0.00  0.00    -0.016 A 
ATOM      8  C8  IND d   1      -0.089  -1.049  -0.876  0.00  0.00    -0.047 A 
ATOM      9  C9  IND d   1      -0.475  -2.296  -0.368  0.00  0.00    -0.096 A 
ATOM     10  HN1 IND d   1       0.327  -0.577  -2.780  0.00  0.00     0.298 HD
ENDROOT
TORSDOF 0
ENDMDL
