MODEL 1
REMARK minimizedAffinity -2.78475237
REMARK minimizedRMSD -1
REMARK  0 active torsions:
REMARK  status: ('A' for Active; 'I' for Inactive)
ROOT
ATOM      1  N1  IND d   1       0.023   0.129   2.520  0.00  0.00    -0.196 N 
ATOM      2  C2  IND d   1      -0.488  -0.673   1.539  0.00  0.00     0.054 A 
ATOM      3  C3  IND d   1      -0.433  -0.046   0.342  0.00  0.00    -0.031 A 
ATOM      4  C4  IND d   1       0.549   2.259  -0.252  0.00  0.00     0.051 A 
ATOM      5  C5  IND d   1       1.095   3.376   0.314  0.00  0.00    -0.031 A 
ATOM      6  C6  IND d   1       1.320   3.468   1.673  0.00  0.00     0.015 A 
ATOM      7  C7  IND d   1       1.015   2.438   2.517  0.00  0.00    -0.016 A 
ATOM      8  C8  IND d   1       0.453   1.305   1.946  0.00  0.00    -0.047 A 
ATOM      9  C9  IND d   1       0.184   1.222   0.574  0.00  0.00    -0.096 A 
ATOM     10  HN1 IND d   1       0.069  -0.067   3.356  0.00  0.00     0.298 HD
ENDROOT
TORSDOF 0
ENDMDL
