MODEL 1
REMARK minimizedAffinity 3.27390575
REMARK minimizedRMSD -1
REMARK  0 active torsions:
REMARK  status: ('A' for Active; 'I' for Inactive)
ROOT
ATOM      1  C2' OXE d   1      -1.423   2.139  -0.782  0.00  0.00     0.078 C 
ATOM      2  C1' OXE d   1       0.030   0.358  -2.394  0.00  0.00     0.078 C 
ATOM      3  C1  OXE d   1       0.300   0.344  -0.911  0.00  0.00    -0.078 A 
ATOM      4  C2  OXE d   1      -0.381   1.251  -0.135  0.00  0.00    -0.078 A 
ATOM      5  C3  OXE d   1      -0.209   1.244   1.246  0.00  0.00     0.003 A 
ATOM      6  C4  OXE d   1       0.763   0.427   1.835  0.00  0.00    -0.002 A 
ATOM      7  C5  OXE d   1       1.497  -0.476   1.059  0.00  0.00    -0.002 A 
ATOM      8  C6  OXE d   1       1.248  -0.560  -0.307  0.00  0.00     0.003 A 
ENDROOT
TORSDOF 0
ENDMDL
