MODEL 1
REMARK minimizedAffinity 9.64317226
REMARK minimizedRMSD -1
REMARK  0 active torsions:
REMARK  status: ('A' for Active; 'I' for Inactive)
ROOT
ATOM      1  C2' OXE d   1      -1.228   1.167   1.635  0.00  0.00     0.078 C 
ATOM      2  C1' OXE d   1      -0.257   0.703  -0.957  0.00  0.00     0.078 C 
ATOM      3  C1  OXE d   1       0.473   0.056   0.194  0.00  0.00    -0.078 A 
ATOM      4  C2  OXE d   1       0.018   0.327   1.462  0.00  0.00    -0.078 A 
ATOM      5  C3  OXE d   1       0.621  -0.287   2.556  0.00  0.00     0.003 A 
ATOM      6  C4  OXE d   1       1.780  -1.055   2.388  0.00  0.00    -0.002 A 
ATOM      7  C5  OXE d   1       2.283  -1.310   1.108  0.00  0.00    -0.002 A 
ATOM      8  C6  OXE d   1       1.618  -0.798  -0.000  0.00  0.00     0.003 A 
ENDROOT
TORSDOF 0
ENDMDL
