MODEL 1
REMARK minimizedAffinity 1.16412699
REMARK minimizedRMSD -1
REMARK  0 active torsions:
REMARK  status: ('A' for Active; 'I' for Inactive)
ROOT
ATOM      1  C2' OXE d   1      -1.259   2.444  -0.839  0.00  0.00     0.078 C 
ATOM      2  C1' OXE d   1      -1.407   2.304   1.961  0.00  0.00     0.078 C 
ATOM      3  C1  OXE d   1      -0.441   1.381   1.260  0.00  0.00    -0.078 A 
ATOM      4  C2  OXE d   1      -0.409   1.424  -0.113  0.00  0.00    -0.078 A 
ATOM      5  C3  OXE d   1       0.503   0.633  -0.806  0.00  0.00     0.003 A 
ATOM      6  C4  OXE d   1       1.278  -0.316  -0.127  0.00  0.00    -0.002 A 
ATOM      7  C5  OXE d   1       1.231  -0.403   1.268  0.00  0.00    -0.002 A 
ATOM      8  C6  OXE d   1       0.410   0.465   1.979  0.00  0.00     0.003 A 
ENDROOT
TORSDOF 0
ENDMDL
