MODEL 1
REMARK minimizedAffinity -3.5088675
REMARK minimizedRMSD -1
REMARK  0 active torsions:
REMARK  status: ('A' for Active; 'I' for Inactive)
ROOT
ATOM      1  C2' OXE d   1       0.314   2.113   2.200  0.00  0.00     0.078 C 
ATOM      2  C1' OXE d   1       1.018  -0.585   1.877  0.00  0.00     0.078 C 
ATOM      3  C1  OXE d   1       0.582   0.180   0.652  0.00  0.00    -0.078 A 
ATOM      4  C2  OXE d   1       0.195   1.487   0.828  0.00  0.00    -0.078 A 
ATOM      5  C3  OXE d   1      -0.163   2.254  -0.277  0.00  0.00     0.003 A 
ATOM      6  C4  OXE d   1      -0.280   1.664  -1.542  0.00  0.00    -0.002 A 
ATOM      7  C5  OXE d   1       0.071   0.324  -1.735  0.00  0.00    -0.002 A 
ATOM      8  C6  OXE d   1       0.544  -0.419  -0.659  0.00  0.00     0.003 A 
ENDROOT
TORSDOF 0
ENDMDL
