MODEL 1
REMARK minimizedAffinity 2.3643496
REMARK minimizedRMSD -1
REMARK  0 active torsions:
REMARK  status: ('A' for Active; 'I' for Inactive)
ROOT
ATOM      1  C2' OXE d   1      -0.697   1.942   2.416  0.00  0.00     0.078 C 
ATOM      2  C1' OXE d   1       1.054  -0.059   3.317  0.00  0.00     0.078 C 
ATOM      3  C1  OXE d   1       0.899   0.122   1.828  0.00  0.00    -0.078 A 
ATOM      4  C2  OXE d   1       0.005   1.072   1.396  0.00  0.00    -0.078 A 
ATOM      5  C3  OXE d   1      -0.135   1.317   0.033  0.00  0.00     0.003 A 
ATOM      6  C4  OXE d   1       0.511   0.502  -0.904  0.00  0.00    -0.002 A 
ATOM      7  C5  OXE d   1       1.395  -0.498  -0.485  0.00  0.00    -0.002 A 
ATOM      8  C6  OXE d   1       1.633  -0.672   0.874  0.00  0.00     0.003 A 
ENDROOT
TORSDOF 0
ENDMDL
