MODEL 1
REMARK minimizedAffinity 4.60770035
REMARK minimizedRMSD -1
REMARK  0 active torsions:
REMARK  status: ('A' for Active; 'I' for Inactive)
ROOT
ATOM      1  C2' OXE d   1      -1.062   1.595   1.973  0.00  0.00     0.078 C 
ATOM      2  C1' OXE d   1      -0.222   1.237  -0.682  0.00  0.00     0.078 C 
ATOM      3  C1  OXE d   1       0.525   0.496   0.398  0.00  0.00    -0.078 A 
ATOM      4  C2  OXE d   1       0.137   0.714   1.698  0.00  0.00    -0.078 A 
ATOM      5  C3  OXE d   1       0.758   0.013   2.729  0.00  0.00     0.003 A 
ATOM      6  C4  OXE d   1       1.873  -0.792   2.468  0.00  0.00    -0.002 A 
ATOM      7  C5  OXE d   1       2.310  -0.996   1.155  0.00  0.00    -0.002 A 
ATOM      8  C6  OXE d   1       1.622  -0.394   0.107  0.00  0.00     0.003 A 
ENDROOT
TORSDOF 0
ENDMDL
