MODEL 1
REMARK minimizedAffinity 7.71520805
REMARK minimizedRMSD -1
REMARK  0 active torsions:
REMARK  status: ('A' for Active; 'I' for Inactive)
ROOT
ATOM      1  C2' OXE d   1      -0.717  -2.978  -0.804  0.00  0.00     0.078 C 
ATOM      2  C1' OXE d   1      -2.167  -0.609  -1.215  0.00  0.00     0.078 C 
ATOM      3  C1  OXE d   1      -0.981  -0.556  -0.284  0.00  0.00    -0.078 A 
ATOM      4  C2  OXE d   1      -0.306  -1.730  -0.053  0.00  0.00    -0.078 A 
ATOM      5  C3  OXE d   1       0.828  -1.725   0.754  0.00  0.00     0.003 A 
ATOM      6  C4  OXE d   1       1.196  -0.569   1.453  0.00  0.00    -0.002 A 
ATOM      7  C5  OXE d   1       0.498   0.628   1.263  0.00  0.00    -0.002 A 
ATOM      8  C6  OXE d   1      -0.565   0.662   0.366  0.00  0.00     0.003 A 
ENDROOT
TORSDOF 0
ENDMDL
