MODEL 1
REMARK minimizedAffinity 7.31009245
REMARK minimizedRMSD -1
REMARK  0 active torsions:
REMARK  status: ('A' for Active; 'I' for Inactive)
ROOT
ATOM      1  C2' OXE d   1      -5.863   0.608   0.651  0.00  0.00     0.078 C 
ATOM      2  C1' OXE d   1      -5.997  -2.121   0.006  0.00  0.00     0.078 C 
ATOM      3  C1  OXE d   1      -5.948  -1.745   1.466  0.00  0.00    -0.078 A 
ATOM      4  C2  OXE d   1      -5.835  -0.410   1.771  0.00  0.00    -0.078 A 
ATOM      5  C3  OXE d   1      -5.841  -0.004   3.103  0.00  0.00     0.003 A 
ATOM      6  C4  OXE d   1      -5.806  -0.952   4.132  0.00  0.00    -0.002 A 
ATOM      7  C5  OXE d   1      -5.879  -2.319   3.842  0.00  0.00    -0.002 A 
ATOM      8  C6  OXE d   1      -5.994  -2.729   2.519  0.00  0.00     0.003 A 
ENDROOT
TORSDOF 0
ENDMDL
