MODEL 1
REMARK minimizedAffinity -3.84371996
REMARK minimizedRMSD -1
REMARK  1 active torsions:
REMARK  status: ('A' for Active; 'I' for Inactive)
REMARK    1  A    between atoms: C1_2  and  C2_3 
ROOT
ATOM      1  C2  UNL d   1       1.315   0.728   0.573  0.00  0.00    -0.077 A 
ATOM      2  C3  UNL d   1       2.002  -0.457   0.272  0.00  0.00     0.002 A 
ATOM      3  C4  UNL d   1       3.152  -0.807   0.982  0.00  0.00     0.002 A 
ATOM      4  C5  UNL d   1       3.623   0.020   2.000  0.00  0.00    -0.004 A 
ATOM      5  C6  UNL d   1       2.948   1.201   2.306  0.00  0.00     0.002 A 
ATOM      6  C7  UNL d   1       1.799   1.553   1.596  0.00  0.00     0.002 A 
ENDROOT
BRANCH   1   7
ATOM      7  C1  UNL d   1       0.047   1.083  -0.158  0.00  0.00     0.055 C 
ATOM      8  C   UNL d   1      -0.950  -0.066  -0.127  0.00  0.00     0.019 C 
ENDBRANCH   1   7
TORSDOF 1
ENDMDL
