MODEL 1
REMARK minimizedAffinity 0.888691247
REMARK minimizedRMSD -1
REMARK  1 active torsions:
REMARK  status: ('A' for Active; 'I' for Inactive)
REMARK    1  A    between atoms: C1_2  and  C2_3 
ROOT
ATOM      1  C2  UNL d   1      -1.575   0.537  -1.763  0.00  0.00    -0.077 A 
ATOM      2  C3  UNL d   1      -1.464  -0.748  -2.314  0.00  0.00     0.002 A 
ATOM      3  C4  UNL d   1      -2.252  -1.118  -3.406  0.00  0.00     0.002 A 
ATOM      4  C5  UNL d   1      -3.151  -0.208  -3.959  0.00  0.00    -0.004 A 
ATOM      5  C6  UNL d   1      -3.269   1.071  -3.417  0.00  0.00     0.002 A 
ATOM      6  C7  UNL d   1      -2.484   1.442  -2.324  0.00  0.00     0.002 A 
ENDROOT
BRANCH   1   7
ATOM      7  C1  UNL d   1      -0.691   0.954  -0.616  0.00  0.00     0.055 C 
ATOM      8  C   UNL d   1      -0.397  -0.216   0.311  0.00  0.00     0.019 C 
ENDBRANCH   1   7
TORSDOF 1
ENDMDL
