MODEL 1
REMARK minimizedAffinity -4.90996838
REMARK minimizedRMSD -1
REMARK  1 active torsions:
REMARK  status: ('A' for Active; 'I' for Inactive)
REMARK    1  A    between atoms: C1_2  and  C2_3 
ROOT
ATOM      1  C2  UNL d   1       0.253   0.038   0.246  0.00  0.00    -0.077 A 
ATOM      2  C3  UNL d   1       0.801  -1.241   0.076  0.00  0.00     0.002 A 
ATOM      3  C4  UNL d   1       2.154  -1.470   0.334  0.00  0.00     0.002 A 
ATOM      4  C5  UNL d   1       2.968  -0.426   0.768  0.00  0.00    -0.004 A 
ATOM      5  C6  UNL d   1       2.433   0.850   0.938  0.00  0.00     0.002 A 
ATOM      6  C7  UNL d   1       1.082   1.081   0.679  0.00  0.00     0.002 A 
ENDROOT
BRANCH   1   7
ATOM      7  C1  UNL d   1      -1.216   0.276   0.015  0.00  0.00     0.055 C 
ATOM      8  C   UNL d   1      -1.625  -0.111  -1.399  0.00  0.00     0.019 C 
ENDBRANCH   1   7
TORSDOF 1
ENDMDL
