MODEL 1
REMARK minimizedAffinity -4.67294979
REMARK minimizedRMSD -1
REMARK  1 active torsions:
REMARK  status: ('A' for Active; 'I' for Inactive)
REMARK    1  A    between atoms: C1_2  and  C2_3 
ROOT
ATOM      1  C2  UNL d   1       1.482  -0.497   0.296  0.00  0.00    -0.077 A 
ATOM      2  C3  UNL d   1       0.799   0.700   0.039  0.00  0.00     0.002 A 
ATOM      3  C4  UNL d   1      -0.594   0.750   0.124  0.00  0.00     0.002 A 
ATOM      4  C5  UNL d   1      -1.314  -0.391   0.472  0.00  0.00    -0.004 A 
ATOM      5  C6  UNL d   1      -0.644  -1.586   0.728  0.00  0.00     0.002 A 
ATOM      6  C7  UNL d   1       0.748  -1.639   0.641  0.00  0.00     0.002 A 
ENDROOT
BRANCH   1   7
ATOM      7  C1  UNL d   1       2.987  -0.541   0.252  0.00  0.00     0.055 C 
ATOM      8  C   UNL d   1       3.599   0.324   1.345  0.00  0.00     0.019 C 
ENDBRANCH   1   7
TORSDOF 1
ENDMDL
