MODEL 1
REMARK minimizedAffinity -3.06070876
REMARK minimizedRMSD -1
REMARK  1 active torsions:
REMARK  status: ('A' for Active; 'I' for Inactive)
REMARK    1  A    between atoms: C1_2  and  C2_3 
ROOT
ATOM      1  C2  UNL d   1       0.074  -0.095   0.916  0.00  0.00    -0.077 A 
ATOM      2  C3  UNL d   1       1.379  -0.437   1.299  0.00  0.00     0.002 A 
ATOM      3  C4  UNL d   1       2.452   0.393   0.970  0.00  0.00     0.002 A 
ATOM      4  C5  UNL d   1       2.232   1.572   0.261  0.00  0.00    -0.004 A 
ATOM      5  C6  UNL d   1       0.938   1.920  -0.126  0.00  0.00     0.002 A 
ATOM      6  C7  UNL d   1      -0.136   1.091   0.201  0.00  0.00     0.002 A 
ENDROOT
BRANCH   1   7
ATOM      7  C1  UNL d   1      -1.091  -0.963   1.313  0.00  0.00     0.055 C 
ATOM      8  C   UNL d   1      -0.621  -2.251   1.975  0.00  0.00     0.019 C 
ENDBRANCH   1   7
TORSDOF 1
ENDMDL
