MODEL 1
REMARK minimizedAffinity -3.65964365
REMARK minimizedRMSD -1
REMARK  1 active torsions:
REMARK  status: ('A' for Active; 'I' for Inactive)
REMARK    1  A    between atoms: C1_2  and  C2_3 
ROOT
ATOM      1  C2  UNL d   1       1.524  -0.055   0.304  0.00  0.00    -0.077 A 
ATOM      2  C3  UNL d   1       0.669  -1.155   0.462  0.00  0.00     0.002 A 
ATOM      3  C4  UNL d   1      -0.702  -0.963   0.646  0.00  0.00     0.002 A 
ATOM      4  C5  UNL d   1      -1.230   0.326   0.670  0.00  0.00    -0.004 A 
ATOM      5  C6  UNL d   1      -0.388   1.426   0.516  0.00  0.00     0.002 A 
ATOM      6  C7  UNL d   1       0.983   1.237   0.333  0.00  0.00     0.002 A 
ENDROOT
BRANCH   1   7
ATOM      7  C1  UNL d   1       2.995  -0.261   0.056  0.00  0.00     0.055 C 
ATOM      8  C   UNL d   1       3.743  -0.531   1.354  0.00  0.00     0.019 C 
ENDBRANCH   1   7
TORSDOF 1
ENDMDL
