MODEL 1
REMARK minimizedAffinity 4.47828197
REMARK minimizedRMSD -1
REMARK  0 active torsions:
REMARK  status: ('A' for Active; 'I' for Inactive)
ROOT
ATOM      1  C2' OXE d   1       2.051   2.681   1.481  0.00  0.00     0.078 C 
ATOM      2  C1' OXE d   1       1.901   0.607  -0.405  0.00  0.00     0.078 C 
ATOM      3  C1  OXE d   1       0.671   1.452  -0.189  0.00  0.00    -0.078 A 
ATOM      4  C2  OXE d   1       0.738   2.435   0.769  0.00  0.00    -0.078 A 
ATOM      5  C3  OXE d   1      -0.351   3.279   0.969  0.00  0.00     0.003 A 
ATOM      6  C4  OXE d   1      -1.564   3.038   0.314  0.00  0.00    -0.002 A 
ATOM      7  C5  OXE d   1      -1.667   2.017  -0.637  0.00  0.00    -0.002 A 
ATOM      8  C6  OXE d   1      -0.549   1.244  -0.931  0.00  0.00     0.003 A 
ENDROOT
TORSDOF 0
ENDMDL
