MODEL 1
REMARK minimizedAffinity 4.54144382
REMARK minimizedRMSD -1
REMARK  0 active torsions:
REMARK  status: ('A' for Active; 'I' for Inactive)
ROOT
ATOM      1  C2' OXE d   1       3.629   0.747  -3.150  0.00  0.00     0.078 C 
ATOM      2  C1' OXE d   1       4.510   1.391  -0.564  0.00  0.00     0.078 C 
ATOM      3  C1  OXE d   1       3.223   0.616  -0.696  0.00  0.00    -0.078 A 
ATOM      4  C2  OXE d   1       2.775   0.346  -1.967  0.00  0.00    -0.078 A 
ATOM      5  C3  OXE d   1       1.622  -0.412  -2.145  0.00  0.00     0.003 A 
ATOM      6  C4  OXE d   1       0.832  -0.771  -1.045  0.00  0.00    -0.002 A 
ATOM      7  C5  OXE d   1       1.249  -0.471   0.256  0.00  0.00    -0.002 A 
ATOM      8  C6  OXE d   1       2.461   0.184   0.449  0.00  0.00     0.003 A 
ENDROOT
TORSDOF 0
ENDMDL
