MODEL 1
REMARK minimizedAffinity 3.05810094
REMARK minimizedRMSD -1
REMARK  0 active torsions:
REMARK  status: ('A' for Active; 'I' for Inactive)
ROOT
ATOM      1  C2' OXE d   1      -1.160   0.010  -1.583  0.00  0.00     0.078 C 
ATOM      2  C1' OXE d   1       1.456   0.690  -0.827  0.00  0.00     0.078 C 
ATOM      3  C1  OXE d   1       0.357   1.677  -0.524  0.00  0.00    -0.078 A 
ATOM      4  C2  OXE d   1      -0.913   1.357  -0.939  0.00  0.00    -0.078 A 
ATOM      5  C3  OXE d   1      -1.973   2.207  -0.636  0.00  0.00     0.003 A 
ATOM      6  C4  OXE d   1      -1.734   3.456  -0.050  0.00  0.00    -0.002 A 
ATOM      7  C5  OXE d   1      -0.442   3.819   0.346  0.00  0.00    -0.002 A 
ATOM      8  C6  OXE d   1       0.606   2.925   0.155  0.00  0.00     0.003 A 
ENDROOT
TORSDOF 0
ENDMDL
