MODEL 1
REMARK minimizedAffinity 4.83654642
REMARK minimizedRMSD -1
REMARK  0 active torsions:
REMARK  status: ('A' for Active; 'I' for Inactive)
ROOT
ATOM      1  C2' OXE d   1      -4.024   3.550   2.300  0.00  0.00     0.078 C 
ATOM      2  C1' OXE d   1      -2.858   2.834  -0.151  0.00  0.00     0.078 C 
ATOM      3  C1  OXE d   1      -3.946   1.945   0.397  0.00  0.00    -0.078 A 
ATOM      4  C2  OXE d   1      -4.479   2.277   1.619  0.00  0.00    -0.078 A 
ATOM      5  C3  OXE d   1      -5.524   1.522   2.144  0.00  0.00     0.003 A 
ATOM      6  C4  OXE d   1      -5.932   0.341   1.513  0.00  0.00    -0.002 A 
ATOM      7  C5  OXE d   1      -5.374  -0.038   0.287  0.00  0.00    -0.002 A 
ATOM      8  C6  OXE d   1      -4.413   0.774  -0.304  0.00  0.00     0.003 A 
ENDROOT
TORSDOF 0
ENDMDL
