MODEL 1
REMARK minimizedAffinity -0.196842358
REMARK minimizedRMSD -1
REMARK  0 active torsions:
REMARK  status: ('A' for Active; 'I' for Inactive)
ROOT
ATOM      1  C2' OXE d   1       0.645  -0.561  -1.105  0.00  0.00     0.078 C 
ATOM      2  C1' OXE d   1       3.030  -0.255  -2.554  0.00  0.00     0.078 C 
ATOM      3  C1  OXE d   1       3.004   0.240  -1.130  0.00  0.00    -0.078 A 
ATOM      4  C2  OXE d   1       1.819   0.128  -0.443  0.00  0.00    -0.078 A 
ATOM      5  C3  OXE d   1       1.756   0.519   0.891  0.00  0.00     0.003 A 
ATOM      6  C4  OXE d   1       2.843   1.165   1.493  0.00  0.00    -0.002 A 
ATOM      7  C5  OXE d   1       4.047   1.325   0.798  0.00  0.00    -0.002 A 
ATOM      8  C6  OXE d   1       4.157   0.830  -0.496  0.00  0.00     0.003 A 
ENDROOT
TORSDOF 0
ENDMDL
