MODEL 1
REMARK minimizedAffinity 3.10195756
REMARK minimizedRMSD -1
REMARK  0 active torsions:
REMARK  status: ('A' for Active; 'I' for Inactive)
ROOT
ATOM      1  C2' OXE d   1       1.434   1.738   1.574  0.00  0.00     0.078 C 
ATOM      2  C1' OXE d   1      -0.456   3.624   0.709  0.00  0.00     0.078 C 
ATOM      3  C1  OXE d   1      -0.323   2.348  -0.084  0.00  0.00    -0.078 A 
ATOM      4  C2  OXE d   1       0.637   1.451   0.320  0.00  0.00    -0.078 A 
ATOM      5  C3  OXE d   1       0.765   0.234  -0.343  0.00  0.00     0.003 A 
ATOM      6  C4  OXE d   1       0.031  -0.019  -1.508  0.00  0.00    -0.002 A 
ATOM      7  C5  OXE d   1      -0.923   0.898  -1.960  0.00  0.00    -0.002 A 
ATOM      8  C6  OXE d   1      -1.142   2.065  -1.236  0.00  0.00     0.003 A 
ENDROOT
TORSDOF 0
ENDMDL
