MODEL 1
REMARK minimizedAffinity 7.54520464
REMARK minimizedRMSD -1
REMARK  0 active torsions:
REMARK  status: ('A' for Active; 'I' for Inactive)
ROOT
ATOM      1  C2' OXE d   1       0.422   0.366  -0.906  0.00  0.00     0.078 C 
ATOM      2  C1' OXE d   1       2.983   0.431  -2.055  0.00  0.00     0.078 C 
ATOM      3  C1  OXE d   1       2.864   0.738  -0.583  0.00  0.00    -0.078 A 
ATOM      4  C2  OXE d   1       1.602   0.750  -0.039  0.00  0.00    -0.078 A 
ATOM      5  C3  OXE d   1       1.441   0.973   1.325  0.00  0.00     0.003 A 
ATOM      6  C4  OXE d   1       2.537   1.338   2.118  0.00  0.00    -0.002 A 
ATOM      7  C5  OXE d   1       3.826   1.371   1.575  0.00  0.00    -0.002 A 
ATOM      8  C6  OXE d   1       4.012   1.033   0.239  0.00  0.00     0.003 A 
ENDROOT
TORSDOF 0
ENDMDL
