MODEL 1
REMARK minimizedAffinity 3.09605956
REMARK minimizedRMSD -1
REMARK  0 active torsions:
REMARK  status: ('A' for Active; 'I' for Inactive)
ROOT
ATOM      1  C2' OXE d   1      -1.472   0.956  -1.543  0.00  0.00     0.078 C 
ATOM      2  C1' OXE d   1       1.219   1.077  -0.753  0.00  0.00     0.078 C 
ATOM      3  C1  OXE d   1       0.279   2.126  -0.213  0.00  0.00    -0.078 A 
ATOM      4  C2  OXE d   1      -1.026   2.087  -0.642  0.00  0.00    -0.078 A 
ATOM      5  C3  OXE d   1      -1.947   2.998  -0.133  0.00  0.00     0.003 A 
ATOM      6  C4  OXE d   1      -1.524   4.047   0.692  0.00  0.00    -0.002 A 
ATOM      7  C5  OXE d   1      -0.191   4.129   1.109  0.00  0.00    -0.002 A 
ATOM      8  C6  OXE d   1       0.712   3.154   0.701  0.00  0.00     0.003 A 
ENDROOT
TORSDOF 0
ENDMDL
