MODEL 1
REMARK minimizedAffinity 7.47844172
REMARK minimizedRMSD -1
REMARK  0 active torsions:
REMARK  status: ('A' for Active; 'I' for Inactive)
ROOT
ATOM      1  C2' OXE d   1       0.867   3.059   0.715  0.00  0.00     0.078 C 
ATOM      2  C1' OXE d   1       2.521   0.804   0.952  0.00  0.00     0.078 C 
ATOM      3  C1  OXE d   1       1.402   0.752  -0.058  0.00  0.00    -0.078 A 
ATOM      4  C2  OXE d   1       0.569   1.843  -0.134  0.00  0.00    -0.078 A 
ATOM      5  C3  OXE d   1      -0.446   1.869  -1.087  0.00  0.00     0.003 A 
ATOM      6  C4  OXE d   1      -0.721   0.736  -1.862  0.00  0.00    -0.002 A 
ATOM      7  C5  OXE d   1       0.091  -0.400  -1.772  0.00  0.00    -0.002 A 
ATOM      8  C6  OXE d   1       1.180  -0.392  -0.907  0.00  0.00     0.003 A 
ENDROOT
TORSDOF 0
ENDMDL
