MODEL 1
REMARK minimizedAffinity -1.57930541
REMARK minimizedRMSD -1
REMARK  0 active torsions:
REMARK  status: ('A' for Active; 'I' for Inactive)
ROOT
ATOM      1  C2' OXE d   1      -0.133   3.637   0.458  0.00  0.00     0.078 C 
ATOM      2  C1' OXE d   1       1.980   2.058   1.418  0.00  0.00     0.078 C 
ATOM      3  C1  OXE d   1       1.189   1.536   0.245  0.00  0.00    -0.078 A 
ATOM      4  C2  OXE d   1       0.128   2.294  -0.189  0.00  0.00    -0.078 A 
ATOM      5  C3  OXE d   1      -0.601   1.885  -1.302  0.00  0.00     0.003 A 
ATOM      6  C4  OXE d   1      -0.360   0.637  -1.889  0.00  0.00    -0.002 A 
ATOM      7  C5  OXE d   1       0.691  -0.168  -1.437  0.00  0.00    -0.002 A 
ATOM      8  C6  OXE d   1       1.501   0.285  -0.401  0.00  0.00     0.003 A 
ENDROOT
TORSDOF 0
ENDMDL
