MODEL 1
REMARK minimizedAffinity 13.6634502
REMARK minimizedRMSD -1
REMARK  2 active torsions:
REMARK  status: ('A' for Active; 'I' for Inactive)
REMARK    1  A    between atoms: C2'_3  and  C1'_4 
REMARK    2  A    between atoms: C1'_4  and  C1_5 
ROOT
ATOM      1  C1  I4B d   1      -2.600  -5.190  -4.680  0.00  0.00    -0.075 A 
ATOM      2  C2  I4B d   1      -3.708  -6.000  -4.706  0.00  0.00     0.003 A 
ATOM      3  C3  I4B d   1      -4.876  -5.587  -5.390  0.00  0.00     0.002 A 
ATOM      4  C4  I4B d   1      -4.910  -4.344  -5.988  0.00  0.00    -0.004 A 
ATOM      5  C5  I4B d   1      -3.778  -3.534  -5.981  0.00  0.00     0.002 A 
ATOM      6  C6  I4B d   1      -2.611  -3.965  -5.333  0.00  0.00     0.003 A 
ENDROOT
BRANCH   1   7
ATOM      7  C1' I4B d   1      -1.394  -5.643  -3.920  0.00  0.00     0.060 C 
BRANCH   7   8
ATOM      8  C2' I4B d   1      -0.770  -4.427  -3.266  0.00  0.00    -0.013 C 
ATOM      9  C4' I4B d   1      -0.734  -4.572  -1.767  0.00  0.00     0.013 C 
ATOM     10  C3' I4B d   1       0.610  -4.256  -3.827  0.00  0.00     0.013 C 
ENDBRANCH   7   8
ENDBRANCH   1   7
TORSDOF 2
ENDMDL
