MODEL 1
REMARK minimizedAffinity 6.60975599
REMARK minimizedRMSD -1
REMARK  2 active torsions:
REMARK  status: ('A' for Active; 'I' for Inactive)
REMARK    1  A    between atoms: C2'_3  and  C1'_4 
REMARK    2  A    between atoms: C1'_4  and  C1_5 
ROOT
ATOM      1  C1  I4B d   1       1.098   2.418   0.396  0.00  0.00    -0.075 A 
ATOM      2  C2  I4B d   1       1.871   3.191  -0.435  0.00  0.00     0.003 A 
ATOM      3  C3  I4B d   1       1.282   4.231  -1.193  0.00  0.00     0.002 A 
ATOM      4  C4  I4B d   1      -0.082   4.431  -1.129  0.00  0.00    -0.004 A 
ATOM      5  C5  I4B d   1      -0.860   3.661  -0.269  0.00  0.00     0.002 A 
ATOM      6  C6  I4B d   1      -0.265   2.657   0.508  0.00  0.00     0.003 A 
ENDROOT
BRANCH   1   7
ATOM      7  C1' I4B d   1       1.748   1.306   1.157  0.00  0.00     0.060 C 
BRANCH   7   8
ATOM      8  C2' I4B d   1       2.619   1.923   2.233  0.00  0.00    -0.013 C 
ATOM      9  C4' I4B d   1       1.787   2.436   3.379  0.00  0.00     0.013 C 
ATOM     10  C3' I4B d   1       3.593   0.881   2.694  0.00  0.00     0.013 C 
ENDBRANCH   7   8
ENDBRANCH   1   7
TORSDOF 2
ENDMDL
