MODEL 1
REMARK minimizedAffinity 7.52100992
REMARK minimizedRMSD -1
REMARK  2 active torsions:
REMARK  status: ('A' for Active; 'I' for Inactive)
REMARK    1  A    between atoms: C2'_3  and  C1'_4 
REMARK    2  A    between atoms: C1'_4  and  C1_5 
ROOT
ATOM      1  C1  I4B d   1       1.187   1.985   0.133  0.00  0.00    -0.075 A 
ATOM      2  C2  I4B d   1       1.774   1.541   1.291  0.00  0.00     0.003 A 
ATOM      3  C3  I4B d   1       2.409   0.275   1.328  0.00  0.00     0.002 A 
ATOM      4  C4  I4B d   1       2.389  -0.528   0.206  0.00  0.00    -0.004 A 
ATOM      5  C5  I4B d   1       1.812  -0.066  -0.973  0.00  0.00     0.002 A 
ATOM      6  C6  I4B d   1       1.218   1.203  -1.015  0.00  0.00     0.003 A 
ENDROOT
BRANCH   1   7
ATOM      7  C1' I4B d   1       0.497   3.312   0.138  0.00  0.00     0.060 C 
BRANCH   7   8
ATOM      8  C2' I4B d   1      -0.992   3.065   0.003  0.00  0.00    -0.013 C 
ATOM      9  C4' I4B d   1      -1.736   3.532   1.226  0.00  0.00     0.013 C 
ATOM     10  C3' I4B d   1      -1.470   3.778  -1.227  0.00  0.00     0.013 C 
ENDBRANCH   7   8
ENDBRANCH   1   7
TORSDOF 2
ENDMDL
