MODEL 1
REMARK minimizedAffinity -2.94502497
REMARK minimizedRMSD -1
REMARK  0 active torsions:
REMARK  status: ('A' for Active; 'I' for Inactive)
ROOT
ATOM      1  C   UNL d   1      -0.883  -2.931  -0.994  0.00  0.00    -0.002 A 
ATOM      2  C1  UNL d   1      -0.338  -2.137  -1.993  0.00  0.00     0.010 A 
ATOM      3  C2  UNL d   1      -0.090  -0.782  -1.766  0.00  0.00     0.041 A 
ATOM      4  C3  UNL d   1      -0.399  -0.234  -0.506  0.00  0.00    -0.075 A 
ATOM      5  S   UNL d   1      -0.180   1.400  -0.001  0.00  0.00     0.015 SA
ATOM      6  C4  UNL d   1      -0.803   1.082   1.553  0.00  0.00     0.022 A 
ATOM      7  C5  UNL d   1      -1.174  -0.233   1.700  0.00  0.00     0.026 A 
ATOM      8  C6  UNL d   1      -0.947  -1.014   0.516  0.00  0.00    -0.082 A 
ATOM      9  C7  UNL d   1      -1.188  -2.384   0.255  0.00  0.00     0.045 A 
ENDROOT
TORSDOF 0
ENDMDL
