MODEL 1
REMARK minimizedAffinity -0.0229945779
REMARK minimizedRMSD -1
REMARK  0 active torsions:
REMARK  status: ('A' for Active; 'I' for Inactive)
ROOT
ATOM      1  C   UNL d   1      -0.704  -3.462  -2.204  0.00  0.00    -0.002 A 
ATOM      2  C1  UNL d   1      -0.299  -2.333  -2.903  0.00  0.00     0.010 A 
ATOM      3  C2  UNL d   1      -0.099  -1.121  -2.240  0.00  0.00     0.041 A 
ATOM      4  C3  UNL d   1      -0.315  -1.061  -0.849  0.00  0.00    -0.075 A 
ATOM      5  S   UNL d   1      -0.132   0.315   0.173  0.00  0.00     0.015 SA
ATOM      6  C4  UNL d   1      -0.587  -0.563   1.562  0.00  0.00     0.022 A 
ATOM      7  C5  UNL d   1      -0.875  -1.875   1.271  0.00  0.00     0.026 A 
ATOM      8  C6  UNL d   1      -0.722  -2.184  -0.123  0.00  0.00    -0.082 A 
ATOM      9  C7  UNL d   1      -0.916  -3.399  -0.824  0.00  0.00     0.045 A 
ENDROOT
TORSDOF 0
ENDMDL
