MODEL 1
REMARK minimizedAffinity -2.06658649
REMARK minimizedRMSD -1
REMARK  0 active torsions:
REMARK  status: ('A' for Active; 'I' for Inactive)
ROOT
ATOM      1  C   UNL d   1      -0.616  -3.628  -2.171  0.00  0.00    -0.002 A 
ATOM      2  C1  UNL d   1      -0.070  -2.607  -2.935  0.00  0.00     0.010 A 
ATOM      3  C2  UNL d   1       0.129  -1.338  -2.387  0.00  0.00     0.041 A 
ATOM      4  C3  UNL d   1      -0.234  -1.111  -1.044  0.00  0.00    -0.075 A 
ATOM      5  S   UNL d   1      -0.082   0.362  -0.161  0.00  0.00     0.015 SA
ATOM      6  C4  UNL d   1      -0.738  -0.330   1.251  0.00  0.00     0.022 A 
ATOM      7  C5  UNL d   1      -1.071  -1.652   1.071  0.00  0.00     0.026 A 
ATOM      8  C6  UNL d   1      -0.785  -2.124  -0.255  0.00  0.00    -0.082 A 
ATOM      9  C7  UNL d   1      -0.975  -3.399  -0.840  0.00  0.00     0.045 A 
ENDROOT
TORSDOF 0
ENDMDL
