MODEL 1
REMARK minimizedAffinity 2.74875593
REMARK minimizedRMSD -1
REMARK  0 active torsions:
REMARK  status: ('A' for Active; 'I' for Inactive)
ROOT
ATOM      1  C   UNL d   1      -1.702  -1.866   1.510  0.00  0.00    -0.002 A 
ATOM      2  C1  UNL d   1      -1.078  -2.388   0.387  0.00  0.00     0.010 A 
ATOM      3  C2  UNL d   1      -0.367  -1.557  -0.482  0.00  0.00     0.041 A 
ATOM      4  C3  UNL d   1      -0.293  -0.179  -0.198  0.00  0.00    -0.075 A 
ATOM      5  S   UNL d   1       0.522   1.030  -1.119  0.00  0.00     0.015 SA
ATOM      6  C4  UNL d   1       0.060   2.267  -0.042  0.00  0.00     0.022 A 
ATOM      7  C5  UNL d   1      -0.697   1.788   1.000  0.00  0.00     0.026 A 
ATOM      8  C6  UNL d   1      -0.913   0.370   0.928  0.00  0.00    -0.082 A 
ATOM      9  C7  UNL d   1      -1.627  -0.499   1.789  0.00  0.00     0.045 A 
ENDROOT
TORSDOF 0
ENDMDL
