MODEL 1
REMARK minimizedAffinity -2.35268092
REMARK minimizedRMSD -1
REMARK  0 active torsions:
REMARK  status: ('A' for Active; 'I' for Inactive)
ROOT
ATOM      1  C   UNL d   1      -1.011  -1.836   1.256  0.00  0.00    -0.002 A 
ATOM      2  C1  UNL d   1      -0.946  -2.315  -0.044  0.00  0.00     0.010 A 
ATOM      3  C2  UNL d   1      -0.644  -1.457  -1.103  0.00  0.00     0.041 A 
ATOM      4  C3  UNL d   1      -0.404  -0.096  -0.830  0.00  0.00    -0.075 A 
ATOM      5  S   UNL d   1      -0.015   1.140  -1.967  0.00  0.00     0.015 SA
ATOM      6  C4  UNL d   1       0.075   2.333  -0.753  0.00  0.00     0.022 A 
ATOM      7  C5  UNL d   1      -0.183   1.819   0.495  0.00  0.00     0.026 A 
ATOM      8  C6  UNL d   1      -0.463   0.410   0.472  0.00  0.00    -0.082 A 
ATOM      9  C7  UNL d   1      -0.773  -0.485   1.524  0.00  0.00     0.045 A 
ENDROOT
TORSDOF 0
ENDMDL
