MODEL 1
REMARK minimizedAffinity -2.17955828
REMARK minimizedRMSD -1
REMARK  0 active torsions:
REMARK  status: ('A' for Active; 'I' for Inactive)
ROOT
ATOM      1  C   UNL d   1      -0.556  -3.021  -1.653  0.00  0.00    -0.002 A 
ATOM      2  C1  UNL d   1      -0.977  -3.369  -0.378  0.00  0.00     0.010 A 
ATOM      3  C2  UNL d   1      -1.028  -2.414   0.639  0.00  0.00     0.041 A 
ATOM      4  C3  UNL d   1      -0.645  -1.090   0.350  0.00  0.00    -0.075 A 
ATOM      5  S   UNL d   1      -0.627   0.248   1.437  0.00  0.00     0.015 SA
ATOM      6  C4  UNL d   1      -0.060   1.314   0.234  0.00  0.00     0.022 A 
ATOM      7  C5  UNL d   1       0.116   0.682  -0.974  0.00  0.00     0.026 A 
ATOM      8  C6  UNL d   1      -0.218  -0.714  -0.927  0.00  0.00    -0.082 A 
ATOM      9  C7  UNL d   1      -0.178  -1.706  -1.937  0.00  0.00     0.045 A 
ENDROOT
TORSDOF 0
ENDMDL
