MODEL 1
REMARK minimizedAffinity -0.826677024
REMARK minimizedRMSD -1
REMARK  0 active torsions:
REMARK  status: ('A' for Active; 'I' for Inactive)
ROOT
ATOM      1  C   UNL d   1      -1.227  -3.705  -0.068  0.00  0.00    -0.002 A 
ATOM      2  C1  UNL d   1      -1.161  -3.309  -1.396  0.00  0.00     0.010 A 
ATOM      3  C2  UNL d   1      -0.828  -1.994  -1.730  0.00  0.00     0.041 A 
ATOM      4  C3  UNL d   1      -0.556  -1.077  -0.696  0.00  0.00    -0.075 A 
ATOM      5  S   UNL d   1      -0.125   0.584  -0.867  0.00  0.00     0.015 SA
ATOM      6  C4  UNL d   1      -0.017   0.806   0.820  0.00  0.00     0.022 A 
ATOM      7  C5  UNL d   1      -0.299  -0.348   1.511  0.00  0.00     0.026 A 
ATOM      8  C6  UNL d   1      -0.614  -1.452   0.649  0.00  0.00    -0.082 A 
ATOM      9  C7  UNL d   1      -0.956  -2.792   0.955  0.00  0.00     0.045 A 
ENDROOT
TORSDOF 0
ENDMDL
