MODEL 1
REMARK minimizedAffinity 3.2864089
REMARK minimizedRMSD -1
REMARK  0 active torsions:
REMARK  status: ('A' for Active; 'I' for Inactive)
ROOT
ATOM      1  C   UNL d   1      -1.234  -1.520   2.101  0.00  0.00    -0.002 A 
ATOM      2  C1  UNL d   1      -1.355  -2.317   0.971  0.00  0.00     0.010 A 
ATOM      3  C2  UNL d   1      -0.997  -1.825  -0.286  0.00  0.00     0.041 A 
ATOM      4  C3  UNL d   1      -0.509  -0.508  -0.389  0.00  0.00    -0.075 A 
ATOM      5  S   UNL d   1      -0.009   0.306  -1.824  0.00  0.00     0.015 SA
ATOM      6  C4  UNL d   1       0.379   1.730  -0.971  0.00  0.00     0.022 A 
ATOM      7  C5  UNL d   1       0.138   1.605   0.376  0.00  0.00     0.026 A 
ATOM      8  C6  UNL d   1      -0.377   0.313   0.734  0.00  0.00    -0.082 A 
ATOM      9  C7  UNL d   1      -0.749  -0.214   1.994  0.00  0.00     0.045 A 
ENDROOT
TORSDOF 0
ENDMDL
