MODEL 1
REMARK minimizedAffinity -4.37436104
REMARK minimizedRMSD -1
REMARK  0 active torsions:
REMARK  status: ('A' for Active; 'I' for Inactive)
ROOT
ATOM      1  C   UNL d   1      -0.191  -0.040   2.821  0.00  0.00     0.078 C 
ATOM      2  C1  UNL d   1       0.096   0.308   1.391  0.00  0.00    -0.077 A 
ATOM      3  C2  UNL d   1       1.373   0.721   0.991  0.00  0.00    -0.001 A 
ATOM      4  C3  UNL d   1       1.623   1.051  -0.341  0.00  0.00     0.003 A 
ATOM      5  C4  UNL d   1       0.601   0.973  -1.286  0.00  0.00    -0.005 A 
ATOM      6  C5  UNL d   1      -0.673   0.565  -0.897  0.00  0.00     0.003 A 
ATOM      7  C6  UNL d   1      -0.926   0.235   0.435  0.00  0.00    -0.001 A 
ENDROOT
TORSDOF 0
ENDMDL
