MODEL 1
REMARK minimizedAffinity -4.55704117
REMARK minimizedRMSD -1
REMARK  0 active torsions:
REMARK  status: ('A' for Active; 'I' for Inactive)
ROOT
ATOM      1  C   UNL d   1      -0.055   0.682  -1.097  0.00  0.00     0.078 C 
ATOM      2  C1  UNL d   1      -0.271   0.166   0.295  0.00  0.00    -0.077 A 
ATOM      3  C2  UNL d   1       0.644   0.445   1.317  0.00  0.00    -0.001 A 
ATOM      4  C3  UNL d   1       0.435  -0.049   2.605  0.00  0.00     0.003 A 
ATOM      5  C4  UNL d   1      -0.688  -0.826   2.883  0.00  0.00    -0.005 A 
ATOM      6  C5  UNL d   1      -1.603  -1.111   1.872  0.00  0.00     0.003 A 
ATOM      7  C6  UNL d   1      -1.396  -0.617   0.583  0.00  0.00    -0.001 A 
ENDROOT
TORSDOF 0
ENDMDL
