MODEL 1
REMARK minimizedAffinity -3.60853434
REMARK minimizedRMSD -1
REMARK  0 active torsions:
REMARK  status: ('A' for Active; 'I' for Inactive)
ROOT
ATOM      1  C   UNL d   1       0.382  -0.607  -1.124  0.00  0.00     0.078 C 
ATOM      2  C1  UNL d   1       0.234  -0.485   0.363  0.00  0.00    -0.077 A 
ATOM      3  C2  UNL d   1       0.892   0.526   1.074  0.00  0.00    -0.001 A 
ATOM      4  C3  UNL d   1       0.753   0.622   2.459  0.00  0.00     0.003 A 
ATOM      5  C4  UNL d   1      -0.044  -0.292   3.147  0.00  0.00    -0.005 A 
ATOM      6  C5  UNL d   1      -0.702  -1.303   2.449  0.00  0.00     0.003 A 
ATOM      7  C6  UNL d   1      -0.563  -1.400   1.063  0.00  0.00    -0.001 A 
ENDROOT
TORSDOF 0
ENDMDL
