MODEL 1
REMARK minimizedAffinity -3.76323652
REMARK minimizedRMSD -1
REMARK  0 active torsions:
REMARK  status: ('A' for Active; 'I' for Inactive)
ROOT
ATOM      1  C   UNL d   1       3.377   0.687  -3.608  0.00  0.00     0.078 C 
ATOM      2  C1  UNL d   1       2.412  -0.042  -2.721  0.00  0.00    -0.077 A 
ATOM      3  C2  UNL d   1       2.094   0.446  -1.448  0.00  0.00    -0.001 A 
ATOM      4  C3  UNL d   1       1.202  -0.247  -0.629  0.00  0.00     0.003 A 
ATOM      5  C4  UNL d   1       0.621  -1.433  -1.073  0.00  0.00    -0.005 A 
ATOM      6  C5  UNL d   1       0.933  -1.928  -2.338  0.00  0.00     0.003 A 
ATOM      7  C6  UNL d   1       1.826  -1.236  -3.159  0.00  0.00    -0.001 A 
ENDROOT
TORSDOF 0
ENDMDL
