MODEL 1
REMARK minimizedAffinity -3.73516202
REMARK minimizedRMSD -1
REMARK  0 active torsions:
REMARK  status: ('A' for Active; 'I' for Inactive)
ROOT
ATOM      1  C   UNL d   1       1.463  -2.723  -3.810  0.00  0.00     0.078 C 
ATOM      2  C1  UNL d   1       2.170  -1.400  -3.795  0.00  0.00    -0.077 A 
ATOM      3  C2  UNL d   1       3.469  -1.271  -4.302  0.00  0.00    -0.001 A 
ATOM      4  C3  UNL d   1       4.119  -0.037  -4.272  0.00  0.00     0.003 A 
ATOM      5  C4  UNL d   1       3.479   1.079  -3.736  0.00  0.00    -0.005 A 
ATOM      6  C5  UNL d   1       2.187   0.960  -3.227  0.00  0.00     0.003 A 
ATOM      7  C6  UNL d   1       1.536  -0.274  -3.256  0.00  0.00    -0.001 A 
ENDROOT
TORSDOF 0
ENDMDL
