MODEL 1
REMARK minimizedAffinity -4.88142061
REMARK minimizedRMSD -1
REMARK  0 active torsions:
REMARK  status: ('A' for Active; 'I' for Inactive)
ROOT
ATOM      1  C   UNL d   1      -0.198   0.587   2.515  0.00  0.00     0.078 C 
ATOM      2  C1  UNL d   1      -0.213   0.893   1.047  0.00  0.00    -0.077 A 
ATOM      3  C2  UNL d   1       0.977   1.122   0.345  0.00  0.00    -0.001 A 
ATOM      4  C3  UNL d   1       0.947   1.416  -1.019  0.00  0.00     0.003 A 
ATOM      5  C4  UNL d   1      -0.271   1.485  -1.693  0.00  0.00    -0.005 A 
ATOM      6  C5  UNL d   1      -1.461   1.261  -1.003  0.00  0.00     0.003 A 
ATOM      7  C6  UNL d   1      -1.432   0.967   0.361  0.00  0.00    -0.001 A 
ENDROOT
TORSDOF 0
ENDMDL
