MODEL 1
REMARK minimizedAffinity -3.76273346
REMARK minimizedRMSD -1
REMARK  0 active torsions:
REMARK  status: ('A' for Active; 'I' for Inactive)
ROOT
ATOM      1  C   UNL d   1      -0.221  -0.576   3.521  0.00  0.00     0.078 C 
ATOM      2  C1  UNL d   1       0.114  -0.005   2.176  0.00  0.00    -0.077 A 
ATOM      3  C2  UNL d   1       1.328   0.657   1.955  0.00  0.00    -0.001 A 
ATOM      4  C3  UNL d   1       1.623   1.192   0.700  0.00  0.00     0.003 A 
ATOM      5  C4  UNL d   1       0.708   1.072  -0.344  0.00  0.00    -0.005 A 
ATOM      6  C5  UNL d   1      -0.504   0.417  -0.133  0.00  0.00     0.003 A 
ATOM      7  C6  UNL d   1      -0.800  -0.119   1.121  0.00  0.00    -0.001 A 
ENDROOT
TORSDOF 0
ENDMDL
