MODEL 1
REMARK minimizedAffinity -4.28416061
REMARK minimizedRMSD -1
REMARK  0 active torsions:
REMARK  status: ('A' for Active; 'I' for Inactive)
ROOT
ATOM      1  C   UNL d   1       0.591   0.589  -2.888  0.00  0.00     0.078 C 
ATOM      2  C1  UNL d   1       0.356   0.598  -1.407  0.00  0.00    -0.077 A 
ATOM      3  C2  UNL d   1       1.157   1.367  -0.554  0.00  0.00    -0.001 A 
ATOM      4  C3  UNL d   1       0.933   1.358   0.824  0.00  0.00     0.003 A 
ATOM      5  C4  UNL d   1      -0.092   0.582   1.361  0.00  0.00    -0.005 A 
ATOM      6  C5  UNL d   1      -0.894  -0.188   0.520  0.00  0.00     0.003 A 
ATOM      7  C6  UNL d   1      -0.671  -0.181  -0.858  0.00  0.00    -0.001 A 
ENDROOT
TORSDOF 0
ENDMDL
