MODEL 1
REMARK minimizedAffinity 2.51825166
REMARK minimizedRMSD -1
REMARK  0 active torsions:
REMARK  status: ('A' for Active; 'I' for Inactive)
ROOT
ATOM      1  C   UNL d   1       3.710   0.189   1.767  0.00  0.00     0.078 C 
ATOM      2  C1  UNL d   1       2.274   0.279   2.191  0.00  0.00    -0.077 A 
ATOM      3  C2  UNL d   1       1.787  -0.486   3.258  0.00  0.00    -0.001 A 
ATOM      4  C3  UNL d   1       0.446  -0.398   3.635  0.00  0.00     0.003 A 
ATOM      5  C4  UNL d   1      -0.419   0.452   2.950  0.00  0.00    -0.005 A 
ATOM      6  C5  UNL d   1       0.055   1.215   1.885  0.00  0.00     0.003 A 
ATOM      7  C6  UNL d   1       1.396   1.129   1.507  0.00  0.00    -0.001 A 
ENDROOT
TORSDOF 0
ENDMDL
