MODEL 1
REMARK minimizedAffinity 1.48921096
REMARK minimizedRMSD -1
REMARK  0 active torsions:
REMARK  status: ('A' for Active; 'I' for Inactive)
ROOT
ATOM      1  C   UNL d   1      -3.400   2.539   3.254  0.00  0.00     0.078 C 
ATOM      2  C1  UNL d   1      -3.512   1.489   2.189  0.00  0.00    -0.077 A 
ATOM      3  C2  UNL d   1      -2.994   1.704   0.906  0.00  0.00    -0.001 A 
ATOM      4  C3  UNL d   1      -3.115   0.722  -0.078  0.00  0.00     0.003 A 
ATOM      5  C4  UNL d   1      -3.754  -0.482   0.210  0.00  0.00    -0.005 A 
ATOM      6  C5  UNL d   1      -4.275  -0.705   1.483  0.00  0.00     0.003 A 
ATOM      7  C6  UNL d   1      -4.155   0.277   2.469  0.00  0.00    -0.001 A 
ENDROOT
TORSDOF 0
ENDMDL
