MODEL 1
REMARK minimizedAffinity -5.32162142
REMARK minimizedRMSD -1
REMARK  0 active torsions:
REMARK  status: ('A' for Active; 'I' for Inactive)
ROOT
ATOM      1  C   UNL d   1      -1.699   0.772  -0.553  0.00  0.00     0.078 C 
ATOM      2  C1  UNL d   1      -0.885   0.181   0.559  0.00  0.00    -0.077 A 
ATOM      3  C2  UNL d   1       0.406  -0.308   0.326  0.00  0.00    -0.001 A 
ATOM      4  C3  UNL d   1       1.149  -0.865   1.369  0.00  0.00     0.003 A 
ATOM      5  C4  UNL d   1       0.609  -0.938   2.651  0.00  0.00    -0.005 A 
ATOM      6  C5  UNL d   1      -0.676  -0.456   2.892  0.00  0.00     0.003 A 
ATOM      7  C6  UNL d   1      -1.420   0.101   1.850  0.00  0.00    -0.001 A 
ENDROOT
TORSDOF 0
ENDMDL
