MODEL 1
REMARK minimizedAffinity -4.95040226
REMARK minimizedRMSD -1
REMARK  0 active torsions:
REMARK  status: ('A' for Active; 'I' for Inactive)
ROOT
ATOM      1  C   UNL d   1       3.069   0.482   1.702  0.00  0.00     0.078 C 
ATOM      2  C1  UNL d   1       1.594   0.304   1.496  0.00  0.00    -0.077 A 
ATOM      3  C2  UNL d   1       0.785  -0.233   2.505  0.00  0.00    -0.001 A 
ATOM      4  C3  UNL d   1      -0.585  -0.402   2.296  0.00  0.00     0.003 A 
ATOM      5  C4  UNL d   1      -1.157  -0.039   1.079  0.00  0.00    -0.005 A 
ATOM      6  C5  UNL d   1      -0.359   0.493   0.068  0.00  0.00     0.003 A 
ATOM      7  C6  UNL d   1       1.011   0.664   0.275  0.00  0.00    -0.001 A 
ENDROOT
TORSDOF 0
ENDMDL
