MODEL 1
REMARK minimizedAffinity -4.45768595
REMARK minimizedRMSD -1
REMARK  0 active torsions:
REMARK  status: ('A' for Active; 'I' for Inactive)
ROOT
ATOM      1  C   UNL d   1       0.052   0.165  -1.427  0.00  0.00     0.078 C 
ATOM      2  C1  UNL d   1       0.428  -0.048   0.008  0.00  0.00    -0.077 A 
ATOM      3  C2  UNL d   1       1.748   0.125   0.442  0.00  0.00    -0.001 A 
ATOM      4  C3  UNL d   1       2.086  -0.087   1.779  0.00  0.00     0.003 A 
ATOM      5  C4  UNL d   1       1.109  -0.474   2.694  0.00  0.00    -0.005 A 
ATOM      6  C5  UNL d   1      -0.207  -0.651   2.272  0.00  0.00     0.003 A 
ATOM      7  C6  UNL d   1      -0.547  -0.440   0.935  0.00  0.00    -0.001 A 
ENDROOT
TORSDOF 0
ENDMDL
