MODEL 1
REMARK minimizedAffinity -4.17613697
REMARK minimizedRMSD -1
REMARK  0 active torsions:
REMARK  status: ('A' for Active; 'I' for Inactive)
ROOT
ATOM      1  C   UNL d   1       5.049   2.627  -4.536  0.00  0.00     0.078 C 
ATOM      2  C1  UNL d   1       4.038   1.577  -4.185  0.00  0.00    -0.077 A 
ATOM      3  C2  UNL d   1       2.998   1.848  -3.287  0.00  0.00    -0.001 A 
ATOM      4  C3  UNL d   1       2.070   0.857  -2.962  0.00  0.00     0.003 A 
ATOM      5  C4  UNL d   1       2.172  -0.411  -3.530  0.00  0.00    -0.005 A 
ATOM      6  C5  UNL d   1       3.204  -0.691  -4.423  0.00  0.00     0.003 A 
ATOM      7  C6  UNL d   1       4.134   0.298  -4.749  0.00  0.00    -0.001 A 
ENDROOT
TORSDOF 0
ENDMDL
