MODEL 1
REMARK minimizedAffinity -2.96796465
REMARK minimizedRMSD -1
REMARK  0 active torsions:
REMARK  status: ('A' for Active; 'I' for Inactive)
ROOT
ATOM      1  C   UNL d   1      -0.702   0.390  -0.760  0.00  0.00     0.078 C 
ATOM      2  C1  UNL d   1       0.080   0.466   0.517  0.00  0.00    -0.077 A 
ATOM      3  C2  UNL d   1       1.479   0.499   0.506  0.00  0.00    -0.001 A 
ATOM      4  C3  UNL d   1       2.194   0.561   1.703  0.00  0.00     0.003 A 
ATOM      5  C4  UNL d   1       1.518   0.588   2.921  0.00  0.00    -0.005 A 
ATOM      6  C5  UNL d   1       0.125   0.554   2.943  0.00  0.00     0.003 A 
ATOM      7  C6  UNL d   1      -0.591   0.492   1.746  0.00  0.00    -0.001 A 
ENDROOT
TORSDOF 0
ENDMDL
