MODEL 1
REMARK minimizedAffinity -3.12614393
REMARK minimizedRMSD -1
REMARK  0 active torsions:
REMARK  status: ('A' for Active; 'I' for Inactive)
ROOT
ATOM      1  C   UNL d   1      -0.743  -0.730   2.992  0.00  0.00     0.078 C 
ATOM      2  C1  UNL d   1      -0.785  -0.250   1.572  0.00  0.00    -0.077 A 
ATOM      3  C2  UNL d   1       0.381  -0.185   0.799  0.00  0.00    -0.001 A 
ATOM      4  C3  UNL d   1       0.329   0.273  -0.519  0.00  0.00     0.003 A 
ATOM      5  C4  UNL d   1      -0.886   0.671  -1.074  0.00  0.00    -0.005 A 
ATOM      6  C5  UNL d   1      -2.050   0.611  -0.311  0.00  0.00     0.003 A 
ATOM      7  C6  UNL d   1      -2.000   0.154   1.006  0.00  0.00    -0.001 A 
ENDROOT
TORSDOF 0
ENDMDL
