MODEL 1
REMARK minimizedAffinity -2.58964634
REMARK minimizedRMSD -1
REMARK  2 active torsions:
REMARK  status: ('A' for Active; 'I' for Inactive)
REMARK    1  A    between atoms: C1_2  and  C2_3 
REMARK    2  A    between atoms: C2_3  and  C3_4 
ROOT
ATOM      1  C3  UNL d   1       0.332   0.555  -0.713  0.00  0.00    -0.075 A 
ATOM      2  C4  UNL d   1       0.834   0.886   0.553  0.00  0.00     0.002 A 
ATOM      3  C5  UNL d   1       1.939   0.213   1.076  0.00  0.00     0.002 A 
ATOM      4  C6  UNL d   1       2.547  -0.806   0.346  0.00  0.00    -0.004 A 
ATOM      5  C7  UNL d   1       2.046  -1.155  -0.907  0.00  0.00     0.002 A 
ATOM      6  C8  UNL d   1       0.944  -0.479  -1.434  0.00  0.00     0.002 A 
ENDROOT
BRANCH   1   7
ATOM      7  C2  UNL d   1      -0.844   1.300  -1.297  0.00  0.00     0.056 C 
BRANCH   7   8
ATOM      8  C1  UNL d   1      -0.669   2.822  -1.321  0.00  0.00     0.007 C 
ATOM      9  C   UNL d   1      -0.269   3.359  -2.689  0.00  0.00     0.009 C 
ENDBRANCH   7   8
ENDBRANCH   1   7
TORSDOF 2
ENDMDL
