MODEL 1
REMARK minimizedAffinity -4.66639519
REMARK minimizedRMSD -1
REMARK  2 active torsions:
REMARK  status: ('A' for Active; 'I' for Inactive)
REMARK    1  A    between atoms: C1_2  and  C2_3 
REMARK    2  A    between atoms: C2_3  and  C3_4 
ROOT
ATOM      1  C3  UNL d   1      -1.207  -0.389   1.205  0.00  0.00    -0.075 A 
ATOM      2  C4  UNL d   1      -0.573  -0.599   2.439  0.00  0.00     0.002 A 
ATOM      3  C5  UNL d   1       0.798  -0.384   2.576  0.00  0.00     0.002 A 
ATOM      4  C6  UNL d   1       1.554   0.032   1.483  0.00  0.00    -0.004 A 
ATOM      5  C7  UNL d   1       0.938   0.228   0.249  0.00  0.00     0.002 A 
ATOM      6  C8  UNL d   1      -0.435   0.018   0.109  0.00  0.00     0.002 A 
ENDROOT
BRANCH   1   7
ATOM      7  C2  UNL d   1      -2.696  -0.592   1.057  0.00  0.00     0.056 C 
BRANCH   7   8
ATOM      8  C1  UNL d   1      -3.099  -1.354  -0.210  0.00  0.00     0.007 C 
ATOM      9  C   UNL d   1      -4.379  -2.162  -0.043  0.00  0.00     0.009 C 
ENDBRANCH   7   8
ENDBRANCH   1   7
TORSDOF 2
ENDMDL
