MODEL 1
REMARK minimizedAffinity -4.36593437
REMARK minimizedRMSD -1
REMARK  2 active torsions:
REMARK  status: ('A' for Active; 'I' for Inactive)
REMARK    1  A    between atoms: C1_2  and  C2_3 
REMARK    2  A    between atoms: C2_3  and  C3_4 
ROOT
ATOM      1  C3  UNL d   1      -0.246   0.164   1.072  0.00  0.00    -0.075 A 
ATOM      2  C4  UNL d   1       1.151   0.049   1.118  0.00  0.00     0.002 A 
ATOM      3  C5  UNL d   1       1.763  -0.766   2.070  0.00  0.00     0.002 A 
ATOM      4  C6  UNL d   1       0.990  -1.467   2.992  0.00  0.00    -0.004 A 
ATOM      5  C7  UNL d   1      -0.398  -1.348   2.966  0.00  0.00     0.002 A 
ATOM      6  C8  UNL d   1      -1.014  -0.536   2.012  0.00  0.00     0.002 A 
ENDROOT
BRANCH   1   7
ATOM      7  C2  UNL d   1      -0.916   1.022   0.025  0.00  0.00     0.056 C 
BRANCH   7   8
ATOM      8  C1  UNL d   1      -0.285   0.915  -1.367  0.00  0.00     0.007 C 
ATOM      9  C   UNL d   1      -0.349   2.215  -2.157  0.00  0.00     0.009 C 
ENDBRANCH   7   8
ENDBRANCH   1   7
TORSDOF 2
ENDMDL
