MODEL 1
REMARK minimizedAffinity -1.78116512
REMARK minimizedRMSD -1
REMARK  2 active torsions:
REMARK  status: ('A' for Active; 'I' for Inactive)
REMARK    1  A    between atoms: C1_2  and  C2_3 
REMARK    2  A    between atoms: C2_3  and  C3_4 
ROOT
ATOM      1  C3  UNL d   1      -0.523  -0.733   0.686  0.00  0.00    -0.075 A 
ATOM      2  C4  UNL d   1       0.734  -0.236   0.311  0.00  0.00     0.002 A 
ATOM      3  C5  UNL d   1       1.763  -0.134   1.248  0.00  0.00     0.002 A 
ATOM      4  C6  UNL d   1       1.546  -0.516   2.570  0.00  0.00    -0.004 A 
ATOM      5  C7  UNL d   1       0.296  -0.995   2.957  0.00  0.00     0.002 A 
ATOM      6  C8  UNL d   1      -0.734  -1.103   2.021  0.00  0.00     0.002 A 
ENDROOT
BRANCH   1   7
ATOM      7  C2  UNL d   1      -1.632  -0.873  -0.330  0.00  0.00     0.056 C 
BRANCH   7   8
ATOM      8  C1  UNL d   1      -2.735  -1.853   0.083  0.00  0.00     0.007 C 
ATOM      9  C   UNL d   1      -3.821  -2.015  -0.972  0.00  0.00     0.009 C 
ENDBRANCH   7   8
ENDBRANCH   1   7
TORSDOF 2
ENDMDL
