MODEL 1
REMARK minimizedAffinity -0.909697354
REMARK minimizedRMSD -1
REMARK  2 active torsions:
REMARK  status: ('A' for Active; 'I' for Inactive)
REMARK    1  A    between atoms: C1_2  and  C2_3 
REMARK    2  A    between atoms: C2_3  and  C3_4 
ROOT
ATOM      1  C3  UNL d   1      -0.527   0.001  -0.394  0.00  0.00    -0.075 A 
ATOM      2  C4  UNL d   1       0.172  -1.214  -0.465  0.00  0.00     0.002 A 
ATOM      3  C5  UNL d   1       1.365  -1.386   0.237  0.00  0.00     0.002 A 
ATOM      4  C6  UNL d   1       1.880  -0.346   1.008  0.00  0.00    -0.004 A 
ATOM      5  C7  UNL d   1       1.203   0.870   1.072  0.00  0.00     0.002 A 
ATOM      6  C8  UNL d   1       0.006   1.044   0.375  0.00  0.00     0.002 A 
ENDROOT
BRANCH   1   7
ATOM      7  C2  UNL d   1      -1.834   0.183  -1.128  0.00  0.00     0.056 C 
BRANCH   7   8
ATOM      8  C1  UNL d   1      -2.620  -1.116  -1.336  0.00  0.00     0.007 C 
ATOM      9  C   UNL d   1      -3.851  -1.221  -0.446  0.00  0.00     0.009 C 
ENDBRANCH   7   8
ENDBRANCH   1   7
TORSDOF 2
ENDMDL
