MODEL 1
REMARK minimizedAffinity -3.60160542
REMARK minimizedRMSD -1
REMARK  0 active torsions:
REMARK  status: ('A' for Active; 'I' for Inactive)
ROOT
ATOM      1  C   UNL d   1      -2.194   2.372  -2.321  0.00  0.00     0.023 A 
ATOM      2  C1  UNL d   1      -2.439   0.999  -2.296  0.00  0.00     0.003 A 
ATOM      3  C2  UNL d   1      -1.627   0.158  -1.532  0.00  0.00     0.048 A 
ATOM      4  C3  UNL d   1      -0.574   0.697  -0.794  0.00  0.00     0.023 A 
ATOM      5  C4  UNL d   1      -0.326   2.070  -0.815  0.00  0.00     0.048 A 
ATOM      6  C5  UNL d   1      -1.140   2.907  -1.582  0.00  0.00     0.003 A 
ATOM      7  I   UNL d   1       0.635  -0.553   0.344  0.00  0.00    -0.146 I 
ENDROOT
TORSDOF 0
ENDMDL
