MODEL 1
REMARK minimizedAffinity -3.41090417
REMARK minimizedRMSD -1
REMARK  0 active torsions:
REMARK  status: ('A' for Active; 'I' for Inactive)
ROOT
ATOM      1  C   UNL d   1       1.726  -2.418   1.191  0.00  0.00     0.023 A 
ATOM      2  C1  UNL d   1       2.291  -1.449   0.362  0.00  0.00     0.003 A 
ATOM      3  C2  UNL d   1       1.500  -0.417  -0.148  0.00  0.00     0.048 A 
ATOM      4  C3  UNL d   1       0.146  -0.359   0.177  0.00  0.00     0.023 A 
ATOM      5  C4  UNL d   1      -0.424  -1.326   1.007  0.00  0.00     0.048 A 
ATOM      6  C5  UNL d   1       0.370  -2.357   1.513  0.00  0.00     0.003 A 
ATOM      7  I   UNL d   1      -1.033   1.176  -0.580  0.00  0.00    -0.146 I 
ENDROOT
TORSDOF 0
ENDMDL
