MODEL 1
REMARK minimizedAffinity -5.24828434
REMARK minimizedRMSD -1
REMARK  0 active torsions:
REMARK  status: ('A' for Active; 'I' for Inactive)
ROOT
ATOM      1  C   UNL d   1       0.549  -2.876   2.524  0.00  0.00     0.023 A 
ATOM      2  C1  UNL d   1      -0.521  -2.073   2.920  0.00  0.00     0.003 A 
ATOM      3  C2  UNL d   1      -0.865  -0.946   2.171  0.00  0.00     0.048 A 
ATOM      4  C3  UNL d   1      -0.134  -0.628   1.026  0.00  0.00     0.023 A 
ATOM      5  C4  UNL d   1       0.936  -1.429   0.626  0.00  0.00     0.048 A 
ATOM      6  C5  UNL d   1       1.276  -2.554   1.378  0.00  0.00     0.003 A 
ATOM      7  I   UNL d   1      -0.644   1.050  -0.090  0.00  0.00    -0.146 I 
ENDROOT
TORSDOF 0
ENDMDL
