MODEL 1
REMARK minimizedAffinity -4.30560064
REMARK minimizedRMSD -1
REMARK  0 active torsions:
REMARK  status: ('A' for Active; 'I' for Inactive)
ROOT
ATOM      1  C   UNL d   1      -2.243   1.118  -2.900  0.00  0.00     0.023 A 
ATOM      2  C1  UNL d   1      -1.892   1.272  -4.241  0.00  0.00     0.003 A 
ATOM      3  C2  UNL d   1      -1.089   2.344  -4.636  0.00  0.00     0.048 A 
ATOM      4  C3  UNL d   1      -0.639   3.258  -3.683  0.00  0.00     0.023 A 
ATOM      5  C4  UNL d   1      -0.987   3.107  -2.340  0.00  0.00     0.048 A 
ATOM      6  C5  UNL d   1      -1.791   2.034  -1.951  0.00  0.00     0.003 A 
ATOM      7  I   UNL d   1       0.556   4.854  -4.268  0.00  0.00    -0.146 I 
ENDROOT
TORSDOF 0
ENDMDL
