MODEL 1
REMARK minimizedAffinity -5.00064278
REMARK minimizedRMSD -1
REMARK  0 active torsions:
REMARK  status: ('A' for Active; 'I' for Inactive)
ROOT
ATOM      1  C   UNL d   1       0.337   4.504  -4.655  0.00  0.00     0.023 A 
ATOM      2  C1  UNL d   1       0.293   4.625  -3.265  0.00  0.00     0.003 A 
ATOM      3  C2  UNL d   1      -0.428   3.702  -2.506  0.00  0.00     0.048 A 
ATOM      4  C3  UNL d   1      -1.103   2.660  -3.141  0.00  0.00     0.023 A 
ATOM      5  C4  UNL d   1      -1.062   2.535  -4.531  0.00  0.00     0.048 A 
ATOM      6  C5  UNL d   1      -0.340   3.461  -5.286  0.00  0.00     0.003 A 
ATOM      7  I   UNL d   1      -2.177   1.285  -2.012  0.00  0.00    -0.146 I 
ENDROOT
TORSDOF 0
ENDMDL
