MODEL 1
REMARK minimizedAffinity -2.7260704
REMARK minimizedRMSD -1
REMARK  0 active torsions:
REMARK  status: ('A' for Active; 'I' for Inactive)
ROOT
ATOM      1  C   UNL d   1      -1.484   1.766  -2.993  0.00  0.00     0.023 A 
ATOM      2  C1  UNL d   1      -1.210   1.966  -4.346  0.00  0.00     0.003 A 
ATOM      3  C2  UNL d   1      -0.627   3.161  -4.772  0.00  0.00     0.048 A 
ATOM      4  C3  UNL d   1      -0.319   4.152  -3.840  0.00  0.00     0.023 A 
ATOM      5  C4  UNL d   1      -0.591   3.956  -2.485  0.00  0.00     0.048 A 
ATOM      6  C5  UNL d   1      -1.175   2.760  -2.063  0.00  0.00     0.003 A 
ATOM      7  I   UNL d   1       0.549   5.931  -4.472  0.00  0.00    -0.146 I 
ENDROOT
TORSDOF 0
ENDMDL
