MODEL 1
REMARK minimizedAffinity -3.39625144
REMARK minimizedRMSD -1
REMARK  0 active torsions:
REMARK  status: ('A' for Active; 'I' for Inactive)
ROOT
ATOM      1  C   UNL d   1      -1.363   2.839  -4.318  0.00  0.00     0.023 A 
ATOM      2  C1  UNL d   1      -0.061   3.013  -3.850  0.00  0.00     0.003 A 
ATOM      3  C2  UNL d   1       0.329   2.437  -2.639  0.00  0.00     0.048 A 
ATOM      4  C3  UNL d   1      -0.588   1.688  -1.902  0.00  0.00     0.023 A 
ATOM      5  C4  UNL d   1      -1.892   1.511  -2.368  0.00  0.00     0.048 A 
ATOM      6  C5  UNL d   1      -2.278   2.089  -3.578  0.00  0.00     0.003 A 
ATOM      7  I   UNL d   1      -0.010   0.829  -0.100  0.00  0.00    -0.146 I 
ENDROOT
TORSDOF 0
ENDMDL
