MODEL 1
REMARK minimizedAffinity -2.97121501
REMARK minimizedRMSD -1
REMARK  0 active torsions:
REMARK  status: ('A' for Active; 'I' for Inactive)
ROOT
ATOM      1  C   UNL d   1       0.648   3.867  -4.148  0.00  0.00     0.023 A 
ATOM      2  C1  UNL d   1      -0.277   3.359  -5.061  0.00  0.00     0.003 A 
ATOM      3  C2  UNL d   1      -1.403   2.670  -4.605  0.00  0.00     0.048 A 
ATOM      4  C3  UNL d   1      -1.598   2.493  -3.236  0.00  0.00     0.023 A 
ATOM      5  C4  UNL d   1      -0.675   3.000  -2.319  0.00  0.00     0.048 A 
ATOM      6  C5  UNL d   1       0.449   3.687  -2.779  0.00  0.00     0.003 A 
ATOM      7  I   UNL d   1      -3.273   1.467  -2.556  0.00  0.00    -0.146 I 
ENDROOT
TORSDOF 0
ENDMDL
