MODEL 1
REMARK minimizedAffinity -0.417955488
REMARK minimizedRMSD -1
REMARK  0 active torsions:
REMARK  status: ('A' for Active; 'I' for Inactive)
ROOT
ATOM      1  C   UNL d   1       2.690  -0.701   0.063  0.00  0.00     0.023 A 
ATOM      2  C1  UNL d   1       2.316  -1.388   1.218  0.00  0.00     0.003 A 
ATOM      3  C2  UNL d   1       1.038  -1.210   1.754  0.00  0.00     0.048 A 
ATOM      4  C3  UNL d   1       0.140  -0.346   1.129  0.00  0.00     0.023 A 
ATOM      5  C4  UNL d   1       0.510   0.342  -0.028  0.00  0.00     0.048 A 
ATOM      6  C5  UNL d   1       1.789   0.163  -0.559  0.00  0.00     0.003 A 
ATOM      7  I   UNL d   1      -1.762  -0.081   1.924  0.00  0.00    -0.146 I 
ENDROOT
TORSDOF 0
ENDMDL
