MODEL 1
REMARK minimizedAffinity -2.41925216
REMARK minimizedRMSD -1
REMARK  0 active torsions:
REMARK  status: ('A' for Active; 'I' for Inactive)
ROOT
ATOM      1  C   UNL d   1       1.550  -1.859   1.972  0.00  0.00     0.023 A 
ATOM      2  C1  UNL d   1       2.097  -1.455   0.754  0.00  0.00     0.003 A 
ATOM      3  C2  UNL d   1       1.449  -0.488  -0.017  0.00  0.00     0.048 A 
ATOM      4  C3  UNL d   1       0.254   0.071   0.436  0.00  0.00     0.023 A 
ATOM      5  C4  UNL d   1      -0.297  -0.331   1.654  0.00  0.00     0.048 A 
ATOM      6  C5  UNL d   1       0.355  -1.298   2.421  0.00  0.00     0.003 A 
ATOM      7  I   UNL d   1      -0.713   1.510  -0.710  0.00  0.00    -0.146 I 
ENDROOT
TORSDOF 0
ENDMDL
