MODEL 1
REMARK minimizedAffinity -2.44794703
REMARK minimizedRMSD -1
REMARK  0 active torsions:
REMARK  status: ('A' for Active; 'I' for Inactive)
ROOT
ATOM      1  C   UNL d   1      -2.137   1.927  -3.878  0.00  0.00     0.023 A 
ATOM      2  C1  UNL d   1      -2.968   1.146  -3.075  0.00  0.00     0.003 A 
ATOM      3  C2  UNL d   1      -2.525   0.708  -1.826  0.00  0.00     0.048 A 
ATOM      4  C3  UNL d   1      -1.248   1.056  -1.385  0.00  0.00     0.023 A 
ATOM      5  C4  UNL d   1      -0.413   1.838  -2.184  0.00  0.00     0.048 A 
ATOM      6  C5  UNL d   1      -0.861   2.272  -3.433  0.00  0.00     0.003 A 
ATOM      7  I   UNL d   1      -0.586   0.405   0.475  0.00  0.00    -0.146 I 
ENDROOT
TORSDOF 0
ENDMDL
