MODEL 1
REMARK minimizedAffinity 1.22070539
REMARK minimizedRMSD -1
REMARK  0 active torsions:
REMARK  status: ('A' for Active; 'I' for Inactive)
ROOT
ATOM      1  C2' OXE d   1      -0.518   2.465  -4.932  0.00  0.00     0.078 C 
ATOM      2  C1' OXE d   1      -2.148   2.949  -2.699  0.00  0.00     0.078 C 
ATOM      3  C1  OXE d   1      -2.598   1.899  -3.684  0.00  0.00    -0.078 A 
ATOM      4  C2  OXE d   1      -1.818   1.702  -4.798  0.00  0.00    -0.078 A 
ATOM      5  C3  OXE d   1      -2.158   0.707  -5.710  0.00  0.00     0.003 A 
ATOM      6  C4  OXE d   1      -3.367   0.013  -5.584  0.00  0.00    -0.002 A 
ATOM      7  C5  OXE d   1      -4.196   0.226  -4.478  0.00  0.00    -0.002 A 
ATOM      8  C6  OXE d   1      -3.806   1.134  -3.499  0.00  0.00     0.003 A 
ENDROOT
TORSDOF 0
ENDMDL
