MODEL 1
REMARK minimizedAffinity 2.12817335
REMARK minimizedRMSD -1
REMARK  0 active torsions:
REMARK  status: ('A' for Active; 'I' for Inactive)
ROOT
ATOM      1  C2' OXE d   1       1.072  -0.373  -0.283  0.00  0.00     0.078 C 
ATOM      2  C1' OXE d   1      -1.013   0.430   1.416  0.00  0.00     0.078 C 
ATOM      3  C1  OXE d   1      -0.366  -0.907   1.679  0.00  0.00    -0.078 A 
ATOM      4  C2  OXE d   1       0.621  -1.312   0.815  0.00  0.00    -0.078 A 
ATOM      5  C3  OXE d   1       1.288  -2.512   1.045  0.00  0.00     0.003 A 
ATOM      6  C4  OXE d   1       0.859  -3.380   2.057  0.00  0.00    -0.002 A 
ATOM      7  C5  OXE d   1      -0.172  -3.003   2.924  0.00  0.00    -0.002 A 
ATOM      8  C6  OXE d   1      -0.765  -1.754   2.776  0.00  0.00     0.003 A 
ENDROOT
TORSDOF 0
ENDMDL
