MODEL 1
REMARK minimizedAffinity 7.92976952
REMARK minimizedRMSD -1
REMARK  0 active torsions:
REMARK  status: ('A' for Active; 'I' for Inactive)
ROOT
ATOM      1  C2' OXE d   1       5.770   0.657   0.418  0.00  0.00     0.078 C 
ATOM      2  C1' OXE d   1       4.147   1.341  -1.768  0.00  0.00     0.078 C 
ATOM      3  C1  OXE d   1       4.335   2.370  -0.682  0.00  0.00    -0.078 A 
ATOM      4  C2  OXE d   1       5.093   2.010   0.406  0.00  0.00    -0.078 A 
ATOM      5  C3  OXE d   1       5.344   2.941   1.410  0.00  0.00     0.003 A 
ATOM      6  C4  OXE d   1       4.706   4.187   1.396  0.00  0.00    -0.002 A 
ATOM      7  C5  OXE d   1       3.898   4.560   0.317  0.00  0.00    -0.002 A 
ATOM      8  C6  OXE d   1       3.737   3.681  -0.749  0.00  0.00     0.003 A 
ENDROOT
TORSDOF 0
ENDMDL
