MODEL 1
REMARK minimizedAffinity -1.98631501
REMARK minimizedRMSD -1
REMARK  0 active torsions:
REMARK  status: ('A' for Active; 'I' for Inactive)
ROOT
ATOM      1  C2' OXE d   1       1.949  -3.337   1.439  0.00  0.00     0.078 C 
ATOM      2  C1' OXE d   1       1.268  -1.128  -0.153  0.00  0.00     0.078 C 
ATOM      3  C1  OXE d   1       0.441  -1.387   1.081  0.00  0.00    -0.078 A 
ATOM      4  C2  OXE d   1       0.752  -2.497   1.829  0.00  0.00    -0.078 A 
ATOM      5  C3  OXE d   1       0.056  -2.751   3.007  0.00  0.00     0.003 A 
ATOM      6  C4  OXE d   1      -1.055  -1.975   3.356  0.00  0.00    -0.002 A 
ATOM      7  C5  OXE d   1      -1.414  -0.863   2.586  0.00  0.00    -0.002 A 
ATOM      8  C6  OXE d   1      -0.652  -0.531   1.472  0.00  0.00     0.003 A 
ENDROOT
TORSDOF 0
ENDMDL
