MODEL 1
REMARK minimizedAffinity -0.640930414
REMARK minimizedRMSD -1
REMARK  0 active torsions:
REMARK  status: ('A' for Active; 'I' for Inactive)
ROOT
ATOM      1  C2' OXE d   1       1.667  -1.142   0.026  0.00  0.00     0.078 C 
ATOM      2  C1' OXE d   1       1.127  -1.791   2.703  0.00  0.00     0.078 C 
ATOM      3  C1  OXE d   1      -0.014  -1.284   1.858  0.00  0.00    -0.078 A 
ATOM      4  C2  OXE d   1       0.269  -0.925   0.562  0.00  0.00    -0.078 A 
ATOM      5  C3  OXE d   1      -0.759  -0.503  -0.277  0.00  0.00     0.003 A 
ATOM      6  C4  OXE d   1      -2.047  -0.295   0.230  0.00  0.00    -0.002 A 
ATOM      7  C5  OXE d   1      -2.348  -0.617   1.558  0.00  0.00    -0.002 A 
ATOM      8  C6  OXE d   1      -1.355  -1.151   2.371  0.00  0.00     0.003 A 
ENDROOT
TORSDOF 0
ENDMDL
