MODEL 1
REMARK minimizedAffinity 1.66320801
REMARK minimizedRMSD -1
REMARK  0 active torsions:
REMARK  status: ('A' for Active; 'I' for Inactive)
ROOT
ATOM      1  C2' OXE d   1       0.175  -0.226  -0.964  0.00  0.00     0.078 C 
ATOM      2  C1' OXE d   1      -0.555   2.380  -1.708  0.00  0.00     0.078 C 
ATOM      3  C1  OXE d   1       0.814   1.892  -2.110  0.00  0.00    -0.078 A 
ATOM      4  C2  OXE d   1       1.181   0.632  -1.701  0.00  0.00    -0.078 A 
ATOM      5  C3  OXE d   1       2.411   0.111  -2.092  0.00  0.00     0.003 A 
ATOM      6  C4  OXE d   1       3.339   0.915  -2.765  0.00  0.00    -0.002 A 
ATOM      7  C5  OXE d   1       3.001   2.215  -3.156  0.00  0.00    -0.002 A 
ATOM      8  C6  OXE d   1       1.730   2.702  -2.874  0.00  0.00     0.003 A 
ENDROOT
TORSDOF 0
ENDMDL
