MODEL 1
REMARK minimizedAffinity -0.839040279
REMARK minimizedRMSD -1
REMARK  0 active torsions:
REMARK  status: ('A' for Active; 'I' for Inactive)
ROOT
ATOM      1  C2' OXE d   1      -1.813  -4.183   3.688  0.00  0.00     0.078 C 
ATOM      2  C1' OXE d   1      -0.751  -1.666   3.045  0.00  0.00     0.078 C 
ATOM      3  C1  OXE d   1      -0.018  -2.887   2.546  0.00  0.00    -0.078 A 
ATOM      4  C2  OXE d   1      -0.519  -4.115   2.905  0.00  0.00    -0.078 A 
ATOM      5  C3  OXE d   1       0.086  -5.273   2.427  0.00  0.00     0.003 A 
ATOM      6  C4  OXE d   1       1.288  -5.201   1.712  0.00  0.00    -0.002 A 
ATOM      7  C5  OXE d   1       1.837  -3.961   1.369  0.00  0.00    -0.002 A 
ATOM      8  C6  OXE d   1       1.175  -2.796   1.741  0.00  0.00     0.003 A 
ENDROOT
TORSDOF 0
ENDMDL
