MODEL 1
REMARK minimizedAffinity 3.5166378
REMARK minimizedRMSD -1
REMARK  0 active torsions:
REMARK  status: ('A' for Active; 'I' for Inactive)
ROOT
ATOM      1  C   UNL d   1       0.036   2.083  -3.053  0.00  0.00     0.078 C 
ATOM      2  C1  UNL d   1       1.044   1.786  -1.983  0.00  0.00    -0.077 A 
ATOM      3  C2  UNL d   1       0.652   1.615  -0.650  0.00  0.00    -0.001 A 
ATOM      4  C3  UNL d   1       1.603   1.348   0.337  0.00  0.00     0.003 A 
ATOM      5  C4  UNL d   1       2.952   1.252   0.001  0.00  0.00    -0.005 A 
ATOM      6  C5  UNL d   1       3.351   1.422  -1.323  0.00  0.00     0.003 A 
ATOM      7  C6  UNL d   1       2.402   1.689  -2.311  0.00  0.00    -0.001 A 
ENDROOT
TORSDOF 0
ENDMDL
