MODEL 1
REMARK minimizedAffinity 2.65556455
REMARK minimizedRMSD -1
REMARK  0 active torsions:
REMARK  status: ('A' for Active; 'I' for Inactive)
ROOT
ATOM      1  C   UNL d   1      -1.777   5.260  -5.510  0.00  0.00     0.078 C 
ATOM      2  C1  UNL d   1      -3.243   5.266  -5.192  0.00  0.00    -0.077 A 
ATOM      3  C2  UNL d   1      -3.748   4.545  -4.104  0.00  0.00    -0.001 A 
ATOM      4  C3  UNL d   1      -5.116   4.552  -3.825  0.00  0.00     0.003 A 
ATOM      5  C4  UNL d   1      -5.990   5.279  -4.632  0.00  0.00    -0.005 A 
ATOM      6  C5  UNL d   1      -5.497   5.998  -5.718  0.00  0.00     0.003 A 
ATOM      7  C6  UNL d   1      -4.129   5.992  -5.998  0.00  0.00    -0.001 A 
ENDROOT
TORSDOF 0
ENDMDL
