MODEL 1
REMARK minimizedAffinity 7.47471523
REMARK minimizedRMSD -1
REMARK  0 active torsions:
REMARK  status: ('A' for Active; 'I' for Inactive)
ROOT
ATOM      1  C   UNL d   1      -1.320  -0.097   0.365  0.00  0.00     0.078 C 
ATOM      2  C1  UNL d   1      -1.586   0.145   1.820  0.00  0.00    -0.077 A 
ATOM      3  C2  UNL d   1      -1.207  -0.794   2.788  0.00  0.00    -0.001 A 
ATOM      4  C3  UNL d   1      -1.470  -0.560   4.139  0.00  0.00     0.003 A 
ATOM      5  C4  UNL d   1      -2.114   0.611   4.534  0.00  0.00    -0.005 A 
ATOM      6  C5  UNL d   1      -2.497   1.549   3.578  0.00  0.00     0.003 A 
ATOM      7  C6  UNL d   1      -2.235   1.318   2.227  0.00  0.00    -0.001 A 
ENDROOT
TORSDOF 0
ENDMDL
