MODEL 1
REMARK minimizedAffinity 6.40744305
REMARK minimizedRMSD -1
REMARK  0 active torsions:
REMARK  status: ('A' for Active; 'I' for Inactive)
ROOT
ATOM      1  C   UNL d   1      -2.171   5.642  -5.863  0.00  0.00     0.078 C 
ATOM      2  C1  UNL d   1      -3.510   5.583  -5.190  0.00  0.00    -0.077 A 
ATOM      3  C2  UNL d   1      -4.670   5.996  -5.856  0.00  0.00    -0.001 A 
ATOM      4  C3  UNL d   1      -5.909   5.945  -5.214  0.00  0.00     0.003 A 
ATOM      5  C4  UNL d   1      -5.998   5.482  -3.902  0.00  0.00    -0.005 A 
ATOM      6  C5  UNL d   1      -4.849   5.071  -3.231  0.00  0.00     0.003 A 
ATOM      7  C6  UNL d   1      -3.609   5.121  -3.871  0.00  0.00    -0.001 A 
ENDROOT
TORSDOF 0
ENDMDL
