MODEL 1
REMARK minimizedAffinity 4.27313948
REMARK minimizedRMSD -1
REMARK  0 active torsions:
REMARK  status: ('A' for Active; 'I' for Inactive)
ROOT
ATOM      1  C   UNL d   1      -1.612   5.863  -4.820  0.00  0.00     0.078 C 
ATOM      2  C1  UNL d   1      -3.110   5.918  -4.797  0.00  0.00    -0.077 A 
ATOM      3  C2  UNL d   1      -3.812   5.937  -3.585  0.00  0.00    -0.001 A 
ATOM      4  C3  UNL d   1      -5.208   5.978  -3.579  0.00  0.00     0.003 A 
ATOM      5  C4  UNL d   1      -5.912   6.000  -4.781  0.00  0.00    -0.005 A 
ATOM      6  C5  UNL d   1      -5.222   5.978  -5.991  0.00  0.00     0.003 A 
ATOM      7  C6  UNL d   1      -3.827   5.937  -5.999  0.00  0.00    -0.001 A 
ENDROOT
TORSDOF 0
ENDMDL
