MODEL 1
REMARK minimizedAffinity 10.0879135
REMARK minimizedRMSD -1
REMARK  0 active torsions:
REMARK  status: ('A' for Active; 'I' for Inactive)
ROOT
ATOM      1  C   UNL d   1       3.020   1.131   0.068  0.00  0.00     0.078 C 
ATOM      2  C1  UNL d   1       4.059   2.021   0.683  0.00  0.00    -0.077 A 
ATOM      3  C2  UNL d   1       4.096   2.239   2.066  0.00  0.00    -0.001 A 
ATOM      4  C3  UNL d   1       5.063   3.077   2.623  0.00  0.00     0.003 A 
ATOM      5  C4  UNL d   1       5.999   3.706   1.805  0.00  0.00    -0.005 A 
ATOM      6  C5  UNL d   1       5.969   3.497   0.427  0.00  0.00     0.003 A 
ATOM      7  C6  UNL d   1       5.003   2.659  -0.132  0.00  0.00    -0.001 A 
ENDROOT
TORSDOF 0
ENDMDL
