MODEL 1
REMARK minimizedAffinity 11.7301273
REMARK minimizedRMSD -1
REMARK  0 active torsions:
REMARK  status: ('A' for Active; 'I' for Inactive)
ROOT
ATOM      1  C   UNL d   1      -4.640   0.138   0.469  0.00  0.00     0.078 C 
ATOM      2  C1  UNL d   1      -3.354  -0.111   1.198  0.00  0.00    -0.077 A 
ATOM      3  C2  UNL d   1      -2.549  -1.213   0.886  0.00  0.00    -0.001 A 
ATOM      4  C3  UNL d   1      -1.359  -1.437   1.580  0.00  0.00     0.003 A 
ATOM      5  C4  UNL d   1      -0.963  -0.564   2.591  0.00  0.00    -0.005 A 
ATOM      6  C5  UNL d   1      -1.759   0.535   2.910  0.00  0.00     0.003 A 
ATOM      7  C6  UNL d   1      -2.949   0.761   2.217  0.00  0.00    -0.001 A 
ENDROOT
TORSDOF 0
ENDMDL
