MODEL 1
REMARK minimizedAffinity 9.74326897
REMARK minimizedRMSD -1
REMARK  0 active torsions:
REMARK  status: ('A' for Active; 'I' for Inactive)
ROOT
ATOM      1  C   UNL d   1      -0.389   4.194  -4.084  0.00  0.00     0.078 C 
ATOM      2  C1  UNL d   1       0.741   3.446  -3.443  0.00  0.00    -0.077 A 
ATOM      3  C2  UNL d   1       0.508   2.546  -2.396  0.00  0.00    -0.001 A 
ATOM      4  C3  UNL d   1       1.571   1.864  -1.802  0.00  0.00     0.003 A 
ATOM      5  C4  UNL d   1       2.874   2.076  -2.247  0.00  0.00    -0.005 A 
ATOM      6  C5  UNL d   1       3.116   2.971  -3.286  0.00  0.00     0.003 A 
ATOM      7  C6  UNL d   1       2.054   3.654  -3.882  0.00  0.00    -0.001 A 
ENDROOT
TORSDOF 0
ENDMDL
