MODEL 1
REMARK minimizedAffinity 9.98970795
REMARK minimizedRMSD -1
REMARK  0 active torsions:
REMARK  status: ('A' for Active; 'I' for Inactive)
ROOT
ATOM      1  C   UNL d   1      -5.040  -1.896   2.773  0.00  0.00     0.078 C 
ATOM      2  C1  UNL d   1      -3.574  -1.601   2.655  0.00  0.00    -0.077 A 
ATOM      3  C2  UNL d   1      -2.990  -0.549   3.370  0.00  0.00    -0.001 A 
ATOM      4  C3  UNL d   1      -1.626  -0.280   3.242  0.00  0.00     0.003 A 
ATOM      5  C4  UNL d   1      -0.836  -1.058   2.399  0.00  0.00    -0.005 A 
ATOM      6  C5  UNL d   1      -1.409  -2.106   1.681  0.00  0.00     0.003 A 
ATOM      7  C6  UNL d   1      -2.772  -2.376   1.807  0.00  0.00    -0.001 A 
ENDROOT
TORSDOF 0
ENDMDL
