MODEL 1
REMARK minimizedAffinity 3.9250977
REMARK minimizedRMSD -1
REMARK  0 active torsions:
REMARK  status: ('A' for Active; 'I' for Inactive)
ROOT
ATOM      1  C   UNL d   1      -1.870   5.035  -5.376  0.00  0.00     0.078 C 
ATOM      2  C1  UNL d   1      -1.655   4.953  -3.894  0.00  0.00    -0.077 A 
ATOM      3  C2  UNL d   1      -2.720   5.124  -3.000  0.00  0.00    -0.001 A 
ATOM      4  C3  UNL d   1      -2.503   5.055  -1.623  0.00  0.00     0.003 A 
ATOM      5  C4  UNL d   1      -1.223   4.816  -1.127  0.00  0.00    -0.005 A 
ATOM      6  C5  UNL d   1      -0.157   4.647  -2.009  0.00  0.00     0.003 A 
ATOM      7  C6  UNL d   1      -0.372   4.716  -3.386  0.00  0.00    -0.001 A 
ENDROOT
TORSDOF 0
ENDMDL
