MODEL 1
REMARK minimizedAffinity 15.764369
REMARK minimizedRMSD -1
REMARK  0 active torsions:
REMARK  status: ('A' for Active; 'I' for Inactive)
ROOT
ATOM      1  C   UNL d   1       4.431   3.438  -4.543  0.00  0.00     0.078 C 
ATOM      2  C1  UNL d   1       4.893   4.125  -3.293  0.00  0.00    -0.077 A 
ATOM      3  C2  UNL d   1       4.642   3.571  -2.031  0.00  0.00    -0.001 A 
ATOM      4  C3  UNL d   1       5.069   4.227  -0.875  0.00  0.00     0.003 A 
ATOM      5  C4  UNL d   1       5.748   5.440  -0.969  0.00  0.00    -0.005 A 
ATOM      6  C5  UNL d   1       6.000   6.000  -2.220  0.00  0.00     0.003 A 
ATOM      7  C6  UNL d   1       5.574   5.346  -3.377  0.00  0.00    -0.001 A 
ENDROOT
TORSDOF 0
ENDMDL
