MODEL 1
REMARK minimizedAffinity 12.1480589
REMARK minimizedRMSD -1
REMARK  0 active torsions:
REMARK  status: ('A' for Active; 'I' for Inactive)
ROOT
ATOM      1  C   UNL d   1       5.494  -2.665  -1.172  0.00  0.00     0.078 C 
ATOM      2  C1  UNL d   1       4.213  -2.994  -0.466  0.00  0.00    -0.077 A 
ATOM      3  C2  UNL d   1       3.672  -2.125   0.489  0.00  0.00    -0.001 A 
ATOM      4  C3  UNL d   1       2.484  -2.449   1.146  0.00  0.00     0.003 A 
ATOM      5  C4  UNL d   1       1.827  -3.643   0.855  0.00  0.00    -0.005 A 
ATOM      6  C5  UNL d   1       2.358  -4.515  -0.092  0.00  0.00     0.003 A 
ATOM      7  C6  UNL d   1       3.547  -4.193  -0.750  0.00  0.00    -0.001 A 
ENDROOT
TORSDOF 0
ENDMDL
