MODEL 1
REMARK minimizedAffinity 7.86191273
REMARK minimizedRMSD -1
REMARK  0 active torsions:
REMARK  status: ('A' for Active; 'I' for Inactive)
ROOT
ATOM      1  C   UNL d   1       5.998   5.972  -1.611  0.00  0.00     0.078 C 
ATOM      2  C1  UNL d   1       5.339   5.154  -2.681  0.00  0.00    -0.077 A 
ATOM      3  C2  UNL d   1       4.070   4.596  -2.484  0.00  0.00    -0.001 A 
ATOM      4  C3  UNL d   1       3.472   3.830  -3.485  0.00  0.00     0.003 A 
ATOM      5  C4  UNL d   1       4.136   3.613  -4.691  0.00  0.00    -0.005 A 
ATOM      6  C5  UNL d   1       5.400   4.162  -4.896  0.00  0.00     0.003 A 
ATOM      7  C6  UNL d   1       5.999   4.929  -3.895  0.00  0.00    -0.001 A 
ENDROOT
TORSDOF 0
ENDMDL
