MODEL 1
REMARK minimizedAffinity 10.1224127
REMARK minimizedRMSD -1
REMARK  0 active torsions:
REMARK  status: ('A' for Active; 'I' for Inactive)
ROOT
ATOM      1  C   UNL d   1       5.998   4.486  -0.699  0.00  0.00     0.078 C 
ATOM      2  C1  UNL d   1       4.896   3.789   0.041  0.00  0.00    -0.077 A 
ATOM      3  C2  UNL d   1       4.414   4.290   1.257  0.00  0.00    -0.001 A 
ATOM      4  C3  UNL d   1       3.394   3.625   1.939  0.00  0.00     0.003 A 
ATOM      5  C4  UNL d   1       2.848   2.455   1.415  0.00  0.00    -0.005 A 
ATOM      6  C5  UNL d   1       3.322   1.948   0.207  0.00  0.00     0.003 A 
ATOM      7  C6  UNL d   1       4.342   2.612  -0.477  0.00  0.00    -0.001 A 
ENDROOT
TORSDOF 0
ENDMDL
