MODEL 1
REMARK minimizedAffinity 6.63047981
REMARK minimizedRMSD -1
REMARK  0 active torsions:
REMARK  status: ('A' for Active; 'I' for Inactive)
ROOT
ATOM      1  C   UNL d   1      -5.997   0.031  -6.000  0.00  0.00     0.078 C 
ATOM      2  C1  UNL d   1      -5.968   0.035  -4.501  0.00  0.00    -0.077 A 
ATOM      3  C2  UNL d   1      -5.895   1.236  -3.784  0.00  0.00    -0.001 A 
ATOM      4  C3  UNL d   1      -5.858   1.225  -2.389  0.00  0.00     0.003 A 
ATOM      5  C4  UNL d   1      -5.893   0.016  -1.698  0.00  0.00    -0.005 A 
ATOM      6  C5  UNL d   1      -5.963  -1.185  -2.402  0.00  0.00     0.003 A 
ATOM      7  C6  UNL d   1      -6.000  -1.175  -3.798  0.00  0.00    -0.001 A 
ENDROOT
TORSDOF 0
ENDMDL
