MODEL 1
REMARK minimizedAffinity 7.77376032
REMARK minimizedRMSD -1
REMARK  0 active torsions:
REMARK  status: ('A' for Active; 'I' for Inactive)
ROOT
ATOM      1  C   UNL d   1      -0.737   5.261  -1.711  0.00  0.00     0.078 C 
ATOM      2  C1  UNL d   1      -0.721   5.155  -3.206  0.00  0.00    -0.077 A 
ATOM      3  C2  UNL d   1      -1.534   5.978  -3.996  0.00  0.00    -0.001 A 
ATOM      4  C3  UNL d   1      -1.516   5.861  -5.387  0.00  0.00     0.003 A 
ATOM      5  C4  UNL d   1      -0.688   4.923  -6.000  0.00  0.00    -0.005 A 
ATOM      6  C5  UNL d   1       0.123   4.099  -5.222  0.00  0.00     0.003 A 
ATOM      7  C6  UNL d   1       0.106   4.214  -3.831  0.00  0.00    -0.001 A 
ENDROOT
TORSDOF 0
ENDMDL
