MODEL 1
REMARK minimizedAffinity 5.74984694
REMARK minimizedRMSD -1
REMARK  0 active torsions:
REMARK  status: ('A' for Active; 'I' for Inactive)
ROOT
ATOM      1  C   UNL d   1      -5.999  -6.000   6.000  0.00  0.00     0.078 C 
ATOM      2  C1  UNL d   1      -5.258  -5.325   4.884  0.00  0.00    -0.077 A 
ATOM      3  C2  UNL d   1      -5.180  -5.908   3.614  0.00  0.00    -0.001 A 
ATOM      4  C3  UNL d   1      -4.478  -5.274   2.588  0.00  0.00     0.003 A 
ATOM      5  C4  UNL d   1      -3.849  -4.053   2.822  0.00  0.00    -0.005 A 
ATOM      6  C5  UNL d   1      -3.920  -3.465   4.083  0.00  0.00     0.003 A 
ATOM      7  C6  UNL d   1      -4.621  -4.099   5.111  0.00  0.00    -0.001 A 
ENDROOT
TORSDOF 0
ENDMDL
