MODEL 1
REMARK minimizedAffinity 7.94018507
REMARK minimizedRMSD -1
REMARK  0 active torsions:
REMARK  status: ('A' for Active; 'I' for Inactive)
ROOT
ATOM      1  C   UNL d   1       0.544   2.697  -4.678  0.00  0.00     0.172 C 
ATOM      2  N   UNL d   1      -0.782   2.245  -4.328  0.00  0.00    -0.070 N 
ATOM      3  C1  UNL d   1      -1.948   2.914  -4.589  0.00  0.00    -0.004 A 
ATOM      4  C2  UNL d   1      -2.989   2.155  -4.099  0.00  0.00    -0.047 A 
ATOM      5  C3  UNL d   1      -2.429   0.990  -3.523  0.00  0.00    -0.047 A 
ATOM      6  C4  UNL d   1      -1.061   1.071  -3.678  0.00  0.00    -0.004 A 
ENDROOT
TORSDOF 0
ENDMDL
