MODEL 1
REMARK minimizedAffinity 10.8868456
REMARK minimizedRMSD -1
REMARK  0 active torsions:
REMARK  status: ('A' for Active; 'I' for Inactive)
ROOT
ATOM      1  C   UNL d   1       0.326  -5.999   2.584  0.00  0.00     0.172 C 
ATOM      2  N   UNL d   1      -0.044  -5.199   1.441  0.00  0.00    -0.070 N 
ATOM      3  C1  UNL d   1      -0.441  -5.683   0.223  0.00  0.00    -0.004 A 
ATOM      4  C2  UNL d   1      -0.705  -4.605  -0.594  0.00  0.00    -0.047 A 
ATOM      5  C3  UNL d   1      -0.457  -3.432   0.159  0.00  0.00    -0.047 A 
ATOM      6  C4  UNL d   1      -0.049  -3.830   1.415  0.00  0.00    -0.004 A 
ENDROOT
TORSDOF 0
ENDMDL
