MODEL 1
REMARK minimizedAffinity 7.43540001
REMARK minimizedRMSD -1
REMARK  0 active torsions:
REMARK  status: ('A' for Active; 'I' for Inactive)
ROOT
ATOM      1  C   UNL d   1      -0.464  -5.438  -1.127  0.00  0.00     0.172 C 
ATOM      2  N   UNL d   1      -0.805  -4.075  -1.460  0.00  0.00    -0.070 N 
ATOM      3  C1  UNL d   1      -1.214  -3.114  -0.574  0.00  0.00    -0.004 A 
ATOM      4  C2  UNL d   1      -1.439  -1.954  -1.283  0.00  0.00    -0.047 A 
ATOM      5  C3  UNL d   1      -1.156  -2.227  -2.643  0.00  0.00    -0.047 A 
ATOM      6  C4  UNL d   1      -0.766  -3.547  -2.724  0.00  0.00    -0.004 A 
ENDROOT
TORSDOF 0
ENDMDL
