MODEL 1
REMARK minimizedAffinity 9.84010983
REMARK minimizedRMSD -1
REMARK  0 active torsions:
REMARK  status: ('A' for Active; 'I' for Inactive)
ROOT
ATOM      1  C   UNL d   1      -2.719   3.754  -3.556  0.00  0.00     0.172 C 
ATOM      2  N   UNL d   1      -1.940   3.052  -4.549  0.00  0.00    -0.070 N 
ATOM      3  C1  UNL d   1      -2.248   1.832  -5.090  0.00  0.00    -0.004 A 
ATOM      4  C2  UNL d   1      -1.260   1.510  -5.995  0.00  0.00    -0.047 A 
ATOM      5  C3  UNL d   1      -0.325   2.572  -5.998  0.00  0.00    -0.047 A 
ATOM      6  C4  UNL d   1      -0.771   3.513  -5.094  0.00  0.00    -0.004 A 
ENDROOT
TORSDOF 0
ENDMDL
