MODEL 1
REMARK minimizedAffinity 7.73644686
REMARK minimizedRMSD -1
REMARK  0 active torsions:
REMARK  status: ('A' for Active; 'I' for Inactive)
ROOT
ATOM      1  C   UNL d   1       0.426  -2.876   1.757  0.00  0.00     0.172 C 
ATOM      2  N   UNL d   1       0.457  -2.452   3.137  0.00  0.00    -0.070 N 
ATOM      3  C1  UNL d   1      -0.628  -2.346   3.965  0.00  0.00    -0.004 A 
ATOM      4  C2  UNL d   1      -0.181  -1.912   5.194  0.00  0.00    -0.047 A 
ATOM      5  C3  UNL d   1       1.222  -1.751   5.101  0.00  0.00    -0.047 A 
ATOM      6  C4  UNL d   1       1.591  -2.092   3.817  0.00  0.00    -0.004 A 
ENDROOT
TORSDOF 0
ENDMDL
