MODEL 1
REMARK minimizedAffinity 6.7381115
REMARK minimizedRMSD -1
REMARK  0 active torsions:
REMARK  status: ('A' for Active; 'I' for Inactive)
ROOT
ATOM      1  C   UNL d   1       0.011   3.144  -5.162  0.00  0.00     0.172 C 
ATOM      2  N   UNL d   1      -1.415   2.997  -5.338  0.00  0.00    -0.070 N 
ATOM      3  C1  UNL d   1      -2.369   3.862  -4.875  0.00  0.00    -0.004 A 
ATOM      4  C2  UNL d   1      -3.602   3.370  -5.248  0.00  0.00    -0.047 A 
ATOM      5  C3  UNL d   1      -3.379   2.167  -5.959  0.00  0.00    -0.047 A 
ATOM      6  C4  UNL d   1      -2.017   1.960  -6.000  0.00  0.00    -0.004 A 
ENDROOT
TORSDOF 0
ENDMDL
