MODEL 1
REMARK minimizedAffinity 8.34536839
REMARK minimizedRMSD -1
REMARK  0 active torsions:
REMARK  status: ('A' for Active; 'I' for Inactive)
ROOT
ATOM      1  C   UNL d   1      -0.526  -4.332   0.713  0.00  0.00     0.172 C 
ATOM      2  N   UNL d   1      -1.100  -3.088   0.259  0.00  0.00    -0.070 N 
ATOM      3  C1  UNL d   1      -2.170  -2.448   0.825  0.00  0.00    -0.004 A 
ATOM      4  C2  UNL d   1      -2.406  -1.299   0.102  0.00  0.00    -0.047 A 
ATOM      5  C3  UNL d   1      -1.445  -1.247  -0.936  0.00  0.00    -0.047 A 
ATOM      6  C4  UNL d   1      -0.650  -2.366  -0.815  0.00  0.00    -0.004 A 
ENDROOT
TORSDOF 0
ENDMDL
