MODEL 1
REMARK minimizedAffinity 4.0758009
REMARK minimizedRMSD -1
REMARK  0 active torsions:
REMARK  status: ('A' for Active; 'I' for Inactive)
ROOT
ATOM      1  C   UNL d   1      -3.226   4.357  -0.436  0.00  0.00     0.172 C 
ATOM      2  N   UNL d   1      -4.351   4.764   0.373  0.00  0.00    -0.070 N 
ATOM      3  C1  UNL d   1      -4.962   4.002   1.333  0.00  0.00    -0.004 A 
ATOM      4  C2  UNL d   1      -5.987   4.746   1.874  0.00  0.00    -0.047 A 
ATOM      5  C3  UNL d   1      -5.994   5.999   1.215  0.00  0.00    -0.047 A 
ATOM      6  C4  UNL d   1      -4.971   5.983   0.291  0.00  0.00    -0.004 A 
ENDROOT
TORSDOF 0
ENDMDL
