MODEL 1
REMARK minimizedAffinity 9.42251205
REMARK minimizedRMSD -1
REMARK  0 active torsions:
REMARK  status: ('A' for Active; 'I' for Inactive)
ROOT
ATOM      1  C   UNL d   1      -4.459   2.577   1.095  0.00  0.00     0.172 C 
ATOM      2  N   UNL d   1      -4.837   3.939   0.797  0.00  0.00    -0.070 N 
ATOM      3  C1  UNL d   1      -5.968   4.568   1.243  0.00  0.00    -0.004 A 
ATOM      4  C2  UNL d   1      -5.962   5.852   0.742  0.00  0.00    -0.047 A 
ATOM      5  C3  UNL d   1      -4.787   5.998  -0.033  0.00  0.00    -0.047 A 
ATOM      6  C4  UNL d   1      -4.109   4.799   0.019  0.00  0.00    -0.004 A 
ENDROOT
TORSDOF 0
ENDMDL
