MODEL 1
REMARK minimizedAffinity 10.7907457
REMARK minimizedRMSD -1
REMARK  0 active torsions:
REMARK  status: ('A' for Active; 'I' for Inactive)
ROOT
ATOM      1  C   UNL d   1      -0.318  -3.737   0.270  0.00  0.00     0.172 C 
ATOM      2  N   UNL d   1      -1.052  -2.683  -0.390  0.00  0.00    -0.070 N 
ATOM      3  C1  UNL d   1      -2.216  -2.119   0.059  0.00  0.00    -0.004 A 
ATOM      4  C2  UNL d   1      -2.595  -1.154  -0.849  0.00  0.00    -0.047 A 
ATOM      5  C3  UNL d   1      -1.625  -1.138  -1.880  0.00  0.00    -0.047 A 
ATOM      6  C4  UNL d   1      -0.682  -2.095  -1.570  0.00  0.00    -0.004 A 
ENDROOT
TORSDOF 0
ENDMDL
