MODEL 1
REMARK minimizedAffinity 7.42250299
REMARK minimizedRMSD -1
REMARK  0 active torsions:
REMARK  status: ('A' for Active; 'I' for Inactive)
ROOT
ATOM      1  C   UNL d   1      -3.381  -0.751   3.760  0.00  0.00     0.172 C 
ATOM      2  N   UNL d   1      -3.819   0.331   4.610  0.00  0.00    -0.070 N 
ATOM      3  C1  UNL d   1      -5.121   0.687   4.843  0.00  0.00    -0.004 A 
ATOM      4  C2  UNL d   1      -5.116   1.762   5.705  0.00  0.00    -0.047 A 
ATOM      5  C3  UNL d   1      -3.766   2.063   6.000  0.00  0.00    -0.047 A 
ATOM      6  C4  UNL d   1      -2.984   1.162   5.309  0.00  0.00    -0.004 A 
ENDROOT
TORSDOF 0
ENDMDL
