MODEL 1
REMARK minimizedAffinity 10.170145
REMARK minimizedRMSD -1
REMARK  0 active torsions:
REMARK  status: ('A' for Active; 'I' for Inactive)
ROOT
ATOM      1  C   UNL d   1      -3.298   1.496   6.000  0.00  0.00     0.172 C 
ATOM      2  N   UNL d   1      -2.661   0.338   5.417  0.00  0.00    -0.070 N 
ATOM      3  C1  UNL d   1      -1.566  -0.310   5.924  0.00  0.00    -0.004 A 
ATOM      4  C2  UNL d   1      -1.269  -1.359   5.081  0.00  0.00    -0.047 A 
ATOM      5  C3  UNL d   1      -2.217  -1.340   4.031  0.00  0.00    -0.047 A 
ATOM      6  C4  UNL d   1      -3.067  -0.279   4.264  0.00  0.00    -0.004 A 
ENDROOT
TORSDOF 0
ENDMDL
