MODEL 1
REMARK minimizedAffinity 7.06358814
REMARK minimizedRMSD -1
REMARK  0 active torsions:
REMARK  status: ('A' for Active; 'I' for Inactive)
ROOT
ATOM      1  C   UNL d   1       0.539   2.825  -4.251  0.00  0.00     0.172 C 
ATOM      2  N   UNL d   1      -0.821   2.627  -4.695  0.00  0.00    -0.070 N 
ATOM      3  C1  UNL d   1      -1.243   2.625  -5.997  0.00  0.00    -0.004 A 
ATOM      4  C2  UNL d   1      -2.603   2.404  -6.000  0.00  0.00    -0.047 A 
ATOM      5  C3  UNL d   1      -3.013   2.270  -4.652  0.00  0.00    -0.047 A 
ATOM      6  C4  UNL d   1      -1.889   2.412  -3.865  0.00  0.00    -0.004 A 
ENDROOT
TORSDOF 0
ENDMDL
