MODEL 1
REMARK minimizedAffinity 10.2788734
REMARK minimizedRMSD -1
REMARK  0 active torsions:
REMARK  status: ('A' for Active; 'I' for Inactive)
ROOT
ATOM      1  C   UNL d   1       0.235   3.120  -4.513  0.00  0.00     0.172 C 
ATOM      2  N   UNL d   1      -1.149   2.928  -4.877  0.00  0.00    -0.070 N 
ATOM      3  C1  UNL d   1      -2.231   3.377  -4.168  0.00  0.00    -0.004 A 
ATOM      4  C2  UNL d   1      -3.368   2.992  -4.845  0.00  0.00    -0.047 A 
ATOM      5  C3  UNL d   1      -2.956   2.287  -6.000  0.00  0.00    -0.047 A 
ATOM      6  C4  UNL d   1      -1.577   2.262  -5.995  0.00  0.00    -0.004 A 
ENDROOT
TORSDOF 0
ENDMDL
