MODEL 1
REMARK minimizedAffinity 5.73983765
REMARK minimizedRMSD -1
REMARK  0 active torsions:
REMARK  status: ('A' for Active; 'I' for Inactive)
ROOT
ATOM      1  C   UNL d   1       4.209   3.890   5.982  0.00  0.00     0.172 C 
ATOM      2  N   UNL d   1       4.562   2.892   5.000  0.00  0.00    -0.070 N 
ATOM      3  C1  UNL d   1       5.805   2.341   4.832  0.00  0.00    -0.004 A 
ATOM      4  C2  UNL d   1       5.729   1.433   3.798  0.00  0.00    -0.047 A 
ATOM      5  C3  UNL d   1       4.394   1.439   3.327  0.00  0.00    -0.047 A 
ATOM      6  C4  UNL d   1       3.694   2.351   4.088  0.00  0.00    -0.004 A 
ENDROOT
TORSDOF 0
ENDMDL
