MODEL 1
REMARK minimizedAffinity -3.09407783
REMARK minimizedRMSD -1
REMARK  2 active torsions:
REMARK  status: ('A' for Active; 'I' for Inactive)
REMARK    1  A    between atoms: C1_2  and  C2_3 
REMARK    2  A    between atoms: C2_3  and  C3_4 
ROOT
ATOM      1  C3  UNL d   1      -1.119   0.257  -0.152  0.00  0.00    -0.075 A 
ATOM      2  C4  UNL d   1      -0.831  -1.063  -0.526  0.00  0.00     0.002 A 
ATOM      3  C5  UNL d   1       0.491  -1.500  -0.621  0.00  0.00     0.002 A 
ATOM      4  C6  UNL d   1       1.539  -0.621  -0.354  0.00  0.00    -0.004 A 
ATOM      5  C7  UNL d   1       1.264   0.697   0.002  0.00  0.00     0.002 A 
ATOM      6  C8  UNL d   1      -0.057   1.136   0.102  0.00  0.00     0.002 A 
ENDROOT
BRANCH   1   7
ATOM      7  C2  UNL d   1      -2.548   0.728  -0.019  0.00  0.00     0.056 C 
BRANCH   7   8
ATOM      8  C1  UNL d   1      -2.859   1.404   1.321  0.00  0.00     0.007 C 
ATOM      9  C   UNL d   1      -4.129   0.879   1.977  0.00  0.00     0.009 C 
ENDBRANCH   7   8
ENDBRANCH   1   7
TORSDOF 2
ENDMDL
