MODEL 1
REMARK minimizedAffinity -3.90334272
REMARK minimizedRMSD -1
REMARK  2 active torsions:
REMARK  status: ('A' for Active; 'I' for Inactive)
REMARK    1  A    between atoms: C1_2  and  C2_3 
REMARK    2  A    between atoms: C2_3  and  C3_4 
ROOT
ATOM      1  C3  UNL d   1       0.689   0.738  -0.493  0.00  0.00    -0.075 A 
ATOM      2  C4  UNL d   1       1.855   1.469  -0.223  0.00  0.00     0.002 A 
ATOM      3  C5  UNL d   1       3.049   0.813   0.076  0.00  0.00     0.002 A 
ATOM      4  C6  UNL d   1       3.091  -0.579   0.119  0.00  0.00    -0.004 A 
ATOM      5  C7  UNL d   1       1.934  -1.315  -0.130  0.00  0.00     0.002 A 
ATOM      6  C8  UNL d   1       0.739  -0.661  -0.434  0.00  0.00     0.002 A 
ENDROOT
BRANCH   1   7
ATOM      7  C2  UNL d   1      -0.600   1.442  -0.846  0.00  0.00     0.056 C 
BRANCH   7   8
ATOM      8  C1  UNL d   1      -1.852   0.576  -0.668  0.00  0.00     0.007 C 
ATOM      9  C   UNL d   1      -2.864   1.176   0.299  0.00  0.00     0.009 C 
ENDBRANCH   7   8
ENDBRANCH   1   7
TORSDOF 2
ENDMDL
