MODEL 1
REMARK minimizedAffinity -1.03498626
REMARK minimizedRMSD -1
REMARK  2 active torsions:
REMARK  status: ('A' for Active; 'I' for Inactive)
REMARK    1  A    between atoms: C1_2  and  C2_3 
REMARK    2  A    between atoms: C2_3  and  C3_4 
ROOT
ATOM      1  C3  UNL d   1      -2.009   0.915   0.314  0.00  0.00    -0.075 A 
ATOM      2  C4  UNL d   1      -2.174   2.235   0.758  0.00  0.00     0.002 A 
ATOM      3  C5  UNL d   1      -3.209   2.564   1.635  0.00  0.00     0.002 A 
ATOM      4  C6  UNL d   1      -4.095   1.581   2.070  0.00  0.00    -0.004 A 
ATOM      5  C7  UNL d   1      -3.950   0.269   1.623  0.00  0.00     0.002 A 
ATOM      6  C8  UNL d   1      -2.914  -0.063   0.749  0.00  0.00     0.002 A 
ENDROOT
BRANCH   1   7
ATOM      7  C2  UNL d   1      -0.874   0.548  -0.611  0.00  0.00     0.056 C 
BRANCH   7   8
ATOM      8  C1  UNL d   1       0.109  -0.469  -0.020  0.00  0.00     0.007 C 
ATOM      9  C   UNL d   1       0.040  -1.832  -0.695  0.00  0.00     0.009 C 
ENDBRANCH   7   8
ENDBRANCH   1   7
TORSDOF 2
ENDMDL
