MODEL 1
REMARK minimizedAffinity -3.10746694
REMARK minimizedRMSD -1
REMARK  2 active torsions:
REMARK  status: ('A' for Active; 'I' for Inactive)
REMARK    1  A    between atoms: C1_2  and  C2_3 
REMARK    2  A    between atoms: C2_3  and  C3_4 
ROOT
ATOM      1  C3  UNL d   1      -1.759   0.372   0.422  0.00  0.00    -0.075 A 
ATOM      2  C4  UNL d   1      -2.698  -0.658   0.264  0.00  0.00     0.002 A 
ATOM      3  C5  UNL d   1      -3.975  -0.542   0.814  0.00  0.00     0.002 A 
ATOM      4  C6  UNL d   1      -4.325   0.597   1.536  0.00  0.00    -0.004 A 
ATOM      5  C7  UNL d   1      -3.394   1.618   1.713  0.00  0.00     0.002 A 
ATOM      6  C8  UNL d   1      -2.118   1.507   1.160  0.00  0.00     0.002 A 
ENDROOT
BRANCH   1   7
ATOM      7  C2  UNL d   1      -0.385   0.265  -0.196  0.00  0.00     0.056 C 
BRANCH   7   8
ATOM      8  C1  UNL d   1      -0.085  -1.102  -0.818  0.00  0.00     0.007 C 
ATOM      9  C   UNL d   1       1.067  -1.831  -0.139  0.00  0.00     0.009 C 
ENDBRANCH   7   8
ENDBRANCH   1   7
TORSDOF 2
ENDMDL
