MODEL 1
REMARK minimizedAffinity -5.30325699
REMARK minimizedRMSD -1
REMARK  2 active torsions:
REMARK  status: ('A' for Active; 'I' for Inactive)
REMARK    1  A    between atoms: C1_2  and  C2_3 
REMARK    2  A    between atoms: C2_3  and  C3_4 
ROOT
ATOM      1  C3  UNL d   1       0.991   0.201   0.113  0.00  0.00    -0.075 A 
ATOM      2  C4  UNL d   1       1.620  -1.049   0.024  0.00  0.00     0.002 A 
ATOM      3  C5  UNL d   1       3.007  -1.137  -0.095  0.00  0.00     0.002 A 
ATOM      4  C6  UNL d   1       3.781   0.020  -0.135  0.00  0.00    -0.004 A 
ATOM      5  C7  UNL d   1       3.165   1.268  -0.064  0.00  0.00     0.002 A 
ATOM      6  C8  UNL d   1       1.778   1.360   0.059  0.00  0.00     0.002 A 
ENDROOT
BRANCH   1   7
ATOM      7  C2  UNL d   1      -0.507   0.303   0.271  0.00  0.00     0.056 C 
BRANCH   7   8
ATOM      8  C1  UNL d   1      -1.214   0.984  -0.906  0.00  0.00     0.007 C 
ATOM      9  C   UNL d   1      -2.698   1.220  -0.661  0.00  0.00     0.009 C 
ENDBRANCH   7   8
ENDBRANCH   1   7
TORSDOF 2
ENDMDL
