MODEL 1
REMARK minimizedAffinity -1.48039174
REMARK minimizedRMSD -1
REMARK  2 active torsions:
REMARK  status: ('A' for Active; 'I' for Inactive)
REMARK    1  A    between atoms: C1_2  and  C2_3 
REMARK    2  A    between atoms: C2_3  and  C3_4 
ROOT
ATOM      1  C3  UNL d   1       0.956  -1.146  -0.652  0.00  0.00    -0.075 A 
ATOM      2  C4  UNL d   1       1.114   0.223  -0.391  0.00  0.00     0.002 A 
ATOM      3  C5  UNL d   1       2.370   0.745  -0.081  0.00  0.00     0.002 A 
ATOM      4  C6  UNL d   1       3.480  -0.094  -0.019  0.00  0.00    -0.004 A 
ATOM      5  C7  UNL d   1       3.333  -1.458  -0.260  0.00  0.00     0.002 A 
ATOM      6  C8  UNL d   1       2.078  -1.982  -0.574  0.00  0.00     0.002 A 
ENDROOT
BRANCH   1   7
ATOM      7  C2  UNL d   1      -0.395  -1.712  -1.016  0.00  0.00     0.056 C 
BRANCH   7   8
ATOM      8  C1  UNL d   1      -0.334  -2.896  -1.987  0.00  0.00     0.007 C 
ATOM      9  C   UNL d   1      -0.748  -2.531  -3.406  0.00  0.00     0.009 C 
ENDBRANCH   7   8
ENDBRANCH   1   7
TORSDOF 2
ENDMDL
