MODEL 1
REMARK minimizedAffinity -6.2051177
REMARK minimizedRMSD -1
REMARK  0 active torsions:
REMARK  status: ('A' for Active; 'I' for Inactive)
ROOT
ATOM      1  C   UNL d   1       0.369  -2.842  -2.026  0.00  0.00     0.124 A 
ATOM      2  C1  UNL d   1       1.279  -2.259  -1.155  0.00  0.00     0.062 A 
ATOM      3  C2  UNL d   1       1.227  -0.892  -0.899  0.00  0.00     0.162 A 
ATOM      4  C3  UNL d   1       0.260  -0.098  -1.515  0.00  0.00    -0.034 A 
ATOM      5  C4  UNL d   1      -0.652  -0.691  -2.391  0.00  0.00     0.162 A 
ATOM      6  C5  UNL d   1      -0.595  -2.058  -2.643  0.00  0.00     0.062 A 
ATOM      7  F   UNL d   1      -1.475  -2.619  -3.484  0.00  0.00    -0.097 F 
ATOM      8  F1  UNL d   1      -1.594   0.043  -3.000  0.00  0.00    -0.096 F 
ATOM      9  I   UNL d   1       0.178   1.947  -1.136  0.00  0.00    -0.060 I 
ATOM     10  F2  UNL d   1       2.119  -0.356  -0.053  0.00  0.00    -0.096 F 
ATOM     11  F3  UNL d   1       2.213  -3.015  -0.558  0.00  0.00    -0.097 F 
ATOM     12  F4  UNL d   1       0.423  -4.158  -2.270  0.00  0.00    -0.092 F 
ENDROOT
TORSDOF 0
ENDMDL
