MODEL 1
REMARK minimizedAffinity -6.29585791
REMARK minimizedRMSD -1
REMARK  0 active torsions:
REMARK  status: ('A' for Active; 'I' for Inactive)
ROOT
ATOM      1  C   UNL d   1       0.743  -0.392  -0.168  0.00  0.00     0.124 A 
ATOM      2  C1  UNL d   1       0.289   0.397  -1.216  0.00  0.00     0.062 A 
ATOM      3  C2  UNL d   1      -0.611   1.431  -0.975  0.00  0.00     0.162 A 
ATOM      4  C3  UNL d   1      -1.063   1.683   0.320  0.00  0.00    -0.034 A 
ATOM      5  C4  UNL d   1      -0.603   0.885   1.369  0.00  0.00     0.162 A 
ATOM      6  C5  UNL d   1       0.297  -0.147   1.123  0.00  0.00     0.062 A 
ATOM      7  F   UNL d   1       0.734  -0.908   2.137  0.00  0.00    -0.097 F 
ATOM      8  F1  UNL d   1      -1.017   1.100   2.626  0.00  0.00    -0.096 F 
ATOM      9  I   UNL d   1      -2.409   3.228   0.684  0.00  0.00    -0.060 I 
ATOM     10  F2  UNL d   1      -1.032   2.177  -2.007  0.00  0.00    -0.096 F 
ATOM     11  F3  UNL d   1       0.718   0.162  -2.465  0.00  0.00    -0.097 F 
ATOM     12  F4  UNL d   1       1.608  -1.386  -0.403  0.00  0.00    -0.092 F 
ENDROOT
TORSDOF 0
ENDMDL
