MODEL 1
REMARK minimizedAffinity -4.09701777
REMARK minimizedRMSD -1
REMARK  0 active torsions:
REMARK  status: ('A' for Active; 'I' for Inactive)
ROOT
ATOM      1  C   UNL d   1      -1.505   2.797   0.355  0.00  0.00     0.124 A 
ATOM      2  C1  UNL d   1      -1.803   1.560   0.912  0.00  0.00     0.062 A 
ATOM      3  C2  UNL d   1      -1.119   0.422   0.495  0.00  0.00     0.162 A 
ATOM      4  C3  UNL d   1      -0.129   0.514  -0.484  0.00  0.00    -0.034 A 
ATOM      5  C4  UNL d   1       0.164   1.761  -1.040  0.00  0.00     0.162 A 
ATOM      6  C5  UNL d   1      -0.522   2.896  -0.619  0.00  0.00     0.062 A 
ATOM      7  F   UNL d   1      -0.233   4.089  -1.158  0.00  0.00    -0.097 F 
ATOM      8  F1  UNL d   1       1.109   1.886  -1.983  0.00  0.00    -0.096 F 
ATOM      9  I   UNL d   1       0.895  -1.185  -1.110  0.00  0.00    -0.060 I 
ATOM     10  F2  UNL d   1      -1.427  -0.760   1.050  0.00  0.00    -0.096 F 
ATOM     11  F3  UNL d   1      -2.752   1.462   1.853  0.00  0.00    -0.097 F 
ATOM     12  F4  UNL d   1      -2.165   3.890   0.758  0.00  0.00    -0.092 F 
ENDROOT
TORSDOF 0
ENDMDL
