MODEL 1
REMARK minimizedAffinity 0.0586552508
REMARK minimizedRMSD -1
REMARK  0 active torsions:
REMARK  status: ('A' for Active; 'I' for Inactive)
ROOT
ATOM      1  C   UNL d   1      -0.563   2.431   1.677  0.00  0.00     0.124 A 
ATOM      2  C1  UNL d   1       0.099   1.381   2.298  0.00  0.00     0.062 A 
ATOM      3  C2  UNL d   1       0.529   0.287   1.554  0.00  0.00     0.162 A 
ATOM      4  C3  UNL d   1       0.300   0.236   0.179  0.00  0.00    -0.034 A 
ATOM      5  C4  UNL d   1      -0.368   1.295  -0.439  0.00  0.00     0.162 A 
ATOM      6  C5  UNL d   1      -0.796   2.387   0.310  0.00  0.00     0.062 A 
ATOM      7  F   UNL d   1      -1.435   3.400  -0.293  0.00  0.00    -0.097 F 
ATOM      8  F1  UNL d   1      -0.605   1.279  -1.759  0.00  0.00    -0.096 F 
ATOM      9  I   UNL d   1       0.941  -1.399  -0.937  0.00  0.00    -0.060 I 
ATOM     10  F2  UNL d   1       1.167  -0.713   2.181  0.00  0.00    -0.096 F 
ATOM     11  F3  UNL d   1       0.325   1.421   3.619  0.00  0.00    -0.097 F 
ATOM     12  F4  UNL d   1      -0.976   3.483   2.395  0.00  0.00    -0.092 F 
ENDROOT
TORSDOF 0
ENDMDL
