MODEL 1
REMARK minimizedAffinity -5.47547579
REMARK minimizedRMSD -1
REMARK  0 active torsions:
REMARK  status: ('A' for Active; 'I' for Inactive)
ROOT
ATOM      1  C   UNL d   1       0.944   0.070   0.294  0.00  0.00     0.124 A 
ATOM      2  C1  UNL d   1       0.066   0.035   1.369  0.00  0.00     0.062 A 
ATOM      3  C2  UNL d   1      -0.856   1.061   1.553  0.00  0.00     0.162 A 
ATOM      4  C3  UNL d   1      -0.907   2.131   0.660  0.00  0.00    -0.034 A 
ATOM      5  C4  UNL d   1      -0.021   2.160  -0.418  0.00  0.00     0.162 A 
ATOM      6  C5  UNL d   1       0.899   1.132  -0.598  0.00  0.00     0.062 A 
ATOM      7  F   UNL d   1       1.746   1.168  -1.637  0.00  0.00    -0.097 F 
ATOM      8  F1  UNL d   1      -0.042   3.173  -1.296  0.00  0.00    -0.096 F 
ATOM      9  I   UNL d   1      -2.285   3.667   0.932  0.00  0.00    -0.060 I 
ATOM     10  F2  UNL d   1      -1.692   1.001   2.601  0.00  0.00    -0.096 F 
ATOM     11  F3  UNL d   1       0.108  -0.989   2.233  0.00  0.00    -0.097 F 
ATOM     12  F4  UNL d   1       1.831  -0.918   0.120  0.00  0.00    -0.092 F 
ENDROOT
TORSDOF 0
ENDMDL
