MODEL 1
REMARK minimizedAffinity 2.53547335
REMARK minimizedRMSD -1
REMARK  0 active torsions:
REMARK  status: ('A' for Active; 'I' for Inactive)
ROOT
ATOM      1  C   UNL d   1      -0.623   2.416   1.013  0.00  0.00     0.124 A 
ATOM      2  C1  UNL d   1      -0.915   1.277   1.750  0.00  0.00     0.062 A 
ATOM      3  C2  UNL d   1      -0.509   0.026   1.295  0.00  0.00     0.162 A 
ATOM      4  C3  UNL d   1       0.196  -0.093   0.097  0.00  0.00    -0.034 A 
ATOM      5  C4  UNL d   1       0.485   1.057  -0.639  0.00  0.00     0.162 A 
ATOM      6  C5  UNL d   1       0.076   2.305  -0.180  0.00  0.00     0.062 A 
ATOM      7  F   UNL d   1       0.359   3.405  -0.894  0.00  0.00    -0.097 F 
ATOM      8  F1  UNL d   1       1.160   0.979  -1.795  0.00  0.00    -0.096 F 
ATOM      9  I   UNL d   1       0.805  -1.962  -0.586  0.00  0.00    -0.060 I 
ATOM     10  F2  UNL d   1      -0.805  -1.058   2.028  0.00  0.00    -0.096 F 
ATOM     11  F3  UNL d   1      -1.592   1.381   2.903  0.00  0.00    -0.097 F 
ATOM     12  F4  UNL d   1      -1.017   3.618   1.452  0.00  0.00    -0.092 F 
ENDROOT
TORSDOF 0
ENDMDL
