MODEL 1
REMARK minimizedAffinity -1.12367654
REMARK minimizedRMSD -1
REMARK  0 active torsions:
REMARK  status: ('A' for Active; 'I' for Inactive)
ROOT
ATOM      1  C   UNL d   1      -1.206   2.001  -0.167  0.00  0.00     0.124 A 
ATOM      2  C1  UNL d   1      -0.015   1.979  -0.879  0.00  0.00     0.062 A 
ATOM      3  C2  UNL d   1       0.663   0.779  -1.073  0.00  0.00     0.162 A 
ATOM      4  C3  UNL d   1       0.150  -0.410  -0.556  0.00  0.00    -0.034 A 
ATOM      5  C4  UNL d   1      -1.048  -0.381   0.160  0.00  0.00     0.162 A 
ATOM      6  C5  UNL d   1      -1.722   0.821   0.351  0.00  0.00     0.062 A 
ATOM      7  F   UNL d   1      -2.873   0.840   1.039  0.00  0.00    -0.097 F 
ATOM      8  F1  UNL d   1      -1.569  -1.506   0.671  0.00  0.00    -0.096 F 
ATOM      9  I   UNL d   1       1.161  -2.207  -0.844  0.00  0.00    -0.060 I 
ATOM     10  F2  UNL d   1       1.812   0.788  -1.765  0.00  0.00    -0.096 F 
ATOM     11  F3  UNL d   1       0.486   3.118  -1.380  0.00  0.00    -0.097 F 
ATOM     12  F4  UNL d   1      -1.856   3.157   0.019  0.00  0.00    -0.092 F 
ENDROOT
TORSDOF 0
ENDMDL
