MODEL 1
REMARK minimizedAffinity -3.96980453
REMARK minimizedRMSD -1
REMARK  0 active torsions:
REMARK  status: ('A' for Active; 'I' for Inactive)
ROOT
ATOM      1  C   UNL d   1      -1.722   3.636   0.576  0.00  0.00     0.124 A 
ATOM      2  C1  UNL d   1      -0.620   3.493  -0.255  0.00  0.00     0.062 A 
ATOM      3  C2  UNL d   1      -0.037   2.242  -0.436  0.00  0.00     0.162 A 
ATOM      4  C3  UNL d   1      -0.557   1.123   0.215  0.00  0.00    -0.034 A 
ATOM      5  C4  UNL d   1      -1.665   1.274   1.050  0.00  0.00     0.162 A 
ATOM      6  C5  UNL d   1      -2.244   2.527   1.228  0.00  0.00     0.062 A 
ATOM      7  F   UNL d   1      -3.309   2.663   2.031  0.00  0.00    -0.097 F 
ATOM      8  F1  UNL d   1      -2.190   0.220   1.691  0.00  0.00    -0.096 F 
ATOM      9  I   UNL d   1       0.312  -0.750  -0.053  0.00  0.00    -0.060 I 
ATOM     10  F2  UNL d   1       1.027   2.133  -1.245  0.00  0.00    -0.096 F 
ATOM     11  F3  UNL d   1      -0.114   4.562  -0.885  0.00  0.00    -0.097 F 
ATOM     12  F4  UNL d   1      -2.280   4.841   0.749  0.00  0.00    -0.092 F 
ENDROOT
TORSDOF 0
ENDMDL
