MODEL 1
REMARK minimizedAffinity -4.19917583
REMARK minimizedRMSD -1
REMARK  0 active torsions:
REMARK  status: ('A' for Active; 'I' for Inactive)
ROOT
ATOM      1  C   UNL d   1      -1.489   3.330   0.392  0.00  0.00     0.124 A 
ATOM      2  C1  UNL d   1      -0.347   3.443  -0.389  0.00  0.00     0.062 A 
ATOM      3  C2  UNL d   1       0.406   2.313  -0.696  0.00  0.00     0.162 A 
ATOM      4  C3  UNL d   1       0.018   1.060  -0.223  0.00  0.00    -0.034 A 
ATOM      5  C4  UNL d   1      -1.131   0.954   0.563  0.00  0.00     0.162 A 
ATOM      6  C5  UNL d   1      -1.879   2.086   0.867  0.00  0.00     0.062 A 
ATOM      7  F   UNL d   1      -2.982   1.975   1.622  0.00  0.00    -0.097 F 
ATOM      8  F1  UNL d   1      -1.531  -0.236   1.035  0.00  0.00    -0.096 F 
ATOM      9  I   UNL d   1       1.141  -0.632  -0.680  0.00  0.00    -0.060 I 
ATOM     10  F2  UNL d   1       1.504   2.452  -1.453  0.00  0.00    -0.096 F 
ATOM     11  F3  UNL d   1       0.033   4.644  -0.849  0.00  0.00    -0.097 F 
ATOM     12  F4  UNL d   1      -2.210   4.419   0.687  0.00  0.00    -0.092 F 
ENDROOT
TORSDOF 0
ENDMDL
