MODEL 1
REMARK minimizedAffinity -3.21515918
REMARK minimizedRMSD -1
REMARK  0 active torsions:
REMARK  status: ('A' for Active; 'I' for Inactive)
ROOT
ATOM      1  C   UNL d   1      -1.503   2.340   0.276  0.00  0.00     0.124 A 
ATOM      2  C1  UNL d   1      -1.808   1.054   0.701  0.00  0.00     0.062 A 
ATOM      3  C2  UNL d   1      -1.038  -0.024   0.276  0.00  0.00     0.162 A 
ATOM      4  C3  UNL d   1       0.046   0.178  -0.578  0.00  0.00    -0.034 A 
ATOM      5  C4  UNL d   1       0.346   1.474  -1.001  0.00  0.00     0.162 A 
ATOM      6  C5  UNL d   1      -0.426   2.549  -0.574  0.00  0.00     0.062 A 
ATOM      7  F   UNL d   1      -0.130   3.791  -0.985  0.00  0.00    -0.097 F 
ATOM      8  F1  UNL d   1       1.382   1.705  -1.822  0.00  0.00    -0.096 F 
ATOM      9  I   UNL d   1       1.201  -1.432  -1.216  0.00  0.00    -0.060 I 
ATOM     10  F2  UNL d   1      -1.356  -1.256   0.702  0.00  0.00    -0.096 F 
ATOM     11  F3  UNL d   1      -2.849   0.850   1.521  0.00  0.00    -0.097 F 
ATOM     12  F4  UNL d   1      -2.247   3.376   0.686  0.00  0.00    -0.092 F 
ENDROOT
TORSDOF 0
ENDMDL
