MODEL 1
REMARK minimizedAffinity -2.03968573
REMARK minimizedRMSD -1
REMARK  0 active torsions:
REMARK  status: ('A' for Active; 'I' for Inactive)
ROOT
ATOM      1  C   UNL d   1      -1.193   2.970   0.305  0.00  0.00     0.124 A 
ATOM      2  C1  UNL d   1      -1.513   1.705   0.777  0.00  0.00     0.062 A 
ATOM      3  C2  UNL d   1      -0.778   0.597   0.365  0.00  0.00     0.162 A 
ATOM      4  C3  UNL d   1       0.287   0.750  -0.523  0.00  0.00    -0.034 A 
ATOM      5  C4  UNL d   1       0.603   2.026  -0.993  0.00  0.00     0.162 A 
ATOM      6  C5  UNL d   1      -0.135   3.129  -0.579  0.00  0.00     0.062 A 
ATOM      7  F   UNL d   1       0.176   4.351  -1.036  0.00  0.00    -0.097 F 
ATOM      8  F1  UNL d   1       1.621   2.208  -1.848  0.00  0.00    -0.096 F 
ATOM      9  I   UNL d   1       1.390  -0.904  -1.140  0.00  0.00    -0.060 I 
ATOM     10  F2  UNL d   1      -1.110  -0.614   0.837  0.00  0.00    -0.096 F 
ATOM     11  F3  UNL d   1      -2.535   1.548   1.630  0.00  0.00    -0.097 F 
ATOM     12  F4  UNL d   1      -1.903   4.034   0.702  0.00  0.00    -0.092 F 
ENDROOT
TORSDOF 0
ENDMDL
