MODEL 1
REMARK minimizedAffinity -3.33116436
REMARK minimizedRMSD -1
REMARK  0 active torsions:
REMARK  status: ('A' for Active; 'I' for Inactive)
ROOT
ATOM      1  C   UNL d   1      -0.407   2.823   0.546  0.00  0.00     0.124 A 
ATOM      2  C1  UNL d   1      -0.887   1.684   1.177  0.00  0.00     0.062 A 
ATOM      3  C2  UNL d   1      -0.434   0.426   0.791  0.00  0.00     0.162 A 
ATOM      4  C3  UNL d   1       0.506   0.300  -0.231  0.00  0.00    -0.034 A 
ATOM      5  C4  UNL d   1       0.985   1.450  -0.862  0.00  0.00     0.162 A 
ATOM      6  C5  UNL d   1       0.528   2.705  -0.472  0.00  0.00     0.062 A 
ATOM      7  F   UNL d   1       0.994   3.804  -1.083  0.00  0.00    -0.097 F 
ATOM      8  F1  UNL d   1       1.889   1.365  -1.848  0.00  0.00    -0.096 F 
ATOM      9  I   UNL d   1       1.186  -1.580  -0.812  0.00  0.00    -0.060 I 
ATOM     10  F2  UNL d   1      -0.916  -0.657   1.418  0.00  0.00    -0.096 F 
ATOM     11  F3  UNL d   1      -1.792   1.795   2.161  0.00  0.00    -0.097 F 
ATOM     12  F4  UNL d   1      -0.845   4.032   0.919  0.00  0.00    -0.092 F 
ENDROOT
TORSDOF 0
ENDMDL
