MODEL 1
REMARK minimizedAffinity -1.59681833
REMARK minimizedRMSD -1
REMARK  0 active torsions:
REMARK  status: ('A' for Active; 'I' for Inactive)
ROOT
ATOM      1  C   UNL d   1       0.131  -0.603   1.400  0.00  0.00     0.124 A 
ATOM      2  C1  UNL d   1      -0.569   0.476   1.921  0.00  0.00     0.062 A 
ATOM      3  C2  UNL d   1      -0.553   1.704   1.265  0.00  0.00     0.162 A 
ATOM      4  C3  UNL d   1       0.166   1.859   0.080  0.00  0.00    -0.034 A 
ATOM      5  C4  UNL d   1       0.868   0.769  -0.437  0.00  0.00     0.162 A 
ATOM      6  C5  UNL d   1       0.849  -0.456   0.222  0.00  0.00     0.062 A 
ATOM      7  F   UNL d   1       1.526  -1.498  -0.283  0.00  0.00    -0.097 F 
ATOM      8  F1  UNL d   1       1.570   0.883  -1.575  0.00  0.00    -0.096 F 
ATOM      9  I   UNL d   1       0.194   3.693  -0.904  0.00  0.00    -0.060 I 
ATOM     10  F2  UNL d   1      -1.238   2.730   1.791  0.00  0.00    -0.096 F 
ATOM     11  F3  UNL d   1      -1.263   0.337   3.060  0.00  0.00    -0.097 F 
ATOM     12  F4  UNL d   1       0.114  -1.783   2.034  0.00  0.00    -0.092 F 
ENDROOT
TORSDOF 0
ENDMDL
