MODEL 1
REMARK minimizedAffinity -2.45324755
REMARK minimizedRMSD -1
REMARK  0 active torsions:
REMARK  status: ('A' for Active; 'I' for Inactive)
ROOT
ATOM      1  O1  BZF d   1      -0.964  -0.429  -0.601  0.00  0.00    -0.204 OA
ATOM      2  C2  BZF d   1      -1.074  -1.148  -1.775  0.00  0.00     0.174 A 
ATOM      3  C3  BZF d   1       0.030  -1.895  -1.984  0.00  0.00    -0.012 A 
ATOM      4  C3A BZF d   1       0.843  -1.697  -0.823  0.00  0.00    -0.107 A 
ATOM      5  C4  BZF d   1       2.057  -2.185  -0.433  0.00  0.00     0.055 A 
ATOM      6  C5  BZF d   1       2.608  -1.736   0.726  0.00  0.00    -0.016 A 
ATOM      7  C6  BZF d   1       1.976  -0.798   1.515  0.00  0.00     0.022 A 
ATOM      8  C7  BZF d   1       0.768  -0.288   1.172  0.00  0.00     0.029 A 
ATOM      9  C7A BZF d   1       0.193  -0.764   0.018  0.00  0.00     0.058 A 
ENDROOT
TORSDOF 0
ENDMDL
