MODEL 1
REMARK minimizedAffinity -3.33889222
REMARK minimizedRMSD -1
REMARK  0 active torsions:
REMARK  status: ('A' for Active; 'I' for Inactive)
ROOT
ATOM      1  O1  BZF d   1       1.926  -2.102  -0.212  0.00  0.00    -0.204 OA
ATOM      2  C2  BZF d   1       2.756  -1.679   0.808  0.00  0.00     0.174 A 
ATOM      3  C3  BZF d   1       2.254  -0.581   1.409  0.00  0.00    -0.012 A 
ATOM      4  C3A BZF d   1       0.988  -0.354   0.782  0.00  0.00    -0.107 A 
ATOM      5  C4  BZF d   1       0.007   0.580   0.957  0.00  0.00     0.055 A 
ATOM      6  C5  BZF d   1      -1.072   0.566   0.131  0.00  0.00    -0.016 A 
ATOM      7  C6  BZF d   1      -1.201  -0.362  -0.881  0.00  0.00     0.022 A 
ATOM      8  C7  BZF d   1      -0.256  -1.311  -1.090  0.00  0.00     0.029 A 
ATOM      9  C7A BZF d   1       0.820  -1.321  -0.237  0.00  0.00     0.058 A 
ENDROOT
TORSDOF 0
ENDMDL
