MODEL 1
REMARK minimizedAffinity -2.74902487
REMARK minimizedRMSD -1
REMARK  0 active torsions:
REMARK  status: ('A' for Active; 'I' for Inactive)
ROOT
ATOM      1  O1  BZF d   1      -0.542   0.001   0.934  0.00  0.00    -0.204 OA
ATOM      2  C2  BZF d   1      -1.000   0.326  -0.328  0.00  0.00     0.174 A 
ATOM      3  C3  BZF d   1      -0.094  -0.013  -1.268  0.00  0.00    -0.012 A 
ATOM      4  C3A BZF d   1       0.960  -0.669  -0.555  0.00  0.00    -0.107 A 
ATOM      5  C4  BZF d   1       2.135  -1.247  -0.941  0.00  0.00     0.055 A 
ATOM      6  C5  BZF d   1       2.974  -1.735   0.010  0.00  0.00    -0.016 A 
ATOM      7  C6  BZF d   1       2.672  -1.658   1.354  0.00  0.00     0.022 A 
ATOM      8  C7  BZF d   1       1.515  -1.099   1.784  0.00  0.00     0.029 A 
ATOM      9  C7A BZF d   1       0.650  -0.634   0.824  0.00  0.00     0.058 A 
ENDROOT
TORSDOF 0
ENDMDL
