MODEL 1
REMARK minimizedAffinity -5.62985992
REMARK minimizedRMSD -1
REMARK  0 active torsions:
REMARK  status: ('A' for Active; 'I' for Inactive)
ROOT
ATOM      1  O1  BZF d   1       3.308   0.545   0.162  0.00  0.00    -0.204 OA
ATOM      2  C2  BZF d   1       3.779  -0.754   0.154  0.00  0.00     0.174 A 
ATOM      3  C3  BZF d   1       2.767  -1.629  -0.016  0.00  0.00    -0.012 A 
ATOM      4  C3A BZF d   1       1.602  -0.823  -0.213  0.00  0.00    -0.107 A 
ATOM      5  C4  BZF d   1       0.288  -1.113  -0.450  0.00  0.00     0.055 A 
ATOM      6  C5  BZF d   1      -0.610  -0.096  -0.522  0.00  0.00    -0.016 A 
ATOM      7  C6  BZF d   1      -0.232   1.220  -0.357  0.00  0.00     0.022 A 
ATOM      8  C7  BZF d   1       1.060   1.558  -0.126  0.00  0.00     0.029 A 
ATOM      9  C7A BZF d   1       1.976   0.535  -0.085  0.00  0.00     0.058 A 
ENDROOT
TORSDOF 0
ENDMDL
