MODEL 1
REMARK minimizedAffinity -4.58447695
REMARK minimizedRMSD -1
REMARK  0 active torsions:
REMARK  status: ('A' for Active; 'I' for Inactive)
ROOT
ATOM      1  O1  BZF d   1       2.618  -0.594   1.084  0.00  0.00    -0.204 OA
ATOM      2  C2  BZF d   1       3.077  -1.833   0.681  0.00  0.00     0.174 A 
ATOM      3  C3  BZF d   1       2.169  -2.447  -0.105  0.00  0.00    -0.012 A 
ATOM      4  C3A BZF d   1       1.114  -1.495  -0.274  0.00  0.00    -0.107 A 
ATOM      5  C4  BZF d   1      -0.064  -1.513  -0.965  0.00  0.00     0.055 A 
ATOM      6  C5  BZF d   1      -0.904  -0.449  -0.865  0.00  0.00    -0.016 A 
ATOM      7  C6  BZF d   1      -0.601   0.645  -0.082  0.00  0.00     0.022 A 
ATOM      8  C7  BZF d   1       0.558   0.710   0.618  0.00  0.00     0.029 A 
ATOM      9  C7A BZF d   1       1.424  -0.349   0.493  0.00  0.00     0.058 A 
ENDROOT
TORSDOF 0
ENDMDL
