MODEL 1
REMARK minimizedAffinity -5.59792042
REMARK minimizedRMSD -1
REMARK  0 active torsions:
REMARK  status: ('A' for Active; 'I' for Inactive)
ROOT
ATOM      1  O1  BZF d   1       2.084  -1.774   0.150  0.00  0.00    -0.204 OA
ATOM      2  C2  BZF d   1       3.259  -1.241   0.644  0.00  0.00     0.174 A 
ATOM      3  C3  BZF d   1       3.156   0.096   0.786  0.00  0.00    -0.012 A 
ATOM      4  C3A BZF d   1       1.803   0.407   0.440  0.00  0.00    -0.107 A 
ATOM      5  C4  BZF d   1       1.088   1.570   0.401  0.00  0.00     0.055 A 
ATOM      6  C5  BZF d   1      -0.193   1.543  -0.051  0.00  0.00    -0.016 A 
ATOM      7  C6  BZF d   1      -0.789   0.373  -0.476  0.00  0.00     0.022 A 
ATOM      8  C7  BZF d   1      -0.121  -0.806  -0.450  0.00  0.00     0.029 A 
ATOM      9  C7A BZF d   1       1.163  -0.787   0.037  0.00  0.00     0.058 A 
ENDROOT
TORSDOF 0
ENDMDL
