MODEL 1
REMARK minimizedAffinity -0.434129119
REMARK minimizedRMSD -1
REMARK  1 active torsions:
REMARK  status: ('A' for Active; 'I' for Inactive)
REMARK    1  A    between atoms: C1_2  and  C2_3 
ROOT
ATOM      1  C2  UNL d   1      -1.962  -1.595  -2.435  0.00  0.00    -0.076 A 
ATOM      2  C3  UNL d   1      -0.807  -0.829  -2.673  0.00  0.00     0.004 A 
ATOM      3  C4  UNL d   1      -0.151  -0.177  -1.630  0.00  0.00    -0.003 A 
ATOM      4  C5  UNL d   1      -0.639  -0.280  -0.332  0.00  0.00     0.000 A 
ATOM      5  C6  UNL d   1      -1.773  -1.049  -0.075  0.00  0.00     0.000 A 
ATOM      6  C7  UNL d   1      -2.437  -1.727  -1.112  0.00  0.00    -0.073 A 
ATOM      7  C8  UNL d   1      -3.659  -2.538  -0.779  0.00  0.00     0.078 C 
ENDROOT
BRANCH   1   8
ATOM      8  C1  UNL d   1      -2.646  -2.258  -3.609  0.00  0.00     0.053 C 
ATOM      9  C   UNL d   1      -2.037  -3.608  -3.952  0.00  0.00     0.018 C 
ENDBRANCH   1   8
TORSDOF 1
ENDMDL
