MODEL 1
REMARK minimizedAffinity -3.86929941
REMARK minimizedRMSD -1
REMARK  1 active torsions:
REMARK  status: ('A' for Active; 'I' for Inactive)
REMARK    1  A    between atoms: C1_2  and  C2_3 
ROOT
ATOM      1  C2  UNL d   1      -1.539  -1.769  -1.117  0.00  0.00    -0.076 A 
ATOM      2  C3  UNL d   1      -1.856  -1.800   0.252  0.00  0.00     0.004 A 
ATOM      3  C4  UNL d   1      -2.886  -2.606   0.733  0.00  0.00    -0.003 A 
ATOM      4  C5  UNL d   1      -3.616  -3.396  -0.148  0.00  0.00     0.000 A 
ATOM      5  C6  UNL d   1      -3.304  -3.392  -1.507  0.00  0.00     0.000 A 
ATOM      6  C7  UNL d   1      -2.258  -2.597  -2.006  0.00  0.00    -0.073 A 
ATOM      7  C8  UNL d   1      -1.969  -2.627  -3.482  0.00  0.00     0.078 C 
ENDROOT
BRANCH   1   8
ATOM      8  C1  UNL d   1      -0.430  -0.855  -1.584  0.00  0.00     0.053 C 
ATOM      9  C   UNL d   1       0.120   0.014  -0.463  0.00  0.00     0.018 C 
ENDBRANCH   1   8
TORSDOF 1
ENDMDL
