MODEL 1
REMARK minimizedAffinity -0.521122515
REMARK minimizedRMSD -1
REMARK  1 active torsions:
REMARK  status: ('A' for Active; 'I' for Inactive)
REMARK    1  A    between atoms: C1_2  and  C2_3 
ROOT
ATOM      1  C2  UNL d   1      -2.183  -2.051  -1.374  0.00  0.00    -0.076 A 
ATOM      2  C3  UNL d   1      -0.867  -1.562  -1.305  0.00  0.00     0.004 A 
ATOM      3  C4  UNL d   1      -0.479  -0.686  -0.293  0.00  0.00    -0.003 A 
ATOM      4  C5  UNL d   1      -1.401  -0.285   0.668  0.00  0.00     0.000 A 
ATOM      5  C6  UNL d   1      -2.706  -0.774   0.625  0.00  0.00     0.000 A 
ATOM      6  C7  UNL d   1      -3.109  -1.671  -0.379  0.00  0.00    -0.073 A 
ATOM      7  C8  UNL d   1      -4.531  -2.162  -0.380  0.00  0.00     0.078 C 
ENDROOT
BRANCH   1   8
ATOM      8  C1  UNL d   1      -2.553  -2.978  -2.510  0.00  0.00     0.053 C 
ATOM      9  C   UNL d   1      -2.436  -4.445  -2.127  0.00  0.00     0.018 C 
ENDBRANCH   1   8
TORSDOF 1
ENDMDL
