MODEL 1
REMARK minimizedAffinity -0.735142887
REMARK minimizedRMSD -1
REMARK  1 active torsions:
REMARK  status: ('A' for Active; 'I' for Inactive)
REMARK    1  A    between atoms: C1_2  and  C2_3 
ROOT
ATOM      1  C2  UNL d   1      -1.949  -1.589  -1.817  0.00  0.00    -0.076 A 
ATOM      2  C3  UNL d   1      -2.622  -1.952  -0.638  0.00  0.00     0.004 A 
ATOM      3  C4  UNL d   1      -2.402  -1.264   0.554  0.00  0.00    -0.003 A 
ATOM      4  C5  UNL d   1      -1.505  -0.202   0.586  0.00  0.00     0.000 A 
ATOM      5  C6  UNL d   1      -0.842   0.183  -0.579  0.00  0.00     0.000 A 
ATOM      6  C7  UNL d   1      -1.065  -0.490  -1.793  0.00  0.00    -0.073 A 
ATOM      7  C8  UNL d   1      -0.318  -0.036  -3.017  0.00  0.00     0.078 C 
ENDROOT
BRANCH   1   8
ATOM      8  C1  UNL d   1      -2.208  -2.389  -3.074  0.00  0.00     0.053 C 
ATOM      9  C   UNL d   1      -1.938  -3.874  -2.886  0.00  0.00     0.018 C 
ENDBRANCH   1   8
TORSDOF 1
ENDMDL
