MODEL 1
REMARK minimizedAffinity 1.82050776
REMARK minimizedRMSD -1
REMARK  1 active torsions:
REMARK  status: ('A' for Active; 'I' for Inactive)
REMARK    1  A    between atoms: C1_2  and  C2_3 
ROOT
ATOM      1  C2  UNL d   1      -0.762  -1.142  -0.587  0.00  0.00    -0.076 A 
ATOM      2  C3  UNL d   1      -1.536  -2.298  -0.382  0.00  0.00     0.004 A 
ATOM      3  C4  UNL d   1      -2.404  -2.764  -1.368  0.00  0.00    -0.003 A 
ATOM      4  C5  UNL d   1      -2.511  -2.083  -2.576  0.00  0.00     0.000 A 
ATOM      5  C6  UNL d   1      -1.738  -0.945  -2.803  0.00  0.00     0.000 A 
ATOM      6  C7  UNL d   1      -0.846  -0.471  -1.826  0.00  0.00    -0.073 A 
ATOM      7  C8  UNL d   1      -0.041   0.765  -2.122  0.00  0.00     0.078 C 
ENDROOT
BRANCH   1   8
ATOM      8  C1  UNL d   1       0.142  -0.669   0.529  0.00  0.00     0.053 C 
ATOM      9  C   UNL d   1      -0.621   0.052   1.630  0.00  0.00     0.018 C 
ENDBRANCH   1   8
TORSDOF 1
ENDMDL
