MODEL 1
REMARK minimizedAffinity 6.30776834
REMARK minimizedRMSD -1
REMARK  1 active torsions:
REMARK  status: ('A' for Active; 'I' for Inactive)
REMARK    1  A    between atoms: C1_2  and  C2_3 
ROOT
ATOM      1  C2  UNL d   1      -1.672   0.131   1.098  0.00  0.00    -0.076 A 
ATOM      2  C3  UNL d   1      -2.257   1.369   0.779  0.00  0.00     0.004 A 
ATOM      3  C4  UNL d   1      -1.785   2.132  -0.287  0.00  0.00    -0.003 A 
ATOM      4  C5  UNL d   1      -0.720   1.669  -1.053  0.00  0.00     0.000 A 
ATOM      5  C6  UNL d   1      -0.139   0.435  -0.762  0.00  0.00     0.000 A 
ATOM      6  C7  UNL d   1      -0.614  -0.354   0.300  0.00  0.00    -0.073 A 
ATOM      7  C8  UNL d   1       0.054  -1.674   0.573  0.00  0.00     0.078 C 
ENDROOT
BRANCH   1   8
ATOM      8  C1  UNL d   1      -2.209  -0.640   2.283  0.00  0.00     0.053 C 
ATOM      9  C   UNL d   1      -2.422   0.241   3.503  0.00  0.00     0.018 C 
ENDBRANCH   1   8
TORSDOF 1
ENDMDL
