MODEL 1
REMARK minimizedAffinity 5.84577847
REMARK minimizedRMSD -1
REMARK  1 active torsions:
REMARK  status: ('A' for Active; 'I' for Inactive)
REMARK    1  A    between atoms: C1_2  and  C2_3 
ROOT
ATOM      1  C2  UNL d   1      -4.094   3.795   3.021  0.00  0.00    -0.076 A 
ATOM      2  C3  UNL d   1      -4.572   5.048   3.442  0.00  0.00     0.004 A 
ATOM      3  C4  UNL d   1      -5.003   5.999   2.517  0.00  0.00    -0.003 A 
ATOM      4  C5  UNL d   1      -4.963   5.711   1.158  0.00  0.00     0.000 A 
ATOM      5  C6  UNL d   1      -4.509   4.466   0.724  0.00  0.00     0.000 A 
ATOM      6  C7  UNL d   1      -4.087   3.490   1.643  0.00  0.00    -0.073 A 
ATOM      7  C8  UNL d   1      -3.601   2.167   1.119  0.00  0.00     0.078 C 
ENDROOT
BRANCH   1   8
ATOM      8  C1  UNL d   1      -3.615   2.814   4.068  0.00  0.00     0.053 C 
ATOM      9  C   UNL d   1      -2.948   3.502   5.249  0.00  0.00     0.018 C 
ENDBRANCH   1   8
TORSDOF 1
ENDMDL
