MODEL 1
REMARK minimizedAffinity 4.35974836
REMARK minimizedRMSD -1
REMARK  1 active torsions:
REMARK  status: ('A' for Active; 'I' for Inactive)
REMARK    1  A    between atoms: C1_2  and  C2_3 
ROOT
ATOM      1  C2  UNL d   1      -1.370  -1.262  -0.811  0.00  0.00    -0.076 A 
ATOM      2  C3  UNL d   1      -1.799  -2.589  -0.985  0.00  0.00     0.004 A 
ATOM      3  C4  UNL d   1      -2.542  -2.962  -2.104  0.00  0.00    -0.003 A 
ATOM      4  C5  UNL d   1      -2.868  -2.014  -3.067  0.00  0.00     0.000 A 
ATOM      5  C6  UNL d   1      -2.436  -0.696  -2.920  0.00  0.00     0.000 A 
ATOM      6  C7  UNL d   1      -1.673  -0.307  -1.806  0.00  0.00    -0.073 A 
ATOM      7  C8  UNL d   1      -1.238   1.129  -1.695  0.00  0.00     0.078 C 
ENDROOT
BRANCH   1   8
ATOM      8  C1  UNL d   1      -0.591  -0.910   0.435  0.00  0.00     0.053 C 
ATOM      9  C   UNL d   1       0.869  -0.599   0.141  0.00  0.00     0.018 C 
ENDBRANCH   1   8
TORSDOF 1
ENDMDL
