MODEL 1
REMARK minimizedAffinity 13.0562277
REMARK minimizedRMSD -1
REMARK  1 active torsions:
REMARK  status: ('A' for Active; 'I' for Inactive)
REMARK    1  A    between atoms: C1_2  and  C2_3 
ROOT
ATOM      1  C2  UNL d   1      -2.297  -2.256  -2.217  0.00  0.00    -0.076 A 
ATOM      2  C3  UNL d   1      -1.859  -1.455  -3.285  0.00  0.00     0.004 A 
ATOM      3  C4  UNL d   1      -2.148  -1.797  -4.605  0.00  0.00    -0.003 A 
ATOM      4  C5  UNL d   1      -2.881  -2.946  -4.878  0.00  0.00     0.000 A 
ATOM      5  C6  UNL d   1      -3.340  -3.744  -3.830  0.00  0.00     0.000 A 
ATOM      6  C7  UNL d   1      -3.071  -3.404  -2.493  0.00  0.00    -0.073 A 
ATOM      7  C8  UNL d   1      -3.585  -4.304  -1.402  0.00  0.00     0.078 C 
ENDROOT
BRANCH   1   8
ATOM      8  C1  UNL d   1      -1.930  -1.850  -0.808  0.00  0.00     0.053 C 
ATOM      9  C   UNL d   1      -0.943  -0.694  -0.773  0.00  0.00     0.018 C 
ENDBRANCH   1   8
TORSDOF 1
ENDMDL
