MODEL 1
REMARK minimizedAffinity -4.55547237
REMARK minimizedRMSD -1
REMARK  1 active torsions:
REMARK  status: ('A' for Active; 'I' for Inactive)
REMARK    1  A    between atoms: C1_2  and  C2_3 
ROOT
ATOM      1  C2  UNL d   1      -4.389   3.302   3.806  0.00  0.00    -0.076 A 
ATOM      2  C3  UNL d   1      -4.654   2.989   5.151  0.00  0.00     0.004 A 
ATOM      3  C4  UNL d   1      -5.256   3.918   5.998  0.00  0.00    -0.003 A 
ATOM      4  C5  UNL d   1      -5.604   5.174   5.515  0.00  0.00     0.000 A 
ATOM      5  C6  UNL d   1      -5.364   5.495   4.179  0.00  0.00     0.000 A 
ATOM      6  C7  UNL d   1      -4.773   4.565   3.307  0.00  0.00    -0.073 A 
ATOM      7  C8  UNL d   1      -4.532   4.967   1.878  0.00  0.00     0.078 C 
ENDROOT
BRANCH   1   8
ATOM      8  C1  UNL d   1      -3.709   2.264   2.942  0.00  0.00     0.053 C 
ATOM      9  C   UNL d   1      -3.673   0.892   3.598  0.00  0.00     0.018 C 
ENDBRANCH   1   8
TORSDOF 1
ENDMDL
