MODEL 1
REMARK minimizedAffinity -4.51905537
REMARK minimizedRMSD -1
REMARK  1 active torsions:
REMARK  status: ('A' for Active; 'I' for Inactive)
REMARK    1  A    between atoms: C1_2  and  C2_3 
ROOT
ATOM      1  C2  UNL d   1      -5.213   3.689   3.793  0.00  0.00    -0.076 A 
ATOM      2  C3  UNL d   1      -4.873   2.517   3.096  0.00  0.00     0.004 A 
ATOM      3  C4  UNL d   1      -4.700   1.308   3.768  0.00  0.00    -0.003 A 
ATOM      4  C5  UNL d   1      -4.866   1.251   5.147  0.00  0.00     0.000 A 
ATOM      5  C6  UNL d   1      -5.221   2.401   5.852  0.00  0.00     0.000 A 
ATOM      6  C7  UNL d   1      -5.415   3.624   5.188  0.00  0.00    -0.073 A 
ATOM      7  C8  UNL d   1      -5.791   4.834   5.999  0.00  0.00     0.078 C 
ENDROOT
BRANCH   1   8
ATOM      8  C1  UNL d   1      -5.361   4.977   3.015  0.00  0.00     0.053 C 
ATOM      9  C   UNL d   1      -4.845   4.859   1.589  0.00  0.00     0.018 C 
ENDBRANCH   1   8
TORSDOF 1
ENDMDL
