MODEL 1
REMARK minimizedAffinity -1.18284786
REMARK minimizedRMSD -1
REMARK  1 active torsions:
REMARK  status: ('A' for Active; 'I' for Inactive)
REMARK    1  A    between atoms: C1_2  and  C2_3 
ROOT
ATOM      1  C2  UNL d   1      -5.439   5.255   3.499  0.00  0.00    -0.076 A 
ATOM      2  C3  UNL d   1      -5.502   6.000   4.689  0.00  0.00     0.004 A 
ATOM      3  C4  UNL d   1      -5.063   5.461   5.897  0.00  0.00    -0.003 A 
ATOM      4  C5  UNL d   1      -4.553   4.168   5.934  0.00  0.00     0.000 A 
ATOM      5  C6  UNL d   1      -4.466   3.421   4.760  0.00  0.00     0.000 A 
ATOM      6  C7  UNL d   1      -4.889   3.955   3.531  0.00  0.00    -0.073 A 
ATOM      7  C8  UNL d   1      -4.779   3.103   2.297  0.00  0.00     0.078 C 
ENDROOT
BRANCH   1   8
ATOM      8  C1  UNL d   1      -5.954   5.882   2.223  0.00  0.00     0.053 C 
ATOM      9  C   UNL d   1      -4.878   6.000   1.155  0.00  0.00     0.018 C 
ENDBRANCH   1   8
TORSDOF 1
ENDMDL
