MODEL 1
REMARK minimizedAffinity -0.0557803512
REMARK minimizedRMSD -1
REMARK  1 active torsions:
REMARK  status: ('A' for Active; 'I' for Inactive)
REMARK    1  A    between atoms: C1_2  and  C2_3 
ROOT
ATOM      1  C2  UNL d   1      -5.442   4.883   2.688  0.00  0.00    -0.076 A 
ATOM      2  C3  UNL d   1      -5.626   5.996   3.527  0.00  0.00     0.004 A 
ATOM      3  C4  UNL d   1      -5.156   5.990   4.839  0.00  0.00    -0.003 A 
ATOM      4  C5  UNL d   1      -4.493   4.872   5.333  0.00  0.00     0.000 A 
ATOM      5  C6  UNL d   1      -4.287   3.766   4.509  0.00  0.00     0.000 A 
ATOM      6  C7  UNL d   1      -4.740   3.762   3.179  0.00  0.00    -0.073 A 
ATOM      7  C8  UNL d   1      -4.495   2.540   2.337  0.00  0.00     0.078 C 
ENDROOT
BRANCH   1   8
ATOM      8  C1  UNL d   1      -5.998   4.937   1.283  0.00  0.00     0.053 C 
ATOM      9  C   UNL d   1      -5.317   5.993   0.426  0.00  0.00     0.018 C 
ENDBRANCH   1   8
TORSDOF 1
ENDMDL
