MODEL 1
REMARK minimizedAffinity -3.22072434
REMARK minimizedRMSD -1
REMARK  1 active torsions:
REMARK  status: ('A' for Active; 'I' for Inactive)
REMARK    1  A    between atoms: C1_2  and  C2_3 
ROOT
ATOM      1  C2  UNL d   1      -4.989   3.990   4.560  0.00  0.00    -0.076 A 
ATOM      2  C3  UNL d   1      -4.867   3.412   3.285  0.00  0.00     0.004 A 
ATOM      3  C4  UNL d   1      -5.251   4.109   2.141  0.00  0.00    -0.003 A 
ATOM      4  C5  UNL d   1      -5.762   5.397   2.253  0.00  0.00     0.000 A 
ATOM      5  C6  UNL d   1      -5.874   5.994   3.509  0.00  0.00     0.000 A 
ATOM      6  C7  UNL d   1      -5.476   5.310   4.671  0.00  0.00    -0.073 A 
ATOM      7  C8  UNL d   1      -5.624   5.999   6.000  0.00  0.00     0.078 C 
ENDROOT
BRANCH   1   8
ATOM      8  C1  UNL d   1      -4.582   3.176   5.767  0.00  0.00     0.053 C 
ATOM      9  C   UNL d   1      -4.873   1.693   5.594  0.00  0.00     0.018 C 
ENDBRANCH   1   8
TORSDOF 1
ENDMDL
