MODEL 1
REMARK minimizedAffinity 9.16426849
REMARK minimizedRMSD -1
REMARK  1 active torsions:
REMARK  status: ('A' for Active; 'I' for Inactive)
REMARK    1  A    between atoms: C1_2  and  C2_3 
ROOT
ATOM      1  C2  UNL d   1       2.601   1.662   4.631  0.00  0.00    -0.076 A 
ATOM      2  C3  UNL d   1       1.562   2.602   4.521  0.00  0.00     0.004 A 
ATOM      3  C4  UNL d   1       0.293   2.222   4.087  0.00  0.00    -0.003 A 
ATOM      4  C5  UNL d   1       0.042   0.895   3.756  0.00  0.00     0.000 A 
ATOM      5  C6  UNL d   1       1.056  -0.055   3.876  0.00  0.00     0.000 A 
ATOM      6  C7  UNL d   1       2.336   0.309   4.328  0.00  0.00    -0.073 A 
ATOM      7  C8  UNL d   1       3.394  -0.756   4.433  0.00  0.00     0.078 C 
ENDROOT
BRANCH   1   8
ATOM      8  C1  UNL d   1       3.963   2.137   5.081  0.00  0.00     0.053 C 
ATOM      9  C   UNL d   1       4.670   2.968   4.022  0.00  0.00     0.018 C 
ENDBRANCH   1   8
TORSDOF 1
ENDMDL
