MODEL 1
REMARK minimizedAffinity 3.82582831
REMARK minimizedRMSD -1
REMARK  1 active torsions:
REMARK  status: ('A' for Active; 'I' for Inactive)
REMARK    1  A    between atoms: C1_2  and  C2_3 
ROOT
ATOM      1  C2  UNL d   1      -4.813   5.609   3.797  0.00  0.00    -0.076 A 
ATOM      2  C3  UNL d   1      -5.990   5.905   3.087  0.00  0.00     0.004 A 
ATOM      3  C4  UNL d   1      -5.998   5.943   1.694  0.00  0.00    -0.003 A 
ATOM      4  C5  UNL d   1      -4.829   5.684   0.987  0.00  0.00     0.000 A 
ATOM      5  C6  UNL d   1      -3.656   5.371   1.674  0.00  0.00     0.000 A 
ATOM      6  C7  UNL d   1      -3.635   5.313   3.078  0.00  0.00    -0.073 A 
ATOM      7  C8  UNL d   1      -2.341   4.977   3.767  0.00  0.00     0.078 C 
ENDROOT
BRANCH   1   8
ATOM      8  C1  UNL d   1      -4.859   5.610   5.308  0.00  0.00     0.053 C 
ATOM      9  C   UNL d   1      -4.207   4.375   5.911  0.00  0.00     0.018 C 
ENDBRANCH   1   8
TORSDOF 1
ENDMDL
