MODEL 1
REMARK minimizedAffinity 9.35452366
REMARK minimizedRMSD -1
REMARK  1 active torsions:
REMARK  status: ('A' for Active; 'I' for Inactive)
REMARK    1  A    between atoms: C1_2  and  C2_3 
ROOT
ATOM      1  C2  UNL d   1       0.928   0.033   1.336  0.00  0.00    -0.081 A 
ATOM      2  C3  UNL d   1      -0.277  -0.667   1.195  0.00  0.00     0.006 A 
ATOM      3  C4  UNL d   1      -1.480  -0.099   1.621  0.00  0.00     0.002 A 
ATOM      4  C5  UNL d   1      -1.500   1.180   2.187  0.00  0.00    -0.080 A 
ATOM      5  C6  UNL d   1      -2.789   1.813   2.621  0.00  0.00     0.076 C 
ATOM      6  C7  UNL d   1      -0.295   1.873   2.344  0.00  0.00     0.002 A 
ATOM      7  C8  UNL d   1       0.909   1.305   1.919  0.00  0.00     0.006 A 
ENDROOT
BRANCH   1   8
ATOM      8  C1  UNL d   1       2.218  -0.549   0.818  0.00  0.00     0.054 C 
ATOM      9  C   UNL d   1       2.943   0.432  -0.092  0.00  0.00     0.018 C 
ENDBRANCH   1   8
TORSDOF 1
ENDMDL
