MODEL 1
REMARK minimizedAffinity 4.63116789
REMARK minimizedRMSD -1
REMARK  1 active torsions:
REMARK  status: ('A' for Active; 'I' for Inactive)
REMARK    1  A    between atoms: C1_2  and  C2_3 
ROOT
ATOM      1  C2  UNL d   1      -2.092   0.405   0.933  0.00  0.00    -0.081 A 
ATOM      2  C3  UNL d   1      -2.506   1.469   1.744  0.00  0.00     0.006 A 
ATOM      3  C4  UNL d   1      -1.653   1.989   2.720  0.00  0.00     0.002 A 
ATOM      4  C5  UNL d   1      -0.370   1.460   2.897  0.00  0.00    -0.080 A 
ATOM      5  C6  UNL d   1       0.566   2.030   3.921  0.00  0.00     0.076 C 
ATOM      6  C7  UNL d   1       0.037   0.386   2.099  0.00  0.00     0.002 A 
ATOM      7  C8  UNL d   1      -0.815  -0.135   1.123  0.00  0.00     0.006 A 
ENDROOT
BRANCH   1   8
ATOM      8  C1  UNL d   1      -2.985  -0.116  -0.164  0.00  0.00     0.054 C 
ATOM      9  C   UNL d   1      -3.070  -1.635  -0.133  0.00  0.00     0.018 C 
ENDBRANCH   1   8
TORSDOF 1
ENDMDL
