MODEL 1
REMARK minimizedAffinity 16.381752
REMARK minimizedRMSD -1
REMARK  1 active torsions:
REMARK  status: ('A' for Active; 'I' for Inactive)
REMARK    1  A    between atoms: C1_2  and  C2_3 
ROOT
ATOM      1  C2  UNL d   1      -0.257   0.886   2.022  0.00  0.00    -0.081 A 
ATOM      2  C3  UNL d   1       0.649   1.564   1.197  0.00  0.00     0.006 A 
ATOM      3  C4  UNL d   1       1.943   1.072   1.012  0.00  0.00     0.002 A 
ATOM      4  C5  UNL d   1       2.350  -0.110   1.641  0.00  0.00    -0.080 A 
ATOM      5  C6  UNL d   1       3.726  -0.665   1.426  0.00  0.00     0.076 C 
ATOM      6  C7  UNL d   1       1.450  -0.778   2.479  0.00  0.00     0.002 A 
ATOM      7  C8  UNL d   1       0.157  -0.286   2.665  0.00  0.00     0.006 A 
ENDROOT
BRANCH   1   8
ATOM      8  C1  UNL d   1      -1.674   1.379   2.173  0.00  0.00     0.054 C 
ATOM      9  C   UNL d   1      -2.511   1.042   0.948  0.00  0.00     0.018 C 
ENDBRANCH   1   8
TORSDOF 1
ENDMDL
