MODEL 1
REMARK minimizedAffinity 1.54472911
REMARK minimizedRMSD -1
REMARK  1 active torsions:
REMARK  status: ('A' for Active; 'I' for Inactive)
REMARK    1  A    between atoms: C1_2  and  C2_3 
ROOT
ATOM      1  C2  UNL d   1      -1.768   0.553   1.201  0.00  0.00    -0.081 A 
ATOM      2  C3  UNL d   1      -0.892   1.318   0.421  0.00  0.00     0.006 A 
ATOM      3  C4  UNL d   1       0.442   0.933   0.272  0.00  0.00     0.002 A 
ATOM      4  C5  UNL d   1       0.921  -0.225   0.892  0.00  0.00    -0.080 A 
ATOM      5  C6  UNL d   1       2.344  -0.666   0.715  0.00  0.00     0.076 C 
ATOM      6  C7  UNL d   1       0.050  -0.980   1.686  0.00  0.00     0.002 A 
ATOM      7  C8  UNL d   1      -1.284  -0.596   1.836  0.00  0.00     0.006 A 
ENDROOT
BRANCH   1   8
ATOM      8  C1  UNL d   1      -3.224   0.930   1.311  0.00  0.00     0.054 C 
ATOM      9  C   UNL d   1      -3.491   1.743   2.570  0.00  0.00     0.018 C 
ENDBRANCH   1   8
TORSDOF 1
ENDMDL
