MODEL 1
REMARK minimizedAffinity 7.6534996
REMARK minimizedRMSD -1
REMARK  1 active torsions:
REMARK  status: ('A' for Active; 'I' for Inactive)
REMARK    1  A    between atoms: C1_2  and  C2_3 
ROOT
ATOM      1  C2  UNL d   1      -0.250   0.820   0.935  0.00  0.00    -0.081 A 
ATOM      2  C3  UNL d   1      -1.635   0.796   1.141  0.00  0.00     0.006 A 
ATOM      3  C4  UNL d   1      -2.186   1.323   2.312  0.00  0.00     0.002 A 
ATOM      4  C5  UNL d   1      -1.362   1.889   3.291  0.00  0.00    -0.080 A 
ATOM      5  C6  UNL d   1      -1.943   2.486   4.539  0.00  0.00     0.076 C 
ATOM      6  C7  UNL d   1       0.022   1.898   3.093  0.00  0.00     0.002 A 
ATOM      7  C8  UNL d   1       0.574   1.370   1.923  0.00  0.00     0.006 A 
ENDROOT
BRANCH   1   8
ATOM      8  C1  UNL d   1       0.341   0.311  -0.355  0.00  0.00     0.054 C 
ATOM      9  C   UNL d   1       1.855   0.466  -0.369  0.00  0.00     0.018 C 
ENDBRANCH   1   8
TORSDOF 1
ENDMDL
