MODEL 1
REMARK minimizedAffinity 0.407912225
REMARK minimizedRMSD -1
REMARK  1 active torsions:
REMARK  status: ('A' for Active; 'I' for Inactive)
REMARK    1  A    between atoms: C1_2  and  C2_3 
ROOT
ATOM      1  C2  UNL d   1      -2.090   0.217   1.091  0.00  0.00    -0.081 A 
ATOM      2  C3  UNL d   1      -0.698   0.197   0.939  0.00  0.00     0.006 A 
ATOM      3  C4  UNL d   1       0.116   0.973   1.768  0.00  0.00     0.002 A 
ATOM      4  C5  UNL d   1      -0.448   1.776   2.766  0.00  0.00    -0.080 A 
ATOM      5  C6  UNL d   1       0.417   2.591   3.681  0.00  0.00     0.076 C 
ATOM      6  C7  UNL d   1      -1.839   1.810   2.905  0.00  0.00     0.002 A 
ATOM      7  C8  UNL d   1      -2.653   1.034   2.077  0.00  0.00     0.006 A 
ENDROOT
BRANCH   1   8
ATOM      8  C1  UNL d   1      -2.966  -0.668   0.242  0.00  0.00     0.054 C 
ATOM      9  C   UNL d   1      -2.720  -2.140   0.540  0.00  0.00     0.018 C 
ENDBRANCH   1   8
TORSDOF 1
ENDMDL
