MODEL 1
REMARK minimizedAffinity 1.57028282
REMARK minimizedRMSD -1
REMARK  1 active torsions:
REMARK  status: ('A' for Active; 'I' for Inactive)
REMARK    1  A    between atoms: C1_2  and  C2_3 
ROOT
ATOM      1  C2  UNL d   1      -2.368   1.304   2.369  0.00  0.00    -0.081 A 
ATOM      2  C3  UNL d   1      -2.219   0.584   1.177  0.00  0.00     0.006 A 
ATOM      3  C4  UNL d   1      -0.949   0.223   0.722  0.00  0.00     0.002 A 
ATOM      4  C5  UNL d   1       0.192   0.568   1.454  0.00  0.00    -0.080 A 
ATOM      5  C6  UNL d   1       1.559   0.160   0.993  0.00  0.00     0.076 C 
ATOM      6  C7  UNL d   1       0.044   1.303   2.636  0.00  0.00     0.002 A 
ATOM      7  C8  UNL d   1      -1.226   1.665   3.091  0.00  0.00     0.006 A 
ENDROOT
BRANCH   1   8
ATOM      8  C1  UNL d   1      -3.741   1.639   2.895  0.00  0.00     0.054 C 
ATOM      9  C   UNL d   1      -3.919   1.151   4.325  0.00  0.00     0.018 C 
ENDBRANCH   1   8
TORSDOF 1
ENDMDL
