MODEL 1
REMARK minimizedAffinity 4.22627687
REMARK minimizedRMSD -1
REMARK  1 active torsions:
REMARK  status: ('A' for Active; 'I' for Inactive)
REMARK    1  A    between atoms: C1_2  and  C2_3 
ROOT
ATOM      1  C2  UNL d   1       0.274   0.445   1.022  0.00  0.00    -0.081 A 
ATOM      2  C3  UNL d   1       0.034   1.173   2.193  0.00  0.00     0.006 A 
ATOM      3  C4  UNL d   1      -1.264   1.564   2.530  0.00  0.00     0.002 A 
ATOM      4  C5  UNL d   1      -2.343   1.228   1.706  0.00  0.00    -0.080 A 
ATOM      5  C6  UNL d   1      -3.745   1.615   2.071  0.00  0.00     0.076 C 
ATOM      6  C7  UNL d   1      -2.101   0.516   0.526  0.00  0.00     0.002 A 
ATOM      7  C8  UNL d   1      -0.803   0.125   0.189  0.00  0.00     0.006 A 
ENDROOT
BRANCH   1   8
ATOM      8  C1  UNL d   1       1.664  -0.034   0.689  0.00  0.00     0.054 C 
ATOM      9  C   UNL d   1       2.434   1.011  -0.106  0.00  0.00     0.018 C 
ENDBRANCH   1   8
TORSDOF 1
ENDMDL
