MODEL 1
REMARK minimizedAffinity 10.9597921
REMARK minimizedRMSD -1
REMARK  1 active torsions:
REMARK  status: ('A' for Active; 'I' for Inactive)
REMARK    1  A    between atoms: C1_2  and  C2_3 
ROOT
ATOM      1  C2  UNL d   1      -0.854   0.909   1.991  0.00  0.00    -0.081 A 
ATOM      2  C3  UNL d   1       0.227   1.789   2.119  0.00  0.00     0.006 A 
ATOM      3  C4  UNL d   1       1.539   1.312   2.065  0.00  0.00     0.002 A 
ATOM      4  C5  UNL d   1       1.791  -0.051   1.875  0.00  0.00    -0.080 A 
ATOM      5  C6  UNL d   1       3.195  -0.573   1.786  0.00  0.00     0.076 C 
ATOM      6  C7  UNL d   1       0.711  -0.933   1.765  0.00  0.00     0.002 A 
ATOM      7  C8  UNL d   1      -0.601  -0.457   1.819  0.00  0.00     0.006 A 
ENDROOT
BRANCH   1   8
ATOM      8  C1  UNL d   1      -2.269   1.429   1.983  0.00  0.00     0.054 C 
ATOM      9  C   UNL d   1      -2.973   1.100   0.674  0.00  0.00     0.018 C 
ENDBRANCH   1   8
TORSDOF 1
ENDMDL
