MODEL 1
REMARK minimizedAffinity 11.0777588
REMARK minimizedRMSD -1
REMARK  1 active torsions:
REMARK  status: ('A' for Active; 'I' for Inactive)
REMARK    1  A    between atoms: C1_2  and  C2_3 
ROOT
ATOM      1  C2  UNL d   1      -1.689   0.508   0.846  0.00  0.00    -0.081 A 
ATOM      2  C3  UNL d   1      -2.313   1.431   1.694  0.00  0.00     0.006 A 
ATOM      3  C4  UNL d   1      -1.616   1.991   2.767  0.00  0.00     0.002 A 
ATOM      4  C5  UNL d   1      -0.283   1.643   3.006  0.00  0.00    -0.080 A 
ATOM      5  C6  UNL d   1       0.486   2.260   4.137  0.00  0.00     0.076 C 
ATOM      6  C7  UNL d   1       0.336   0.708   2.170  0.00  0.00     0.002 A 
ATOM      7  C8  UNL d   1      -0.360   0.147   1.097  0.00  0.00     0.006 A 
ENDROOT
BRANCH   1   8
ATOM      8  C1  UNL d   1      -2.417  -0.049  -0.350  0.00  0.00     0.054 C 
ATOM      9  C   UNL d   1      -2.858  -1.486  -0.110  0.00  0.00     0.018 C 
ENDBRANCH   1   8
TORSDOF 1
ENDMDL
