MODEL 1
REMARK minimizedAffinity 6.9372716
REMARK minimizedRMSD -1
REMARK  1 active torsions:
REMARK  status: ('A' for Active; 'I' for Inactive)
REMARK    1  A    between atoms: C1_2  and  C2_3 
ROOT
ATOM      1  C2  UNL d   1       0.694  -0.100   3.831  0.00  0.00    -0.076 A 
ATOM      2  C3  UNL d   1       0.191   0.895   2.975  0.00  0.00     0.004 A 
ATOM      3  C4  UNL d   1      -0.229   0.583   1.683  0.00  0.00    -0.003 A 
ATOM      4  C5  UNL d   1      -0.155  -0.728   1.227  0.00  0.00     0.000 A 
ATOM      5  C6  UNL d   1       0.325  -1.731   2.069  0.00  0.00     0.000 A 
ATOM      6  C7  UNL d   1       0.738  -1.437   3.380  0.00  0.00    -0.073 A 
ATOM      7  C8  UNL d   1       1.252  -2.556   4.243  0.00  0.00     0.078 C 
ENDROOT
BRANCH   1   8
ATOM      8  C1  UNL d   1       1.161   0.302   5.212  0.00  0.00     0.053 C 
ATOM      9  C   UNL d   1       0.428   1.525   5.742  0.00  0.00     0.018 C 
ENDBRANCH   1   8
TORSDOF 1
ENDMDL
