MODEL 1
REMARK minimizedAffinity 10.932395
REMARK minimizedRMSD -1
REMARK  1 active torsions:
REMARK  status: ('A' for Active; 'I' for Inactive)
REMARK    1  A    between atoms: C1_2  and  C2_3 
ROOT
ATOM      1  C2  UNL d   1       2.239  -0.646  -5.325  0.00  0.00    -0.076 A 
ATOM      2  C3  UNL d   1       1.248   0.346  -5.225  0.00  0.00     0.004 A 
ATOM      3  C4  UNL d   1       0.015   0.071  -4.635  0.00  0.00    -0.003 A 
ATOM      4  C5  UNL d   1      -0.246  -1.199  -4.134  0.00  0.00     0.000 A 
ATOM      5  C6  UNL d   1       0.732  -2.190  -4.208  0.00  0.00     0.000 A 
ATOM      6  C7  UNL d   1       1.986  -1.926  -4.786  0.00  0.00    -0.073 A 
ATOM      7  C8  UNL d   1       3.002  -3.034  -4.846  0.00  0.00     0.078 C 
ENDROOT
BRANCH   1   8
ATOM      8  C1  UNL d   1       3.546  -0.298  -6.000  0.00  0.00     0.053 C 
ATOM      9  C   UNL d   1       4.213   0.922  -5.384  0.00  0.00     0.018 C 
ENDBRANCH   1   8
TORSDOF 1
ENDMDL
