MODEL 1
REMARK minimizedAffinity 8.26058197
REMARK minimizedRMSD -1
REMARK  1 active torsions:
REMARK  status: ('A' for Active; 'I' for Inactive)
REMARK    1  A    between atoms: C1_2  and  C2_3 
ROOT
ATOM      1  C2  UNL d   1       1.556   0.811   3.258  0.00  0.00    -0.076 A 
ATOM      2  C3  UNL d   1       2.113  -0.480   3.248  0.00  0.00     0.004 A 
ATOM      3  C4  UNL d   1       1.374  -1.576   2.807  0.00  0.00    -0.003 A 
ATOM      4  C5  UNL d   1       0.066  -1.400   2.368  0.00  0.00     0.000 A 
ATOM      5  C6  UNL d   1      -0.496  -0.124   2.354  0.00  0.00     0.000 A 
ATOM      6  C7  UNL d   1       0.241   0.995   2.781  0.00  0.00    -0.073 A 
ATOM      7  C8  UNL d   1      -0.417   2.347   2.750  0.00  0.00     0.078 C 
ENDROOT
BRANCH   1   8
ATOM      8  C1  UNL d   1       2.396   1.958   3.773  0.00  0.00     0.053 C 
ATOM      9  C   UNL d   1       3.883   1.744   3.536  0.00  0.00     0.018 C 
ENDBRANCH   1   8
TORSDOF 1
ENDMDL
