MODEL 1
REMARK minimizedAffinity 8.67048359
REMARK minimizedRMSD -1
REMARK  1 active torsions:
REMARK  status: ('A' for Active; 'I' for Inactive)
REMARK    1  A    between atoms: C1_2  and  C2_3 
ROOT
ATOM      1  C2  UNL d   1      -0.015  -1.123  -3.659  0.00  0.00    -0.076 A 
ATOM      2  C3  UNL d   1      -0.128  -0.778  -2.301  0.00  0.00     0.004 A 
ATOM      3  C4  UNL d   1      -0.902  -1.542  -1.428  0.00  0.00    -0.003 A 
ATOM      4  C5  UNL d   1      -1.575  -2.663  -1.900  0.00  0.00     0.000 A 
ATOM      5  C6  UNL d   1      -1.460  -3.030  -3.240  0.00  0.00     0.000 A 
ATOM      6  C7  UNL d   1      -0.671  -2.281  -4.129  0.00  0.00    -0.073 A 
ATOM      7  C8  UNL d   1      -0.588  -2.719  -5.566  0.00  0.00     0.078 C 
ENDROOT
BRANCH   1   8
ATOM      8  C1  UNL d   1       0.816  -0.242  -4.563  0.00  0.00     0.053 C 
ATOM      9  C   UNL d   1       1.961   0.435  -3.825  0.00  0.00     0.018 C 
ENDBRANCH   1   8
TORSDOF 1
ENDMDL
