MODEL 1
REMARK minimizedAffinity 11.2335739
REMARK minimizedRMSD -1
REMARK  1 active torsions:
REMARK  status: ('A' for Active; 'I' for Inactive)
REMARK    1  A    between atoms: C1_2  and  C2_3 
ROOT
ATOM      1  C2  UNL d   1       0.651  -1.702   3.501  0.00  0.00    -0.076 A 
ATOM      2  C3  UNL d   1       1.699  -0.987   4.107  0.00  0.00     0.004 A 
ATOM      3  C4  UNL d   1       1.975   0.329   3.742  0.00  0.00    -0.003 A 
ATOM      4  C5  UNL d   1       1.206   0.953   2.766  0.00  0.00     0.000 A 
ATOM      5  C6  UNL d   1       0.152   0.265   2.167  0.00  0.00     0.000 A 
ATOM      6  C7  UNL d   1      -0.150  -1.057   2.535  0.00  0.00    -0.073 A 
ATOM      7  C8  UNL d   1      -1.295  -1.754   1.852  0.00  0.00     0.078 C 
ENDROOT
BRANCH   1   8
ATOM      8  C1  UNL d   1       0.417  -3.136   3.918  0.00  0.00     0.053 C 
ATOM      9  C   UNL d   1       1.167  -3.504   5.189  0.00  0.00     0.018 C 
ENDBRANCH   1   8
TORSDOF 1
ENDMDL
