MODEL 1
REMARK minimizedAffinity 12.8519392
REMARK minimizedRMSD -1
REMARK  1 active torsions:
REMARK  status: ('A' for Active; 'I' for Inactive)
REMARK    1  A    between atoms: C1_2  and  C2_3 
ROOT
ATOM      1  C2  UNL d   1       3.354  -0.126  -4.508  0.00  0.00    -0.076 A 
ATOM      2  C3  UNL d   1       2.315   0.819  -4.568  0.00  0.00     0.004 A 
ATOM      3  C4  UNL d   1       0.984   0.433  -4.417  0.00  0.00    -0.003 A 
ATOM      4  C5  UNL d   1       0.671  -0.905  -4.202  0.00  0.00     0.000 A 
ATOM      5  C6  UNL d   1       1.690  -1.853  -4.122  0.00  0.00     0.000 A 
ATOM      6  C7  UNL d   1       3.038  -1.478  -4.256  0.00  0.00    -0.073 A 
ATOM      7  C8  UNL d   1       4.096  -2.544  -4.166  0.00  0.00     0.078 C 
ENDROOT
BRANCH   1   8
ATOM      8  C1  UNL d   1       4.776   0.347  -4.706  0.00  0.00     0.053 C 
ATOM      9  C   UNL d   1       4.866   1.551  -5.632  0.00  0.00     0.018 C 
ENDBRANCH   1   8
TORSDOF 1
ENDMDL
