MODEL 1
REMARK minimizedAffinity 12.3714638
REMARK minimizedRMSD -1
REMARK  1 active torsions:
REMARK  status: ('A' for Active; 'I' for Inactive)
REMARK    1  A    between atoms: C1_2  and  C2_3 
ROOT
ATOM      1  C2  UNL d   1      -0.502  -1.468   2.702  0.00  0.00    -0.076 A 
ATOM      2  C3  UNL d   1      -0.407  -2.627   3.492  0.00  0.00     0.004 A 
ATOM      3  C4  UNL d   1       0.826  -3.079   3.958  0.00  0.00    -0.003 A 
ATOM      4  C5  UNL d   1       1.985  -2.379   3.642  0.00  0.00     0.000 A 
ATOM      5  C6  UNL d   1       1.908  -1.217   2.875  0.00  0.00     0.000 A 
ATOM      6  C7  UNL d   1       0.671  -0.739   2.411  0.00  0.00    -0.073 A 
ATOM      7  C8  UNL d   1       0.647   0.516   1.582  0.00  0.00     0.078 C 
ENDROOT
BRANCH   1   8
ATOM      8  C1  UNL d   1      -1.863  -1.041   2.203  0.00  0.00     0.053 C 
ATOM      9  C   UNL d   1      -2.858  -2.191   2.166  0.00  0.00     0.018 C 
ENDBRANCH   1   8
TORSDOF 1
ENDMDL
