MODEL 1
REMARK minimizedAffinity 6.51578712
REMARK minimizedRMSD -1
REMARK  1 active torsions:
REMARK  status: ('A' for Active; 'I' for Inactive)
REMARK    1  A    between atoms: C1_2  and  C2_3 
ROOT
ATOM      1  C2  UNL d   1       1.586  -0.233   3.537  0.00  0.00    -0.076 A 
ATOM      2  C3  UNL d   1       0.896   0.821   2.912  0.00  0.00     0.004 A 
ATOM      3  C4  UNL d   1      -0.385   0.633   2.396  0.00  0.00    -0.003 A 
ATOM      4  C5  UNL d   1      -0.998  -0.611   2.498  0.00  0.00     0.000 A 
ATOM      5  C6  UNL d   1      -0.335  -1.663   3.131  0.00  0.00     0.000 A 
ATOM      6  C7  UNL d   1       0.951  -1.486   3.670  0.00  0.00    -0.073 A 
ATOM      7  C8  UNL d   1       1.621  -2.656   4.337  0.00  0.00     0.078 C 
ENDROOT
BRANCH   1   8
ATOM      8  C1  UNL d   1       2.984   0.023   4.053  0.00  0.00     0.053 C 
ATOM      9  C   UNL d   1       3.741   1.035   3.208  0.00  0.00     0.018 C 
ENDBRANCH   1   8
TORSDOF 1
ENDMDL
