MODEL 1
REMARK minimizedAffinity -2.63176274
REMARK minimizedRMSD -1
REMARK  0 active torsions:
REMARK  status: ('A' for Active; 'I' for Inactive)
ROOT
ATOM      1  C1  DEN d   1       2.282  -5.406  -3.514  0.00  0.00     0.130 A 
ATOM      2  C2  DEN d   1       1.455  -5.214  -4.702  0.00  0.00    -0.031 A 
ATOM      3  C3  DEN d   1       2.328  -5.324  -5.888  0.00  0.00     0.027 A 
ATOM      4  C4  DEN d   1       4.865  -5.776  -6.000  0.00  0.00     0.027 A 
ATOM      5  C5  DEN d   1       6.000  -5.995  -5.251  0.00  0.00    -0.003 A 
ATOM      6  C6  DEN d   1       5.982  -5.999  -3.881  0.00  0.00     0.001 A 
ATOM      7  C7  DEN d   1       4.796  -5.825  -3.218  0.00  0.00     0.017 A 
ATOM      8  C8  DEN d   1       3.648  -5.596  -3.966  0.00  0.00    -0.094 A 
ATOM      9  C9  DEN d   1       3.685  -5.608  -5.350  0.00  0.00    -0.072 A 
ENDROOT
TORSDOF 0
ENDMDL
