MODEL 1
REMARK minimizedAffinity -0.489718765
REMARK minimizedRMSD -1
REMARK  0 active torsions:
REMARK  status: ('A' for Active; 'I' for Inactive)
ROOT
ATOM      1  C1  DEN d   1       1.772  -5.907  -4.603  0.00  0.00     0.130 A 
ATOM      2  C2  DEN d   1       2.218  -5.906  -5.994  0.00  0.00    -0.031 A 
ATOM      3  C3  DEN d   1       3.694  -5.938  -6.000  0.00  0.00     0.027 A 
ATOM      4  C4  DEN d   1       5.324  -5.996  -4.002  0.00  0.00     0.027 A 
ATOM      5  C5  DEN d   1       5.415  -5.998  -2.628  0.00  0.00    -0.003 A 
ATOM      6  C6  DEN d   1       4.309  -5.935  -1.822  0.00  0.00     0.001 A 
ATOM      7  C7  DEN d   1       3.060  -5.914  -2.384  0.00  0.00     0.017 A 
ATOM      8  C8  DEN d   1       2.960  -5.905  -3.769  0.00  0.00    -0.094 A 
ATOM      9  C9  DEN d   1       4.090  -5.980  -4.566  0.00  0.00    -0.072 A 
ENDROOT
TORSDOF 0
ENDMDL
