MODEL 1
REMARK minimizedAffinity -3.58489799
REMARK minimizedRMSD -1
REMARK  0 active torsions:
REMARK  status: ('A' for Active; 'I' for Inactive)
ROOT
ATOM      1  C1  DEN d   1       2.494  -5.674  -4.557  0.00  0.00     0.130 A 
ATOM      2  C2  DEN d   1       3.015  -5.836  -5.911  0.00  0.00    -0.031 A 
ATOM      3  C3  DEN d   1       4.481  -5.990  -5.821  0.00  0.00     0.027 A 
ATOM      4  C4  DEN d   1       5.986  -5.999  -3.727  0.00  0.00     0.027 A 
ATOM      5  C5  DEN d   1       6.000  -5.883  -2.354  0.00  0.00    -0.003 A 
ATOM      6  C6  DEN d   1       4.860  -5.658  -1.629  0.00  0.00     0.001 A 
ATOM      7  C7  DEN d   1       3.651  -5.586  -2.269  0.00  0.00     0.017 A 
ATOM      8  C8  DEN d   1       3.630  -5.694  -3.653  0.00  0.00    -0.094 A 
ATOM      9  C9  DEN d   1       4.791  -5.934  -4.367  0.00  0.00    -0.072 A 
ENDROOT
TORSDOF 0
ENDMDL
