MODEL 1
REMARK minimizedAffinity -0.820571184
REMARK minimizedRMSD -1
REMARK  0 active torsions:
REMARK  status: ('A' for Active; 'I' for Inactive)
ROOT
ATOM      1  C1  DEN d   1       5.742  -5.729  -4.608  0.00  0.00     0.130 A 
ATOM      2  C2  DEN d   1       5.301  -5.978  -5.978  0.00  0.00    -0.031 A 
ATOM      3  C3  DEN d   1       3.825  -5.964  -5.992  0.00  0.00     0.027 A 
ATOM      4  C4  DEN d   1       2.187  -5.578  -4.037  0.00  0.00     0.027 A 
ATOM      5  C5  DEN d   1       2.091  -5.338  -2.684  0.00  0.00    -0.003 A 
ATOM      6  C6  DEN d   1       3.195  -5.245  -1.878  0.00  0.00     0.001 A 
ATOM      7  C7  DEN d   1       4.446  -5.349  -2.427  0.00  0.00     0.017 A 
ATOM      8  C8  DEN d   1       4.551  -5.599  -3.789  0.00  0.00    -0.094 A 
ATOM      9  C9  DEN d   1       3.423  -5.677  -4.588  0.00  0.00    -0.072 A 
ENDROOT
TORSDOF 0
ENDMDL
