MODEL 1
REMARK minimizedAffinity -4.86394548
REMARK minimizedRMSD -1
REMARK  0 active torsions:
REMARK  status: ('A' for Active; 'I' for Inactive)
ROOT
ATOM      1  C1  DEN d   1       4.452  -5.137  -5.996  0.00  0.00     0.130 A 
ATOM      2  C2  DEN d   1       5.857  -4.947  -5.648  0.00  0.00    -0.031 A 
ATOM      3  C3  DEN d   1       5.999  -5.152  -4.192  0.00  0.00     0.027 A 
ATOM      4  C4  DEN d   1       4.188  -5.747  -2.454  0.00  0.00     0.027 A 
ATOM      5  C5  DEN d   1       2.847  -5.999  -2.272  0.00  0.00    -0.003 A 
ATOM      6  C6  DEN d   1       1.948  -5.948  -3.304  0.00  0.00     0.001 A 
ATOM      7  C7  DEN d   1       2.387  -5.683  -4.575  0.00  0.00     0.017 A 
ATOM      8  C8  DEN d   1       3.737  -5.420  -4.765  0.00  0.00    -0.094 A 
ATOM      9  C9  DEN d   1       4.632  -5.488  -3.710  0.00  0.00    -0.072 A 
ENDROOT
TORSDOF 0
ENDMDL
