MODEL 1
REMARK minimizedAffinity -0.225530803
REMARK minimizedRMSD -1
REMARK  0 active torsions:
REMARK  status: ('A' for Active; 'I' for Inactive)
ROOT
ATOM      1  C1  DEN d   1       2.243  -5.241  -2.808  0.00  0.00     0.130 A 
ATOM      2  C2  DEN d   1       2.989  -4.907  -1.598  0.00  0.00    -0.031 A 
ATOM      3  C3  DEN d   1       4.428  -4.925  -1.930  0.00  0.00     0.027 A 
ATOM      4  C4  DEN d   1       5.566  -5.428  -4.189  0.00  0.00     0.027 A 
ATOM      5  C5  DEN d   1       5.346  -5.775  -5.504  0.00  0.00    -0.003 A 
ATOM      6  C6  DEN d   1       4.089  -5.999  -6.000  0.00  0.00     0.001 A 
ATOM      7  C7  DEN d   1       3.000  -5.835  -5.186  0.00  0.00     0.017 A 
ATOM      8  C8  DEN d   1       3.213  -5.493  -3.857  0.00  0.00    -0.094 A 
ATOM      9  C9  DEN d   1       4.491  -5.258  -3.378  0.00  0.00    -0.072 A 
ENDROOT
TORSDOF 0
ENDMDL
