MODEL 1
REMARK minimizedAffinity -1.27479231
REMARK minimizedRMSD -1
REMARK  0 active torsions:
REMARK  status: ('A' for Active; 'I' for Inactive)
ROOT
ATOM      1  C1  DEN d   1       4.707  -5.984  -2.221  0.00  0.00     0.130 A 
ATOM      2  C2  DEN d   1       3.510  -5.999  -1.386  0.00  0.00    -0.031 A 
ATOM      3  C3  DEN d   1       2.332  -5.955  -2.276  0.00  0.00     0.027 A 
ATOM      4  C4  DEN d   1       2.247  -5.871  -4.852  0.00  0.00     0.027 A 
ATOM      5  C5  DEN d   1       3.008  -5.829  -6.000  0.00  0.00    -0.003 A 
ATOM      6  C6  DEN d   1       4.377  -5.802  -5.967  0.00  0.00     0.001 A 
ATOM      7  C7  DEN d   1       5.029  -5.862  -4.764  0.00  0.00     0.017 A 
ATOM      8  C8  DEN d   1       4.269  -5.896  -3.602  0.00  0.00    -0.094 A 
ATOM      9  C9  DEN d   1       2.886  -5.936  -3.656  0.00  0.00    -0.072 A 
ENDROOT
TORSDOF 0
ENDMDL
