MODEL 1
REMARK minimizedAffinity -3.21806741
REMARK minimizedRMSD -1
REMARK  0 active torsions:
REMARK  status: ('A' for Active; 'I' for Inactive)
ROOT
ATOM      1  C1  DEN d   1       4.144  -6.000  -5.816  0.00  0.00     0.130 A 
ATOM      2  C2  DEN d   1       5.599  -5.888  -5.765  0.00  0.00    -0.031 A 
ATOM      3  C3  DEN d   1       6.000  -5.783  -4.348  0.00  0.00     0.027 A 
ATOM      4  C4  DEN d   1       4.516  -5.789  -2.238  0.00  0.00     0.027 A 
ATOM      5  C5  DEN d   1       3.219  -5.852  -1.778  0.00  0.00    -0.003 A 
ATOM      6  C6  DEN d   1       2.147  -5.933  -2.626  0.00  0.00     0.001 A 
ATOM      7  C7  DEN d   1       2.354  -6.000  -3.978  0.00  0.00     0.017 A 
ATOM      8  C8  DEN d   1       3.658  -5.930  -4.450  0.00  0.00    -0.094 A 
ATOM      9  C9  DEN d   1       4.730  -5.860  -3.576  0.00  0.00    -0.072 A 
ENDROOT
TORSDOF 0
ENDMDL
