MODEL 1
REMARK minimizedAffinity -1.47359657
REMARK minimizedRMSD -1
REMARK  0 active torsions:
REMARK  status: ('A' for Active; 'I' for Inactive)
ROOT
ATOM      1  C1  DEN d   1       2.195   3.385   1.689  0.00  0.00     0.130 A 
ATOM      2  C2  DEN d   1       2.128   1.935   1.530  0.00  0.00    -0.031 A 
ATOM      3  C3  DEN d   1       3.405   1.364   2.004  0.00  0.00     0.027 A 
ATOM      4  C4  DEN d   1       5.466   2.578   2.968  0.00  0.00     0.027 A 
ATOM      5  C5  DEN d   1       5.998   3.809   3.285  0.00  0.00    -0.003 A 
ATOM      6  C6  DEN d   1       5.318   4.977   3.063  0.00  0.00     0.001 A 
ATOM      7  C7  DEN d   1       4.049   4.937   2.549  0.00  0.00     0.017 A 
ATOM      8  C8  DEN d   1       3.509   3.700   2.220  0.00  0.00    -0.094 A 
ATOM      9  C9  DEN d   1       4.207   2.530   2.463  0.00  0.00    -0.072 A 
ENDROOT
TORSDOF 0
ENDMDL
