MODEL 1
REMARK minimizedAffinity 0.361397862
REMARK minimizedRMSD -1
REMARK  0 active torsions:
REMARK  status: ('A' for Active; 'I' for Inactive)
ROOT
ATOM      1  C1  DEN d   1       2.588  -5.233  -2.324  0.00  0.00     0.130 A 
ATOM      2  C2  DEN d   1       3.768  -5.167  -1.466  0.00  0.00    -0.031 A 
ATOM      3  C3  DEN d   1       4.959  -5.397  -2.309  0.00  0.00     0.027 A 
ATOM      4  C4  DEN d   1       5.090  -5.841  -4.847  0.00  0.00     0.027 A 
ATOM      5  C5  DEN d   1       4.350  -5.999  -5.998  0.00  0.00    -0.003 A 
ATOM      6  C6  DEN d   1       2.982  -5.948  -6.000  0.00  0.00     0.001 A 
ATOM      7  C7  DEN d   1       2.311  -5.688  -4.834  0.00  0.00     0.017 A 
ATOM      8  C8  DEN d   1       3.049  -5.534  -3.668  0.00  0.00    -0.094 A 
ATOM      9  C9  DEN d   1       4.432  -5.577  -3.689  0.00  0.00    -0.072 A 
ENDROOT
TORSDOF 0
ENDMDL
