MODEL 1
REMARK minimizedAffinity -2.96979713
REMARK minimizedRMSD -1
REMARK  0 active torsions:
REMARK  status: ('A' for Active; 'I' for Inactive)
ROOT
ATOM      1  C1  DEN d   1       2.518  -5.283  -3.157  0.00  0.00     0.130 A 
ATOM      2  C2  DEN d   1       3.012  -4.630  -1.947  0.00  0.00    -0.031 A 
ATOM      3  C3  DEN d   1       4.451  -4.353  -2.133  0.00  0.00     0.027 A 
ATOM      4  C4  DEN d   1       5.953  -4.864  -4.166  0.00  0.00     0.027 A 
ATOM      5  C5  DEN d   1       5.985  -5.420  -5.426  0.00  0.00    -0.003 A 
ATOM      6  C6  DEN d   1       4.882  -5.995  -5.999  0.00  0.00     0.001 A 
ATOM      7  C7  DEN d   1       3.687  -5.987  -5.330  0.00  0.00     0.017 A 
ATOM      8  C8  DEN d   1       3.648  -5.435  -4.056  0.00  0.00    -0.094 A 
ATOM      9  C9  DEN d   1       4.771  -4.848  -3.499  0.00  0.00    -0.072 A 
ENDROOT
TORSDOF 0
ENDMDL
