MODEL 1
REMARK minimizedAffinity -3.821913
REMARK minimizedRMSD -1
REMARK  0 active torsions:
REMARK  status: ('A' for Active; 'I' for Inactive)
ROOT
ATOM      1  C1  DEN d   1       4.653  -5.865  -5.999  0.00  0.00     0.130 A 
ATOM      2  C2  DEN d   1       5.995  -5.381  -5.687  0.00  0.00    -0.031 A 
ATOM      3  C3  DEN d   1       5.999  -4.922  -4.283  0.00  0.00     0.027 A 
ATOM      4  C4  DEN d   1       4.070  -4.920  -2.571  0.00  0.00     0.027 A 
ATOM      5  C5  DEN d   1       2.741  -5.224  -2.377  0.00  0.00    -0.003 A 
ATOM      6  C6  DEN d   1       1.953  -5.727  -3.379  0.00  0.00     0.001 A 
ATOM      7  C7  DEN d   1       2.500  -5.984  -4.608  0.00  0.00     0.017 A 
ATOM      8  C8  DEN d   1       3.838  -5.673  -4.813  0.00  0.00    -0.094 A 
ATOM      9  C9  DEN d   1       4.621  -5.176  -3.785  0.00  0.00    -0.072 A 
ENDROOT
TORSDOF 0
ENDMDL
