MODEL 1
REMARK minimizedAffinity -2.81995893
REMARK minimizedRMSD -1
REMARK  0 active torsions:
REMARK  status: ('A' for Active; 'I' for Inactive)
ROOT
ATOM      1  C1  DEN d   1       4.127  -4.856  -6.000  0.00  0.00     0.130 A 
ATOM      2  C2  DEN d   1       5.549  -4.531  -5.929  0.00  0.00    -0.031 A 
ATOM      3  C3  DEN d   1       5.998  -4.744  -4.539  0.00  0.00     0.027 A 
ATOM      4  C4  DEN d   1       4.638  -5.547  -2.500  0.00  0.00     0.027 A 
ATOM      5  C5  DEN d   1       3.390  -5.936  -2.065  0.00  0.00    -0.003 A 
ATOM      6  C6  DEN d   1       2.302  -5.959  -2.897  0.00  0.00     0.001 A 
ATOM      7  C7  DEN d   1       2.450  -5.630  -4.219  0.00  0.00     0.017 A 
ATOM      8  C8  DEN d   1       3.704  -5.230  -4.662  0.00  0.00    -0.094 A 
ATOM      9  C9  DEN d   1       4.794  -5.225  -3.809  0.00  0.00    -0.072 A 
ENDROOT
TORSDOF 0
ENDMDL
