MODEL 1
REMARK minimizedAffinity -3.79227042
REMARK minimizedRMSD -1
REMARK  0 active torsions:
REMARK  status: ('A' for Active; 'I' for Inactive)
ROOT
ATOM      1  C1  DEN d   1       4.129  -4.742  -2.125  0.00  0.00     0.130 A 
ATOM      2  C2  DEN d   1       5.565  -4.498  -2.224  0.00  0.00    -0.031 A 
ATOM      3  C3  DEN d   1       5.987  -4.809  -3.605  0.00  0.00     0.027 A 
ATOM      4  C4  DEN d   1       4.561  -5.634  -5.590  0.00  0.00     0.027 A 
ATOM      5  C5  DEN d   1       3.293  -5.997  -5.987  0.00  0.00    -0.003 A 
ATOM      6  C6  DEN d   1       2.230  -6.000  -5.124  0.00  0.00     0.001 A 
ATOM      7  C7  DEN d   1       2.407  -5.589  -3.829  0.00  0.00     0.017 A 
ATOM      8  C8  DEN d   1       3.684  -5.228  -3.419  0.00  0.00    -0.094 A 
ATOM      9  C9  DEN d   1       4.743  -5.220  -4.311  0.00  0.00    -0.072 A 
ENDROOT
TORSDOF 0
ENDMDL
