MODEL 1
REMARK minimizedAffinity -2.99455929
REMARK minimizedRMSD -1
REMARK  0 active torsions:
REMARK  status: ('A' for Active; 'I' for Inactive)
ROOT
ATOM      1  C1  DEN d   1       2.419  -5.999  -4.618  0.00  0.00     0.130 A 
ATOM      2  C2  DEN d   1       2.891  -6.000  -6.000  0.00  0.00    -0.031 A 
ATOM      3  C3  DEN d   1       4.359  -5.836  -5.981  0.00  0.00     0.027 A 
ATOM      4  C4  DEN d   1       5.938  -5.589  -3.957  0.00  0.00     0.027 A 
ATOM      5  C5  DEN d   1       5.999  -5.518  -2.583  0.00  0.00    -0.003 A 
ATOM      6  C6  DEN d   1       4.877  -5.568  -1.799  0.00  0.00     0.001 A 
ATOM      7  C7  DEN d   1       3.649  -5.738  -2.381  0.00  0.00     0.017 A 
ATOM      8  C8  DEN d   1       3.579  -5.802  -3.766  0.00  0.00    -0.094 A 
ATOM      9  C9  DEN d   1       4.726  -5.762  -4.541  0.00  0.00    -0.072 A 
ENDROOT
TORSDOF 0
ENDMDL
