MODEL 1
REMARK minimizedAffinity -2.58582377
REMARK minimizedRMSD -1
REMARK  0 active torsions:
REMARK  status: ('A' for Active; 'I' for Inactive)
ROOT
ATOM      1  C1  DEN d   1       2.521   3.670   1.105  0.00  0.00     0.130 A 
ATOM      2  C2  DEN d   1       1.576   2.556   1.124  0.00  0.00    -0.031 A 
ATOM      3  C3  DEN d   1       2.249   1.397   1.743  0.00  0.00     0.027 A 
ATOM      4  C4  DEN d   1       4.647   1.221   2.675  0.00  0.00     0.027 A 
ATOM      5  C5  DEN d   1       5.829   1.901   2.870  0.00  0.00    -0.003 A 
ATOM      6  C6  DEN d   1       6.000   3.198   2.464  0.00  0.00     0.001 A 
ATOM      7  C7  DEN d   1       4.958   3.870   1.881  0.00  0.00     0.017 A 
ATOM      8  C8  DEN d   1       3.766   3.188   1.674  0.00  0.00    -0.094 A 
ATOM      9  C9  DEN d   1       3.609   1.881   2.103  0.00  0.00    -0.072 A 
ENDROOT
TORSDOF 0
ENDMDL
