MODEL 1
REMARK minimizedAffinity 0.120058931
REMARK minimizedRMSD -1
REMARK  0 active torsions:
REMARK  status: ('A' for Active; 'I' for Inactive)
ROOT
ATOM      1  C   UNL d   1      -2.572  -0.628  -1.488  0.00  0.00    -0.002 A 
ATOM      2  C1  UNL d   1      -2.765  -1.166  -0.224  0.00  0.00     0.010 A 
ATOM      3  C2  UNL d   1      -1.733  -1.159   0.716  0.00  0.00     0.041 A 
ATOM      4  C3  UNL d   1      -0.492  -0.594   0.361  0.00  0.00    -0.075 A 
ATOM      5  S   UNL d   1       0.916  -0.474   1.349  0.00  0.00     0.015 SA
ATOM      6  C4  UNL d   1       1.806   0.296   0.116  0.00  0.00     0.022 A 
ATOM      7  C5  UNL d   1       1.063   0.464  -1.028  0.00  0.00     0.026 A 
ATOM      8  C6  UNL d   1      -0.274  -0.045  -0.906  0.00  0.00    -0.082 A 
ATOM      9  C7  UNL d   1      -1.340  -0.069  -1.837  0.00  0.00     0.045 A 
ENDROOT
TORSDOF 0
ENDMDL
