MODEL 1
REMARK minimizedAffinity 0.016913671
REMARK minimizedRMSD -1
REMARK  0 active torsions:
REMARK  status: ('A' for Active; 'I' for Inactive)
ROOT
ATOM      1  C   UNL d   1      -2.538   0.436  -1.118  0.00  0.00    -0.002 A 
ATOM      2  C1  UNL d   1      -3.006  -0.495  -0.202  0.00  0.00     0.010 A 
ATOM      3  C2  UNL d   1      -2.114  -1.267   0.545  0.00  0.00     0.041 A 
ATOM      4  C3  UNL d   1      -0.730  -1.084   0.355  0.00  0.00    -0.075 A 
ATOM      5  S   UNL d   1       0.548  -1.916   1.159  0.00  0.00     0.015 SA
ATOM      6  C4  UNL d   1       1.746  -1.055   0.306  0.00  0.00     0.022 A 
ATOM      7  C5  UNL d   1       1.201  -0.150  -0.575  0.00  0.00     0.026 A 
ATOM      8  C6  UNL d   1      -0.235  -0.152  -0.561  0.00  0.00    -0.082 A 
ATOM      9  C7  UNL d   1      -1.165   0.615  -1.303  0.00  0.00     0.045 A 
ENDROOT
TORSDOF 0
ENDMDL
