MODEL 1
REMARK minimizedAffinity -4.18668461
REMARK minimizedRMSD -1
REMARK  0 active torsions:
REMARK  status: ('A' for Active; 'I' for Inactive)
ROOT
ATOM      1  C   UNL d   1      -2.654  -2.252   1.690  0.00  0.00    -0.002 A 
ATOM      2  C1  UNL d   1      -3.492  -1.751   0.704  0.00  0.00     0.010 A 
ATOM      3  C2  UNL d   1      -2.978  -0.983  -0.343  0.00  0.00     0.041 A 
ATOM      4  C3  UNL d   1      -1.593  -0.727  -0.384  0.00  0.00    -0.075 A 
ATOM      5  S   UNL d   1      -0.740   0.187  -1.571  0.00  0.00     0.015 SA
ATOM      6  C4  UNL d   1       0.757  -0.067  -0.798  0.00  0.00     0.022 A 
ATOM      7  C5  UNL d   1       0.628  -0.828   0.339  0.00  0.00     0.026 A 
ATOM      8  C6  UNL d   1      -0.729  -1.221   0.597  0.00  0.00    -0.082 A 
ATOM      9  C7  UNL d   1      -1.280  -1.995   1.646  0.00  0.00     0.045 A 
ENDROOT
TORSDOF 0
ENDMDL
