MODEL 1
REMARK minimizedAffinity -4.56462002
REMARK minimizedRMSD -1
REMARK  0 active torsions:
REMARK  status: ('A' for Active; 'I' for Inactive)
ROOT
ATOM      1  C   UNL d   1      -3.005  -0.702  -1.049  0.00  0.00    -0.002 A 
ATOM      2  C1  UNL d   1      -2.341   0.304  -1.737  0.00  0.00     0.010 A 
ATOM      3  C2  UNL d   1      -0.992   0.562  -1.491  0.00  0.00     0.041 A 
ATOM      4  C3  UNL d   1      -0.312  -0.216  -0.534  0.00  0.00    -0.075 A 
ATOM      5  S   UNL d   1       1.342  -0.080  -0.067  0.00  0.00     0.015 SA
ATOM      6  C4  UNL d   1       1.207  -1.355   1.056  0.00  0.00     0.022 A 
ATOM      7  C5  UNL d   1      -0.062  -1.882   1.088  0.00  0.00     0.026 A 
ATOM      8  C6  UNL d   1      -0.958  -1.235   0.172  0.00  0.00    -0.082 A 
ATOM      9  C7  UNL d   1      -2.328  -1.472  -0.099  0.00  0.00     0.045 A 
ENDROOT
TORSDOF 0
ENDMDL
