MODEL 1
REMARK minimizedAffinity -3.78761196
REMARK minimizedRMSD -1
REMARK  0 active torsions:
REMARK  status: ('A' for Active; 'I' for Inactive)
ROOT
ATOM      1  C   UNL d   1      -2.922  -0.791  -0.704  0.00  0.00    -0.002 A 
ATOM      2  C1  UNL d   1      -2.743  -0.162   0.520  0.00  0.00     0.010 A 
ATOM      3  C2  UNL d   1      -1.521   0.431   0.842  0.00  0.00     0.041 A 
ATOM      4  C3  UNL d   1      -0.472   0.384  -0.098  0.00  0.00    -0.075 A 
ATOM      5  S   UNL d   1       1.111   1.044   0.078  0.00  0.00     0.015 SA
ATOM      6  C4  UNL d   1       1.587   0.507  -1.468  0.00  0.00     0.022 A 
ATOM      7  C5  UNL d   1       0.575  -0.161  -2.116  0.00  0.00     0.026 A 
ATOM      8  C6  UNL d   1      -0.629  -0.242  -1.337  0.00  0.00    -0.082 A 
ATOM      9  C7  UNL d   1      -1.879  -0.836  -1.633  0.00  0.00     0.045 A 
ENDROOT
TORSDOF 0
ENDMDL
