MODEL 1
REMARK minimizedAffinity 1.80965579
REMARK minimizedRMSD -1
REMARK  0 active torsions:
REMARK  status: ('A' for Active; 'I' for Inactive)
ROOT
ATOM      1  C   UNL d   1       1.737  -0.210   1.097  0.00  0.00    -0.002 A 
ATOM      2  C1  UNL d   1       0.884  -1.115   1.712  0.00  0.00     0.010 A 
ATOM      3  C2  UNL d   1      -0.365  -1.403   1.158  0.00  0.00     0.041 A 
ATOM      4  C3  UNL d   1      -0.745  -0.760  -0.037  0.00  0.00    -0.075 A 
ATOM      5  S   UNL d   1      -2.226  -0.957  -0.897  0.00  0.00     0.015 SA
ATOM      6  C4  UNL d   1      -1.761   0.155  -2.102  0.00  0.00     0.022 A 
ATOM      7  C5  UNL d   1      -0.509   0.674  -1.869  0.00  0.00     0.026 A 
ATOM      8  C6  UNL d   1       0.097   0.154  -0.675  0.00  0.00    -0.082 A 
ATOM      9  C7  UNL d   1       1.357   0.425  -0.089  0.00  0.00     0.045 A 
ENDROOT
TORSDOF 0
ENDMDL
