MODEL 1
REMARK minimizedAffinity -5.28078842
REMARK minimizedRMSD -1
REMARK  0 active torsions:
REMARK  status: ('A' for Active; 'I' for Inactive)
ROOT
ATOM      1  C   UNL d   1      -3.295  -1.764  -0.384  0.00  0.00    -0.002 A 
ATOM      2  C1  UNL d   1      -2.795  -2.636   0.573  0.00  0.00     0.010 A 
ATOM      3  C2  UNL d   1      -1.491  -2.494   1.051  0.00  0.00     0.041 A 
ATOM      4  C3  UNL d   1      -0.690  -1.450   0.548  0.00  0.00    -0.075 A 
ATOM      5  S   UNL d   1       0.936  -1.082   0.987  0.00  0.00     0.015 SA
ATOM      6  C4  UNL d   1       1.005   0.241  -0.085  0.00  0.00     0.022 A 
ATOM      7  C5  UNL d   1      -0.175   0.413  -0.769  0.00  0.00     0.026 A 
ATOM      8  C6  UNL d   1      -1.172  -0.558  -0.415  0.00  0.00    -0.082 A 
ATOM      9  C7  UNL d   1      -2.498  -0.729  -0.881  0.00  0.00     0.045 A 
ENDROOT
TORSDOF 0
ENDMDL
