MODEL 1
REMARK minimizedAffinity -1.2228533
REMARK minimizedRMSD -1
REMARK  0 active torsions:
REMARK  status: ('A' for Active; 'I' for Inactive)
ROOT
ATOM      1  C   UNL d   1      -3.153  -0.717  -0.511  0.00  0.00    -0.002 A 
ATOM      2  C1  UNL d   1      -2.558  -0.068  -1.583  0.00  0.00     0.010 A 
ATOM      3  C2  UNL d   1      -1.204   0.272  -1.544  0.00  0.00     0.041 A 
ATOM      4  C3  UNL d   1      -0.451  -0.055  -0.399  0.00  0.00    -0.075 A 
ATOM      5  S   UNL d   1       1.221   0.262  -0.129  0.00  0.00     0.015 SA
ATOM      6  C4  UNL d   1       1.185  -0.457   1.416  0.00  0.00     0.022 A 
ATOM      7  C5  UNL d   1      -0.065  -0.933   1.734  0.00  0.00     0.026 A 
ATOM      8  C6  UNL d   1      -1.029  -0.710   0.693  0.00  0.00    -0.082 A 
ATOM      9  C7  UNL d   1      -2.403  -1.040   0.623  0.00  0.00     0.045 A 
ENDROOT
TORSDOF 0
ENDMDL
