MODEL 1
REMARK minimizedAffinity -2.67561531
REMARK minimizedRMSD -1
REMARK  0 active torsions:
REMARK  status: ('A' for Active; 'I' for Inactive)
ROOT
ATOM      1  C   UNL d   1       2.807   2.576   1.651  0.00  0.00    -0.002 A 
ATOM      2  C1  UNL d   1       2.980   2.808   0.294  0.00  0.00     0.010 A 
ATOM      3  C2  UNL d   1       2.239   2.092  -0.649  0.00  0.00     0.041 A 
ATOM      4  C3  UNL d   1       1.313   1.130  -0.200  0.00  0.00    -0.075 A 
ATOM      5  S   UNL d   1       0.295   0.134  -1.172  0.00  0.00     0.015 SA
ATOM      6  C4  UNL d   1      -0.393  -0.623   0.192  0.00  0.00     0.022 A 
ATOM      7  C5  UNL d   1       0.130  -0.139   1.368  0.00  0.00     0.026 A 
ATOM      8  C6  UNL d   1       1.121   0.879   1.162  0.00  0.00    -0.082 A 
ATOM      9  C7  UNL d   1       1.887   1.621   2.093  0.00  0.00     0.045 A 
ENDROOT
TORSDOF 0
ENDMDL
