MODEL 1
REMARK minimizedAffinity -3.28705168
REMARK minimizedRMSD -1
REMARK  0 active torsions:
REMARK  status: ('A' for Active; 'I' for Inactive)
ROOT
ATOM      1  C   UNL d   1      -3.188  -2.242   0.184  0.00  0.00    -0.002 A 
ATOM      2  C1  UNL d   1      -3.586  -1.658  -1.009  0.00  0.00     0.010 A 
ATOM      3  C2  UNL d   1      -2.812  -0.659  -1.604  0.00  0.00     0.041 A 
ATOM      4  C3  UNL d   1      -1.618  -0.256  -0.973  0.00  0.00    -0.075 A 
ATOM      5  S   UNL d   1      -0.510   0.947  -1.518  0.00  0.00     0.015 SA
ATOM      6  C4  UNL d   1       0.518   0.713  -0.179  0.00  0.00     0.022 A 
ATOM      7  C5  UNL d   1       0.043  -0.256   0.673  0.00  0.00     0.026 A 
ATOM      8  C6  UNL d   1      -1.196  -0.830   0.229  0.00  0.00    -0.082 A 
ATOM      9  C7  UNL d   1      -2.003  -1.839   0.807  0.00  0.00     0.045 A 
ENDROOT
TORSDOF 0
ENDMDL
