MODEL 1
REMARK minimizedAffinity -1.67868602
REMARK minimizedRMSD -1
REMARK  0 active torsions:
REMARK  status: ('A' for Active; 'I' for Inactive)
ROOT
ATOM      1  C   UNL d   1       3.351   3.092   0.110  0.00  0.00    -0.002 A 
ATOM      2  C1  UNL d   1       2.183   3.841   0.059  0.00  0.00     0.010 A 
ATOM      3  C2  UNL d   1       0.937   3.211   0.026  0.00  0.00     0.041 A 
ATOM      4  C3  UNL d   1       0.883   1.804   0.048  0.00  0.00    -0.075 A 
ATOM      5  S   UNL d   1      -0.530   0.817   0.016  0.00  0.00     0.015 SA
ATOM      6  C4  UNL d   1       0.383  -0.622   0.072  0.00  0.00     0.022 A 
ATOM      7  C5  UNL d   1       1.734  -0.373   0.113  0.00  0.00     0.026 A 
ATOM      8  C6  UNL d   1       2.045   1.028   0.101  0.00  0.00    -0.082 A 
ATOM      9  C7  UNL d   1       3.293   1.696   0.132  0.00  0.00     0.045 A 
ENDROOT
TORSDOF 0
ENDMDL
