MODEL 1
REMARK minimizedAffinity -2.01061368
REMARK minimizedRMSD -1
REMARK  0 active torsions:
REMARK  status: ('A' for Active; 'I' for Inactive)
ROOT
ATOM      1  C   UNL d   1      -3.097  -0.704  -0.499  0.00  0.00    -0.002 A 
ATOM      2  C1  UNL d   1      -2.897  -1.558   0.577  0.00  0.00     0.010 A 
ATOM      3  C2  UNL d   1      -1.631  -1.692   1.151  0.00  0.00     0.041 A 
ATOM      4  C3  UNL d   1      -0.560  -0.946   0.621  0.00  0.00    -0.075 A 
ATOM      5  S   UNL d   1       1.077  -0.949   1.163  0.00  0.00     0.015 SA
ATOM      6  C4  UNL d   1       1.549   0.183  -0.020  0.00  0.00     0.022 A 
ATOM      7  C5  UNL d   1       0.496   0.565  -0.817  0.00  0.00     0.026 A 
ATOM      8  C6  UNL d   1      -0.736  -0.079  -0.461  0.00  0.00    -0.082 A 
ATOM      9  C7  UNL d   1      -2.031   0.035  -1.021  0.00  0.00     0.045 A 
ENDROOT
TORSDOF 0
ENDMDL
