MODEL 1
REMARK minimizedAffinity -4.05147028
REMARK minimizedRMSD -1
REMARK  0 active torsions:
REMARK  status: ('A' for Active; 'I' for Inactive)
ROOT
ATOM      1  C   UNL d   1       1.332   5.240   4.705  0.00  0.00     0.078 C 
ATOM      2  C1  UNL d   1       2.693   4.993   4.124  0.00  0.00    -0.077 A 
ATOM      3  C2  UNL d   1       3.667   5.999   4.116  0.00  0.00    -0.001 A 
ATOM      4  C3  UNL d   1       4.926   5.758   3.564  0.00  0.00     0.003 A 
ATOM      5  C4  UNL d   1       5.222   4.512   3.014  0.00  0.00    -0.005 A 
ATOM      6  C5  UNL d   1       4.258   3.506   3.016  0.00  0.00     0.003 A 
ATOM      7  C6  UNL d   1       2.999   3.745   3.568  0.00  0.00    -0.001 A 
ENDROOT
TORSDOF 0
ENDMDL
