MODEL 1
REMARK minimizedAffinity -0.126260623
REMARK minimizedRMSD -1
REMARK  0 active torsions:
REMARK  status: ('A' for Active; 'I' for Inactive)
ROOT
ATOM      1  C   UNL d   1       4.595   2.913   1.891  0.00  0.00     0.078 C 
ATOM      2  C1  UNL d   1       4.148   2.003   0.786  0.00  0.00    -0.077 A 
ATOM      3  C2  UNL d   1       3.268   0.943   1.038  0.00  0.00    -0.001 A 
ATOM      4  C3  UNL d   1       2.867   0.097   0.002  0.00  0.00     0.003 A 
ATOM      5  C4  UNL d   1       3.342   0.302  -1.292  0.00  0.00    -0.005 A 
ATOM      6  C5  UNL d   1       4.220   1.353  -1.551  0.00  0.00     0.003 A 
ATOM      7  C6  UNL d   1       4.622   2.199  -0.517  0.00  0.00    -0.001 A 
ENDROOT
TORSDOF 0
ENDMDL
