MODEL 1
REMARK minimizedAffinity 3.85742736
REMARK minimizedRMSD -1
REMARK  0 active torsions:
REMARK  status: ('A' for Active; 'I' for Inactive)
ROOT
ATOM      1  C   UNL d   1       0.568   5.997   5.944  0.00  0.00     0.078 C 
ATOM      2  C1  UNL d   1       0.565   5.991   4.444  0.00  0.00    -0.077 A 
ATOM      3  C2  UNL d   1       1.764   5.993   3.721  0.00  0.00    -0.001 A 
ATOM      4  C3  UNL d   1       1.746   5.997   2.325  0.00  0.00     0.003 A 
ATOM      5  C4  UNL d   1       0.532   5.999   1.641  0.00  0.00    -0.005 A 
ATOM      6  C5  UNL d   1      -0.666   5.999   2.352  0.00  0.00     0.003 A 
ATOM      7  C6  UNL d   1      -0.650   5.996   3.748  0.00  0.00    -0.001 A 
ENDROOT
TORSDOF 0
ENDMDL
