MODEL 1
REMARK minimizedAffinity -2.06583691
REMARK minimizedRMSD -1
REMARK  0 active torsions:
REMARK  status: ('A' for Active; 'I' for Inactive)
ROOT
ATOM      1  C   UNL d   1      -1.875   5.977   3.758  0.00  0.00     0.078 C 
ATOM      2  C1  UNL d   1      -0.390   5.989   3.962  0.00  0.00    -0.077 A 
ATOM      3  C2  UNL d   1       0.488   5.979   2.871  0.00  0.00    -0.001 A 
ATOM      4  C3  UNL d   1       1.869   5.981   3.076  0.00  0.00     0.003 A 
ATOM      5  C4  UNL d   1       2.384   5.992   4.371  0.00  0.00    -0.005 A 
ATOM      6  C5  UNL d   1       1.518   6.000   5.462  0.00  0.00     0.003 A 
ATOM      7  C6  UNL d   1       0.137   5.998   5.259  0.00  0.00    -0.001 A 
ENDROOT
TORSDOF 0
ENDMDL
