MODEL 1
REMARK minimizedAffinity -3.99051976
REMARK minimizedRMSD -1
REMARK  0 active torsions:
REMARK  status: ('A' for Active; 'I' for Inactive)
ROOT
ATOM      1  C   UNL d   1       0.373   5.884   3.430  0.00  0.00     0.078 C 
ATOM      2  C1  UNL d   1       1.553   5.327   4.169  0.00  0.00    -0.077 A 
ATOM      3  C2  UNL d   1       2.166   4.137   3.758  0.00  0.00    -0.001 A 
ATOM      4  C3  UNL d   1       3.257   3.625   4.462  0.00  0.00     0.003 A 
ATOM      5  C4  UNL d   1       3.746   4.297   5.581  0.00  0.00    -0.005 A 
ATOM      6  C5  UNL d   1       3.141   5.481   5.998  0.00  0.00     0.003 A 
ATOM      7  C6  UNL d   1       2.050   5.994   5.296  0.00  0.00    -0.001 A 
ENDROOT
TORSDOF 0
ENDMDL
