MODEL 1
REMARK minimizedAffinity 1.85279286
REMARK minimizedRMSD -1
REMARK  0 active torsions:
REMARK  status: ('A' for Active; 'I' for Inactive)
ROOT
ATOM      1  C   UNL d   1       2.775  -2.587  -0.158  0.00  0.00     0.078 C 
ATOM      2  C1  UNL d   1       2.936  -1.105  -0.318  0.00  0.00    -0.077 A 
ATOM      3  C2  UNL d   1       4.178  -0.545  -0.642  0.00  0.00    -0.001 A 
ATOM      4  C3  UNL d   1       4.315   0.838  -0.778  0.00  0.00     0.003 A 
ATOM      5  C4  UNL d   1       3.214   1.672  -0.591  0.00  0.00    -0.005 A 
ATOM      6  C5  UNL d   1       1.975   1.124  -0.266  0.00  0.00     0.003 A 
ATOM      7  C6  UNL d   1       1.836  -0.258  -0.130  0.00  0.00    -0.001 A 
ENDROOT
TORSDOF 0
ENDMDL
