MODEL 1
REMARK minimizedAffinity 1.38026202
REMARK minimizedRMSD -1
REMARK  0 active torsions:
REMARK  status: ('A' for Active; 'I' for Inactive)
ROOT
ATOM      1  C   UNL d   1       3.747   1.882   5.992  0.00  0.00     0.078 C 
ATOM      2  C1  UNL d   1       3.806   3.234   5.345  0.00  0.00    -0.077 A 
ATOM      3  C2  UNL d   1       3.312   4.369   6.000  0.00  0.00    -0.001 A 
ATOM      4  C3  UNL d   1       3.366   5.619   5.382  0.00  0.00     0.003 A 
ATOM      5  C4  UNL d   1       3.911   5.746   4.106  0.00  0.00    -0.005 A 
ATOM      6  C5  UNL d   1       4.403   4.622   3.446  0.00  0.00     0.003 A 
ATOM      7  C6  UNL d   1       4.351   3.371   4.062  0.00  0.00    -0.001 A 
ENDROOT
TORSDOF 0
ENDMDL
