MODEL 1
REMARK minimizedAffinity 4.12345839
REMARK minimizedRMSD -1
REMARK  0 active torsions:
REMARK  status: ('A' for Active; 'I' for Inactive)
ROOT
ATOM      1  C   UNL d   1      -2.356  -1.507   1.421  0.00  0.00     0.078 C 
ATOM      2  C1  UNL d   1      -0.943  -1.185   1.036  0.00  0.00    -0.077 A 
ATOM      3  C2  UNL d   1      -0.137  -0.384   1.855  0.00  0.00    -0.001 A 
ATOM      4  C3  UNL d   1       1.173  -0.084   1.480  0.00  0.00     0.003 A 
ATOM      5  C4  UNL d   1       1.690  -0.581   0.284  0.00  0.00    -0.005 A 
ATOM      6  C5  UNL d   1       0.895  -1.377  -0.538  0.00  0.00     0.003 A 
ATOM      7  C6  UNL d   1      -0.416  -1.677  -0.164  0.00  0.00    -0.001 A 
ENDROOT
TORSDOF 0
ENDMDL
