MODEL 1
REMARK minimizedAffinity -3.92795181
REMARK minimizedRMSD -1
REMARK  0 active torsions:
REMARK  status: ('A' for Active; 'I' for Inactive)
ROOT
ATOM      1  O1  BZF d   1       2.187  -1.126   0.338  0.00  0.00    -0.204 OA
ATOM      2  C2  BZF d   1       1.238  -2.110   0.536  0.00  0.00     0.174 A 
ATOM      3  C3  BZF d   1       0.024  -1.568   0.758  0.00  0.00    -0.012 A 
ATOM      4  C3A BZF d   1       0.208  -0.157   0.603  0.00  0.00    -0.107 A 
ATOM      5  C4  BZF d   1      -0.634   0.915   0.686  0.00  0.00     0.055 A 
ATOM      6  C5  BZF d   1      -0.124   2.167   0.555  0.00  0.00    -0.016 A 
ATOM      7  C6  BZF d   1       1.222   2.385   0.346  0.00  0.00     0.022 A 
ATOM      8  C7  BZF d   1       2.096   1.353   0.252  0.00  0.00     0.029 A 
ATOM      9  C7A BZF d   1       1.579   0.085   0.351  0.00  0.00     0.058 A 
ENDROOT
TORSDOF 0
ENDMDL
