MODEL 1
REMARK minimizedAffinity 5.77748728
REMARK minimizedRMSD -1
REMARK  0 active torsions:
REMARK  status: ('A' for Active; 'I' for Inactive)
ROOT
ATOM      1  O1  BZF d   1       2.169  -1.946  -1.567  0.00  0.00    -0.204 OA
ATOM      2  C2  BZF d   1       2.874  -1.040  -0.799  0.00  0.00     0.174 A 
ATOM      3  C3  BZF d   1       2.445  -1.061   0.480  0.00  0.00    -0.012 A 
ATOM      4  C3A BZF d   1       1.471  -2.108   0.533  0.00  0.00    -0.107 A 
ATOM      5  C4  BZF d   1       0.699  -2.623   1.535  0.00  0.00     0.055 A 
ATOM      6  C5  BZF d   1      -0.205  -3.593   1.240  0.00  0.00    -0.016 A 
ATOM      7  C6  BZF d   1      -0.368  -4.068  -0.045  0.00  0.00     0.022 A 
ATOM      8  C7  BZF d   1       0.377  -3.591  -1.071  0.00  0.00     0.029 A 
ATOM      9  C7A BZF d   1       1.315  -2.634  -0.771  0.00  0.00     0.058 A 
ENDROOT
TORSDOF 0
ENDMDL
