MODEL 1
REMARK minimizedAffinity 4.20711374
REMARK minimizedRMSD -1
REMARK  0 active torsions:
REMARK  status: ('A' for Active; 'I' for Inactive)
ROOT
ATOM      1  O1  BZF d   1      -2.223  -5.627  -0.289  0.00  0.00    -0.204 OA
ATOM      2  C2  BZF d   1      -2.402  -4.723  -1.319  0.00  0.00     0.174 A 
ATOM      3  C3  BZF d   1      -1.764  -3.565  -1.055  0.00  0.00    -0.012 A 
ATOM      4  C3A BZF d   1      -1.071  -3.789   0.177  0.00  0.00    -0.107 A 
ATOM      5  C4  BZF d   1      -0.249  -3.015   0.946  0.00  0.00     0.055 A 
ATOM      6  C5  BZF d   1       0.204  -3.507   2.129  0.00  0.00    -0.016 A 
ATOM      7  C6  BZF d   1      -0.148  -4.763   2.575  0.00  0.00     0.022 A 
ATOM      8  C7  BZF d   1      -0.957  -5.569   1.845  0.00  0.00     0.029 A 
ATOM      9  C7A BZF d   1      -1.390  -5.088   0.634  0.00  0.00     0.058 A 
ENDROOT
TORSDOF 0
ENDMDL
