MODEL 1
REMARK minimizedAffinity 9.11239815
REMARK minimizedRMSD -1
REMARK  0 active torsions:
REMARK  status: ('A' for Active; 'I' for Inactive)
ROOT
ATOM      1  O1  BZF d   1       1.497   1.501  -4.501  0.00  0.00    -0.204 OA
ATOM      2  C2  BZF d   1       2.621   2.069  -5.069  0.00  0.00     0.174 A 
ATOM      3  C3  BZF d   1       2.295   3.169  -5.779  0.00  0.00    -0.012 A 
ATOM      4  C3A BZF d   1       0.891   3.349  -5.569  0.00  0.00    -0.107 A 
ATOM      5  C4  BZF d   1      -0.010   4.280  -6.000  0.00  0.00     0.055 A 
ATOM      6  C5  BZF d   1      -1.321   4.129  -5.675  0.00  0.00    -0.016 A 
ATOM      7  C6  BZF d   1      -1.766   3.059  -4.927  0.00  0.00     0.022 A 
ATOM      8  C7  BZF d   1      -0.908   2.113  -4.473  0.00  0.00     0.029 A 
ATOM      9  C7A BZF d   1       0.422   2.280  -4.771  0.00  0.00     0.058 A 
ENDROOT
TORSDOF 0
ENDMDL
