MODEL 1
REMARK minimizedAffinity -0.563518643
REMARK minimizedRMSD -1
REMARK  0 active torsions:
REMARK  status: ('A' for Active; 'I' for Inactive)
ROOT
ATOM      1  O1  BZF d   1      -0.211  -3.238   3.003  0.00  0.00    -0.204 OA
ATOM      2  C2  BZF d   1      -0.356  -4.517   3.504  0.00  0.00     0.174 A 
ATOM      3  C3  BZF d   1      -0.942  -5.323   2.595  0.00  0.00    -0.012 A 
ATOM      4  C3A BZF d   1      -1.093  -4.519   1.421  0.00  0.00    -0.107 A 
ATOM      5  C4  BZF d   1      -1.596  -4.762   0.175  0.00  0.00     0.055 A 
ATOM      6  C5  BZF d   1      -1.666  -3.742  -0.719  0.00  0.00    -0.016 A 
ATOM      7  C6  BZF d   1      -1.247  -2.467  -0.400  0.00  0.00     0.022 A 
ATOM      8  C7  BZF d   1      -0.736  -2.178   0.821  0.00  0.00     0.029 A 
ATOM      9  C7A BZF d   1      -0.633  -3.215   1.716  0.00  0.00     0.058 A 
ENDROOT
TORSDOF 0
ENDMDL
