MODEL 1
REMARK minimizedAffinity -0.386596173
REMARK minimizedRMSD -1
REMARK  0 active torsions:
REMARK  status: ('A' for Active; 'I' for Inactive)
ROOT
ATOM      1  O1  BZF d   1       2.008  -0.476   0.544  0.00  0.00    -0.204 OA
ATOM      2  C2  BZF d   1       2.217   0.772   1.098  0.00  0.00     0.174 A 
ATOM      3  C3  BZF d   1       1.059   1.296   1.550  0.00  0.00    -0.012 A 
ATOM      4  C3A BZF d   1       0.079   0.274   1.343  0.00  0.00    -0.107 A 
ATOM      5  C4  BZF d   1      -1.259   0.190   1.605  0.00  0.00     0.055 A 
ATOM      6  C5  BZF d   1      -1.940  -0.919   1.213  0.00  0.00    -0.016 A 
ATOM      7  C6  BZF d   1      -1.317  -1.959   0.555  0.00  0.00     0.022 A 
ATOM      8  C7  BZF d   1       0.009  -1.923   0.278  0.00  0.00     0.029 A 
ATOM      9  C7A BZF d   1       0.707  -0.818   0.702  0.00  0.00     0.058 A 
ENDROOT
TORSDOF 0
ENDMDL
