MODEL 1
REMARK minimizedAffinity 4.66213274
REMARK minimizedRMSD -1
REMARK  0 active torsions:
REMARK  status: ('A' for Active; 'I' for Inactive)
ROOT
ATOM      1  O1  BZF d   1       0.028  -3.116  -0.015  0.00  0.00    -0.204 OA
ATOM      2  C2  BZF d   1       0.157  -2.881   1.340  0.00  0.00     0.174 A 
ATOM      3  C3  BZF d   1      -0.934  -3.311   2.007  0.00  0.00    -0.012 A 
ATOM      4  C3A BZF d   1      -1.759  -3.932   1.017  0.00  0.00    -0.107 A 
ATOM      5  C4  BZF d   1      -2.970  -4.562   1.065  0.00  0.00     0.055 A 
ATOM      6  C5  BZF d   1      -3.536  -4.992  -0.093  0.00  0.00    -0.016 A 
ATOM      7  C6  BZF d   1      -2.924  -4.804  -1.315  0.00  0.00     0.022 A 
ATOM      8  C7  BZF d   1      -1.721  -4.189  -1.412  0.00  0.00     0.029 A 
ATOM      9  C7A BZF d   1      -1.130  -3.782  -0.241  0.00  0.00     0.058 A 
ENDROOT
TORSDOF 0
ENDMDL
