MODEL 1
REMARK minimizedAffinity 3.31890488
REMARK minimizedRMSD -1
REMARK  0 active torsions:
REMARK  status: ('A' for Active; 'I' for Inactive)
ROOT
ATOM      1  O1  BZF d   1      -1.042   3.245   1.920  0.00  0.00    -0.204 OA
ATOM      2  C2  BZF d   1      -1.451   2.383   2.919  0.00  0.00     0.174 A 
ATOM      3  C3  BZF d   1      -0.536   1.412   3.117  0.00  0.00    -0.012 A 
ATOM      4  C3A BZF d   1       0.552   1.737   2.248  0.00  0.00    -0.107 A 
ATOM      5  C4  BZF d   1       1.764   1.157   2.003  0.00  0.00     0.055 A 
ATOM      6  C5  BZF d   1       2.566   1.683   1.040  0.00  0.00    -0.016 A 
ATOM      7  C6  BZF d   1       2.185   2.783   0.299  0.00  0.00     0.022 A 
ATOM      8  C7  BZF d   1       0.995   3.396   0.509  0.00  0.00     0.029 A 
ATOM      9  C7A BZF d   1       0.197   2.887   1.505  0.00  0.00     0.058 A 
ENDROOT
TORSDOF 0
ENDMDL
