MODEL 1
REMARK minimizedAffinity 10.5076284
REMARK minimizedRMSD -1
REMARK  0 active torsions:
REMARK  status: ('A' for Active; 'I' for Inactive)
ROOT
ATOM      1  O1  BZF d   1      -0.099  -4.266  -1.993  0.00  0.00    -0.204 OA
ATOM      2  C2  BZF d   1      -1.390  -4.202  -1.505  0.00  0.00     0.174 A 
ATOM      3  C3  BZF d   1      -1.433  -3.495  -0.358  0.00  0.00    -0.012 A 
ATOM      4  C3A BZF d   1      -0.100  -3.013  -0.162  0.00  0.00    -0.107 A 
ATOM      5  C4  BZF d   1       0.487  -2.237   0.796  0.00  0.00     0.055 A 
ATOM      6  C5  BZF d   1       1.825  -2.011   0.735  0.00  0.00    -0.016 A 
ATOM      7  C6  BZF d   1       2.607  -2.549  -0.266  0.00  0.00     0.022 A 
ATOM      8  C7  BZF d   1       2.070  -3.321  -1.242  0.00  0.00     0.029 A 
ATOM      9  C7A BZF d   1       0.712  -3.524  -1.201  0.00  0.00     0.058 A 
ENDROOT
TORSDOF 0
ENDMDL
