MODEL 1
REMARK minimizedAffinity 1.26170862
REMARK minimizedRMSD -1
REMARK  0 active torsions:
REMARK  status: ('A' for Active; 'I' for Inactive)
ROOT
ATOM      1  O1  BZF d   1      -2.099   1.974  -2.307  0.00  0.00    -0.204 OA
ATOM      2  C2  BZF d   1      -3.464   1.914  -2.510  0.00  0.00     0.174 A 
ATOM      3  C3  BZF d   1      -3.777   2.271  -3.772  0.00  0.00    -0.012 A 
ATOM      4  C3A BZF d   1      -2.521   2.483  -4.425  0.00  0.00    -0.107 A 
ATOM      5  C4  BZF d   1      -2.173   2.840  -5.696  0.00  0.00     0.055 A 
ATOM      6  C5  BZF d   1      -0.860   3.034  -5.991  0.00  0.00    -0.016 A 
ATOM      7  C6  BZF d   1       0.128   2.885  -5.040  0.00  0.00     0.022 A 
ATOM      8  C7  BZF d   1      -0.169   2.527  -3.767  0.00  0.00     0.029 A 
ATOM      9  C7A BZF d   1      -1.491   2.298  -3.474  0.00  0.00     0.058 A 
ENDROOT
TORSDOF 0
ENDMDL
