MODEL 1
REMARK minimizedAffinity 9.68255138
REMARK minimizedRMSD -1
REMARK  0 active torsions:
REMARK  status: ('A' for Active; 'I' for Inactive)
ROOT
ATOM      1  O1  BZF d   1      -2.156   1.732   1.065  0.00  0.00    -0.204 OA
ATOM      2  C2  BZF d   1      -1.353   1.003   1.922  0.00  0.00     0.174 A 
ATOM      3  C3  BZF d   1      -2.046  -0.010   2.481  0.00  0.00    -0.012 A 
ATOM      4  C3A BZF d   1      -3.339   0.036   1.870  0.00  0.00    -0.107 A 
ATOM      5  C4  BZF d   1      -4.467  -0.723   1.999  0.00  0.00     0.055 A 
ATOM      6  C5  BZF d   1      -5.584  -0.369   1.312  0.00  0.00    -0.016 A 
ATOM      7  C6  BZF d   1      -5.611   0.740   0.492  0.00  0.00     0.022 A 
ATOM      8  C7  BZF d   1      -4.516   1.521   0.327  0.00  0.00     0.029 A 
ATOM      9  C7A BZF d   1      -3.375   1.147   0.995  0.00  0.00     0.058 A 
ENDROOT
TORSDOF 0
ENDMDL
