MODEL 1
REMARK minimizedAffinity 4.96673203
REMARK minimizedRMSD -1
REMARK  0 active torsions:
REMARK  status: ('A' for Active; 'I' for Inactive)
ROOT
ATOM      1  O1  BZF d   1       1.021   1.893  -3.120  0.00  0.00    -0.204 OA
ATOM      2  C2  BZF d   1       2.007   1.690  -4.066  0.00  0.00     0.174 A 
ATOM      3  C3  BZF d   1       1.479   1.648  -5.306  0.00  0.00    -0.012 A 
ATOM      4  C3A BZF d   1       0.087   1.928  -5.132  0.00  0.00    -0.107 A 
ATOM      5  C4  BZF d   1      -0.963   2.041  -5.998  0.00  0.00     0.055 A 
ATOM      6  C5  BZF d   1      -2.210   2.249  -5.500  0.00  0.00    -0.016 A 
ATOM      7  C6  BZF d   1      -2.444   2.344  -4.143  0.00  0.00     0.022 A 
ATOM      8  C7  BZF d   1      -1.433   2.244  -3.246  0.00  0.00     0.029 A 
ATOM      9  C7A BZF d   1      -0.167   2.066  -3.748  0.00  0.00     0.058 A 
ENDROOT
TORSDOF 0
ENDMDL
