MODEL 1
REMARK minimizedAffinity 7.31297159
REMARK minimizedRMSD -1
REMARK  0 active torsions:
REMARK  status: ('A' for Active; 'I' for Inactive)
ROOT
ATOM      1  O1  BZF d   1       1.017   2.617  -3.692  0.00  0.00    -0.204 OA
ATOM      2  C2  BZF d   1       1.756   2.539  -4.857  0.00  0.00     0.174 A 
ATOM      3  C3  BZF d   1       0.947   2.417  -5.929  0.00  0.00    -0.012 A 
ATOM      4  C3A BZF d   1      -0.383   2.512  -5.410  0.00  0.00    -0.107 A 
ATOM      5  C4  BZF d   1      -1.620   2.479  -5.987  0.00  0.00     0.055 A 
ATOM      6  C5  BZF d   1      -2.721   2.525  -5.191  0.00  0.00    -0.016 A 
ATOM      7  C6  BZF d   1      -2.622   2.600  -3.817  0.00  0.00     0.022 A 
ATOM      8  C7  BZF d   1      -1.416   2.641  -3.200  0.00  0.00     0.029 A 
ATOM      9  C7A BZF d   1      -0.302   2.628  -4.003  0.00  0.00     0.058 A 
ENDROOT
TORSDOF 0
ENDMDL
