MODEL 1
REMARK minimizedAffinity -2.7843287
REMARK minimizedRMSD -1
REMARK  0 active torsions:
REMARK  status: ('A' for Active; 'I' for Inactive)
ROOT
ATOM      1  O1  BZF d   1       1.527  -3.223  -0.859  0.00  0.00    -0.204 OA
ATOM      2  C2  BZF d   1       2.138  -2.872   0.329  0.00  0.00     0.174 A 
ATOM      3  C3  BZF d   1       1.223  -2.694   1.303  0.00  0.00    -0.012 A 
ATOM      4  C3A BZF d   1      -0.031  -3.040   0.709  0.00  0.00    -0.107 A 
ATOM      5  C4  BZF d   1      -1.313  -3.080   1.178  0.00  0.00     0.055 A 
ATOM      6  C5  BZF d   1      -2.321  -3.390   0.321  0.00  0.00    -0.016 A 
ATOM      7  C6  BZF d   1      -2.084  -3.660  -1.011  0.00  0.00     0.022 A 
ATOM      8  C7  BZF d   1      -0.829  -3.638  -1.521  0.00  0.00     0.029 A 
ATOM      9  C7A BZF d   1       0.195  -3.357  -0.650  0.00  0.00     0.058 A 
ENDROOT
TORSDOF 0
ENDMDL
