MODEL 1
REMARK minimizedAffinity 3.74739504
REMARK minimizedRMSD -1
REMARK  0 active torsions:
REMARK  status: ('A' for Active; 'I' for Inactive)
ROOT
ATOM      1  O1  BZF d   1      -1.375  -3.887  -1.957  0.00  0.00    -0.204 OA
ATOM      2  C2  BZF d   1      -2.570  -4.513  -1.657  0.00  0.00     0.174 A 
ATOM      3  C3  BZF d   1      -2.863  -4.382  -0.347  0.00  0.00    -0.012 A 
ATOM      4  C3A BZF d   1      -1.830  -3.549   0.188  0.00  0.00    -0.107 A 
ATOM      5  C4  BZF d   1      -1.579  -3.048   1.434  0.00  0.00     0.055 A 
ATOM      6  C5  BZF d   1      -0.445  -2.328   1.640  0.00  0.00    -0.016 A 
ATOM      7  C6  BZF d   1       0.461  -2.094   0.626  0.00  0.00     0.022 A 
ATOM      8  C7  BZF d   1       0.252  -2.566  -0.627  0.00  0.00     0.029 A 
ATOM      9  C7A BZF d   1      -0.909  -3.266  -0.847  0.00  0.00     0.058 A 
ENDROOT
TORSDOF 0
ENDMDL
