MODEL 1
REMARK minimizedAffinity 5.85019732
REMARK minimizedRMSD -1
REMARK  0 active torsions:
REMARK  status: ('A' for Active; 'I' for Inactive)
ROOT
ATOM      1  O1  BZF d   1      -0.267   2.258  -4.726  0.00  0.00    -0.204 OA
ATOM      2  C2  BZF d   1       0.291   3.358  -5.347  0.00  0.00     0.174 A 
ATOM      3  C3  BZF d   1      -0.654   4.077  -5.986  0.00  0.00    -0.012 A 
ATOM      4  C3A BZF d   1      -1.893   3.434  -5.672  0.00  0.00    -0.107 A 
ATOM      5  C4  BZF d   1      -3.193   3.691  -6.000  0.00  0.00     0.055 A 
ATOM      6  C5  BZF d   1      -4.160   2.827  -5.591  0.00  0.00    -0.016 A 
ATOM      7  C6  BZF d   1      -3.862   1.697  -4.858  0.00  0.00     0.022 A 
ATOM      8  C7  BZF d   1      -2.587   1.403  -4.505  0.00  0.00     0.029 A 
ATOM      9  C7A BZF d   1      -1.611   2.291  -4.888  0.00  0.00     0.058 A 
ENDROOT
TORSDOF 0
ENDMDL
