MODEL 1
REMARK minimizedAffinity 9.42772579
REMARK minimizedRMSD -1
REMARK  0 active torsions:
REMARK  status: ('A' for Active; 'I' for Inactive)
ROOT
ATOM      1  O1  BZF d   1       5.944   5.936   2.419  0.00  0.00    -0.204 OA
ATOM      2  C2  BZF d   1       5.956   5.039   3.469  0.00  0.00     0.174 A 
ATOM      3  C3  BZF d   1       5.923   3.770   3.015  0.00  0.00    -0.012 A 
ATOM      4  C3A BZF d   1       5.982   3.879   1.590  0.00  0.00    -0.107 A 
ATOM      5  C4  BZF d   1       6.000   2.962   0.578  0.00  0.00     0.055 A 
ATOM      6  C5  BZF d   1       5.987   3.398  -0.709  0.00  0.00    -0.016 A 
ATOM      7  C6  BZF d   1       5.951   4.741  -1.020  0.00  0.00     0.022 A 
ATOM      8  C7  BZF d   1       5.938   5.688  -0.051  0.00  0.00     0.029 A 
ATOM      9  C7A BZF d   1       5.984   5.251   1.251  0.00  0.00     0.058 A 
ENDROOT
TORSDOF 0
ENDMDL
