MODEL 1
REMARK minimizedAffinity 8.76322651
REMARK minimizedRMSD -1
REMARK  0 active torsions:
REMARK  status: ('A' for Active; 'I' for Inactive)
ROOT
ATOM      1  O1  BZF d   1       0.421   1.657  -4.965  0.00  0.00    -0.204 OA
ATOM      2  C2  BZF d   1       1.757   1.970  -5.124  0.00  0.00     0.174 A 
ATOM      3  C3  BZF d   1       1.902   3.230  -5.583  0.00  0.00    -0.012 A 
ATOM      4  C3A BZF d   1       0.577   3.768  -5.630  0.00  0.00    -0.107 A 
ATOM      5  C4  BZF d   1       0.070   4.984  -5.988  0.00  0.00     0.055 A 
ATOM      6  C5  BZF d   1      -1.278   5.163  -5.992  0.00  0.00    -0.016 A 
ATOM      7  C6  BZF d   1      -2.146   4.147  -5.649  0.00  0.00     0.022 A 
ATOM      8  C7  BZF d   1      -1.689   2.924  -5.282  0.00  0.00     0.029 A 
ATOM      9  C7A BZF d   1      -0.327   2.751  -5.246  0.00  0.00     0.058 A 
ENDROOT
TORSDOF 0
ENDMDL
