MODEL 1
REMARK minimizedAffinity 5.65334368
REMARK minimizedRMSD -1
REMARK  0 active torsions:
REMARK  status: ('A' for Active; 'I' for Inactive)
ROOT
ATOM      1  O1  BZF d   1      -1.835   1.613  -5.740  0.00  0.00    -0.204 OA
ATOM      2  C2  BZF d   1      -0.549   2.108  -5.842  0.00  0.00     0.174 A 
ATOM      3  C3  BZF d   1      -0.154   2.660  -4.677  0.00  0.00    -0.012 A 
ATOM      4  C3A BZF d   1      -1.228   2.417  -3.763  0.00  0.00    -0.107 A 
ATOM      5  C4  BZF d   1      -1.423   2.711  -2.444  0.00  0.00     0.055 A 
ATOM      6  C5  BZF d   1      -2.613   2.400  -1.866  0.00  0.00    -0.016 A 
ATOM      7  C6  BZF d   1      -3.631   1.800  -2.579  0.00  0.00     0.022 A 
ATOM      8  C7  BZF d   1      -3.483   1.485  -3.888  0.00  0.00     0.029 A 
ATOM      9  C7A BZF d   1      -2.269   1.768  -4.466  0.00  0.00     0.058 A 
ENDROOT
TORSDOF 0
ENDMDL
