MODEL 1
REMARK minimizedAffinity 0.781559706
REMARK minimizedRMSD -1
REMARK  3 active torsions:
REMARK  status: ('A' for Active; 'I' for Inactive)
REMARK    1  A    between atoms: C3'_2  and  C2'_3 
REMARK    2  A    between atoms: C2'_3  and  C1'_4 
REMARK    3  A    between atoms: C1'_4  and  C1_5 
ROOT
ATOM      1  C1  N4B d   1       4.914   1.480  -3.395  0.00  0.00    -0.075 A 
ATOM      2  C2  N4B d   1       4.529   2.700  -3.994  0.00  0.00     0.002 A 
ATOM      3  C3  N4B d   1       4.890   2.971  -5.291  0.00  0.00     0.002 A 
ATOM      4  C4  N4B d   1       5.649   2.051  -5.999  0.00  0.00    -0.004 A 
ATOM      5  C5  N4B d   1       5.994   0.864  -5.422  0.00  0.00     0.002 A 
ATOM      6  C6  N4B d   1       5.635   0.576  -4.120  0.00  0.00     0.002 A 
ENDROOT
BRANCH   1   7
ATOM      7  C1' N4B d   1       4.616   1.175  -1.953  0.00  0.00     0.057 C 
BRANCH   7   8
ATOM      8  C2' N4B d   1       3.737   2.282  -1.378  0.00  0.00     0.009 C 
BRANCH   8   9
ATOM      9  C3' N4B d   1       3.319   1.991   0.053  0.00  0.00     0.004 C 
ATOM     10  C4' N4B d   1       1.881   2.323   0.317  0.00  0.00     0.003 C 
ENDBRANCH   8   9
ENDBRANCH   7   8
ENDBRANCH   1   7
TORSDOF 3
ENDMDL
