MODEL 1
REMARK minimizedAffinity 1.01245821
REMARK minimizedRMSD -1
REMARK  3 active torsions:
REMARK  status: ('A' for Active; 'I' for Inactive)
REMARK    1  A    between atoms: C3'_2  and  C2'_3 
REMARK    2  A    between atoms: C2'_3  and  C1'_4 
REMARK    3  A    between atoms: C1'_4  and  C1_5 
ROOT
ATOM      1  C1  N4B d   1       2.961   2.972   0.890  0.00  0.00    -0.075 A 
ATOM      2  C2  N4B d   1       2.326   1.891   1.540  0.00  0.00     0.002 A 
ATOM      3  C3  N4B d   1       2.755   1.487   2.781  0.00  0.00     0.002 A 
ATOM      4  C4  N4B d   1       3.826   2.134   3.380  0.00  0.00    -0.004 A 
ATOM      5  C5  N4B d   1       4.417   3.194   2.756  0.00  0.00     0.002 A 
ATOM      6  C6  N4B d   1       3.993   3.613   1.511  0.00  0.00     0.002 A 
ENDROOT
BRANCH   1   7
ATOM      7  C1' N4B d   1       2.582   3.394  -0.503  0.00  0.00     0.057 C 
BRANCH   7   8
ATOM      8  C2' N4B d   1       3.825   3.375  -1.388  0.00  0.00     0.009 C 
BRANCH   8   9
ATOM      9  C3' N4B d   1       4.308   1.960  -1.658  0.00  0.00     0.004 C 
ATOM     10  C4' N4B d   1       4.612   1.717  -3.106  0.00  0.00     0.003 C 
ENDBRANCH   8   9
ENDBRANCH   7   8
ENDBRANCH   1   7
TORSDOF 3
ENDMDL
