MODEL 1
REMARK minimizedAffinity -1.3175441
REMARK minimizedRMSD -1
REMARK  3 active torsions:
REMARK  status: ('A' for Active; 'I' for Inactive)
REMARK    1  A    between atoms: C3'_2  and  C2'_3 
REMARK    2  A    between atoms: C2'_3  and  C1'_4 
REMARK    3  A    between atoms: C1'_4  and  C1_5 
ROOT
ATOM      1  C1  N4B d   1       1.039  -0.428   1.083  0.00  0.00    -0.075 A 
ATOM      2  C2  N4B d   1       0.629   0.903   0.849  0.00  0.00     0.002 A 
ATOM      3  C3  N4B d   1       1.546   1.924   0.902  0.00  0.00     0.002 A 
ATOM      4  C4  N4B d   1       2.870   1.641   1.205  0.00  0.00    -0.004 A 
ATOM      5  C5  N4B d   1       3.263   0.350   1.405  0.00  0.00     0.002 A 
ATOM      6  C6  N4B d   1       2.353  -0.686   1.351  0.00  0.00     0.002 A 
ENDROOT
BRANCH   1   7
ATOM      7  C1' N4B d   1       0.057  -1.567   1.121  0.00  0.00     0.057 C 
BRANCH   7   8
ATOM      8  C2' N4B d   1      -0.351  -1.923  -0.306  0.00  0.00     0.009 C 
BRANCH   8   9
ATOM      9  C3' N4B d   1      -1.356  -3.061  -0.341  0.00  0.00     0.004 C 
ATOM     10  C4' N4B d   1      -1.814  -3.388  -1.731  0.00  0.00     0.003 C 
ENDBRANCH   8   9
ENDBRANCH   7   8
ENDBRANCH   1   7
TORSDOF 3
ENDMDL
