MODEL 1
REMARK minimizedAffinity -0.157177389
REMARK minimizedRMSD -1
REMARK  3 active torsions:
REMARK  status: ('A' for Active; 'I' for Inactive)
REMARK    1  A    between atoms: C3'_2  and  C2'_3 
REMARK    2  A    between atoms: C2'_3  and  C1'_4 
REMARK    3  A    between atoms: C1'_4  and  C1_5 
ROOT
ATOM      1  C1  N4B d   1       3.424   2.934   1.304  0.00  0.00    -0.075 A 
ATOM      2  C2  N4B d   1       2.837   1.816   1.937  0.00  0.00     0.002 A 
ATOM      3  C3  N4B d   1       1.553   1.445   1.623  0.00  0.00     0.002 A 
ATOM      4  C4  N4B d   1       0.832   2.184   0.697  0.00  0.00    -0.004 A 
ATOM      5  C5  N4B d   1       1.415   3.247   0.071  0.00  0.00     0.002 A 
ATOM      6  C6  N4B d   1       2.706   3.629   0.374  0.00  0.00     0.002 A 
ENDROOT
BRANCH   1   7
ATOM      7  C1' N4B d   1       4.794   3.429   1.678  0.00  0.00     0.057 C 
BRANCH   7   8
ATOM      8  C2' N4B d   1       4.739   4.053   3.069  0.00  0.00     0.009 C 
BRANCH   8   9
ATOM      9  C3' N4B d   1       4.626   3.000   4.159  0.00  0.00     0.004 C 
ATOM     10  C4' N4B d   1       4.238   3.579   5.487  0.00  0.00     0.003 C 
ENDBRANCH   8   9
ENDBRANCH   7   8
ENDBRANCH   1   7
TORSDOF 3
ENDMDL
