MODEL 1
REMARK minimizedAffinity 3.86168647
REMARK minimizedRMSD -1
REMARK  3 active torsions:
REMARK  status: ('A' for Active; 'I' for Inactive)
REMARK    1  A    between atoms: C3'_2  and  C2'_3 
REMARK    2  A    between atoms: C2'_3  and  C1'_4 
REMARK    3  A    between atoms: C1'_4  and  C1_5 
ROOT
ATOM      1  C1  N4B d   1      -1.531  -3.090   1.052  0.00  0.00    -0.075 A 
ATOM      2  C2  N4B d   1      -0.757  -2.104   0.401  0.00  0.00     0.002 A 
ATOM      3  C3  N4B d   1      -0.426  -2.255  -0.923  0.00  0.00     0.002 A 
ATOM      4  C4  N4B d   1      -0.840  -3.387  -1.609  0.00  0.00    -0.004 A 
ATOM      5  C5  N4B d   1      -1.608  -4.322  -0.980  0.00  0.00     0.002 A 
ATOM      6  C6  N4B d   1      -1.952  -4.182   0.349  0.00  0.00     0.002 A 
ENDROOT
BRANCH   1   7
ATOM      7  C1' N4B d   1      -1.845  -3.011   2.521  0.00  0.00     0.057 C 
BRANCH   7   8
ATOM      8  C2' N4B d   1      -1.420  -4.312   3.194  0.00  0.00     0.009 C 
BRANCH   8   9
ATOM      9  C3' N4B d   1      -2.504  -4.861   4.106  0.00  0.00     0.004 C 
ATOM     10  C4' N4B d   1      -3.260  -6.000   3.489  0.00  0.00     0.003 C 
ENDBRANCH   8   9
ENDBRANCH   7   8
ENDBRANCH   1   7
TORSDOF 3
ENDMDL
