MODEL 1
REMARK minimizedAffinity 3.89820623
REMARK minimizedRMSD -1
REMARK  3 active torsions:
REMARK  status: ('A' for Active; 'I' for Inactive)
REMARK    1  A    between atoms: C3'_2  and  C2'_3 
REMARK    2  A    between atoms: C2'_3  and  C1'_4 
REMARK    3  A    between atoms: C1'_4  and  C1_5 
ROOT
ATOM      1  C1  N4B d   1       3.389   2.788   1.019  0.00  0.00    -0.075 A 
ATOM      2  C2  N4B d   1       4.204   3.922   1.226  0.00  0.00     0.002 A 
ATOM      3  C3  N4B d   1       4.937   4.039   2.382  0.00  0.00     0.002 A 
ATOM      4  C4  N4B d   1       4.856   3.048   3.349  0.00  0.00    -0.004 A 
ATOM      5  C5  N4B d   1       4.086   1.943   3.129  0.00  0.00     0.002 A 
ATOM      6  C6  N4B d   1       3.348   1.810   1.971  0.00  0.00     0.002 A 
ENDROOT
BRANCH   1   7
ATOM      7  C1' N4B d   1       2.504   2.656  -0.190  0.00  0.00     0.057 C 
BRANCH   7   8
ATOM      8  C2' N4B d   1       1.048   2.825   0.234  0.00  0.00     0.009 C 
BRANCH   8   9
ATOM      9  C3' N4B d   1       0.573   1.675   1.105  0.00  0.00     0.004 C 
ATOM     10  C4' N4B d   1      -0.569   2.057   1.999  0.00  0.00     0.003 C 
ENDBRANCH   8   9
ENDBRANCH   7   8
ENDBRANCH   1   7
TORSDOF 3
ENDMDL
