MODEL 1
REMARK minimizedAffinity 3.49459195
REMARK minimizedRMSD -1
REMARK  3 active torsions:
REMARK  status: ('A' for Active; 'I' for Inactive)
REMARK    1  A    between atoms: C3'_2  and  C2'_3 
REMARK    2  A    between atoms: C2'_3  and  C1'_4 
REMARK    3  A    between atoms: C1'_4  and  C1_5 
ROOT
ATOM      1  C1  N4B d   1       3.165   2.604   0.951  0.00  0.00    -0.075 A 
ATOM      2  C2  N4B d   1       2.939   1.441   1.720  0.00  0.00     0.002 A 
ATOM      3  C3  N4B d   1       1.737   0.783   1.633  0.00  0.00     0.002 A 
ATOM      4  C4  N4B d   1       0.743   1.277   0.802  0.00  0.00    -0.004 A 
ATOM      5  C5  N4B d   1       0.978   2.386   0.043  0.00  0.00     0.002 A 
ATOM      6  C6  N4B d   1       2.183   3.056   0.118  0.00  0.00     0.002 A 
ENDROOT
BRANCH   1   7
ATOM      7  C1' N4B d   1       4.431   3.406   1.077  0.00  0.00     0.057 C 
BRANCH   7   8
ATOM      8  C2' N4B d   1       4.419   4.155   2.407  0.00  0.00     0.009 C 
BRANCH   8   9
ATOM      9  C3' N4B d   1       5.320   3.497   3.438  0.00  0.00     0.004 C 
ATOM     10  C4' N4B d   1       4.552   2.846   4.549  0.00  0.00     0.003 C 
ENDBRANCH   8   9
ENDBRANCH   7   8
ENDBRANCH   1   7
TORSDOF 3
ENDMDL
