MODEL 1
REMARK minimizedAffinity -0.623764098
REMARK minimizedRMSD -1
REMARK  3 active torsions:
REMARK  status: ('A' for Active; 'I' for Inactive)
REMARK    1  A    between atoms: C3'_2  and  C2'_3 
REMARK    2  A    between atoms: C2'_3  and  C1'_4 
REMARK    3  A    between atoms: C1'_4  and  C1_5 
ROOT
ATOM      1  C1  N4B d   1      -1.432  -4.691   1.604  0.00  0.00    -0.075 A 
ATOM      2  C2  N4B d   1      -1.563  -3.329   1.951  0.00  0.00     0.002 A 
ATOM      3  C3  N4B d   1      -1.709  -2.967   3.268  0.00  0.00     0.002 A 
ATOM      4  C4  N4B d   1      -1.745  -3.947   4.249  0.00  0.00    -0.004 A 
ATOM      5  C5  N4B d   1      -1.592  -5.259   3.908  0.00  0.00     0.002 A 
ATOM      6  C6  N4B d   1      -1.441  -5.637   2.589  0.00  0.00     0.002 A 
ENDROOT
BRANCH   1   7
ATOM      7  C1' N4B d   1      -1.356  -5.142   0.171  0.00  0.00     0.057 C 
BRANCH   7   8
ATOM      8  C2' N4B d   1      -1.959  -4.064  -0.725  0.00  0.00     0.009 C 
BRANCH   8   9
ATOM      9  C3' N4B d   1      -0.889  -3.210  -1.384  0.00  0.00     0.004 C 
ATOM     10  C4' N4B d   1      -0.530  -3.687  -2.759  0.00  0.00     0.003 C 
ENDBRANCH   8   9
ENDBRANCH   7   8
ENDBRANCH   1   7
TORSDOF 3
ENDMDL
