MODEL 1
REMARK minimizedAffinity 1.21465671
REMARK minimizedRMSD -1
REMARK  3 active torsions:
REMARK  status: ('A' for Active; 'I' for Inactive)
REMARK    1  A    between atoms: C3'_2  and  C2'_3 
REMARK    2  A    between atoms: C2'_3  and  C1'_4 
REMARK    3  A    between atoms: C1'_4  and  C1_5 
ROOT
ATOM      1  C1  N4B d   1       3.047   2.713   1.396  0.00  0.00    -0.075 A 
ATOM      2  C2  N4B d   1       3.869   3.859   1.474  0.00  0.00     0.002 A 
ATOM      3  C3  N4B d   1       4.553   4.135   2.633  0.00  0.00     0.002 A 
ATOM      4  C4  N4B d   1       4.416   3.295   3.727  0.00  0.00    -0.004 A 
ATOM      5  C5  N4B d   1       3.640   2.176   3.635  0.00  0.00     0.002 A 
ATOM      6  C6  N4B d   1       2.950   1.884   2.476  0.00  0.00     0.002 A 
ENDROOT
BRANCH   1   7
ATOM      7  C1' N4B d   1       2.213   2.416   0.180  0.00  0.00     0.057 C 
BRANCH   7   8
ATOM      8  C2' N4B d   1       0.742   2.647   0.513  0.00  0.00     0.009 C 
BRANCH   8   9
ATOM      9  C3' N4B d   1       0.123   1.448   1.211  0.00  0.00     0.004 C 
ATOM     10  C4' N4B d   1      -0.976   1.830   2.157  0.00  0.00     0.003 C 
ENDBRANCH   8   9
ENDBRANCH   7   8
ENDBRANCH   1   7
TORSDOF 3
ENDMDL
