MODEL 1
REMARK minimizedAffinity 2.64614463
REMARK minimizedRMSD -1
REMARK  3 active torsions:
REMARK  status: ('A' for Active; 'I' for Inactive)
REMARK    1  A    between atoms: C3'_2  and  C2'_3 
REMARK    2  A    between atoms: C2'_3  and  C1'_4 
REMARK    3  A    between atoms: C1'_4  and  C1_5 
ROOT
ATOM      1  C1  N4B d   1       3.375   3.035   1.048  0.00  0.00    -0.075 A 
ATOM      2  C2  N4B d   1       2.971   1.988   1.905  0.00  0.00     0.002 A 
ATOM      3  C3  N4B d   1       1.725   1.428   1.766  0.00  0.00     0.002 A 
ATOM      4  C4  N4B d   1       0.861   1.910   0.794  0.00  0.00    -0.004 A 
ATOM      5  C5  N4B d   1       1.268   2.904  -0.047  0.00  0.00     0.002 A 
ATOM      6  C6  N4B d   1       2.520   3.473   0.079  0.00  0.00     0.002 A 
ENDROOT
BRANCH   1   7
ATOM      7  C1' N4B d   1       4.695   3.735   1.217  0.00  0.00     0.057 C 
BRANCH   7   8
ATOM      8  C2' N4B d   1       4.825   4.219   2.658  0.00  0.00     0.009 C 
BRANCH   8   9
ATOM      9  C3' N4B d   1       4.875   3.063   3.643  0.00  0.00     0.004 C 
ATOM     10  C4' N4B d   1       4.464   3.463   5.029  0.00  0.00     0.003 C 
ENDBRANCH   8   9
ENDBRANCH   7   8
ENDBRANCH   1   7
TORSDOF 3
ENDMDL
