MODEL 1
REMARK minimizedAffinity -0.461402357
REMARK minimizedRMSD -1
REMARK  3 active torsions:
REMARK  status: ('A' for Active; 'I' for Inactive)
REMARK    1  A    between atoms: C3'_2  and  C2'_3 
REMARK    2  A    between atoms: C2'_3  and  C1'_4 
REMARK    3  A    between atoms: C1'_4  and  C1_5 
ROOT
ATOM      1  C1  N4B d   1      -0.072   3.292   3.081  0.00  0.00    -0.075 A 
ATOM      2  C2  N4B d   1      -1.449   3.355   2.774  0.00  0.00     0.002 A 
ATOM      3  C3  N4B d   1      -2.355   3.688   3.750  0.00  0.00     0.002 A 
ATOM      4  C4  N4B d   1      -1.912   3.942   5.040  0.00  0.00    -0.004 A 
ATOM      5  C5  N4B d   1      -0.578   3.904   5.322  0.00  0.00     0.002 A 
ATOM      6  C6  N4B d   1       0.345   3.575   4.350  0.00  0.00     0.002 A 
ENDROOT
BRANCH   1   7
ATOM      7  C1' N4B d   1       0.949   2.850   2.068  0.00  0.00     0.057 C 
BRANCH   7   8
ATOM      8  C2' N4B d   1       0.231   2.235   0.870  0.00  0.00     0.009 C 
BRANCH   8   9
ATOM      9  C3' N4B d   1      -0.348   0.868   1.195  0.00  0.00     0.004 C 
ATOM     10  C4' N4B d   1      -1.801   0.754   0.842  0.00  0.00     0.003 C 
ENDBRANCH   8   9
ENDBRANCH   7   8
ENDBRANCH   1   7
TORSDOF 3
ENDMDL
