MODEL 1
REMARK minimizedAffinity -3.5925293
REMARK minimizedRMSD -1
REMARK  1 active torsions:
REMARK  status: ('A' for Active; 'I' for Inactive)
REMARK    1  A    between atoms: C1_2  and  C2_3 
ROOT
ATOM      1  C2  UNL d   1       0.231  -0.129   0.242  0.00  0.00    -0.081 A 
ATOM      2  C3  UNL d   1      -0.461   0.215   1.410  0.00  0.00     0.006 A 
ATOM      3  C4  UNL d   1      -0.712   1.555   1.715  0.00  0.00     0.002 A 
ATOM      4  C5  UNL d   1      -0.283   2.572   0.856  0.00  0.00    -0.080 A 
ATOM      5  C6  UNL d   1      -0.572   4.012   1.157  0.00  0.00     0.076 C 
ATOM      6  C7  UNL d   1       0.424   2.229  -0.302  0.00  0.00     0.002 A 
ATOM      7  C8  UNL d   1       0.676   0.890  -0.608  0.00  0.00     0.006 A 
ENDROOT
BRANCH   1   8
ATOM      8  C1  UNL d   1       0.447  -1.575  -0.123  0.00  0.00     0.054 C 
ATOM      9  C   UNL d   1       1.167  -1.707  -1.458  0.00  0.00     0.018 C 
ENDBRANCH   1   8
TORSDOF 1
ENDMDL
