MODEL 1
REMARK minimizedAffinity -3.17780876
REMARK minimizedRMSD -1
REMARK  1 active torsions:
REMARK  status: ('A' for Active; 'I' for Inactive)
REMARK    1  A    between atoms: C1_2  and  C2_3 
ROOT
ATOM      1  C2  UNL d   1       0.685  -1.358  -0.516  0.00  0.00    -0.081 A 
ATOM      2  C3  UNL d   1      -0.192  -1.744   0.505  0.00  0.00     0.006 A 
ATOM      3  C4  UNL d   1      -0.593  -0.826   1.478  0.00  0.00     0.002 A 
ATOM      4  C5  UNL d   1      -0.131   0.494   1.443  0.00  0.00    -0.080 A 
ATOM      5  C6  UNL d   1      -0.577   1.498   2.464  0.00  0.00     0.076 C 
ATOM      6  C7  UNL d   1       0.759   0.875   0.433  0.00  0.00     0.002 A 
ATOM      7  C8  UNL d   1       1.161  -0.042  -0.541  0.00  0.00     0.006 A 
ENDROOT
BRANCH   1   8
ATOM      8  C1  UNL d   1       1.068  -2.328  -1.605  0.00  0.00     0.054 C 
ATOM      9  C   UNL d   1      -0.102  -2.603  -2.538  0.00  0.00     0.018 C 
ENDBRANCH   1   8
TORSDOF 1
ENDMDL
