MODEL 1
REMARK minimizedAffinity -4.17812538
REMARK minimizedRMSD -1
REMARK  1 active torsions:
REMARK  status: ('A' for Active; 'I' for Inactive)
REMARK    1  A    between atoms: C1_2  and  C2_3 
ROOT
ATOM      1  C2  UNL d   1      -0.223   1.431   1.518  0.00  0.00    -0.081 A 
ATOM      2  C3  UNL d   1       0.466   1.641   0.317  0.00  0.00     0.006 A 
ATOM      3  C4  UNL d   1       0.720   0.575  -0.549  0.00  0.00     0.002 A 
ATOM      4  C5  UNL d   1       0.283  -0.716  -0.233  0.00  0.00    -0.080 A 
ATOM      5  C6  UNL d   1       0.522  -1.864  -1.169  0.00  0.00     0.076 C 
ATOM      6  C7  UNL d   1      -0.390  -0.929   0.974  0.00  0.00     0.002 A 
ATOM      7  C8  UNL d   1      -0.644   0.137   1.841  0.00  0.00     0.006 A 
ENDROOT
BRANCH   1   8
ATOM      8  C1  UNL d   1      -0.555   2.590   2.423  0.00  0.00     0.054 C 
ATOM      9  C   UNL d   1       0.050   3.887   1.906  0.00  0.00     0.018 C 
ENDBRANCH   1   8
TORSDOF 1
ENDMDL
