MODEL 1
REMARK minimizedAffinity -4.66137409
REMARK minimizedRMSD -1
REMARK  1 active torsions:
REMARK  status: ('A' for Active; 'I' for Inactive)
REMARK    1  A    between atoms: C1_2  and  C2_3 
ROOT
ATOM      1  C2  UNL d   1      -0.300   1.091   1.136  0.00  0.00    -0.081 A 
ATOM      2  C3  UNL d   1       0.380   1.233  -0.080  0.00  0.00     0.006 A 
ATOM      3  C4  UNL d   1       0.831   0.109  -0.775  0.00  0.00     0.002 A 
ATOM      4  C5  UNL d   1       0.604  -1.176  -0.271  0.00  0.00    -0.080 A 
ATOM      5  C6  UNL d   1       1.056  -2.392  -1.022  0.00  0.00     0.076 C 
ATOM      6  C7  UNL d   1      -0.060  -1.318   0.953  0.00  0.00     0.002 A 
ATOM      7  C8  UNL d   1      -0.511  -0.194   1.649  0.00  0.00     0.006 A 
ENDROOT
BRANCH   1   8
ATOM      8  C1  UNL d   1      -0.844   2.298   1.856  0.00  0.00     0.054 C 
ATOM      9  C   UNL d   1      -0.542   3.580   1.093  0.00  0.00     0.018 C 
ENDBRANCH   1   8
TORSDOF 1
ENDMDL
