MODEL 1
REMARK minimizedAffinity 4.66548157
REMARK minimizedRMSD -1
REMARK  1 active torsions:
REMARK  status: ('A' for Active; 'I' for Inactive)
REMARK    1  A    between atoms: C1_2  and  C2_3 
ROOT
ATOM      1  C2  UNL d   1      -0.085   3.920   1.157  0.00  0.00    -0.081 A 
ATOM      2  C3  UNL d   1      -0.796   3.155   2.090  0.00  0.00     0.006 A 
ATOM      3  C4  UNL d   1      -1.062   1.806   1.844  0.00  0.00     0.002 A 
ATOM      4  C5  UNL d   1      -0.616   1.198   0.666  0.00  0.00    -0.080 A 
ATOM      5  C6  UNL d   1      -0.868  -0.257   0.403  0.00  0.00     0.076 C 
ATOM      6  C7  UNL d   1       0.080   1.967  -0.274  0.00  0.00     0.002 A 
ATOM      7  C8  UNL d   1       0.345   3.316  -0.029  0.00  0.00     0.006 A 
ENDROOT
BRANCH   1   8
ATOM      8  C1  UNL d   1       0.259   5.359   1.449  0.00  0.00     0.054 C 
ATOM      9  C   UNL d   1       1.001   5.997   0.284  0.00  0.00     0.018 C 
ENDBRANCH   1   8
TORSDOF 1
ENDMDL
