MODEL 1
REMARK minimizedAffinity -2.03590941
REMARK minimizedRMSD -1
REMARK  1 active torsions:
REMARK  status: ('A' for Active; 'I' for Inactive)
REMARK    1  A    between atoms: C1_2  and  C2_3 
ROOT
ATOM      1  C2  UNL d   1       0.750  -0.774  -0.178  0.00  0.00    -0.081 A 
ATOM      2  C3  UNL d   1       0.324  -0.839   1.155  0.00  0.00     0.006 A 
ATOM      3  C4  UNL d   1      -0.407   0.211   1.716  0.00  0.00     0.002 A 
ATOM      4  C5  UNL d   1      -0.730   1.339   0.954  0.00  0.00    -0.080 A 
ATOM      5  C6  UNL d   1      -1.539   2.459   1.536  0.00  0.00     0.076 C 
ATOM      6  C7  UNL d   1      -0.289   1.411  -0.372  0.00  0.00     0.002 A 
ATOM      7  C8  UNL d   1       0.442   0.362  -0.934  0.00  0.00     0.006 A 
ENDROOT
BRANCH   1   8
ATOM      8  C1  UNL d   1       1.482  -1.933  -0.805  0.00  0.00     0.054 C 
ATOM      9  C   UNL d   1       1.121  -2.083  -2.276  0.00  0.00     0.018 C 
ENDBRANCH   1   8
TORSDOF 1
ENDMDL
