MODEL 1
REMARK minimizedAffinity -2.73390365
REMARK minimizedRMSD -1
REMARK  1 active torsions:
REMARK  status: ('A' for Active; 'I' for Inactive)
REMARK    1  A    between atoms: C1_2  and  C2_3 
ROOT
ATOM      1  C2  UNL d   1       0.632  -0.929  -0.730  0.00  0.00    -0.081 A 
ATOM      2  C3  UNL d   1       0.264  -1.224   0.589  0.00  0.00     0.006 A 
ATOM      3  C4  UNL d   1      -0.244  -0.224   1.422  0.00  0.00     0.002 A 
ATOM      4  C5  UNL d   1      -0.399   1.083   0.949  0.00  0.00    -0.080 A 
ATOM      5  C6  UNL d   1      -0.972   2.158   1.824  0.00  0.00     0.076 C 
ATOM      6  C7  UNL d   1      -0.015   1.381  -0.362  0.00  0.00     0.002 A 
ATOM      7  C8  UNL d   1       0.494   0.383  -1.196  0.00  0.00     0.006 A 
ENDROOT
BRANCH   1   8
ATOM      8  C1  UNL d   1       1.120  -2.018  -1.651  0.00  0.00     0.054 C 
ATOM      9  C   UNL d   1       0.857  -3.398  -1.064  0.00  0.00     0.018 C 
ENDBRANCH   1   8
TORSDOF 1
ENDMDL
