MODEL 1
REMARK minimizedAffinity -1.24917245
REMARK minimizedRMSD -1
REMARK  1 active torsions:
REMARK  status: ('A' for Active; 'I' for Inactive)
REMARK    1  A    between atoms: C1_2  and  C2_3 
ROOT
ATOM      1  C2  UNL d   1      -0.534   0.493   3.003  0.00  0.00    -0.081 A 
ATOM      2  C3  UNL d   1       0.548  -0.292   2.587  0.00  0.00     0.006 A 
ATOM      3  C4  UNL d   1       0.587  -0.814   1.292  0.00  0.00     0.002 A 
ATOM      4  C5  UNL d   1      -0.450  -0.554   0.390  0.00  0.00    -0.080 A 
ATOM      5  C6  UNL d   1      -0.406  -1.083  -1.013  0.00  0.00     0.076 C 
ATOM      6  C7  UNL d   1      -1.540   0.216   0.811  0.00  0.00     0.002 A 
ATOM      7  C8  UNL d   1      -1.580   0.737   2.106  0.00  0.00     0.006 A 
ENDROOT
BRANCH   1   8
ATOM      8  C1  UNL d   1      -0.549   1.111   4.378  0.00  0.00     0.054 C 
ATOM      9  C   UNL d   1       0.638   2.043   4.578  0.00  0.00     0.018 C 
ENDBRANCH   1   8
TORSDOF 1
ENDMDL
