MODEL 1
REMARK minimizedAffinity -4.79392958
REMARK minimizedRMSD -1
REMARK  1 active torsions:
REMARK  status: ('A' for Active; 'I' for Inactive)
REMARK    1  A    between atoms: C1_2  and  C2_3 
ROOT
ATOM      1  C2  UNL d   1      -0.065   1.679   0.420  0.00  0.00    -0.081 A 
ATOM      2  C3  UNL d   1      -0.595   1.917   1.694  0.00  0.00     0.006 A 
ATOM      3  C4  UNL d   1      -0.705   0.876   2.620  0.00  0.00     0.002 A 
ATOM      4  C5  UNL d   1      -0.281  -0.415   2.290  0.00  0.00    -0.080 A 
ATOM      5  C6  UNL d   1      -0.365  -1.534   3.285  0.00  0.00     0.076 C 
ATOM      6  C7  UNL d   1       0.233  -0.656   1.011  0.00  0.00     0.002 A 
ATOM      7  C8  UNL d   1       0.343   0.384   0.085  0.00  0.00     0.006 A 
ENDROOT
BRANCH   1   8
ATOM      8  C1  UNL d   1       0.115   2.812  -0.558  0.00  0.00     0.054 C 
ATOM      9  C   UNL d   1       0.084   4.161   0.146  0.00  0.00     0.018 C 
ENDBRANCH   1   8
TORSDOF 1
ENDMDL
