MODEL 1
REMARK minimizedAffinity -4.17700911
REMARK minimizedRMSD -1
REMARK  1 active torsions:
REMARK  status: ('A' for Active; 'I' for Inactive)
REMARK    1  A    between atoms: C1_2  and  C2_3 
ROOT
ATOM      1  C2  UNL d   1       0.494  -2.101  -2.143  0.00  0.00    -0.081 A 
ATOM      2  C3  UNL d   1       1.244  -2.046  -0.962  0.00  0.00     0.006 A 
ATOM      3  C4  UNL d   1       1.234  -0.895  -0.170  0.00  0.00     0.002 A 
ATOM      4  C5  UNL d   1       0.468   0.215  -0.541  0.00  0.00    -0.080 A 
ATOM      5  C6  UNL d   1       0.424   1.445   0.316  0.00  0.00     0.076 C 
ATOM      6  C7  UNL d   1      -0.268   0.166  -1.730  0.00  0.00     0.002 A 
ATOM      7  C8  UNL d   1      -0.257  -0.984  -2.523  0.00  0.00     0.006 A 
ENDROOT
BRANCH   1   8
ATOM      8  C1  UNL d   1       0.452  -3.364  -2.966  0.00  0.00     0.054 C 
ATOM      9  C   UNL d   1      -0.140  -4.521  -2.174  0.00  0.00     0.018 C 
ENDBRANCH   1   8
TORSDOF 1
ENDMDL
