MODEL 1
REMARK minimizedAffinity -4.2423687
REMARK minimizedRMSD -1
REMARK  1 active torsions:
REMARK  status: ('A' for Active; 'I' for Inactive)
REMARK    1  A    between atoms: C1_2  and  C2_3 
ROOT
ATOM      1  C2  UNL d   1      -0.516  -1.452  -0.848  0.00  0.00    -0.081 A 
ATOM      2  C3  UNL d   1      -0.747  -1.987   0.426  0.00  0.00     0.006 A 
ATOM      3  C4  UNL d   1      -0.771  -1.157   1.549  0.00  0.00     0.002 A 
ATOM      4  C5  UNL d   1      -0.574   0.222   1.416  0.00  0.00    -0.080 A 
ATOM      5  C6  UNL d   1      -0.628   1.129   2.610  0.00  0.00     0.076 C 
ATOM      6  C7  UNL d   1      -0.326   0.754   0.146  0.00  0.00     0.002 A 
ATOM      7  C8  UNL d   1      -0.301  -0.076  -0.977  0.00  0.00     0.006 A 
ENDROOT
BRANCH   1   8
ATOM      8  C1  UNL d   1      -0.554  -2.336  -2.068  0.00  0.00     0.054 C 
ATOM      9  C   UNL d   1      -0.048  -3.736  -1.753  0.00  0.00     0.018 C 
ENDBRANCH   1   8
TORSDOF 1
ENDMDL
