MODEL 1
REMARK minimizedAffinity -3.6498363
REMARK minimizedRMSD -1
REMARK  0 active torsions:
REMARK  status: ('A' for Active; 'I' for Inactive)
ROOT
ATOM      1  C   UNL d   1      -0.426  -1.676  -1.152  0.00  0.00     0.020 A 
ATOM      2  C1  UNL d   1      -1.085  -2.389  -0.151  0.00  0.00     0.020 A 
ATOM      3  C2  UNL d   1      -1.500  -1.737   1.012  0.00  0.00     0.034 A 
ATOM      4  C3  UNL d   1      -1.256  -0.369   1.177  0.00  0.00     0.017 A 
ATOM      5  C4  UNL d   1      -0.594   0.346   0.172  0.00  0.00     0.017 A 
ATOM      6  C5  UNL d   1      -0.181  -0.312  -0.991  0.00  0.00     0.034 A 
ATOM      7 Cl   UNL d   1      -0.257   2.036   0.304  0.00  0.00    -0.070 Cl
ATOM      8 Cl1  UNL d   1      -1.797   0.373   2.641  0.00  0.00    -0.070 Cl
ENDROOT
TORSDOF 0
ENDMDL
