MODEL 1
REMARK minimizedAffinity -4.46184158
REMARK minimizedRMSD -1
REMARK  0 active torsions:
REMARK  status: ('A' for Active; 'I' for Inactive)
ROOT
ATOM      1  C   UNL d   1      -0.015   0.885   0.386  0.00  0.00     0.020 A 
ATOM      2  C1  UNL d   1       0.525   1.094  -0.882  0.00  0.00     0.020 A 
ATOM      3  C2  UNL d   1       0.523   0.061  -1.821  0.00  0.00     0.034 A 
ATOM      4  C3  UNL d   1      -0.020  -1.187  -1.493  0.00  0.00     0.017 A 
ATOM      5  C4  UNL d   1      -0.563  -1.396  -0.220  0.00  0.00     0.017 A 
ATOM      6  C5  UNL d   1      -0.558  -0.357   0.717  0.00  0.00     0.034 A 
ATOM      7 Cl   UNL d   1      -1.251  -2.907   0.258  0.00  0.00    -0.070 Cl
ATOM      8 Cl1  UNL d   1       0.010  -2.420  -2.703  0.00  0.00    -0.070 Cl
ENDROOT
TORSDOF 0
ENDMDL
