MODEL 1
REMARK minimizedAffinity -1.60180438
REMARK minimizedRMSD -1
REMARK  0 active torsions:
REMARK  status: ('A' for Active; 'I' for Inactive)
ROOT
ATOM      1  C   UNL d   1      -0.528   0.426   1.612  0.00  0.00     0.020 A 
ATOM      2  C1  UNL d   1      -0.269   1.135   0.439  0.00  0.00     0.020 A 
ATOM      3  C2  UNL d   1      -0.164   0.457  -0.777  0.00  0.00     0.034 A 
ATOM      4  C3  UNL d   1      -0.318  -0.933  -0.824  0.00  0.00     0.017 A 
ATOM      5  C4  UNL d   1      -0.578  -1.644   0.353  0.00  0.00     0.017 A 
ATOM      6  C5  UNL d   1      -0.682  -0.960   1.569  0.00  0.00     0.034 A 
ATOM      7 Cl   UNL d   1      -0.780  -3.360   0.375  0.00  0.00    -0.070 Cl
ATOM      8 Cl1  UNL d   1      -0.175  -1.706  -2.363  0.00  0.00    -0.070 Cl
ENDROOT
TORSDOF 0
ENDMDL
