MODEL 1
REMARK minimizedAffinity -0.164455891
REMARK minimizedRMSD -1
REMARK  0 active torsions:
REMARK  status: ('A' for Active; 'I' for Inactive)
ROOT
ATOM      1  C   UNL d   1      -0.885  -1.711   1.488  0.00  0.00     0.020 A 
ATOM      2  C1  UNL d   1      -0.823  -0.368   1.857  0.00  0.00     0.020 A 
ATOM      3  C2  UNL d   1      -0.520   0.605   0.902  0.00  0.00     0.034 A 
ATOM      4  C3  UNL d   1      -0.278   0.236  -0.427  0.00  0.00     0.017 A 
ATOM      5  C4  UNL d   1      -0.340  -1.112  -0.796  0.00  0.00     0.017 A 
ATOM      6  C5  UNL d   1      -0.644  -2.082   0.165  0.00  0.00     0.034 A 
ATOM      7 Cl   UNL d   1      -0.053  -1.644  -2.415  0.00  0.00    -0.070 Cl
ATOM      8 Cl1  UNL d   1       0.091   1.492  -1.555  0.00  0.00    -0.070 Cl
ENDROOT
TORSDOF 0
ENDMDL
