MODEL 1
REMARK minimizedAffinity -3.08076048
REMARK minimizedRMSD -1
REMARK  0 active torsions:
REMARK  status: ('A' for Active; 'I' for Inactive)
ROOT
ATOM      1  C   UNL d   1       0.295   1.369  -0.292  0.00  0.00     0.020 A 
ATOM      2  C1  UNL d   1      -0.150   0.853   0.924  0.00  0.00     0.020 A 
ATOM      3  C2  UNL d   1      -0.284  -0.527   1.090  0.00  0.00     0.034 A 
ATOM      4  C3  UNL d   1       0.027  -1.396   0.038  0.00  0.00     0.017 A 
ATOM      5  C4  UNL d   1       0.474  -0.877  -1.182  0.00  0.00     0.017 A 
ATOM      6  C5  UNL d   1       0.606   0.506  -1.343  0.00  0.00     0.034 A 
ATOM      7 Cl   UNL d   1       0.877  -1.886  -2.526  0.00  0.00    -0.070 Cl
ATOM      8 Cl1  UNL d   1      -0.162  -3.091   0.314  0.00  0.00    -0.070 Cl
ENDROOT
TORSDOF 0
ENDMDL
