MODEL 1
REMARK minimizedAffinity 0.070789896
REMARK minimizedRMSD -1
REMARK  0 active torsions:
REMARK  status: ('A' for Active; 'I' for Inactive)
ROOT
ATOM      1  C   UNL d   1       1.054   2.928   0.343  0.00  0.00     0.020 A 
ATOM      2  C1  UNL d   1      -0.217   2.750  -0.202  0.00  0.00     0.020 A 
ATOM      3  C2  UNL d   1      -0.822   1.491  -0.166  0.00  0.00     0.034 A 
ATOM      4  C3  UNL d   1      -0.155   0.407   0.416  0.00  0.00     0.017 A 
ATOM      5  C4  UNL d   1       1.120   0.587   0.963  0.00  0.00     0.017 A 
ATOM      6  C5  UNL d   1       1.721   1.849   0.924  0.00  0.00     0.034 A 
ATOM      7 Cl   UNL d   1       2.005  -0.703   1.698  0.00  0.00    -0.070 Cl
ATOM      8 Cl1  UNL d   1      -0.963  -1.121   0.426  0.00  0.00    -0.070 Cl
ENDROOT
TORSDOF 0
ENDMDL
