MODEL 1
REMARK minimizedAffinity 1.12003887
REMARK minimizedRMSD -1
REMARK  0 active torsions:
REMARK  status: ('A' for Active; 'I' for Inactive)
ROOT
ATOM      1  C   UNL d   1      -1.311  -2.559   0.643  0.00  0.00     0.020 A 
ATOM      2  C1  UNL d   1      -0.438  -2.152  -0.365  0.00  0.00     0.020 A 
ATOM      3  C2  UNL d   1      -0.101  -0.803  -0.493  0.00  0.00     0.034 A 
ATOM      4  C3  UNL d   1      -0.636   0.144   0.388  0.00  0.00     0.017 A 
ATOM      5  C4  UNL d   1      -1.512  -0.266   1.399  0.00  0.00     0.017 A 
ATOM      6  C5  UNL d   1      -1.847  -1.618   1.524  0.00  0.00     0.034 A 
ATOM      7 Cl   UNL d   1      -2.213   0.843   2.524  0.00  0.00    -0.070 Cl
ATOM      8 Cl1  UNL d   1      -0.175   1.795   0.171  0.00  0.00    -0.070 Cl
ENDROOT
TORSDOF 0
ENDMDL
