MODEL 1
REMARK minimizedAffinity -3.59253573
REMARK minimizedRMSD -1
REMARK  0 active torsions:
REMARK  status: ('A' for Active; 'I' for Inactive)
ROOT
ATOM      1  C   UNL d   1       0.152  -1.684  -0.792  0.00  0.00     0.020 A 
ATOM      2  C1  UNL d   1      -0.646  -2.403   0.097  0.00  0.00     0.020 A 
ATOM      3  C2  UNL d   1      -1.371  -1.733   1.084  0.00  0.00     0.034 A 
ATOM      4  C3  UNL d   1      -1.300  -0.339   1.185  0.00  0.00     0.017 A 
ATOM      5  C4  UNL d   1      -0.499   0.383   0.293  0.00  0.00     0.017 A 
ATOM      6  C5  UNL d   1       0.225  -0.294  -0.694  0.00  0.00     0.034 A 
ATOM      7 Cl   UNL d   1      -0.361   2.105   0.355  0.00  0.00    -0.070 Cl
ATOM      8 Cl1  UNL d   1      -2.224   0.425   2.430  0.00  0.00    -0.070 Cl
ENDROOT
TORSDOF 0
ENDMDL
