MODEL 1
REMARK minimizedAffinity -3.04492331
REMARK minimizedRMSD -1
REMARK  0 active torsions:
REMARK  status: ('A' for Active; 'I' for Inactive)
ROOT
ATOM      1  C   UNL d   1      -0.912  -2.304   1.489  0.00  0.00     0.020 A 
ATOM      2  C1  UNL d   1      -0.972  -0.984   1.933  0.00  0.00     0.020 A 
ATOM      3  C2  UNL d   1      -0.707   0.063   1.048  0.00  0.00     0.034 A 
ATOM      4  C3  UNL d   1      -0.380  -0.208  -0.285  0.00  0.00     0.017 A 
ATOM      5  C4  UNL d   1      -0.320  -1.534  -0.730  0.00  0.00     0.017 A 
ATOM      6  C5  UNL d   1      -0.587  -2.578   0.160  0.00  0.00     0.034 A 
ATOM      7 Cl   UNL d   1       0.076  -1.947  -2.361  0.00  0.00    -0.070 Cl
ATOM      8 Cl1  UNL d   1      -0.064   1.136  -1.324  0.00  0.00    -0.070 Cl
ENDROOT
TORSDOF 0
ENDMDL
