MODEL 1
REMARK minimizedAffinity -3.09996819
REMARK minimizedRMSD -1
REMARK  0 active torsions:
REMARK  status: ('A' for Active; 'I' for Inactive)
ROOT
ATOM      1  C   UNL d   1      -1.060  -0.360   1.648  0.00  0.00     0.020 A 
ATOM      2  C1  UNL d   1      -0.996  -1.719   1.342  0.00  0.00     0.020 A 
ATOM      3  C2  UNL d   1      -0.694  -2.128   0.041  0.00  0.00     0.034 A 
ATOM      4  C3  UNL d   1      -0.456  -1.178  -0.958  0.00  0.00     0.017 A 
ATOM      5  C4  UNL d   1      -0.520   0.186  -0.650  0.00  0.00     0.017 A 
ATOM      6  C5  UNL d   1      -0.823   0.590   0.654  0.00  0.00     0.034 A 
ATOM      7 Cl   UNL d   1      -0.239   1.417  -1.830  0.00  0.00    -0.070 Cl
ATOM      8 Cl1  UNL d   1      -0.088  -1.756  -2.545  0.00  0.00    -0.070 Cl
ENDROOT
TORSDOF 0
ENDMDL
