MODEL 1
REMARK minimizedAffinity -2.82400322
REMARK minimizedRMSD -1
REMARK  0 active torsions:
REMARK  status: ('A' for Active; 'I' for Inactive)
ROOT
ATOM      1  C   UNL d   1       0.055   1.547  -0.437  0.00  0.00     0.020 A 
ATOM      2  C1  UNL d   1      -0.380   1.218   0.846  0.00  0.00     0.020 A 
ATOM      3  C2  UNL d   1      -0.679  -0.109   1.163  0.00  0.00     0.034 A 
ATOM      4  C3  UNL d   1      -0.544  -1.111   0.196  0.00  0.00     0.017 A 
ATOM      5  C4  UNL d   1      -0.107  -0.780  -1.092  0.00  0.00     0.017 A 
ATOM      6  C5  UNL d   1       0.191   0.550  -1.404  0.00  0.00     0.034 A 
ATOM      7 Cl   UNL d   1       0.085  -1.962  -2.338  0.00  0.00    -0.070 Cl
ATOM      8 Cl1  UNL d   1      -0.931  -2.731   0.658  0.00  0.00    -0.070 Cl
ENDROOT
TORSDOF 0
ENDMDL
