MODEL 1
REMARK minimizedAffinity -0.595661819
REMARK minimizedRMSD -1
REMARK  0 active torsions:
REMARK  status: ('A' for Active; 'I' for Inactive)
ROOT
ATOM      1  C   UNL d   1       0.375  -0.109   2.091  0.00  0.00     0.020 A 
ATOM      2  C1  UNL d   1      -0.487  -0.699   1.168  0.00  0.00     0.020 A 
ATOM      3  C2  UNL d   1      -0.704  -0.094  -0.072  0.00  0.00     0.034 A 
ATOM      4  C3  UNL d   1      -0.058   1.106  -0.391  0.00  0.00     0.017 A 
ATOM      5  C4  UNL d   1       0.807   1.698   0.536  0.00  0.00     0.017 A 
ATOM      6  C5  UNL d   1       1.021   1.087   1.775  0.00  0.00     0.034 A 
ATOM      7 Cl   UNL d   1       1.640   3.178   0.213  0.00  0.00    -0.070 Cl
ATOM      8 Cl1  UNL d   1      -0.372   1.799  -1.943  0.00  0.00    -0.070 Cl
ENDROOT
TORSDOF 0
ENDMDL
