MODEL 1
REMARK minimizedAffinity -2.88270879
REMARK minimizedRMSD -1
REMARK  0 active torsions:
REMARK  status: ('A' for Active; 'I' for Inactive)
ROOT
ATOM      1  C   UNL d   1      -0.125   1.200  -0.099  0.00  0.00     0.020 A 
ATOM      2  C1  UNL d   1      -0.533   0.622   1.103  0.00  0.00     0.020 A 
ATOM      3  C2  UNL d   1      -0.761  -0.754   1.174  0.00  0.00     0.034 A 
ATOM      4  C3  UNL d   1      -0.583  -1.557   0.042  0.00  0.00     0.017 A 
ATOM      5  C4  UNL d   1      -0.173  -0.976  -1.164  0.00  0.00     0.017 A 
ATOM      6  C5  UNL d   1       0.054   0.402  -1.230  0.00  0.00     0.034 A 
ATOM      7 Cl   UNL d   1       0.069  -1.902  -2.603  0.00  0.00    -0.070 Cl
ATOM      8 Cl1  UNL d   1      -0.883  -3.251   0.202  0.00  0.00    -0.070 Cl
ENDROOT
TORSDOF 0
ENDMDL
