MODEL 1
REMARK minimizedAffinity -1.91310191
REMARK minimizedRMSD -1
REMARK  0 active torsions:
REMARK  status: ('A' for Active; 'I' for Inactive)
ROOT
ATOM      1  C   UNL d   1      -0.137   0.788   0.262  0.00  0.00     0.020 A 
ATOM      2  C1  UNL d   1      -0.580   0.014   1.334  0.00  0.00     0.020 A 
ATOM      3  C2  UNL d   1      -0.911  -1.328   1.135  0.00  0.00     0.034 A 
ATOM      4  C3  UNL d   1      -0.799  -1.900  -0.137  0.00  0.00     0.017 A 
ATOM      5  C4  UNL d   1      -0.355  -1.122  -1.212  0.00  0.00     0.017 A 
ATOM      6  C5  UNL d   1      -0.025   0.222  -1.008  0.00  0.00     0.034 A 
ATOM      7 Cl   UNL d   1      -0.192  -1.757  -2.811  0.00  0.00    -0.070 Cl
ATOM      8 Cl1  UNL d   1      -1.226  -3.565  -0.310  0.00  0.00    -0.070 Cl
ENDROOT
TORSDOF 0
ENDMDL
