MODEL 1
REMARK minimizedAffinity -0.866682053
REMARK minimizedRMSD -1
REMARK  0 active torsions:
REMARK  status: ('A' for Active; 'I' for Inactive)
ROOT
ATOM      1  C   UNL d   1      -1.263  -2.017   1.212  0.00  0.00     0.020 A 
ATOM      2  C1  UNL d   1      -0.759  -0.717   1.243  0.00  0.00     0.020 A 
ATOM      3  C2  UNL d   1      -0.258  -0.135   0.077  0.00  0.00     0.034 A 
ATOM      4  C3  UNL d   1      -0.259  -0.852  -1.125  0.00  0.00     0.017 A 
ATOM      5  C4  UNL d   1      -0.765  -2.157  -1.155  0.00  0.00     0.017 A 
ATOM      6  C5  UNL d   1      -1.266  -2.735   0.016  0.00  0.00     0.034 A 
ATOM      7 Cl   UNL d   1      -0.800  -3.105  -2.600  0.00  0.00    -0.070 Cl
ATOM      8 Cl1  UNL d   1       0.377  -0.070  -2.528  0.00  0.00    -0.070 Cl
ENDROOT
TORSDOF 0
ENDMDL
