MODEL 1
REMARK minimizedAffinity 1.01057041
REMARK minimizedRMSD -1
REMARK  0 active torsions:
REMARK  status: ('A' for Active; 'I' for Inactive)
ROOT
ATOM      1  C   UNL d   1      -1.301  -2.073   1.142  0.00  0.00     0.020 A 
ATOM      2  C1  UNL d   1      -1.165  -1.032   2.060  0.00  0.00     0.020 A 
ATOM      3  C2  UNL d   1      -0.641   0.196   1.650  0.00  0.00     0.034 A 
ATOM      4  C3  UNL d   1      -0.251   0.386   0.319  0.00  0.00     0.017 A 
ATOM      5  C4  UNL d   1      -0.388  -0.659  -0.601  0.00  0.00     0.017 A 
ATOM      6  C5  UNL d   1      -0.913  -1.887  -0.186  0.00  0.00     0.034 A 
ATOM      7 Cl   UNL d   1       0.072  -0.500  -2.260  0.00  0.00    -0.070 Cl
ATOM      8 Cl1  UNL d   1       0.388   1.931  -0.118  0.00  0.00    -0.070 Cl
ENDROOT
TORSDOF 0
ENDMDL
