MODEL 1
REMARK minimizedAffinity -3.49631262
REMARK minimizedRMSD -1
REMARK  0 active torsions:
REMARK  status: ('A' for Active; 'I' for Inactive)
ROOT
ATOM      1  C   UNL d   1      -0.874  -2.834   0.210  0.00  0.00     0.020 A 
ATOM      2  C1  UNL d   1      -0.717  -3.205  -1.125  0.00  0.00     0.020 A 
ATOM      3  C2  UNL d   1      -0.324  -2.256  -2.071  0.00  0.00     0.034 A 
ATOM      4  C3  UNL d   1      -0.087  -0.932  -1.684  0.00  0.00     0.017 A 
ATOM      5  C4  UNL d   1      -0.244  -0.561  -0.343  0.00  0.00     0.017 A 
ATOM      6  C5  UNL d   1      -0.638  -1.515   0.600  0.00  0.00     0.034 A 
ATOM      7 Cl   UNL d   1       0.031   1.053   0.210  0.00  0.00    -0.070 Cl
ATOM      8 Cl1  UNL d   1       0.397   0.188  -2.907  0.00  0.00    -0.070 Cl
ENDROOT
TORSDOF 0
ENDMDL
