MODEL 1
REMARK minimizedAffinity -4.5902853
REMARK minimizedRMSD -1
REMARK  1 active torsions:
REMARK  status: ('A' for Active; 'I' for Inactive)
REMARK    1  A    between atoms: N_2  and  C1_3 
ROOT
ATOM      1  C1  UNL d   1      -0.573  -0.659   0.527  0.00  0.00     0.143 A 
ATOM      2  C2  UNL d   1       0.588  -1.385   0.238  0.00  0.00    -0.057 A 
ATOM      3  C3  UNL d   1       1.109  -2.314   1.147  0.00  0.00     0.033 A 
ATOM      4  C4  UNL d   1       0.491  -2.513   2.378  0.00  0.00    -0.042 A 
ATOM      5  C5  UNL d   1      -0.649  -1.785   2.696  0.00  0.00     0.033 A 
ATOM      6  C6  UNL d   1      -1.168  -0.864   1.782  0.00  0.00    -0.057 A 
ENDROOT
BRANCH   1   7
ATOM      7  N   UNL d   1      -1.084   0.349  -0.293  0.00  0.00    -0.732 N 
ATOM      8  C   UNL d   1      -0.213   1.369  -0.837  0.00  0.00     0.284 C 
ATOM      9  H3  UNL d   1      -1.778   0.001  -0.951  0.00  0.00     0.395 HD
ENDBRANCH   1   7
TORSDOF 1
ENDMDL
