MODEL 1
REMARK minimizedAffinity -5.43548632
REMARK minimizedRMSD -1
REMARK  1 active torsions:
REMARK  status: ('A' for Active; 'I' for Inactive)
REMARK    1  A    between atoms: N_2  and  C1_3 
ROOT
ATOM      1  C1  UNL d   1      -0.150  -0.011   0.475  0.00  0.00     0.143 A 
ATOM      2  C2  UNL d   1      -0.901  -0.587   1.505  0.00  0.00    -0.057 A 
ATOM      3  C3  UNL d   1      -0.456  -1.735   2.173  0.00  0.00     0.033 A 
ATOM      4  C4  UNL d   1       0.737  -2.345   1.801  0.00  0.00    -0.042 A 
ATOM      5  C5  UNL d   1       1.488  -1.804   0.763  0.00  0.00     0.033 A 
ATOM      6  C6  UNL d   1       1.042  -0.653   0.105  0.00  0.00    -0.057 A 
ENDROOT
BRANCH   1   7
ATOM      7  N   UNL d   1      -0.585   1.072  -0.293  0.00  0.00    -0.732 N 
ATOM      8  C   UNL d   1      -1.492   0.872  -1.402  0.00  0.00     0.284 C 
ATOM      9  H3  UNL d   1      -0.796   1.890   0.274  0.00  0.00     0.395 HD
ENDBRANCH   1   7
TORSDOF 1
ENDMDL
