MODEL 1
REMARK minimizedAffinity -3.47715211
REMARK minimizedRMSD -1
REMARK  1 active torsions:
REMARK  status: ('A' for Active; 'I' for Inactive)
REMARK    1  A    between atoms: N_2  and  C1_3 
ROOT
ATOM      1  C1  UNL d   1      -0.605  -0.577   0.877  0.00  0.00     0.143 A 
ATOM      2  C2  UNL d   1       0.502  -1.388   0.607  0.00  0.00    -0.057 A 
ATOM      3  C3  UNL d   1       0.840  -2.458   1.445  0.00  0.00     0.033 A 
ATOM      4  C4  UNL d   1       0.091  -2.717   2.588  0.00  0.00    -0.042 A 
ATOM      5  C5  UNL d   1      -0.999  -1.908   2.890  0.00  0.00     0.033 A 
ATOM      6  C6  UNL d   1      -1.335  -0.846   2.045  0.00  0.00    -0.057 A 
ENDROOT
BRANCH   1   7
ATOM      7  N   UNL d   1      -0.935   0.561   0.137  0.00  0.00    -0.732 N 
ATOM      8  C   UNL d   1       0.092   1.322  -0.542  0.00  0.00     0.284 C 
ATOM      9  H3  UNL d   1      -1.788   0.439  -0.405  0.00  0.00     0.395 HD
ENDBRANCH   1   7
TORSDOF 1
ENDMDL
