MODEL 1
REMARK minimizedAffinity -5.09024191
REMARK minimizedRMSD -1
REMARK  1 active torsions:
REMARK  status: ('A' for Active; 'I' for Inactive)
REMARK    1  A    between atoms: N_2  and  C1_3 
ROOT
ATOM      1  C1  UNL d   1       0.208  -0.247   0.059  0.00  0.00     0.143 A 
ATOM      2  C2  UNL d   1       1.481  -0.571  -0.424  0.00  0.00    -0.057 A 
ATOM      3  C3  UNL d   1       2.145  -1.728   0.002  0.00  0.00     0.033 A 
ATOM      4  C4  UNL d   1       1.558  -2.568   0.943  0.00  0.00    -0.042 A 
ATOM      5  C5  UNL d   1       0.305  -2.252   1.454  0.00  0.00     0.033 A 
ATOM      6  C6  UNL d   1      -0.356  -1.099   1.020  0.00  0.00    -0.057 A 
ENDROOT
BRANCH   1   7
ATOM      7  N   UNL d   1      -0.461   0.940  -0.251  0.00  0.00    -0.732 N 
ATOM      8  C   UNL d   1      -0.568   1.389  -1.623  0.00  0.00     0.284 C 
ATOM      9  H3  UNL d   1      -1.313   1.058   0.293  0.00  0.00     0.395 HD
ENDBRANCH   1   7
TORSDOF 1
ENDMDL
