MODEL 1
REMARK minimizedAffinity -5.67075109
REMARK minimizedRMSD -1
REMARK  1 active torsions:
REMARK  status: ('A' for Active; 'I' for Inactive)
REMARK    1  A    between atoms: N_2  and  C1_3 
ROOT
ATOM      1  C1  UNL d   1       0.360  -0.745   0.578  0.00  0.00     0.143 A 
ATOM      2  C2  UNL d   1       1.322  -1.753   0.459  0.00  0.00    -0.057 A 
ATOM      3  C3  UNL d   1       1.366  -2.825   1.359  0.00  0.00     0.033 A 
ATOM      4  C4  UNL d   1       0.463  -2.891   2.415  0.00  0.00    -0.042 A 
ATOM      5  C5  UNL d   1      -0.486  -1.887   2.568  0.00  0.00     0.033 A 
ATOM      6  C6  UNL d   1      -0.529  -0.823   1.662  0.00  0.00    -0.057 A 
ENDROOT
BRANCH   1   7
ATOM      7  N   UNL d   1       0.326   0.397  -0.226  0.00  0.00    -0.732 N 
ATOM      8  C   UNL d   1      -0.907   1.129  -0.416  0.00  0.00     0.284 C 
ATOM      9  H3  UNL d   1       1.144   0.988  -0.096  0.00  0.00     0.395 HD
ENDBRANCH   1   7
TORSDOF 1
ENDMDL
