MODEL 1
REMARK minimizedAffinity -4.13210392
REMARK minimizedRMSD -1
REMARK  1 active torsions:
REMARK  status: ('A' for Active; 'I' for Inactive)
REMARK    1  A    between atoms: N_2  and  C1_3 
ROOT
ATOM      1  C1  UNL d   1       0.422  -0.552   0.209  0.00  0.00     0.143 A 
ATOM      2  C2  UNL d   1       1.703  -0.990   0.562  0.00  0.00    -0.057 A 
ATOM      3  C3  UNL d   1       1.887  -2.092   1.405  0.00  0.00     0.033 A 
ATOM      4  C4  UNL d   1       0.789  -2.761   1.936  0.00  0.00    -0.042 A 
ATOM      5  C5  UNL d   1      -0.494  -2.328   1.619  0.00  0.00     0.033 A 
ATOM      6  C6  UNL d   1      -0.671  -1.231   0.771  0.00  0.00    -0.057 A 
ENDROOT
BRANCH   1   7
ATOM      7  N   UNL d   1       0.173   0.597  -0.546  0.00  0.00    -0.732 N 
ATOM      8  C   UNL d   1      -0.992   1.414  -0.281  0.00  0.00     0.284 C 
ATOM      9  H3  UNL d   1       1.019   1.128  -0.735  0.00  0.00     0.395 HD
ENDBRANCH   1   7
TORSDOF 1
ENDMDL
