MODEL 1
REMARK minimizedAffinity -5.23506641
REMARK minimizedRMSD -1
REMARK  1 active torsions:
REMARK  status: ('A' for Active; 'I' for Inactive)
REMARK    1  A    between atoms: N_2  and  C1_3 
ROOT
ATOM      1  C1  UNL d   1      -0.037  -0.529   0.787  0.00  0.00     0.143 A 
ATOM      2  C2  UNL d   1       1.248  -0.801   0.304  0.00  0.00    -0.057 A 
ATOM      3  C3  UNL d   1       1.990  -1.886   0.786  0.00  0.00     0.033 A 
ATOM      4  C4  UNL d   1       1.469  -2.705   1.783  0.00  0.00    -0.042 A 
ATOM      5  C5  UNL d   1       0.204  -2.438   2.295  0.00  0.00     0.033 A 
ATOM      6  C6  UNL d   1      -0.534  -1.357   1.805  0.00  0.00    -0.057 A 
ENDROOT
BRANCH   1   7
ATOM      7  N   UNL d   1      -0.784   0.592   0.418  0.00  0.00    -0.732 N 
ATOM      8  C   UNL d   1      -0.744   1.092  -0.939  0.00  0.00     0.284 C 
ATOM      9  H3  UNL d   1      -1.713   0.594   0.835  0.00  0.00     0.395 HD
ENDBRANCH   1   7
TORSDOF 1
ENDMDL
