MODEL 1
REMARK minimizedAffinity -5.17866611
REMARK minimizedRMSD -1
REMARK  1 active torsions:
REMARK  status: ('A' for Active; 'I' for Inactive)
REMARK    1  A    between atoms: N_2  and  C1_3 
ROOT
ATOM      1  C1  UNL d   1       0.300  -0.118  -0.181  0.00  0.00     0.143 A 
ATOM      2  C2  UNL d   1      -0.419  -0.899   0.730  0.00  0.00    -0.057 A 
ATOM      3  C3  UNL d   1       0.145  -2.042   1.310  0.00  0.00     0.033 A 
ATOM      4  C4  UNL d   1       1.432  -2.442   0.965  0.00  0.00    -0.042 A 
ATOM      5  C5  UNL d   1       2.156  -1.695   0.042  0.00  0.00     0.033 A 
ATOM      6  C6  UNL d   1       1.590  -0.551  -0.528  0.00  0.00    -0.057 A 
ENDROOT
BRANCH   1   7
ATOM      7  N   UNL d   1      -0.239   0.973  -0.866  0.00  0.00    -0.732 N 
ATOM      8  C   UNL d   1      -1.673   1.130  -0.991  0.00  0.00     0.284 C 
ATOM      9  H3  UNL d   1       0.258   1.839  -0.671  0.00  0.00     0.395 HD
ENDBRANCH   1   7
TORSDOF 1
ENDMDL
