MODEL 1
REMARK minimizedAffinity -3.84533405
REMARK minimizedRMSD -1
REMARK  1 active torsions:
REMARK  status: ('A' for Active; 'I' for Inactive)
REMARK    1  A    between atoms: N_2  and  C1_3 
ROOT
ATOM      1  C1  UNL d   1      -0.316  -0.997   0.732  0.00  0.00     0.143 A 
ATOM      2  C2  UNL d   1       0.895  -1.489   0.234  0.00  0.00    -0.057 A 
ATOM      3  C3  UNL d   1       1.631  -2.452   0.936  0.00  0.00     0.033 A 
ATOM      4  C4  UNL d   1       1.181  -2.918   2.167  0.00  0.00    -0.042 A 
ATOM      5  C5  UNL d   1      -0.007  -2.424   2.693  0.00  0.00     0.033 A 
ATOM      6  C6  UNL d   1      -0.741  -1.468   1.984  0.00  0.00    -0.057 A 
ENDROOT
BRANCH   1   7
ATOM      7  N   UNL d   1      -1.044   0.032   0.128  0.00  0.00    -0.732 N 
ATOM      8  C   UNL d   1      -0.366   1.160  -0.474  0.00  0.00     0.284 C 
ATOM      9  H3  UNL d   1      -1.833  -0.316  -0.412  0.00  0.00     0.395 HD
ENDBRANCH   1   7
TORSDOF 1
ENDMDL
