MODEL 1
REMARK minimizedAffinity -4.7454114
REMARK minimizedRMSD -1
REMARK  1 active torsions:
REMARK  status: ('A' for Active; 'I' for Inactive)
REMARK    1  A    between atoms: N_2  and  C1_3 
ROOT
ATOM      1  C1  UNL d   1       0.370  -0.799   0.471  0.00  0.00     0.143 A 
ATOM      2  C2  UNL d   1       1.569  -1.516   0.393  0.00  0.00    -0.057 A 
ATOM      3  C3  UNL d   1       1.869  -2.531   1.309  0.00  0.00     0.033 A 
ATOM      4  C4  UNL d   1       0.985  -2.828   2.342  0.00  0.00    -0.042 A 
ATOM      5  C5  UNL d   1      -0.200  -2.111   2.454  0.00  0.00     0.033 A 
ATOM      6  C6  UNL d   1      -0.498  -1.103   1.532  0.00  0.00    -0.057 A 
ENDROOT
BRANCH   1   7
ATOM      7  N   UNL d   1       0.059   0.287  -0.350  0.00  0.00    -0.732 N 
ATOM      8  C   UNL d   1      -0.818   1.339   0.119  0.00  0.00     0.284 C 
ATOM      9  H3  UNL d   1       0.864   0.621  -0.875  0.00  0.00     0.395 HD
ENDBRANCH   1   7
TORSDOF 1
ENDMDL
