MODEL 1
REMARK minimizedAffinity -4.64718485
REMARK minimizedRMSD -1
REMARK  0 active torsions:
REMARK  status: ('A' for Active; 'I' for Inactive)
ROOT
ATOM      1  C2' OXE d   1      -1.246   0.965  -0.188  0.00  0.00     0.078 C 
ATOM      2  C1' OXE d   1      -0.578  -1.755  -0.373  0.00  0.00     0.078 C 
ATOM      3  C1  OXE d   1       0.549  -0.761  -0.238  0.00  0.00    -0.078 A 
ATOM      4  C2  OXE d   1       0.215   0.571  -0.195  0.00  0.00    -0.078 A 
ATOM      5  C3  OXE d   1       1.211   1.526  -0.016  0.00  0.00     0.003 A 
ATOM      6  C4  OXE d   1       2.561   1.154  -0.034  0.00  0.00    -0.002 A 
ATOM      7  C5  OXE d   1       2.925  -0.194  -0.117  0.00  0.00    -0.002 A 
ATOM      8  C6  OXE d   1       1.932  -1.165  -0.177  0.00  0.00     0.003 A 
ENDROOT
TORSDOF 0
ENDMDL
