MODEL 1
REMARK minimizedAffinity -5.18983078
REMARK minimizedRMSD -1
REMARK  0 active torsions:
REMARK  status: ('A' for Active; 'I' for Inactive)
ROOT
ATOM      1  C2' OXE d   1       3.018   1.550   0.373  0.00  0.00     0.078 C 
ATOM      2  C1' OXE d   1       3.121  -1.250   0.205  0.00  0.00     0.078 C 
ATOM      3  C1  OXE d   1       1.819  -0.572  -0.141  0.00  0.00    -0.078 A 
ATOM      4  C2  OXE d   1       1.764   0.795  -0.011  0.00  0.00    -0.078 A 
ATOM      5  C3  OXE d   1       0.604   1.475  -0.369  0.00  0.00     0.003 A 
ATOM      6  C4  OXE d   1      -0.555   0.769  -0.713  0.00  0.00    -0.002 A 
ATOM      7  C5  OXE d   1      -0.532  -0.626  -0.813  0.00  0.00    -0.002 A 
ATOM      8  C6  OXE d   1       0.656  -1.308  -0.572  0.00  0.00     0.003 A 
ENDROOT
TORSDOF 0
ENDMDL
