MODEL 1
REMARK minimizedAffinity -3.600178
REMARK minimizedRMSD -1
REMARK  0 active torsions:
REMARK  status: ('A' for Active; 'I' for Inactive)
ROOT
ATOM      1  C2' OXE d   1      -0.328  -1.398  -1.721  0.00  0.00     0.078 C 
ATOM      2  C1' OXE d   1      -1.026   0.849  -0.189  0.00  0.00     0.078 C 
ATOM      3  C1  OXE d   1       0.278   0.160   0.126  0.00  0.00    -0.078 A 
ATOM      4  C2  OXE d   1       0.589  -0.966  -0.597  0.00  0.00    -0.078 A 
ATOM      5  C3  OXE d   1       1.806  -1.608  -0.384  0.00  0.00     0.003 A 
ATOM      6  C4  OXE d   1       2.644  -1.209   0.664  0.00  0.00    -0.002 A 
ATOM      7  C5  OXE d   1       2.327  -0.088   1.439  0.00  0.00    -0.002 A 
ATOM      8  C6  OXE d   1       1.171   0.631   1.156  0.00  0.00     0.003 A 
ENDROOT
TORSDOF 0
ENDMDL
