MODEL 1
REMARK minimizedAffinity -3.362643
REMARK minimizedRMSD -1
REMARK  0 active torsions:
REMARK  status: ('A' for Active; 'I' for Inactive)
ROOT
ATOM      1  C2' OXE d   1      -0.810   0.637  -0.521  0.00  0.00     0.078 C 
ATOM      2  C1' OXE d   1       1.663   1.812   0.100  0.00  0.00     0.078 C 
ATOM      3  C1  OXE d   1       1.536   0.317   0.254  0.00  0.00    -0.078 A 
ATOM      4  C2  OXE d   1       0.309  -0.243  -0.007  0.00  0.00    -0.078 A 
ATOM      5  C3  OXE d   1       0.151  -1.625   0.067  0.00  0.00     0.003 A 
ATOM      6  C4  OXE d   1       1.188  -2.431   0.552  0.00  0.00    -0.002 A 
ATOM      7  C5  OXE d   1       2.434  -1.875   0.862  0.00  0.00    -0.002 A 
ATOM      8  C6  OXE d   1       2.637  -0.512   0.678  0.00  0.00     0.003 A 
ENDROOT
TORSDOF 0
ENDMDL
