MODEL 1
REMARK minimizedAffinity -5.19649076
REMARK minimizedRMSD -1
REMARK  0 active torsions:
REMARK  status: ('A' for Active; 'I' for Inactive)
ROOT
ATOM      1  C2' OXE d   1      -0.705  -1.939  -1.648  0.00  0.00     0.078 C 
ATOM      2  C1' OXE d   1      -1.399   0.453  -0.353  0.00  0.00     0.078 C 
ATOM      3  C1  OXE d   1      -0.014  -0.097  -0.121  0.00  0.00    -0.078 A 
ATOM      4  C2  OXE d   1       0.301  -1.292  -0.722  0.00  0.00    -0.078 A 
ATOM      5  C3  OXE d   1       1.584  -1.815  -0.585  0.00  0.00     0.003 A 
ATOM      6  C4  OXE d   1       2.505  -1.216   0.282  0.00  0.00    -0.002 A 
ATOM      7  C5  OXE d   1       2.191  -0.019   0.935  0.00  0.00    -0.002 A 
ATOM      8  C6  OXE d   1       0.954   0.575   0.712  0.00  0.00     0.003 A 
ENDROOT
TORSDOF 0
ENDMDL
