MODEL 1
REMARK minimizedAffinity -3.17337751
REMARK minimizedRMSD -1
REMARK  0 active torsions:
REMARK  status: ('A' for Active; 'I' for Inactive)
ROOT
ATOM      1  C2' OXE d   1      -0.238  -0.014  -0.758  0.00  0.00     0.078 C 
ATOM      2  C1' OXE d   1       0.623   2.656  -0.843  0.00  0.00     0.078 C 
ATOM      3  C1  OXE d   1       1.602   1.617  -0.357  0.00  0.00    -0.078 A 
ATOM      4  C2  OXE d   1       1.157   0.320  -0.274  0.00  0.00    -0.078 A 
ATOM      5  C3  OXE d   1       2.036  -0.687   0.117  0.00  0.00     0.003 A 
ATOM      6  C4  OXE d   1       3.321  -0.368   0.572  0.00  0.00    -0.002 A 
ATOM      7  C5  OXE d   1       3.781   0.952   0.534  0.00  0.00    -0.002 A 
ATOM      8  C6  OXE d   1       2.950   1.949   0.033  0.00  0.00     0.003 A 
ENDROOT
TORSDOF 0
ENDMDL
