MODEL 1
REMARK minimizedAffinity -5.33704281
REMARK minimizedRMSD -1
REMARK  0 active torsions:
REMARK  status: ('A' for Active; 'I' for Inactive)
ROOT
ATOM      1  C2' OXE d   1      -0.401   0.665  -0.271  0.00  0.00     0.078 C 
ATOM      2  C1' OXE d   1       2.004   1.981   0.331  0.00  0.00     0.078 C 
ATOM      3  C1  OXE d   1       2.027   0.475   0.250  0.00  0.00    -0.078 A 
ATOM      4  C2  OXE d   1       0.836  -0.163   0.001  0.00  0.00    -0.078 A 
ATOM      5  C3  OXE d   1       0.812  -1.548  -0.138  0.00  0.00     0.003 A 
ATOM      6  C4  OXE d   1       1.958  -2.307   0.125  0.00  0.00    -0.002 A 
ATOM      7  C5  OXE d   1       3.173  -1.679   0.419  0.00  0.00    -0.002 A 
ATOM      8  C6  OXE d   1       3.234  -0.290   0.443  0.00  0.00     0.003 A 
ENDROOT
TORSDOF 0
ENDMDL
