MODEL 1
REMARK minimizedAffinity -3.28081822
REMARK minimizedRMSD -1
REMARK  0 active torsions:
REMARK  status: ('A' for Active; 'I' for Inactive)
ROOT
ATOM      1  C2' OXE d   1       0.374  -1.887  -0.385  0.00  0.00     0.078 C 
ATOM      2  C1' OXE d   1      -0.578   0.750  -0.238  0.00  0.00     0.078 C 
ATOM      3  C1  OXE d   1       0.915   0.537  -0.197  0.00  0.00    -0.078 A 
ATOM      4  C2  OXE d   1       1.370  -0.759  -0.222  0.00  0.00    -0.078 A 
ATOM      5  C3  OXE d   1       2.739  -1.009  -0.241  0.00  0.00     0.003 A 
ATOM      6  C4  OXE d   1       3.653   0.039  -0.080  0.00  0.00    -0.002 A 
ATOM      7  C5  OXE d   1       3.209   1.364  -0.013  0.00  0.00    -0.002 A 
ATOM      8  C6  OXE d   1       1.849   1.633  -0.112  0.00  0.00     0.003 A 
ENDROOT
TORSDOF 0
ENDMDL
