MODEL 1
REMARK minimizedAffinity -3.02681804
REMARK minimizedRMSD -1
REMARK  0 active torsions:
REMARK  status: ('A' for Active; 'I' for Inactive)
ROOT
ATOM      1  C2' OXE d   1       2.758   2.017   0.774  0.00  0.00     0.078 C 
ATOM      2  C1' OXE d   1       3.617  -0.651   0.935  0.00  0.00     0.078 C 
ATOM      3  C1  OXE d   1       2.230  -0.389   0.402  0.00  0.00    -0.078 A 
ATOM      4  C2  OXE d   1       1.801   0.916   0.370  0.00  0.00    -0.078 A 
ATOM      5  C3  OXE d   1       0.551   1.218  -0.163  0.00  0.00     0.003 A 
ATOM      6  C4  OXE d   1      -0.332   0.193  -0.524  0.00  0.00    -0.002 A 
ATOM      7  C5  OXE d   1       0.071  -1.145  -0.463  0.00  0.00    -0.002 A 
ATOM      8  C6  OXE d   1       1.361  -1.450  -0.043  0.00  0.00     0.003 A 
ENDROOT
TORSDOF 0
ENDMDL
