MODEL 1
REMARK minimizedAffinity -3.60856509
REMARK minimizedRMSD -1
REMARK  1 active torsions:
REMARK  status: ('A' for Active; 'I' for Inactive)
REMARK    1  A    between atoms: C1_2  and  C2_3 
ROOT
ATOM      1  C2  UNL d   1      -1.563   1.294   0.339  0.00  0.00    -0.077 A 
ATOM      2  C3  UNL d   1      -1.734   2.023   1.525  0.00  0.00     0.002 A 
ATOM      3  C4  UNL d   1      -2.969   2.029   2.178  0.00  0.00     0.002 A 
ATOM      4  C5  UNL d   1      -4.039   1.306   1.655  0.00  0.00    -0.004 A 
ATOM      5  C6  UNL d   1      -3.879   0.580   0.475  0.00  0.00     0.002 A 
ATOM      6  C7  UNL d   1      -2.646   0.574  -0.179  0.00  0.00     0.002 A 
ENDROOT
BRANCH   1   7
ATOM      7  C1  UNL d   1      -0.219   1.246  -0.340  0.00  0.00     0.055 C 
ATOM      8  C   UNL d   1       0.805   0.508   0.510  0.00  0.00     0.019 C 
ENDBRANCH   1   7
TORSDOF 1
ENDMDL
