MODEL 1
REMARK minimizedAffinity -5.77907228
REMARK minimizedRMSD -1
REMARK  1 active torsions:
REMARK  status: ('A' for Active; 'I' for Inactive)
REMARK    1  A    between atoms: C1_2  and  C2_3 
ROOT
ATOM      1  C2  UNL d   1       1.035  -0.671   0.029  0.00  0.00    -0.077 A 
ATOM      2  C3  UNL d   1       0.451   0.575  -0.239  0.00  0.00     0.002 A 
ATOM      3  C4  UNL d   1       1.217   1.741  -0.185  0.00  0.00     0.002 A 
ATOM      4  C5  UNL d   1       2.572   1.672   0.132  0.00  0.00    -0.004 A 
ATOM      5  C6  UNL d   1       3.162   0.438   0.401  0.00  0.00     0.002 A 
ATOM      6  C7  UNL d   1       2.398  -0.728   0.349  0.00  0.00     0.002 A 
ENDROOT
BRANCH   1   7
ATOM      7  C1  UNL d   1       0.222  -1.934  -0.077  0.00  0.00     0.055 C 
ATOM      8  C   UNL d   1       0.102  -2.396  -1.522  0.00  0.00     0.019 C 
ENDBRANCH   1   7
TORSDOF 1
ENDMDL
