MODEL 1
REMARK minimizedAffinity -4.03249788
REMARK minimizedRMSD -1
REMARK  1 active torsions:
REMARK  status: ('A' for Active; 'I' for Inactive)
REMARK    1  A    between atoms: C1_2  and  C2_3 
ROOT
ATOM      1  C2  UNL d   1      -0.510   0.020  -0.032  0.00  0.00    -0.077 A 
ATOM      2  C3  UNL d   1       0.654   0.266   0.710  0.00  0.00     0.002 A 
ATOM      3  C4  UNL d   1       1.696  -0.663   0.717  0.00  0.00     0.002 A 
ATOM      4  C5  UNL d   1       1.586  -1.841  -0.019  0.00  0.00    -0.004 A 
ATOM      5  C6  UNL d   1       0.432  -2.096  -0.758  0.00  0.00     0.002 A 
ATOM      6  C7  UNL d   1      -0.611  -1.169  -0.765  0.00  0.00     0.002 A 
ENDROOT
BRANCH   1   7
ATOM      7  C1  UNL d   1      -1.615   1.043  -0.081  0.00  0.00     0.055 C 
ATOM      8  C   UNL d   1      -2.984   0.382  -0.027  0.00  0.00     0.019 C 
ENDBRANCH   1   7
TORSDOF 1
ENDMDL
