MODEL 1
REMARK minimizedAffinity -3.80827522
REMARK minimizedRMSD -1
REMARK  1 active torsions:
REMARK  status: ('A' for Active; 'I' for Inactive)
REMARK    1  A    between atoms: C1_2  and  C2_3 
ROOT
ATOM      1  C2  UNL d   1      -0.639   0.603  -0.340  0.00  0.00    -0.077 A 
ATOM      2  C3  UNL d   1       0.509   0.915   0.402  0.00  0.00     0.002 A 
ATOM      3  C4  UNL d   1       1.586   0.027   0.443  0.00  0.00     0.002 A 
ATOM      4  C5  UNL d   1       1.527  -1.176  -0.258  0.00  0.00    -0.004 A 
ATOM      5  C6  UNL d   1       0.388  -1.496  -0.997  0.00  0.00     0.002 A 
ATOM      6  C7  UNL d   1      -0.689  -0.610  -1.038  0.00  0.00     0.002 A 
ENDROOT
BRANCH   1   7
ATOM      7  C1  UNL d   1      -1.782   1.581  -0.426  0.00  0.00     0.055 C 
ATOM      8  C   UNL d   1      -3.107   0.916  -0.084  0.00  0.00     0.019 C 
ENDBRANCH   1   7
TORSDOF 1
ENDMDL
