MODEL 1
REMARK minimizedAffinity 14.9988298
REMARK minimizedRMSD -1
REMARK  0 active torsions:
REMARK  status: ('A' for Active; 'I' for Inactive)
ROOT
ATOM      1  C2' OXE d   1       2.548  -0.549   0.129  0.00  0.00     0.078 C 
ATOM      2  C1' OXE d   1       1.422  -0.379   2.695  0.00  0.00     0.078 C 
ATOM      3  C1  OXE d   1       0.712   0.327   1.568  0.00  0.00    -0.078 A 
ATOM      4  C2  OXE d   1       1.295   0.278   0.324  0.00  0.00    -0.078 A 
ATOM      5  C3  OXE d   1       0.654   0.866  -0.762  0.00  0.00     0.003 A 
ATOM      6  C4  OXE d   1      -0.499   1.638  -0.571  0.00  0.00    -0.002 A 
ATOM      7  C5  OXE d   1      -1.088   1.734   0.694  0.00  0.00    -0.002 A 
ATOM      8  C6  OXE d   1      -0.520   1.051   1.764  0.00  0.00     0.003 A 
ENDROOT
TORSDOF 0
ENDMDL
