MODEL 1
REMARK minimizedAffinity 8.32038212
REMARK minimizedRMSD -1
REMARK  0 active torsions:
REMARK  status: ('A' for Active; 'I' for Inactive)
ROOT
ATOM      1  C2' OXE d   1       4.214   0.720  -0.898  0.00  0.00     0.078 C 
ATOM      2  C1' OXE d   1       2.434  -1.398  -1.372  0.00  0.00     0.078 C 
ATOM      3  C1  OXE d   1       2.077  -0.408  -0.292  0.00  0.00    -0.078 A 
ATOM      4  C2  OXE d   1       2.977   0.598  -0.035  0.00  0.00    -0.078 A 
ATOM      5  C3  OXE d   1       2.672   1.570   0.914  0.00  0.00     0.003 A 
ATOM      6  C4  OXE d   1       1.530   1.445   1.715  0.00  0.00    -0.002 A 
ATOM      7  C5  OXE d   1       0.620   0.405   1.497  0.00  0.00    -0.002 A 
ATOM      8  C6  OXE d   1       0.857  -0.504   0.471  0.00  0.00     0.003 A 
ENDROOT
TORSDOF 0
ENDMDL
