MODEL 1
REMARK minimizedAffinity 11.7119875
REMARK minimizedRMSD -1
REMARK  0 active torsions:
REMARK  status: ('A' for Active; 'I' for Inactive)
ROOT
ATOM      1  C2' OXE d   1       5.955   5.946   0.810  0.00  0.00     0.078 C 
ATOM      2  C1' OXE d   1       5.955   5.469  -1.956  0.00  0.00     0.078 C 
ATOM      3  C1  OXE d   1       5.952   4.274  -1.037  0.00  0.00    -0.078 A 
ATOM      4  C2  OXE d   1       6.000   4.516   0.315  0.00  0.00    -0.078 A 
ATOM      5  C3  OXE d   1       5.945   3.450   1.209  0.00  0.00     0.003 A 
ATOM      6  C4  OXE d   1       5.996   2.131   0.743  0.00  0.00    -0.002 A 
ATOM      7  C5  OXE d   1       5.989   1.862  -0.630  0.00  0.00    -0.002 A 
ATOM      8  C6  OXE d   1       5.924   2.919  -1.531  0.00  0.00     0.003 A 
ENDROOT
TORSDOF 0
ENDMDL
