MODEL 1
REMARK minimizedAffinity 9.24831963
REMARK minimizedRMSD -1
REMARK  0 active torsions:
REMARK  status: ('A' for Active; 'I' for Inactive)
ROOT
ATOM      1  C2' OXE d   1      -1.035   0.066  -2.502  0.00  0.00     0.078 C 
ATOM      2  C1' OXE d   1      -3.544  -1.131  -2.109  0.00  0.00     0.078 C 
ATOM      3  C1  OXE d   1      -3.377  -0.223  -3.302  0.00  0.00    -0.078 A 
ATOM      4  C2  OXE d   1      -2.160   0.396  -3.460  0.00  0.00    -0.078 A 
ATOM      5  C3  OXE d   1      -1.936   1.200  -4.573  0.00  0.00     0.003 A 
ATOM      6  C4  OXE d   1      -2.984   1.508  -5.449  0.00  0.00    -0.002 A 
ATOM      7  C5  OXE d   1      -4.243   0.920  -5.283  0.00  0.00    -0.002 A 
ATOM      8  C6  OXE d   1      -4.443   0.021  -4.242  0.00  0.00     0.003 A 
ENDROOT
TORSDOF 0
ENDMDL
