MODEL 1
REMARK minimizedAffinity 9.88374233
REMARK minimizedRMSD -1
REMARK  0 active torsions:
REMARK  status: ('A' for Active; 'I' for Inactive)
ROOT
ATOM      1  C2' OXE d   1       2.912  -2.170  -0.434  0.00  0.00     0.078 C 
ATOM      2  C1' OXE d   1       1.717   0.370  -0.390  0.00  0.00     0.078 C 
ATOM      3  C1  OXE d   1       3.224   0.302  -0.414  0.00  0.00    -0.078 A 
ATOM      4  C2  OXE d   1       3.801  -0.945  -0.388  0.00  0.00    -0.078 A 
ATOM      5  C3  OXE d   1       5.185  -1.066  -0.465  0.00  0.00     0.003 A 
ATOM      6  C4  OXE d   1       6.000   0.071  -0.412  0.00  0.00    -0.002 A 
ATOM      7  C5  OXE d   1       5.434   1.350  -0.397  0.00  0.00    -0.002 A 
ATOM      8  C6  OXE d   1       4.050   1.483  -0.441  0.00  0.00     0.003 A 
ENDROOT
TORSDOF 0
ENDMDL
