MODEL 1
REMARK minimizedAffinity 14.6351833
REMARK minimizedRMSD -1
REMARK  0 active torsions:
REMARK  status: ('A' for Active; 'I' for Inactive)
ROOT
ATOM      1  C2' OXE d   1       5.385   1.328   0.414  0.00  0.00     0.078 C 
ATOM      2  C1' OXE d   1       5.664   2.572   2.915  0.00  0.00     0.078 C 
ATOM      3  C1  OXE d   1       5.721   3.444   1.685  0.00  0.00    -0.078 A 
ATOM      4  C2  OXE d   1       5.631   2.821   0.464  0.00  0.00    -0.078 A 
ATOM      5  C3  OXE d   1       5.624   3.583  -0.701  0.00  0.00     0.003 A 
ATOM      6  C4  OXE d   1       5.861   4.962  -0.646  0.00  0.00    -0.002 A 
ATOM      7  C5  OXE d   1       5.996   5.611   0.586  0.00  0.00    -0.002 A 
ATOM      8  C6  OXE d   1       5.886   4.874   1.760  0.00  0.00     0.003 A 
ENDROOT
TORSDOF 0
ENDMDL
