MODEL 1
REMARK minimizedAffinity 14.558217
REMARK minimizedRMSD -1
REMARK  0 active torsions:
REMARK  status: ('A' for Active; 'I' for Inactive)
ROOT
ATOM      1  C2' OXE d   1      -2.990   0.748  -5.776  0.00  0.00     0.078 C 
ATOM      2  C1' OXE d   1      -5.546  -0.187  -5.089  0.00  0.00     0.078 C 
ATOM      3  C1  OXE d   1      -5.127   1.164  -4.566  0.00  0.00    -0.078 A 
ATOM      4  C2  OXE d   1      -3.857   1.593  -4.868  0.00  0.00    -0.078 A 
ATOM      5  C3  OXE d   1      -3.439   2.855  -4.455  0.00  0.00     0.003 A 
ATOM      6  C4  OXE d   1      -4.244   3.626  -3.607  0.00  0.00    -0.002 A 
ATOM      7  C5  OXE d   1      -5.525   3.190  -3.255  0.00  0.00    -0.002 A 
ATOM      8  C6  OXE d   1      -5.998   1.984  -3.759  0.00  0.00     0.003 A 
ENDROOT
TORSDOF 0
ENDMDL
