MODEL 1
REMARK minimizedAffinity 15.9653006
REMARK minimizedRMSD -1
REMARK  0 active torsions:
REMARK  status: ('A' for Active; 'I' for Inactive)
ROOT
ATOM      1  C2' OXE d   1       2.910   1.110   1.986  0.00  0.00     0.078 C 
ATOM      2  C1' OXE d   1       2.615  -0.379  -0.376  0.00  0.00     0.078 C 
ATOM      3  C1  OXE d   1       3.824   0.514  -0.254  0.00  0.00    -0.078 A 
ATOM      4  C2  OXE d   1       3.936   1.274   0.885  0.00  0.00    -0.078 A 
ATOM      5  C3  OXE d   1       5.060   2.073   1.073  0.00  0.00     0.003 A 
ATOM      6  C4  OXE d   1       6.000   2.227   0.046  0.00  0.00    -0.002 A 
ATOM      7  C5  OXE d   1       5.884   1.492  -1.139  0.00  0.00    -0.002 A 
ATOM      8  C6  OXE d   1       4.827   0.601  -1.287  0.00  0.00     0.003 A 
ENDROOT
TORSDOF 0
ENDMDL
