MODEL 1
REMARK minimizedAffinity -3.35381031
REMARK minimizedRMSD -1
REMARK  1 active torsions:
REMARK  status: ('A' for Active; 'I' for Inactive)
REMARK    1  A    between atoms: C1_2  and  C2_3 
ROOT
ATOM      1  C2  UNL d   1       0.438   0.476   1.098  0.00  0.00    -0.077 A 
ATOM      2  C3  UNL d   1      -0.857   0.383   0.570  0.00  0.00     0.002 A 
ATOM      3  C4  UNL d   1      -1.083  -0.293  -0.631  0.00  0.00     0.002 A 
ATOM      4  C5  UNL d   1      -0.020  -0.883  -1.311  0.00  0.00    -0.004 A 
ATOM      5  C6  UNL d   1       1.273  -0.793  -0.795  0.00  0.00     0.002 A 
ATOM      6  C7  UNL d   1       1.500  -0.118   0.405  0.00  0.00     0.002 A 
ENDROOT
BRANCH   1   7
ATOM      7  C1  UNL d   1       0.677   1.161   2.418  0.00  0.00     0.055 C 
ATOM      8  C   UNL d   1      -0.634   1.584   3.067  0.00  0.00     0.019 C 
ENDBRANCH   1   7
TORSDOF 1
ENDMDL
