MODEL 1
REMARK minimizedAffinity -3.38740444
REMARK minimizedRMSD -1
REMARK  1 active torsions:
REMARK  status: ('A' for Active; 'I' for Inactive)
REMARK    1  A    between atoms: C1_2  and  C2_3 
ROOT
ATOM      1  C2  UNL d   1      -0.110   0.684   0.901  0.00  0.00    -0.077 A 
ATOM      2  C3  UNL d   1       1.235   0.298   0.828  0.00  0.00     0.002 A 
ATOM      3  C4  UNL d   1       1.702  -0.432  -0.268  0.00  0.00     0.002 A 
ATOM      4  C5  UNL d   1       0.831  -0.777  -1.299  0.00  0.00    -0.004 A 
ATOM      5  C6  UNL d   1      -0.509  -0.400  -1.234  0.00  0.00     0.002 A 
ATOM      6  C7  UNL d   1      -0.978   0.328  -0.140  0.00  0.00     0.002 A 
ENDROOT
BRANCH   1   7
ATOM      7  C1  UNL d   1      -0.605   1.513   2.058  0.00  0.00     0.055 C 
ATOM      8  C   UNL d   1      -1.580   0.729   2.924  0.00  0.00     0.019 C 
ENDBRANCH   1   7
TORSDOF 1
ENDMDL
