MODEL 1
REMARK minimizedAffinity -4.5157094
REMARK minimizedRMSD -1
REMARK  1 active torsions:
REMARK  status: ('A' for Active; 'I' for Inactive)
REMARK    1  A    between atoms: C1_2  and  C2_3 
ROOT
ATOM      1  C2  UNL d   1       0.521  -0.368  -0.548  0.00  0.00    -0.077 A 
ATOM      2  C3  UNL d   1       1.681  -0.770   0.129  0.00  0.00     0.002 A 
ATOM      3  C4  UNL d   1       1.981  -0.248   1.389  0.00  0.00     0.002 A 
ATOM      4  C5  UNL d   1       1.124   0.675   1.984  0.00  0.00    -0.004 A 
ATOM      5  C6  UNL d   1      -0.032   1.082   1.318  0.00  0.00     0.002 A 
ATOM      6  C7  UNL d   1      -0.332   0.563   0.059  0.00  0.00     0.002 A 
ENDROOT
BRANCH   1   7
ATOM      7  C1  UNL d   1       0.171  -0.967  -1.885  0.00  0.00     0.055 C 
ATOM      8  C   UNL d   1       0.879  -0.240  -3.019  0.00  0.00     0.019 C 
ENDBRANCH   1   7
TORSDOF 1
ENDMDL
