MODEL 1
REMARK minimizedAffinity -5.42496681
REMARK minimizedRMSD -1
REMARK  1 active torsions:
REMARK  status: ('A' for Active; 'I' for Inactive)
REMARK    1  A    between atoms: C1_2  and  C2_3 
ROOT
ATOM      1  C2  UNL d   1      -0.140  -0.352  -0.163  0.00  0.00    -0.077 A 
ATOM      2  C3  UNL d   1       0.428  -0.018   1.074  0.00  0.00     0.002 A 
ATOM      3  C4  UNL d   1      -0.380   0.405   2.131  0.00  0.00     0.002 A 
ATOM      4  C5  UNL d   1      -1.760   0.495   1.963  0.00  0.00    -0.004 A 
ATOM      5  C6  UNL d   1      -2.334   0.167   0.736  0.00  0.00     0.002 A 
ATOM      6  C7  UNL d   1      -1.528  -0.255  -0.322  0.00  0.00     0.002 A 
ENDROOT
BRANCH   1   7
ATOM      7  C1  UNL d   1       0.724  -0.856  -1.289  0.00  0.00     0.055 C 
ATOM      8  C   UNL d   1       0.763   0.135  -2.443  0.00  0.00     0.019 C 
ENDBRANCH   1   7
TORSDOF 1
ENDMDL
