MODEL 1
REMARK minimizedAffinity -1.61156034
REMARK minimizedRMSD -1
REMARK  0 active torsions:
REMARK  status: ('A' for Active; 'I' for Inactive)
ROOT
ATOM      1  N1  IND d   1      -0.250  -2.375   1.723  0.00  0.00    -0.196 N 
ATOM      2  C2  IND d   1       1.044  -2.597   2.103  0.00  0.00     0.054 A 
ATOM      3  C3  IND d   1       1.828  -2.779   1.017  0.00  0.00    -0.031 A 
ATOM      4  C4  IND d   1       1.218  -2.653  -1.481  0.00  0.00     0.051 A 
ATOM      5  C5  IND d   1       0.151  -2.512  -2.323  0.00  0.00    -0.031 A 
ATOM      6  C6  IND d   1      -1.130  -2.310  -1.851  0.00  0.00     0.015 A 
ATOM      7  C7  IND d   1      -1.390  -2.231  -0.512  0.00  0.00    -0.016 A 
ATOM      8  C8  IND d   1      -0.311  -2.382   0.347  0.00  0.00    -0.047 A 
ATOM      9  C9  IND d   1       0.985  -2.629  -0.126  0.00  0.00    -0.096 A 
ATOM     10  HN1 IND d   1      -0.915  -2.251   2.254  0.00  0.00     0.298 HD
ENDROOT
TORSDOF 0
ENDMDL
