MODEL 1
REMARK minimizedAffinity 0.6519683
REMARK minimizedRMSD -1
REMARK  0 active torsions:
REMARK  status: ('A' for Active; 'I' for Inactive)
ROOT
ATOM      1  N1  IND d   1       0.196  -2.720  -2.654  0.00  0.00    -0.196 N 
ATOM      2  C2  IND d   1       1.475  -2.502  -2.225  0.00  0.00     0.054 A 
ATOM      3  C3  IND d   1       1.493  -2.287  -0.890  0.00  0.00    -0.031 A 
ATOM      4  C4  IND d   1      -0.445  -2.349   0.803  0.00  0.00     0.051 A 
ATOM      5  C5  IND d   1      -1.804  -2.474   0.880  0.00  0.00    -0.031 A 
ATOM      6  C6  IND d   1      -2.581  -2.694  -0.239  0.00  0.00     0.015 A 
ATOM      7  C7  IND d   1      -2.024  -2.810  -1.481  0.00  0.00    -0.016 A 
ATOM      8  C8  IND d   1      -0.646  -2.677  -1.565  0.00  0.00    -0.047 A 
ATOM      9  C9  IND d   1       0.144  -2.411  -0.438  0.00  0.00    -0.096 A 
ATOM     10  HN1 IND d   1      -0.043  -2.861  -3.468  0.00  0.00     0.298 HD
ENDROOT
TORSDOF 0
ENDMDL
