MODEL 1
REMARK minimizedAffinity 2.24915504
REMARK minimizedRMSD -1
REMARK  0 active torsions:
REMARK  status: ('A' for Active; 'I' for Inactive)
ROOT
ATOM      1  N1  IND d   1       0.837   1.337   0.751  0.00  0.00    -0.196 N 
ATOM      2  C2  IND d   1       2.184   1.459   0.951  0.00  0.00     0.054 A 
ATOM      3  C3  IND d   1       2.699   0.294   1.406  0.00  0.00    -0.031 A 
ATOM      4  C4  IND d   1       1.534  -1.968   1.796  0.00  0.00     0.051 A 
ATOM      5  C5  IND d   1       0.303  -2.561   1.787  0.00  0.00    -0.031 A 
ATOM      6  C6  IND d   1      -0.836  -1.872   1.422  0.00  0.00     0.015 A 
ATOM      7  C7  IND d   1      -0.784  -0.561   1.040  0.00  0.00    -0.016 A 
ATOM      8  C8  IND d   1       0.464   0.046   1.055  0.00  0.00    -0.047 A 
ATOM      9  C9  IND d   1       1.616  -0.636   1.465  0.00  0.00    -0.096 A 
ATOM     10  HN1 IND d   1       0.312   1.962   0.481  0.00  0.00     0.298 HD
ENDROOT
TORSDOF 0
ENDMDL
