MODEL 1
REMARK minimizedAffinity 9.74682808
REMARK minimizedRMSD -1
REMARK  0 active torsions:
REMARK  status: ('A' for Active; 'I' for Inactive)
ROOT
ATOM      1  N1  IND d   1       1.060   1.503   1.137  0.00  0.00    -0.196 N 
ATOM      2  C2  IND d   1       1.532   2.575   0.431  0.00  0.00     0.054 A 
ATOM      3  C3  IND d   1       2.759   2.306  -0.069  0.00  0.00    -0.031 A 
ATOM      4  C4  IND d   1       4.138   0.136   0.062  0.00  0.00     0.051 A 
ATOM      5  C5  IND d   1       4.140  -1.107   0.631  0.00  0.00    -0.031 A 
ATOM      6  C6  IND d   1       3.093  -1.553   1.411  0.00  0.00     0.015 A 
ATOM      7  C7  IND d   1       1.995  -0.774   1.643  0.00  0.00    -0.016 A 
ATOM      8  C8  IND d   1       1.993   0.491   1.072  0.00  0.00    -0.047 A 
ATOM      9  C9  IND d   1       3.072   0.966   0.315  0.00  0.00    -0.096 A 
ATOM     10  HN1 IND d   1       0.308   1.467   1.551  0.00  0.00     0.298 HD
ENDROOT
TORSDOF 0
ENDMDL
