MODEL 1
REMARK minimizedAffinity 5.38778973
REMARK minimizedRMSD -1
REMARK  0 active torsions:
REMARK  status: ('A' for Active; 'I' for Inactive)
ROOT
ATOM      1  N1  IND d   1      -5.879   3.421   1.580  0.00  0.00    -0.196 N 
ATOM      2  C2  IND d   1      -5.385   2.502   2.464  0.00  0.00     0.054 A 
ATOM      3  C3  IND d   1      -4.365   1.813   1.904  0.00  0.00    -0.031 A 
ATOM      4  C4  IND d   1      -3.277   2.096  -0.412  0.00  0.00     0.051 A 
ATOM      5  C5  IND d   1      -3.407   2.781  -1.587  0.00  0.00    -0.031 A 
ATOM      6  C6  IND d   1      -4.386   3.736  -1.769  0.00  0.00     0.015 A 
ATOM      7  C7  IND d   1      -5.268   4.051  -0.774  0.00  0.00    -0.016 A 
ATOM      8  C8  IND d   1      -5.143   3.352   0.418  0.00  0.00    -0.047 A 
ATOM      9  C9  IND d   1      -4.179   2.351   0.594  0.00  0.00    -0.096 A 
ATOM     10  HN1 IND d   1      -6.539   3.952   1.726  0.00  0.00     0.298 HD
ENDROOT
TORSDOF 0
ENDMDL
