MODEL 1
REMARK minimizedAffinity 4.73153019
REMARK minimizedRMSD -1
REMARK  0 active torsions:
REMARK  status: ('A' for Active; 'I' for Inactive)
ROOT
ATOM      1  N1  IND d   1      -0.729  -0.034   1.791  0.00  0.00    -0.196 N 
ATOM      2  C2  IND d   1      -0.967  -1.352   1.518  0.00  0.00     0.054 A 
ATOM      3  C3  IND d   1       0.175  -1.967   1.136  0.00  0.00    -0.031 A 
ATOM      4  C4  IND d   1       2.567  -1.028   0.986  0.00  0.00     0.051 A 
ATOM      5  C5  IND d   1       3.277   0.134   1.101  0.00  0.00    -0.031 A 
ATOM      6  C6  IND d   1       2.677   1.323   1.462  0.00  0.00     0.015 A 
ATOM      7  C7  IND d   1       1.339   1.392   1.734  0.00  0.00    -0.016 A 
ATOM      8  C8  IND d   1       0.614   0.215   1.611  0.00  0.00    -0.047 A 
ATOM      9  C9  IND d   1       1.210  -0.985   1.203  0.00  0.00    -0.096 A 
ATOM     10  HN1 IND d   1      -1.319   0.543   2.033  0.00  0.00     0.298 HD
ENDROOT
TORSDOF 0
ENDMDL
