MODEL 1
REMARK minimizedAffinity 11.9497194
REMARK minimizedRMSD -1
REMARK  0 active torsions:
REMARK  status: ('A' for Active; 'I' for Inactive)
ROOT
ATOM      1  N1  IND d   1      -0.748  -0.886   0.732  0.00  0.00    -0.196 N 
ATOM      2  C2  IND d   1      -0.877  -1.469  -0.498  0.00  0.00     0.054 A 
ATOM      3  C3  IND d   1       0.341  -1.759  -1.010  0.00  0.00    -0.031 A 
ATOM      4  C4  IND d   1       2.671  -1.456   0.040  0.00  0.00     0.051 A 
ATOM      5  C5  IND d   1       3.300  -0.931   1.134  0.00  0.00    -0.031 A 
ATOM      6  C6  IND d   1       2.597  -0.355   2.172  0.00  0.00     0.015 A 
ATOM      7  C7  IND d   1       1.232  -0.293   2.160  0.00  0.00    -0.016 A 
ATOM      8  C8  IND d   1       0.591  -0.818   1.047  0.00  0.00    -0.047 A 
ATOM      9  C9  IND d   1       1.301  -1.365  -0.029  0.00  0.00    -0.096 A 
ATOM     10  HN1 IND d   1      -1.395  -0.608   1.225  0.00  0.00     0.298 HD
ENDROOT
TORSDOF 0
ENDMDL
