MODEL 1
REMARK minimizedAffinity 17.8269062
REMARK minimizedRMSD -1
REMARK  0 active torsions:
REMARK  status: ('A' for Active; 'I' for Inactive)
ROOT
ATOM      1  N1  IND d   1      -0.099  -1.141   1.457  0.00  0.00    -0.196 N 
ATOM      2  C2  IND d   1       0.032  -2.441   1.055  0.00  0.00     0.054 A 
ATOM      3  C3  IND d   1       1.319  -2.709   0.741  0.00  0.00    -0.031 A 
ATOM      4  C4  IND d   1       3.393  -1.194   0.910  0.00  0.00     0.051 A 
ATOM      5  C5  IND d   1       3.770   0.090   1.190  0.00  0.00    -0.031 A 
ATOM      6  C6  IND d   1       2.857   1.047   1.585  0.00  0.00     0.015 A 
ATOM      7  C7  IND d   1       1.531   0.753   1.725  0.00  0.00    -0.016 A 
ATOM      8  C8  IND d   1       1.144  -0.548   1.434  0.00  0.00    -0.047 A 
ATOM      9  C9  IND d   1       2.058  -1.513   0.992  0.00  0.00    -0.096 A 
ATOM     10  HN1 IND d   1      -0.834  -0.758   1.686  0.00  0.00     0.298 HD
ENDROOT
TORSDOF 0
ENDMDL
