MODEL 1
REMARK minimizedAffinity -4.98483658
REMARK minimizedRMSD -1
REMARK  0 active torsions:
REMARK  status: ('A' for Active; 'I' for Inactive)
ROOT
ATOM      1  N1  IND d   1       0.393   0.858  -0.033  0.00  0.00    -0.196 N 
ATOM      2  C2  IND d   1      -0.761   0.161  -0.264  0.00  0.00     0.054 A 
ATOM      3  C3  IND d   1      -0.616  -1.128   0.117  0.00  0.00    -0.031 A 
ATOM      4  C4  IND d   1       1.392  -2.287   1.236  0.00  0.00     0.051 A 
ATOM      5  C5  IND d   1       2.687  -2.070   1.615  0.00  0.00    -0.031 A 
ATOM      6  C6  IND d   1       3.295  -0.840   1.464  0.00  0.00     0.015 A 
ATOM      7  C7  IND d   1       2.624   0.226   0.935  0.00  0.00    -0.016 A 
ATOM      8  C8  IND d   1       1.311   0.007   0.543  0.00  0.00    -0.047 A 
ATOM      9  C9  IND d   1       0.702  -1.249   0.655  0.00  0.00    -0.096 A 
ATOM     10  HN1 IND d   1       0.523   1.687  -0.217  0.00  0.00     0.298 HD
ENDROOT
TORSDOF 0
ENDMDL
