MODEL 1
REMARK minimizedAffinity -5.91429472
REMARK minimizedRMSD -1
REMARK  1 active torsions:
REMARK  status: ('A' for Active; 'I' for Inactive)
REMARK    1  A    between atoms: C1_2  and  C2_3 
ROOT
ATOM      1  C2  UNL d   1       0.155   0.670   0.778  0.00  0.00    -0.077 A 
ATOM      2  C3  UNL d   1      -0.909   1.158   0.006  0.00  0.00     0.002 A 
ATOM      3  C4  UNL d   1      -1.537   2.358   0.346  0.00  0.00     0.002 A 
ATOM      4  C5  UNL d   1      -1.105   3.081   1.457  0.00  0.00    -0.004 A 
ATOM      5  C6  UNL d   1      -0.050   2.603   2.232  0.00  0.00     0.002 A 
ATOM      6  C7  UNL d   1       0.579   1.404   1.893  0.00  0.00     0.002 A 
ENDROOT
BRANCH   1   7
ATOM      7  C1  UNL d   1       0.866  -0.598   0.383  0.00  0.00     0.055 C 
ATOM      8  C   UNL d   1       0.797  -0.827  -1.120  0.00  0.00     0.019 C 
ENDBRANCH   1   7
TORSDOF 1
ENDMDL
