MODEL 1
REMARK minimizedAffinity -3.41226244
REMARK minimizedRMSD -1
REMARK  1 active torsions:
REMARK  status: ('A' for Active; 'I' for Inactive)
REMARK    1  A    between atoms: C1_2  and  C2_3 
ROOT
ATOM      1  C2  UNL d   1       0.016  -0.620  -0.366  0.00  0.00    -0.077 A 
ATOM      2  C3  UNL d   1       0.424  -0.531   0.973  0.00  0.00     0.002 A 
ATOM      3  C4  UNL d   1       0.030   0.552   1.761  0.00  0.00     0.002 A 
ATOM      4  C5  UNL d   1      -0.777   1.551   1.221  0.00  0.00    -0.004 A 
ATOM      5  C6  UNL d   1      -1.186   1.473  -0.110  0.00  0.00     0.002 A 
ATOM      6  C7  UNL d   1      -0.792   0.392  -0.899  0.00  0.00     0.002 A 
ENDROOT
BRANCH   1   7
ATOM      7  C1  UNL d   1       0.400  -1.812  -1.203  0.00  0.00     0.055 C 
ATOM      8  C   UNL d   1      -0.821  -2.640  -1.580  0.00  0.00     0.019 C 
ENDBRANCH   1   7
TORSDOF 1
ENDMDL
