MODEL 1
REMARK minimizedAffinity -4.26081038
REMARK minimizedRMSD -1
REMARK  1 active torsions:
REMARK  status: ('A' for Active; 'I' for Inactive)
REMARK    1  A    between atoms: C1_2  and  C2_3 
ROOT
ATOM      1  C2  UNL d   1       0.132  -0.218  -0.320  0.00  0.00    -0.077 A 
ATOM      2  C3  UNL d   1       0.727  -0.144   0.947  0.00  0.00     0.002 A 
ATOM      3  C4  UNL d   1       0.367   0.869   1.839  0.00  0.00     0.002 A 
ATOM      4  C5  UNL d   1      -0.592   1.812   1.475  0.00  0.00    -0.004 A 
ATOM      5  C6  UNL d   1      -1.188   1.748   0.216  0.00  0.00     0.002 A 
ATOM      6  C7  UNL d   1      -0.829   0.737  -0.677  0.00  0.00     0.002 A 
ENDROOT
BRANCH   1   7
ATOM      7  C1  UNL d   1       0.482  -1.338  -1.264  0.00  0.00     0.055 C 
ATOM      8  C   UNL d   1      -0.731  -2.203  -1.571  0.00  0.00     0.019 C 
ENDBRANCH   1   7
TORSDOF 1
ENDMDL
