MODEL 1
REMARK minimizedAffinity -5.85538435
REMARK minimizedRMSD -1
REMARK  1 active torsions:
REMARK  status: ('A' for Active; 'I' for Inactive)
REMARK    1  A    between atoms: C1_2  and  C2_3 
ROOT
ATOM      1  C2  UNL d   1      -0.754   1.189   0.281  0.00  0.00    -0.077 A 
ATOM      2  C3  UNL d   1       0.049   0.109   0.677  0.00  0.00     0.002 A 
ATOM      3  C4  UNL d   1       0.910  -0.502  -0.236  0.00  0.00     0.002 A 
ATOM      4  C5  UNL d   1       0.981  -0.040  -1.548  0.00  0.00    -0.004 A 
ATOM      5  C6  UNL d   1       0.185   1.031  -1.952  0.00  0.00     0.002 A 
ATOM      6  C7  UNL d   1      -0.678   1.644  -1.042  0.00  0.00     0.002 A 
ENDROOT
BRANCH   1   7
ATOM      7  C1  UNL d   1      -1.647   1.882   1.276  0.00  0.00     0.055 C 
ATOM      8  C   UNL d   1      -0.840   2.732   2.247  0.00  0.00     0.019 C 
ENDBRANCH   1   7
TORSDOF 1
ENDMDL
