MODEL 1
REMARK minimizedAffinity -4.40135336
REMARK minimizedRMSD -1
REMARK  1 active torsions:
REMARK  status: ('A' for Active; 'I' for Inactive)
REMARK    1  A    between atoms: C1_2  and  C2_3 
ROOT
ATOM      1  C2  UNL d   1      -0.990   2.362   0.205  0.00  0.00    -0.077 A 
ATOM      2  C3  UNL d   1      -0.512   2.944   1.388  0.00  0.00     0.002 A 
ATOM      3  C4  UNL d   1       0.051   2.150   2.389  0.00  0.00     0.002 A 
ATOM      4  C5  UNL d   1       0.146   0.771   2.216  0.00  0.00    -0.004 A 
ATOM      5  C6  UNL d   1      -0.328   0.182   1.045  0.00  0.00     0.002 A 
ATOM      6  C7  UNL d   1      -0.893   0.974   0.043  0.00  0.00     0.002 A 
ENDROOT
BRANCH   1   7
ATOM      7  C1  UNL d   1      -1.553   3.221  -0.896  0.00  0.00     0.055 C 
ATOM      8  C   UNL d   1      -0.563   3.370  -2.043  0.00  0.00     0.019 C 
ENDBRANCH   1   7
TORSDOF 1
ENDMDL
