MODEL 1
REMARK minimizedAffinity -5.20590782
REMARK minimizedRMSD -1
REMARK  1 active torsions:
REMARK  status: ('A' for Active; 'I' for Inactive)
REMARK    1  A    between atoms: C1_2  and  C2_3 
ROOT
ATOM      1  C2  UNL d   1       0.005   0.913   0.676  0.00  0.00    -0.077 A 
ATOM      2  C3  UNL d   1      -0.219   1.417  -0.613  0.00  0.00     0.002 A 
ATOM      3  C4  UNL d   1      -0.895   2.626  -0.790  0.00  0.00     0.002 A 
ATOM      4  C5  UNL d   1      -1.348   3.342   0.316  0.00  0.00    -0.004 A 
ATOM      5  C6  UNL d   1      -1.132   2.847   1.602  0.00  0.00     0.002 A 
ATOM      6  C7  UNL d   1      -0.458   1.638   1.781  0.00  0.00     0.002 A 
ENDROOT
BRANCH   1   7
ATOM      7  C1  UNL d   1       0.777  -0.366   0.871  0.00  0.00     0.055 C 
ATOM      8  C   UNL d   1       0.816  -1.190  -0.407  0.00  0.00     0.019 C 
ENDBRANCH   1   7
TORSDOF 1
ENDMDL
