MODEL 1
REMARK minimizedAffinity -2.29314947
REMARK minimizedRMSD -1
REMARK  1 active torsions:
REMARK  status: ('A' for Active; 'I' for Inactive)
REMARK    1  A    between atoms: C1_2  and  C2_3 
ROOT
ATOM      1  C2  UNL d   1       0.171  -1.555  -1.105  0.00  0.00    -0.077 A 
ATOM      2  C3  UNL d   1      -0.096  -1.059   0.179  0.00  0.00     0.002 A 
ATOM      3  C4  UNL d   1      -0.128   0.318   0.412  0.00  0.00     0.002 A 
ATOM      4  C5  UNL d   1       0.102   1.208  -0.635  0.00  0.00    -0.004 A 
ATOM      5  C6  UNL d   1       0.370   0.725  -1.915  0.00  0.00     0.002 A 
ATOM      6  C7  UNL d   1       0.404  -0.651  -2.149  0.00  0.00     0.002 A 
ENDROOT
BRANCH   1   7
ATOM      7  C1  UNL d   1       0.157  -3.038  -1.368  0.00  0.00     0.055 C 
ATOM      8  C   UNL d   1      -1.092  -3.453  -2.131  0.00  0.00     0.019 C 
ENDBRANCH   1   7
TORSDOF 1
ENDMDL
