MODEL 1
REMARK minimizedAffinity -3.88416862
REMARK minimizedRMSD -1
REMARK  2 active torsions:
REMARK  status: ('A' for Active; 'I' for Inactive)
REMARK    1  A    between atoms: C1_2  and  C2_3 
REMARK    2  A    between atoms: C2_3  and  C3_4 
ROOT
ATOM      1  C3  UNL d   1      -1.379  -1.796  -0.387  0.00  0.00    -0.075 A 
ATOM      2  C4  UNL d   1      -0.439  -2.824  -0.221  0.00  0.00     0.002 A 
ATOM      3  C5  UNL d   1       0.884  -2.527   0.109  0.00  0.00     0.002 A 
ATOM      4  C6  UNL d   1       1.285  -1.202   0.266  0.00  0.00    -0.004 A 
ATOM      5  C7  UNL d   1       0.364  -0.173   0.086  0.00  0.00     0.002 A 
ATOM      6  C8  UNL d   1      -0.961  -0.467  -0.239  0.00  0.00     0.002 A 
ENDROOT
BRANCH   1   7
ATOM      7  C2  UNL d   1      -2.819  -2.112  -0.715  0.00  0.00     0.056 C 
BRANCH   7   8
ATOM      8  C1  UNL d   1      -3.015  -3.449  -1.437  0.00  0.00     0.007 C 
ATOM      9  C   UNL d   1      -3.444  -4.577  -0.508  0.00  0.00     0.009 C 
ENDBRANCH   7   8
ENDBRANCH   1   7
TORSDOF 2
ENDMDL
