MODEL 1
REMARK minimizedAffinity -4.47838688
REMARK minimizedRMSD -1
REMARK  2 active torsions:
REMARK  status: ('A' for Active; 'I' for Inactive)
REMARK    1  A    between atoms: C1_2  and  C2_3 
REMARK    2  A    between atoms: C2_3  and  C3_4 
ROOT
ATOM      1  C3  UNL d   1       1.599   0.350  -0.490  0.00  0.00    -0.075 A 
ATOM      2  C4  UNL d   1       0.615  -0.434   0.130  0.00  0.00     0.002 A 
ATOM      3  C5  UNL d   1      -0.718  -0.023   0.135  0.00  0.00     0.002 A 
ATOM      4  C6  UNL d   1      -1.083   1.178  -0.469  0.00  0.00    -0.004 A 
ATOM      5  C7  UNL d   1      -0.111   1.972  -1.074  0.00  0.00     0.002 A 
ATOM      6  C8  UNL d   1       1.223   1.562  -1.084  0.00  0.00     0.002 A 
ENDROOT
BRANCH   1   7
ATOM      7  C2  UNL d   1       3.039  -0.103  -0.526  0.00  0.00     0.056 C 
BRANCH   7   8
ATOM      8  C1  UNL d   1       3.489  -0.646  -1.886  0.00  0.00     0.007 C 
ATOM      9  C   UNL d   1       2.462  -1.562  -2.537  0.00  0.00     0.009 C 
ENDBRANCH   7   8
ENDBRANCH   1   7
TORSDOF 2
ENDMDL
