MODEL 1
REMARK minimizedAffinity -2.46806622
REMARK minimizedRMSD -1
REMARK  2 active torsions:
REMARK  status: ('A' for Active; 'I' for Inactive)
REMARK    1  A    between atoms: C1_2  and  C2_3 
REMARK    2  A    between atoms: C2_3  and  C3_4 
ROOT
ATOM      1  C3  UNL d   1      -0.441  -1.367  -0.044  0.00  0.00    -0.075 A 
ATOM      2  C4  UNL d   1      -0.892  -2.681  -0.241  0.00  0.00     0.002 A 
ATOM      3  C5  UNL d   1      -2.256  -2.955  -0.336  0.00  0.00     0.002 A 
ATOM      4  C6  UNL d   1      -3.186  -1.924  -0.225  0.00  0.00    -0.004 A 
ATOM      5  C7  UNL d   1      -2.751  -0.618  -0.013  0.00  0.00     0.002 A 
ATOM      6  C8  UNL d   1      -1.386  -0.340   0.078  0.00  0.00     0.002 A 
ENDROOT
BRANCH   1   7
ATOM      7  C2  UNL d   1       1.035  -1.060   0.030  0.00  0.00     0.056 C 
BRANCH   7   8
ATOM      8  C1  UNL d   1       1.863  -1.705  -1.086  0.00  0.00     0.007 C 
ATOM      9  C   UNL d   1       2.238  -0.730  -2.195  0.00  0.00     0.009 C 
ENDBRANCH   7   8
ENDBRANCH   1   7
TORSDOF 2
ENDMDL
