MODEL 1
REMARK minimizedAffinity -4.81823301
REMARK minimizedRMSD -1
REMARK  2 active torsions:
REMARK  status: ('A' for Active; 'I' for Inactive)
REMARK    1  A    between atoms: C1_2  and  C2_3 
REMARK    2  A    between atoms: C2_3  and  C3_4 
ROOT
ATOM      1  C3  UNL d   1       0.904  -0.631  -0.696  0.00  0.00    -0.075 A 
ATOM      2  C4  UNL d   1       0.576   0.722  -0.864  0.00  0.00     0.002 A 
ATOM      3  C5  UNL d   1       1.387   1.557  -1.634  0.00  0.00     0.002 A 
ATOM      4  C6  UNL d   1       2.538   1.054  -2.236  0.00  0.00    -0.004 A 
ATOM      5  C7  UNL d   1       2.882  -0.285  -2.062  0.00  0.00     0.002 A 
ATOM      6  C8  UNL d   1       2.071  -1.124  -1.296  0.00  0.00     0.002 A 
ENDROOT
BRANCH   1   7
ATOM      7  C2  UNL d   1       0.016  -1.547   0.111  0.00  0.00     0.056 C 
BRANCH   7   8
ATOM      8  C1  UNL d   1      -0.816  -2.516  -0.736  0.00  0.00     0.007 C 
ATOM      9  C   UNL d   1      -2.277  -2.102  -0.862  0.00  0.00     0.009 C 
ENDBRANCH   7   8
ENDBRANCH   1   7
TORSDOF 2
ENDMDL
