MODEL 1
REMARK minimizedAffinity -2.24464989
REMARK minimizedRMSD -1
REMARK  2 active torsions:
REMARK  status: ('A' for Active; 'I' for Inactive)
REMARK    1  A    between atoms: C1_2  and  C2_3 
REMARK    2  A    between atoms: C2_3  and  C3_4 
ROOT
ATOM      1  C3  UNL d   1       0.537  -1.586  -0.501  0.00  0.00    -0.075 A 
ATOM      2  C4  UNL d   1       0.225  -0.288  -0.069  0.00  0.00     0.002 A 
ATOM      3  C5  UNL d   1       1.139   0.752  -0.235  0.00  0.00     0.002 A 
ATOM      4  C6  UNL d   1       2.378   0.508  -0.824  0.00  0.00    -0.004 A 
ATOM      5  C7  UNL d   1       2.705  -0.780  -1.241  0.00  0.00     0.002 A 
ATOM      6  C8  UNL d   1       1.791  -1.823  -1.080  0.00  0.00     0.002 A 
ENDROOT
BRANCH   1   7
ATOM      7  C2  UNL d   1      -0.459  -2.710  -0.351  0.00  0.00     0.056 C 
BRANCH   7   8
ATOM      8  C1  UNL d   1      -1.892  -2.331  -0.741  0.00  0.00     0.007 C 
ATOM      9  C   UNL d   1      -2.726  -3.521  -1.194  0.00  0.00     0.009 C 
ENDBRANCH   7   8
ENDBRANCH   1   7
TORSDOF 2
ENDMDL
