MODEL 1
REMARK minimizedAffinity -2.3835988
REMARK minimizedRMSD -1
REMARK  2 active torsions:
REMARK  status: ('A' for Active; 'I' for Inactive)
REMARK    1  A    between atoms: C1_2  and  C2_3 
REMARK    2  A    between atoms: C2_3  and  C3_4 
ROOT
ATOM      1  C3  UNL d   1      -1.005   0.622   1.763  0.00  0.00    -0.075 A 
ATOM      2  C4  UNL d   1      -2.237  -0.033   1.911  0.00  0.00     0.002 A 
ATOM      3  C5  UNL d   1      -3.053   0.235   3.010  0.00  0.00     0.002 A 
ATOM      4  C6  UNL d   1      -2.646   1.149   3.979  0.00  0.00    -0.004 A 
ATOM      5  C7  UNL d   1      -1.417   1.793   3.851  0.00  0.00     0.002 A 
ATOM      6  C8  UNL d   1      -0.599   1.531   2.750  0.00  0.00     0.002 A 
ENDROOT
BRANCH   1   7
ATOM      7  C2  UNL d   1      -0.130   0.359   0.561  0.00  0.00     0.056 C 
BRANCH   7   8
ATOM      8  C1  UNL d   1      -0.791   0.702  -0.778  0.00  0.00     0.007 C 
ATOM      9  C   UNL d   1      -0.333   2.038  -1.348  0.00  0.00     0.009 C 
ENDBRANCH   7   8
ENDBRANCH   1   7
TORSDOF 2
ENDMDL
