MODEL 1
REMARK minimizedAffinity -5.34369564
REMARK minimizedRMSD -1
REMARK  2 active torsions:
REMARK  status: ('A' for Active; 'I' for Inactive)
REMARK    1  A    between atoms: C1_2  and  C2_3 
REMARK    2  A    between atoms: C2_3  and  C3_4 
ROOT
ATOM      1  C3  UNL d   1       0.109  -2.261  -0.231  0.00  0.00    -0.075 A 
ATOM      2  C4  UNL d   1       1.329  -2.349  -0.918  0.00  0.00     0.002 A 
ATOM      3  C5  UNL d   1       2.075  -1.201  -1.185  0.00  0.00     0.002 A 
ATOM      4  C6  UNL d   1       1.609   0.047  -0.779  0.00  0.00    -0.004 A 
ATOM      5  C7  UNL d   1       0.391   0.148  -0.111  0.00  0.00     0.002 A 
ATOM      6  C8  UNL d   1      -0.356  -0.999   0.162  0.00  0.00     0.002 A 
ENDROOT
BRANCH   1   7
ATOM      7  C2  UNL d   1      -0.689  -3.502   0.088  0.00  0.00     0.056 C 
BRANCH   7   8
ATOM      8  C1  UNL d   1      -2.164  -3.416  -0.317  0.00  0.00     0.007 C 
ATOM      9  C   UNL d   1      -2.830  -4.779  -0.453  0.00  0.00     0.009 C 
ENDBRANCH   7   8
ENDBRANCH   1   7
TORSDOF 2
ENDMDL
