MODEL 1
REMARK minimizedAffinity -2.18971324
REMARK minimizedRMSD -1
REMARK  2 active torsions:
REMARK  status: ('A' for Active; 'I' for Inactive)
REMARK    1  A    between atoms: C1_2  and  C2_3 
REMARK    2  A    between atoms: C2_3  and  C3_4 
ROOT
ATOM      1  C3  UNL d   1       0.682  -2.068  -0.656  0.00  0.00    -0.075 A 
ATOM      2  C4  UNL d   1       0.904  -1.008   0.235  0.00  0.00     0.002 A 
ATOM      3  C5  UNL d   1       2.018  -0.181   0.088  0.00  0.00     0.002 A 
ATOM      4  C6  UNL d   1       2.927  -0.409  -0.942  0.00  0.00    -0.004 A 
ATOM      5  C7  UNL d   1       2.726  -1.469  -1.823  0.00  0.00     0.002 A 
ATOM      6  C8  UNL d   1       1.610  -2.296  -1.681  0.00  0.00     0.002 A 
ENDROOT
BRANCH   1   7
ATOM      7  C2  UNL d   1      -0.537  -2.949  -0.521  0.00  0.00     0.056 C 
BRANCH   7   8
ATOM      8  C1  UNL d   1      -1.863  -2.181  -0.504  0.00  0.00     0.007 C 
ATOM      9  C   UNL d   1      -2.982  -2.899  -1.246  0.00  0.00     0.009 C 
ENDBRANCH   7   8
ENDBRANCH   1   7
TORSDOF 2
ENDMDL
