MODEL 1
REMARK minimizedAffinity -5.12748432
REMARK minimizedRMSD -1
REMARK  2 active torsions:
REMARK  status: ('A' for Active; 'I' for Inactive)
REMARK    1  A    between atoms: C1_2  and  C2_3 
REMARK    2  A    between atoms: C2_3  and  C3_4 
ROOT
ATOM      1  C3  UNL d   1      -2.098  -0.284   1.346  0.00  0.00    -0.075 A 
ATOM      2  C4  UNL d   1      -3.263  -0.579   2.067  0.00  0.00     0.002 A 
ATOM      3  C5  UNL d   1      -3.533   0.068   3.274  0.00  0.00     0.002 A 
ATOM      4  C6  UNL d   1      -2.637   1.009   3.778  0.00  0.00    -0.004 A 
ATOM      5  C7  UNL d   1      -1.468   1.297   3.078  0.00  0.00     0.002 A 
ATOM      6  C8  UNL d   1      -1.198   0.654   1.868  0.00  0.00     0.002 A 
ENDROOT
BRANCH   1   7
ATOM      7  C2  UNL d   1      -1.815  -0.960   0.025  0.00  0.00     0.056 C 
BRANCH   7   8
ATOM      8  C1  UNL d   1      -3.008  -1.732  -0.549  0.00  0.00     0.007 C 
ATOM      9  C   UNL d   1      -2.760  -3.231  -0.652  0.00  0.00     0.009 C 
ENDBRANCH   7   8
ENDBRANCH   1   7
TORSDOF 2
ENDMDL
