MODEL 1
REMARK minimizedAffinity -3.27016902
REMARK minimizedRMSD -1
REMARK  2 active torsions:
REMARK  status: ('A' for Active; 'I' for Inactive)
REMARK    1  A    between atoms: C1_2  and  C2_3 
REMARK    2  A    between atoms: C2_3  and  C3_4 
ROOT
ATOM      1  C3  UNL d   1       0.064   0.021   1.213  0.00  0.00    -0.075 A 
ATOM      2  C4  UNL d   1       0.997  -0.952   1.599  0.00  0.00     0.002 A 
ATOM      3  C5  UNL d   1       1.441  -1.910   0.687  0.00  0.00     0.002 A 
ATOM      4  C6  UNL d   1       0.951  -1.914  -0.617  0.00  0.00    -0.004 A 
ATOM      5  C7  UNL d   1       0.011  -0.962  -1.007  0.00  0.00     0.002 A 
ATOM      6  C8  UNL d   1      -0.431   0.000  -0.098  0.00  0.00     0.002 A 
ENDROOT
BRANCH   1   7
ATOM      7  C2  UNL d   1      -0.398   1.078   2.187  0.00  0.00     0.056 C 
BRANCH   7   8
ATOM      8  C1  UNL d   1      -1.070   0.517   3.444  0.00  0.00     0.007 C 
ATOM      9  C   UNL d   1      -2.159   1.425   3.999  0.00  0.00     0.009 C 
ENDBRANCH   7   8
ENDBRANCH   1   7
TORSDOF 2
ENDMDL
