MODEL 1
REMARK minimizedAffinity -2.95533419
REMARK minimizedRMSD -1
REMARK  2 active torsions:
REMARK  status: ('A' for Active; 'I' for Inactive)
REMARK    1  A    between atoms: C1_2  and  C2_3 
REMARK    2  A    between atoms: C2_3  and  C3_4 
ROOT
ATOM      1  C3  UNL d   1      -1.539  -1.856  -0.683  0.00  0.00    -0.075 A 
ATOM      2  C4  UNL d   1      -1.833  -0.522  -0.365  0.00  0.00     0.002 A 
ATOM      3  C5  UNL d   1      -0.814   0.363  -0.012  0.00  0.00     0.002 A 
ATOM      4  C6  UNL d   1       0.508  -0.075   0.037  0.00  0.00    -0.004 A 
ATOM      5  C7  UNL d   1       0.809  -1.403  -0.261  0.00  0.00     0.002 A 
ATOM      6  C8  UNL d   1      -0.208  -2.289  -0.618  0.00  0.00     0.002 A 
ENDROOT
BRANCH   1   7
ATOM      7  C2  UNL d   1      -2.634  -2.811  -1.094  0.00  0.00     0.056 C 
BRANCH   7   8
ATOM      8  C1  UNL d   1      -2.561  -4.178  -0.405  0.00  0.00     0.007 C 
ATOM      9  C   UNL d   1      -3.085  -5.315  -1.271  0.00  0.00     0.009 C 
ENDBRANCH   7   8
ENDBRANCH   1   7
TORSDOF 2
ENDMDL
