MODEL 1
REMARK minimizedAffinity -5.36168432
REMARK minimizedRMSD -1
REMARK  2 active torsions:
REMARK  status: ('A' for Active; 'I' for Inactive)
REMARK    1  A    between atoms: C1_2  and  C2_3 
REMARK    2  A    between atoms: C2_3  and  C3_4 
ROOT
ATOM      1  C3  UNL d   1       0.141  -0.170  -0.020  0.00  0.00    -0.075 A 
ATOM      2  C4  UNL d   1       0.664  -1.422  -0.374  0.00  0.00     0.002 A 
ATOM      3  C5  UNL d   1       1.822  -1.512  -1.148  0.00  0.00     0.002 A 
ATOM      4  C6  UNL d   1       2.463  -0.354  -1.585  0.00  0.00    -0.004 A 
ATOM      5  C7  UNL d   1       1.942   0.894  -1.253  0.00  0.00     0.002 A 
ATOM      6  C8  UNL d   1       0.786   0.987  -0.475  0.00  0.00     0.002 A 
ENDROOT
BRANCH   1   7
ATOM      7  C2  UNL d   1      -1.095  -0.066   0.842  0.00  0.00     0.056 C 
BRANCH   7   8
ATOM      8  C1  UNL d   1      -0.980   0.960   1.975  0.00  0.00     0.007 C 
ATOM      9  C   UNL d   1      -1.403   0.407   3.330  0.00  0.00     0.009 C 
ENDBRANCH   7   8
ENDBRANCH   1   7
TORSDOF 2
ENDMDL
