MODEL 1
REMARK minimizedAffinity 4.79250193
REMARK minimizedRMSD -1
REMARK  2 active torsions:
REMARK  status: ('A' for Active; 'I' for Inactive)
REMARK    1  A    between atoms: C1_2  and  C2_3 
REMARK    2  A    between atoms: C2_3  and  C3_4 
ROOT
ATOM      1  C3  UNL d   1       3.048   5.227  -4.596  0.00  0.00    -0.075 A 
ATOM      2  C4  UNL d   1       2.120   5.994  -5.315  0.00  0.00     0.002 A 
ATOM      3  C5  UNL d   1       1.069   5.379  -5.997  0.00  0.00     0.002 A 
ATOM      4  C6  UNL d   1       0.939   3.993  -5.977  0.00  0.00    -0.004 A 
ATOM      5  C7  UNL d   1       1.864   3.219  -5.279  0.00  0.00     0.002 A 
ATOM      6  C8  UNL d   1       2.914   3.832  -4.593  0.00  0.00     0.002 A 
ENDROOT
BRANCH   1   7
ATOM      7  C2  UNL d   1       4.170   5.888  -3.832  0.00  0.00     0.056 C 
BRANCH   7   8
ATOM      8  C1  UNL d   1       4.024   5.801  -2.309  0.00  0.00     0.007 C 
ATOM      9  C   UNL d   1       5.358   5.687  -1.583  0.00  0.00     0.009 C 
ENDBRANCH   7   8
ENDBRANCH   1   7
TORSDOF 2
ENDMDL
