MODEL 1
REMARK minimizedAffinity -0.10857147
REMARK minimizedRMSD -1
REMARK  2 active torsions:
REMARK  status: ('A' for Active; 'I' for Inactive)
REMARK    1  A    between atoms: C1_2  and  C2_3 
REMARK    2  A    between atoms: C2_3  and  C3_4 
ROOT
ATOM      1  C3  UNL d   1      -3.005  -1.293   2.011  0.00  0.00    -0.075 A 
ATOM      2  C4  UNL d   1      -3.366  -2.073   3.119  0.00  0.00     0.002 A 
ATOM      3  C5  UNL d   1      -2.817  -1.816   4.376  0.00  0.00     0.002 A 
ATOM      4  C6  UNL d   1      -1.895  -0.784   4.538  0.00  0.00    -0.004 A 
ATOM      5  C7  UNL d   1      -1.517  -0.013   3.441  0.00  0.00     0.002 A 
ATOM      6  C8  UNL d   1      -2.068  -0.266   2.183  0.00  0.00     0.002 A 
ENDROOT
BRANCH   1   7
ATOM      7  C2  UNL d   1      -3.618  -1.548   0.654  0.00  0.00     0.056 C 
BRANCH   7   8
ATOM      8  C1  UNL d   1      -2.627  -2.077  -0.388  0.00  0.00     0.007 C 
ATOM      9  C   UNL d   1      -3.224  -3.143  -1.297  0.00  0.00     0.009 C 
ENDBRANCH   7   8
ENDBRANCH   1   7
TORSDOF 2
ENDMDL
