MODEL 1
REMARK minimizedAffinity 0.487300366
REMARK minimizedRMSD -1
REMARK  2 active torsions:
REMARK  status: ('A' for Active; 'I' for Inactive)
REMARK    1  A    between atoms: C1_2  and  C2_3 
REMARK    2  A    between atoms: C2_3  and  C3_4 
ROOT
ATOM      1  C3  UNL d   1       4.741   3.392   4.111  0.00  0.00    -0.075 A 
ATOM      2  C4  UNL d   1       5.670   4.160   4.827  0.00  0.00     0.002 A 
ATOM      3  C5  UNL d   1       5.998   5.449   4.406  0.00  0.00     0.002 A 
ATOM      4  C6  UNL d   1       5.411   5.981   3.260  0.00  0.00    -0.004 A 
ATOM      5  C7  UNL d   1       4.499   5.221   2.531  0.00  0.00     0.002 A 
ATOM      6  C8  UNL d   1       4.166   3.932   2.953  0.00  0.00     0.002 A 
ENDROOT
BRANCH   1   7
ATOM      7  C2  UNL d   1       4.360   2.008   4.578  0.00  0.00     0.056 C 
BRANCH   7   8
ATOM      8  C1  UNL d   1       5.319   1.413   5.614  0.00  0.00     0.007 C 
ATOM      9  C   UNL d   1       5.261  -0.107   5.684  0.00  0.00     0.009 C 
ENDBRANCH   7   8
ENDBRANCH   1   7
TORSDOF 2
ENDMDL
