MODEL 1
REMARK minimizedAffinity -2.22151709
REMARK minimizedRMSD -1
REMARK  2 active torsions:
REMARK  status: ('A' for Active; 'I' for Inactive)
REMARK    1  A    between atoms: C1_2  and  C2_3 
REMARK    2  A    between atoms: C2_3  and  C3_4 
ROOT
ATOM      1  C3  UNL d   1       5.247   3.632   2.794  0.00  0.00    -0.075 A 
ATOM      2  C4  UNL d   1       4.988   4.998   2.972  0.00  0.00     0.002 A 
ATOM      3  C5  UNL d   1       4.355   5.736   1.972  0.00  0.00     0.002 A 
ATOM      4  C6  UNL d   1       3.982   5.122   0.779  0.00  0.00    -0.004 A 
ATOM      5  C7  UNL d   1       4.249   3.768   0.584  0.00  0.00     0.002 A 
ATOM      6  C8  UNL d   1       4.878   3.026   1.585  0.00  0.00     0.002 A 
ENDROOT
BRANCH   1   7
ATOM      7  C2  UNL d   1       5.905   2.821   3.884  0.00  0.00     0.056 C 
BRANCH   7   8
ATOM      8  C1  UNL d   1       5.138   1.550   4.266  0.00  0.00     0.007 C 
ATOM      9  C   UNL d   1       5.766   0.797   5.431  0.00  0.00     0.009 C 
ENDBRANCH   7   8
ENDBRANCH   1   7
TORSDOF 2
ENDMDL
