MODEL 1
REMARK minimizedAffinity -3.43238759
REMARK minimizedRMSD -1
REMARK  2 active torsions:
REMARK  status: ('A' for Active; 'I' for Inactive)
REMARK    1  A    between atoms: C1_2  and  C2_3 
REMARK    2  A    between atoms: C2_3  and  C3_4 
ROOT
ATOM      1  C3  UNL d   1       5.661   1.744   4.848  0.00  0.00    -0.075 A 
ATOM      2  C4  UNL d   1       5.161   1.089   5.983  0.00  0.00     0.002 A 
ATOM      3  C5  UNL d   1       5.025  -0.300   5.996  0.00  0.00     0.002 A 
ATOM      4  C6  UNL d   1       5.376  -1.048   4.874  0.00  0.00    -0.004 A 
ATOM      5  C7  UNL d   1       5.857  -0.405   3.735  0.00  0.00     0.002 A 
ATOM      6  C8  UNL d   1       5.999   0.983   3.721  0.00  0.00     0.002 A 
ENDROOT
BRANCH   1   7
ATOM      7  C2  UNL d   1       5.839   3.244   4.838  0.00  0.00     0.056 C 
BRANCH   7   8
ATOM      8  C1  UNL d   1       4.582   4.018   4.429  0.00  0.00     0.007 C 
ATOM      9  C   UNL d   1       4.193   3.804   2.972  0.00  0.00     0.009 C 
ENDBRANCH   7   8
ENDBRANCH   1   7
TORSDOF 2
ENDMDL
