MODEL 1
REMARK minimizedAffinity 2.35053945
REMARK minimizedRMSD -1
REMARK  0 active torsions:
REMARK  status: ('A' for Active; 'I' for Inactive)
ROOT
ATOM      1  C   UNL d   1      -2.712   0.197  -3.076  0.00  0.00    -0.002 A 
ATOM      2  C1  UNL d   1      -2.563  -1.144  -2.754  0.00  0.00     0.010 A 
ATOM      3  C2  UNL d   1      -1.721  -1.535  -1.711  0.00  0.00     0.041 A 
ATOM      4  C3  UNL d   1      -1.024  -0.545  -0.990  0.00  0.00    -0.075 A 
ATOM      5  S   UNL d   1       0.062  -0.789   0.326  0.00  0.00     0.015 SA
ATOM      6  C4  UNL d   1       0.353   0.882   0.493  0.00  0.00     0.022 A 
ATOM      7  C5  UNL d   1      -0.352   1.622  -0.426  0.00  0.00     0.026 A 
ATOM      8  C6  UNL d   1      -1.158   0.812  -1.295  0.00  0.00    -0.082 A 
ATOM      9  C7  UNL d   1      -2.020   1.176  -2.358  0.00  0.00     0.045 A 
ENDROOT
TORSDOF 0
ENDMDL
