MODEL 1
REMARK minimizedAffinity -3.46407127
REMARK minimizedRMSD -1
REMARK  0 active torsions:
REMARK  status: ('A' for Active; 'I' for Inactive)
ROOT
ATOM      1  C   UNL d   1       2.021  -1.800   2.950  0.00  0.00    -0.002 A 
ATOM      2  C1  UNL d   1       0.760  -2.287   2.632  0.00  0.00     0.010 A 
ATOM      3  C2  UNL d   1      -0.033  -1.638   1.684  0.00  0.00     0.041 A 
ATOM      4  C3  UNL d   1       0.467  -0.482   1.052  0.00  0.00    -0.075 A 
ATOM      5  S   UNL d   1      -0.326   0.477  -0.141  0.00  0.00     0.015 SA
ATOM      6  C4  UNL d   1       0.989   1.554  -0.258  0.00  0.00     0.022 A 
ATOM      7  C5  UNL d   1       2.017   1.206   0.586  0.00  0.00     0.026 A 
ATOM      8  C6  UNL d   1       1.734   0.026   1.355  0.00  0.00    -0.082 A 
ATOM      9  C7  UNL d   1       2.513  -0.653   2.321  0.00  0.00     0.045 A 
ENDROOT
TORSDOF 0
ENDMDL
