MODEL 1
REMARK minimizedAffinity -3.4983561
REMARK minimizedRMSD -1
REMARK  0 active torsions:
REMARK  status: ('A' for Active; 'I' for Inactive)
ROOT
ATOM      1  C   UNL d   1       2.361   0.858   0.059  0.00  0.00    -0.002 A 
ATOM      2  C1  UNL d   1       2.153  -0.030   1.105  0.00  0.00     0.010 A 
ATOM      3  C2  UNL d   1       0.874  -0.518   1.380  0.00  0.00     0.041 A 
ATOM      4  C3  UNL d   1      -0.203  -0.096   0.576  0.00  0.00    -0.075 A 
ATOM      5  S   UNL d   1      -1.856  -0.563   0.724  0.00  0.00     0.015 SA
ATOM      6  C4  UNL d   1      -2.326   0.405  -0.598  0.00  0.00     0.022 A 
ATOM      7  C5  UNL d   1      -1.260   1.075  -1.151  0.00  0.00     0.026 A 
ATOM      8  C6  UNL d   1      -0.019   0.797  -0.484  0.00  0.00    -0.082 A 
ATOM      9  C7  UNL d   1       1.290   1.274  -0.736  0.00  0.00     0.045 A 
ENDROOT
TORSDOF 0
ENDMDL
