MODEL 1
REMARK minimizedAffinity 0.568409145
REMARK minimizedRMSD -1
REMARK  0 active torsions:
REMARK  status: ('A' for Active; 'I' for Inactive)
ROOT
ATOM      1  C   UNL d   1      -0.966   1.101  -0.460  0.00  0.00    -0.002 A 
ATOM      2  C1  UNL d   1      -1.519  -0.120  -0.098  0.00  0.00     0.010 A 
ATOM      3  C2  UNL d   1      -0.826  -0.993   0.742  0.00  0.00     0.041 A 
ATOM      4  C3  UNL d   1       0.444  -0.614   1.220  0.00  0.00    -0.075 A 
ATOM      5  S   UNL d   1       1.476  -1.520   2.262  0.00  0.00     0.015 SA
ATOM      6  C4  UNL d   1       2.675  -0.309   2.253  0.00  0.00     0.022 A 
ATOM      7  C5  UNL d   1       2.313   0.768   1.479  0.00  0.00     0.026 A 
ATOM      8  C6  UNL d   1       1.022   0.611   0.871  0.00  0.00    -0.082 A 
ATOM      9  C7  UNL d   1       0.294   1.473   0.016  0.00  0.00     0.045 A 
ENDROOT
TORSDOF 0
ENDMDL
