MODEL 1
REMARK minimizedAffinity 4.94442368
REMARK minimizedRMSD -1
REMARK  2 active torsions:
REMARK  status: ('A' for Active; 'I' for Inactive)
REMARK    1  A    between atoms: C2'_3  and  C1'_4 
REMARK    2  A    between atoms: C1'_4  and  C1_5 
ROOT
ATOM      1  C1  I4B d   1      -0.184  -0.895   0.606  0.00  0.00    -0.075 A 
ATOM      2  C2  I4B d   1      -0.098  -0.241  -0.597  0.00  0.00     0.003 A 
ATOM      3  C3  I4B d   1       0.190   1.145  -0.636  0.00  0.00     0.002 A 
ATOM      4  C4  I4B d   1       0.334   1.843   0.545  0.00  0.00    -0.004 A 
ATOM      5  C5  I4B d   1       0.270   1.173   1.764  0.00  0.00     0.002 A 
ATOM      6  C6  I4B d   1       0.021  -0.207   1.795  0.00  0.00     0.003 A 
ENDROOT
BRANCH   1   7
ATOM      7  C1' I4B d   1      -0.523  -2.352   0.612  0.00  0.00     0.060 C 
BRANCH   7   8
ATOM      8  C2' I4B d   1      -0.246  -2.901  -0.772  0.00  0.00    -0.013 C 
ATOM      9  C4' I4B d   1       0.681  -4.087  -0.713  0.00  0.00     0.013 C 
ATOM     10  C3' I4B d   1      -1.559  -3.271  -1.395  0.00  0.00     0.013 C 
ENDBRANCH   7   8
ENDBRANCH   1   7
TORSDOF 2
ENDMDL
