MODEL 1
REMARK minimizedAffinity 3.89670396
REMARK minimizedRMSD -1
REMARK  2 active torsions:
REMARK  status: ('A' for Active; 'I' for Inactive)
REMARK    1  A    between atoms: C2'_3  and  C1'_4 
REMARK    2  A    between atoms: C1'_4  and  C1_5 
ROOT
ATOM      1  C1  I4B d   1      -0.145   0.967  -0.500  0.00  0.00    -0.075 A 
ATOM      2  C2  I4B d   1      -0.195   2.151   0.191  0.00  0.00     0.003 A 
ATOM      3  C3  I4B d   1       0.364   2.243   1.489  0.00  0.00     0.002 A 
ATOM      4  C4  I4B d   1       0.913   1.120   2.073  0.00  0.00    -0.004 A 
ATOM      5  C5  I4B d   1       0.984  -0.074   1.362  0.00  0.00     0.002 A 
ATOM      6  C6  I4B d   1       0.462  -0.149   0.062  0.00  0.00     0.003 A 
ENDROOT
BRANCH   1   7
ATOM      7  C1' I4B d   1      -0.774   0.897  -1.856  0.00  0.00     0.060 C 
BRANCH   7   8
ATOM      8  C2' I4B d   1      -2.018   0.038  -1.749  0.00  0.00    -0.013 C 
ATOM      9  C4' I4B d   1      -3.148   0.613  -2.562  0.00  0.00     0.013 C 
ATOM     10  C3' I4B d   1      -1.667  -1.345  -2.211  0.00  0.00     0.013 C 
ENDBRANCH   7   8
ENDBRANCH   1   7
TORSDOF 2
ENDMDL
