MODEL 1
REMARK minimizedAffinity 11.0717926
REMARK minimizedRMSD -1
REMARK  2 active torsions:
REMARK  status: ('A' for Active; 'I' for Inactive)
REMARK    1  A    between atoms: C2'_3  and  C1'_4 
REMARK    2  A    between atoms: C1'_4  and  C1_5 
ROOT
ATOM      1  C1  I4B d   1      -1.226   0.656  -1.531  0.00  0.00    -0.075 A 
ATOM      2  C2  I4B d   1      -0.665  -0.192  -0.609  0.00  0.00     0.003 A 
ATOM      3  C3  I4B d   1       0.031   0.331   0.508  0.00  0.00     0.002 A 
ATOM      4  C4  I4B d   1       0.185   1.696   0.635  0.00  0.00    -0.004 A 
ATOM      5  C5  I4B d   1      -0.405   2.554  -0.288  0.00  0.00     0.002 A 
ATOM      6  C6  I4B d   1      -1.125   2.032  -1.372  0.00  0.00     0.003 A 
ENDROOT
BRANCH   1   7
ATOM      7  C1' I4B d   1      -1.926   0.069  -2.716  0.00  0.00     0.060 C 
BRANCH   7   8
ATOM      8  C2' I4B d   1      -3.333   0.630  -2.752  0.00  0.00    -0.013 C 
ATOM      9  C4' I4B d   1      -3.601   1.348  -4.049  0.00  0.00     0.013 C 
ATOM     10  C3' I4B d   1      -4.290  -0.507  -2.554  0.00  0.00     0.013 C 
ENDBRANCH   7   8
ENDBRANCH   1   7
TORSDOF 2
ENDMDL
