MODEL 1
REMARK minimizedAffinity 5.58017445
REMARK minimizedRMSD -1
REMARK  2 active torsions:
REMARK  status: ('A' for Active; 'I' for Inactive)
REMARK    1  A    between atoms: C2'_3  and  C1'_4 
REMARK    2  A    between atoms: C1'_4  and  C1_5 
ROOT
ATOM      1  C1  I4B d   1       0.728   0.223   0.382  0.00  0.00    -0.075 A 
ATOM      2  C2  I4B d   1       1.781  -0.635   0.575  0.00  0.00     0.003 A 
ATOM      3  C3  I4B d   1       2.195  -0.971   1.887  0.00  0.00     0.002 A 
ATOM      4  C4  I4B d   1       1.565  -0.389   2.968  0.00  0.00    -0.004 A 
ATOM      5  C5  I4B d   1       0.482   0.463   2.771  0.00  0.00     0.002 A 
ATOM      6  C6  I4B d   1       0.053   0.762   1.469  0.00  0.00     0.003 A 
ENDROOT
BRANCH   1   7
ATOM      7  C1' I4B d   1       0.338   0.582  -1.017  0.00  0.00     0.060 C 
BRANCH   7   8
ATOM      8  C2' I4B d   1      -0.705   1.678  -0.945  0.00  0.00    -0.013 C 
ATOM      9  C4' I4B d   1      -0.191   2.961  -1.544  0.00  0.00     0.013 C 
ATOM     10  C3' I4B d   1      -1.931   1.199  -1.663  0.00  0.00     0.013 C 
ENDBRANCH   7   8
ENDBRANCH   1   7
TORSDOF 2
ENDMDL
