MODEL 1
REMARK minimizedAffinity 13.9627743
REMARK minimizedRMSD -1
REMARK  2 active torsions:
REMARK  status: ('A' for Active; 'I' for Inactive)
REMARK    1  A    between atoms: C2'_3  and  C1'_4 
REMARK    2  A    between atoms: C1'_4  and  C1_5 
ROOT
ATOM      1  C1  I4B d   1       0.464   0.633  -0.242  0.00  0.00    -0.075 A 
ATOM      2  C2  I4B d   1      -0.054   1.066   0.953  0.00  0.00     0.003 A 
ATOM      3  C3  I4B d   1       0.497   0.612   2.176  0.00  0.00     0.002 A 
ATOM      4  C4  I4B d   1       1.526  -0.308   2.157  0.00  0.00    -0.004 A 
ATOM      5  C5  I4B d   1       2.065  -0.728   0.945  0.00  0.00     0.002 A 
ATOM      6  C6  I4B d   1       1.540  -0.245  -0.262  0.00  0.00     0.003 A 
ENDROOT
BRANCH   1   7
ATOM      7  C1' I4B d   1      -0.164   1.107  -1.514  0.00  0.00     0.060 C 
BRANCH   7   8
ATOM      8  C2' I4B d   1      -1.224   2.129  -1.158  0.00  0.00    -0.013 C 
ATOM      9  C4' I4B d   1      -0.904   3.476  -1.750  0.00  0.00     0.013 C 
ATOM     10  C3' I4B d   1      -2.544   1.619  -1.655  0.00  0.00     0.013 C 
ENDBRANCH   7   8
ENDBRANCH   1   7
TORSDOF 2
ENDMDL
