MODEL 1
REMARK minimizedAffinity -0.381148696
REMARK minimizedRMSD -1
REMARK  2 active torsions:
REMARK  status: ('A' for Active; 'I' for Inactive)
REMARK    1  A    between atoms: C2'_3  and  C1'_4 
REMARK    2  A    between atoms: C1'_4  and  C1_5 
ROOT
ATOM      1  C1  I4B d   1      -0.116   1.674   0.679  0.00  0.00    -0.075 A 
ATOM      2  C2  I4B d   1       0.240   2.762   1.438  0.00  0.00     0.003 A 
ATOM      3  C3  I4B d   1       0.374   4.037   0.837  0.00  0.00     0.002 A 
ATOM      4  C4  I4B d   1       0.194   4.169  -0.525  0.00  0.00    -0.004 A 
ATOM      5  C5  I4B d   1      -0.188   3.070  -1.289  0.00  0.00     0.002 A 
ATOM      6  C6  I4B d   1      -0.357   1.817  -0.681  0.00  0.00     0.003 A 
ENDROOT
BRANCH   1   7
ATOM      7  C1' I4B d   1      -0.216   0.336   1.340  0.00  0.00     0.060 C 
BRANCH   7   8
ATOM      8  C2' I4B d   1       1.159  -0.300   1.318  0.00  0.00    -0.013 C 
ATOM      9  C4' I4B d   1       1.442  -1.031   2.604  0.00  0.00     0.013 C 
ATOM     10  C3' I4B d   1       1.221  -1.228   0.142  0.00  0.00     0.013 C 
ENDBRANCH   7   8
ENDBRANCH   1   7
TORSDOF 2
ENDMDL
