MODEL 1
REMARK minimizedAffinity 6.81796026
REMARK minimizedRMSD -1
REMARK  2 active torsions:
REMARK  status: ('A' for Active; 'I' for Inactive)
REMARK    1  A    between atoms: C2'_3  and  C1'_4 
REMARK    2  A    between atoms: C1'_4  and  C1_5 
ROOT
ATOM      1  C1  I4B d   1       1.166  -0.696  -0.318  0.00  0.00    -0.075 A 
ATOM      2  C2  I4B d   1       1.087  -0.473   1.034  0.00  0.00     0.003 A 
ATOM      3  C3  I4B d   1       0.400   0.661   1.531  0.00  0.00     0.002 A 
ATOM      4  C4  I4B d   1      -0.146   1.567   0.645  0.00  0.00    -0.004 A 
ATOM      5  C5  I4B d   1      -0.086   1.327  -0.725  0.00  0.00     0.002 A 
ATOM      6  C6  I4B d   1       0.563   0.183  -1.209  0.00  0.00     0.003 A 
ENDROOT
BRANCH   1   7
ATOM      7  C1' I4B d   1       1.927  -1.886  -0.809  0.00  0.00     0.060 C 
BRANCH   7   8
ATOM      8  C2' I4B d   1       1.321  -3.122  -0.176  0.00  0.00    -0.013 C 
ATOM      9  C4' I4B d   1      -0.137  -3.255  -0.527  0.00  0.00     0.013 C 
ATOM     10  C3' I4B d   1       2.102  -4.313  -0.645  0.00  0.00     0.013 C 
ENDBRANCH   7   8
ENDBRANCH   1   7
TORSDOF 2
ENDMDL
