MODEL 1
REMARK minimizedAffinity -2.56900787
REMARK minimizedRMSD -1
REMARK  2 active torsions:
REMARK  status: ('A' for Active; 'I' for Inactive)
REMARK    1  A    between atoms: C2'_3  and  C1'_4 
REMARK    2  A    between atoms: C1'_4  and  C1_5 
ROOT
ATOM      1  C1  I4B d   1      -0.156   0.168   0.434  0.00  0.00    -0.075 A 
ATOM      2  C2  I4B d   1       0.075   1.518   0.338  0.00  0.00     0.003 A 
ATOM      3  C3  I4B d   1       0.992   2.018  -0.618  0.00  0.00     0.002 A 
ATOM      4  C4  I4B d   1       1.689   1.135  -1.418  0.00  0.00    -0.004 A 
ATOM      5  C5  I4B d   1       1.437  -0.232  -1.334  0.00  0.00     0.002 A 
ATOM      6  C6  I4B d   1       0.500  -0.718  -0.411  0.00  0.00     0.003 A 
ENDROOT
BRANCH   1   7
ATOM      7  C1' I4B d   1      -1.106  -0.328   1.478  0.00  0.00     0.060 C 
BRANCH   7   8
ATOM      8  C2' I4B d   1      -2.412   0.423   1.314  0.00  0.00    -0.013 C 
ATOM      9  C4' I4B d   1      -3.521  -0.500   0.882  0.00  0.00     0.013 C 
ATOM     10  C3' I4B d   1      -2.734   1.082   2.622  0.00  0.00     0.013 C 
ENDBRANCH   7   8
ENDBRANCH   1   7
TORSDOF 2
ENDMDL
