MODEL 1
REMARK minimizedAffinity -3.76165271
REMARK minimizedRMSD -1
REMARK  2 active torsions:
REMARK  status: ('A' for Active; 'I' for Inactive)
REMARK    1  A    between atoms: C2'_3  and  C1'_4 
REMARK    2  A    between atoms: C1'_4  and  C1_5 
ROOT
ATOM      1  C1  I4B d   1       0.169   0.048   0.435  0.00  0.00    -0.075 A 
ATOM      2  C2  I4B d   1       0.264   1.395   0.186  0.00  0.00     0.003 A 
ATOM      3  C3  I4B d   1       1.143   1.874  -0.815  0.00  0.00     0.002 A 
ATOM      4  C4  I4B d   1       1.941   0.983  -1.504  0.00  0.00    -0.004 A 
ATOM      5  C5  I4B d   1       1.826  -0.384  -1.266  0.00  0.00     0.002 A 
ATOM      6  C6  I4B d   1       0.926  -0.856  -0.299  0.00  0.00     0.003 A 
ENDROOT
BRANCH   1   7
ATOM      7  C1' I4B d   1      -0.745  -0.421   1.522  0.00  0.00     0.060 C 
BRANCH   7   8
ATOM      8  C2' I4B d   1      -1.845   0.608   1.683  0.00  0.00    -0.013 C 
ATOM      9  C4' I4B d   1      -3.185   0.040   1.297  0.00  0.00     0.013 C 
ATOM     10  C3' I4B d   1      -1.843   1.068   3.111  0.00  0.00     0.013 C 
ENDBRANCH   7   8
ENDBRANCH   1   7
TORSDOF 2
ENDMDL
