MODEL 1
REMARK minimizedAffinity -4.00122881
REMARK minimizedRMSD -1
REMARK  2 active torsions:
REMARK  status: ('A' for Active; 'I' for Inactive)
REMARK    1  A    between atoms: C2'_3  and  C1'_4 
REMARK    2  A    between atoms: C1'_4  and  C1_5 
ROOT
ATOM      1  C1  I4B d   1      -0.089  -0.087   0.520  0.00  0.00    -0.075 A 
ATOM      2  C2  I4B d   1       0.659  -1.047  -0.116  0.00  0.00     0.003 A 
ATOM      3  C3  I4B d   1       1.656  -0.672  -1.048  0.00  0.00     0.002 A 
ATOM      4  C4  I4B d   1       1.837   0.662  -1.350  0.00  0.00    -0.004 A 
ATOM      5  C5  I4B d   1       1.094   1.635  -0.688  0.00  0.00     0.002 A 
ATOM      6  C6  I4B d   1       0.134   1.259   0.262  0.00  0.00     0.003 A 
ENDROOT
BRANCH   1   7
ATOM      7  C1' I4B d   1      -1.156  -0.520   1.474  0.00  0.00     0.060 C 
BRANCH   7   8
ATOM      8  C2' I4B d   1      -2.271   0.504   1.423  0.00  0.00    -0.013 C 
ATOM      9  C4' I4B d   1      -3.499  -0.059   0.756  0.00  0.00     0.013 C 
ATOM     10  C3' I4B d   1      -2.569   0.936   2.828  0.00  0.00     0.013 C 
ENDBRANCH   7   8
ENDBRANCH   1   7
TORSDOF 2
ENDMDL
