MODEL 1
REMARK minimizedAffinity 7.18244028
REMARK minimizedRMSD -1
REMARK  2 active torsions:
REMARK  status: ('A' for Active; 'I' for Inactive)
REMARK    1  A    between atoms: C2'_3  and  C1'_4 
REMARK    2  A    between atoms: C1'_4  and  C1_5 
ROOT
ATOM      1  C1  I4B d   1      -2.805   2.292   2.931  0.00  0.00    -0.075 A 
ATOM      2  C2  I4B d   1      -1.974   2.129   4.012  0.00  0.00     0.003 A 
ATOM      3  C3  I4B d   1      -2.030   3.036   5.098  0.00  0.00     0.002 A 
ATOM      4  C4  I4B d   1      -2.890   4.113   5.040  0.00  0.00    -0.004 A 
ATOM      5  C5  I4B d   1      -3.747   4.265   3.954  0.00  0.00     0.002 A 
ATOM      6  C6  I4B d   1      -3.714   3.342   2.898  0.00  0.00     0.003 A 
ENDROOT
BRANCH   1   7
ATOM      7  C1' I4B d   1      -2.696   1.335   1.787  0.00  0.00     0.060 C 
BRANCH   7   8
ATOM      8  C2' I4B d   1      -3.973   0.521   1.737  0.00  0.00    -0.013 C 
ATOM      9  C4' I4B d   1      -5.140   1.364   1.294  0.00  0.00     0.013 C 
ATOM     10  C3' I4B d   1      -3.752  -0.631   0.802  0.00  0.00     0.013 C 
ENDBRANCH   7   8
ENDBRANCH   1   7
TORSDOF 2
ENDMDL
