MODEL 1
REMARK minimizedAffinity -3.24964571
REMARK minimizedRMSD -1
REMARK  2 active torsions:
REMARK  status: ('A' for Active; 'I' for Inactive)
REMARK    1  A    between atoms: C2'_3  and  C1'_4 
REMARK    2  A    between atoms: C1'_4  and  C1_5 
ROOT
ATOM      1  C1  I4B d   1      -0.048   0.158   0.456  0.00  0.00    -0.075 A 
ATOM      2  C2  I4B d   1       0.567  -0.703  -0.418  0.00  0.00     0.003 A 
ATOM      3  C3  I4B d   1       1.502  -0.213  -1.362  0.00  0.00     0.002 A 
ATOM      4  C4  I4B d   1       1.752   1.143  -1.430  0.00  0.00    -0.004 A 
ATOM      5  C5  I4B d   1       1.145   2.011  -0.527  0.00  0.00     0.002 A 
ATOM      6  C6  I4B d   1       0.248   1.515   0.430  0.00  0.00     0.003 A 
ENDROOT
BRANCH   1   7
ATOM      7  C1' I4B d   1      -1.055  -0.389   1.418  0.00  0.00     0.060 C 
BRANCH   7   8
ATOM      8  C2' I4B d   1      -2.199   0.600   1.509  0.00  0.00    -0.013 C 
ATOM      9  C4' I4B d   1      -3.509  -0.045   1.141  0.00  0.00     0.013 C 
ATOM     10  C3' I4B d   1      -2.235   1.139   2.908  0.00  0.00     0.013 C 
ENDBRANCH   7   8
ENDBRANCH   1   7
TORSDOF 2
ENDMDL
