MODEL 1
REMARK minimizedAffinity -4.60075521
REMARK minimizedRMSD -1
REMARK  2 active torsions:
REMARK  status: ('A' for Active; 'I' for Inactive)
REMARK    1  A    between atoms: C2'_3  and  C1'_4 
REMARK    2  A    between atoms: C1'_4  and  C1_5 
ROOT
ATOM      1  C1  I4B d   1      -0.047  -0.120   0.487  0.00  0.00    -0.075 A 
ATOM      2  C2  I4B d   1       0.340   1.181   0.692  0.00  0.00     0.003 A 
ATOM      3  C3  I4B d   1       1.177   1.832  -0.247  0.00  0.00     0.002 A 
ATOM      4  C4  I4B d   1       1.642   1.133  -1.342  0.00  0.00    -0.004 A 
ATOM      5  C5  I4B d   1       1.231  -0.179  -1.559  0.00  0.00     0.002 A 
ATOM      6  C6  I4B d   1       0.371  -0.806  -0.646  0.00  0.00     0.003 A 
ENDROOT
BRANCH   1   7
ATOM      7  C1' I4B d   1      -0.905  -0.786   1.515  0.00  0.00     0.060 C 
BRANCH   7   8
ATOM      8  C2' I4B d   1      -1.958   0.209   1.961  0.00  0.00    -0.013 C 
ATOM      9  C4' I4B d   1      -3.277  -0.053   1.283  0.00  0.00     0.013 C 
ATOM     10  C3' I4B d   1      -2.086   0.110   3.452  0.00  0.00     0.013 C 
ENDBRANCH   7   8
ENDBRANCH   1   7
TORSDOF 2
ENDMDL
