MODEL 1
REMARK minimizedAffinity -2.25298381
REMARK minimizedRMSD -1
REMARK  2 active torsions:
REMARK  status: ('A' for Active; 'I' for Inactive)
REMARK    1  A    between atoms: C2'_3  and  C1'_4 
REMARK    2  A    between atoms: C1'_4  and  C1_5 
ROOT
ATOM      1  C1  I4B d   1      -1.504   0.319   1.172  0.00  0.00    -0.075 A 
ATOM      2  C2  I4B d   1      -2.554  -0.333   0.573  0.00  0.00     0.003 A 
ATOM      3  C3  I4B d   1      -3.876  -0.130   1.035  0.00  0.00     0.002 A 
ATOM      4  C4  I4B d   1      -4.098   0.689   2.124  0.00  0.00    -0.004 A 
ATOM      5  C5  I4B d   1      -3.036   1.367   2.715  0.00  0.00     0.002 A 
ATOM      6  C6  I4B d   1      -1.732   1.190   2.229  0.00  0.00     0.003 A 
ENDROOT
BRANCH   1   7
ATOM      7  C1' I4B d   1      -0.117   0.055   0.680  0.00  0.00     0.060 C 
BRANCH   7   8
ATOM      8  C2' I4B d   1       0.445   1.358   0.148  0.00  0.00    -0.013 C 
ATOM      9  C4' I4B d   1       1.449   1.949   1.103  0.00  0.00     0.013 C 
ATOM     10  C3' I4B d   1       1.066   1.083  -1.189  0.00  0.00     0.013 C 
ENDBRANCH   7   8
ENDBRANCH   1   7
TORSDOF 2
ENDMDL
