MODEL 1
REMARK minimizedAffinity -2.89966702
REMARK minimizedRMSD -1
REMARK  2 active torsions:
REMARK  status: ('A' for Active; 'I' for Inactive)
REMARK    1  A    between atoms: C2'_3  and  C1'_4 
REMARK    2  A    between atoms: C1'_4  and  C1_5 
ROOT
ATOM      1  C1  I4B d   1      -0.378   0.147   0.623  0.00  0.00    -0.075 A 
ATOM      2  C2  I4B d   1      -0.052  -0.984  -0.083  0.00  0.00     0.003 A 
ATOM      3  C3  I4B d   1       0.906  -0.922  -1.124  0.00  0.00     0.002 A 
ATOM      4  C4  I4B d   1       1.473   0.292  -1.455  0.00  0.00    -0.004 A 
ATOM      5  C5  I4B d   1       1.158   1.433  -0.722  0.00  0.00     0.002 A 
ATOM      6  C6  I4B d   1       0.236   1.358   0.332  0.00  0.00     0.003 A 
ENDROOT
BRANCH   1   7
ATOM      7  C1' I4B d   1      -1.419   0.053   1.694  0.00  0.00     0.060 C 
BRANCH   7   8
ATOM      8  C2' I4B d   1      -2.705   0.639   1.148  0.00  0.00    -0.013 C 
ATOM      9  C4' I4B d   1      -3.722  -0.438   0.874  0.00  0.00     0.013 C 
ATOM     10  C3' I4B d   1      -3.223   1.630   2.147  0.00  0.00     0.013 C 
ENDBRANCH   7   8
ENDBRANCH   1   7
TORSDOF 2
ENDMDL
