MODEL 1
REMARK minimizedAffinity 1.92563844
REMARK minimizedRMSD -1
REMARK  2 active torsions:
REMARK  status: ('A' for Active; 'I' for Inactive)
REMARK    1  A    between atoms: C2'_3  and  C1'_4 
REMARK    2  A    between atoms: C1'_4  and  C1_5 
ROOT
ATOM      1  C1  I4B d   1       0.605  -1.455  -0.394  0.00  0.00    -0.075 A 
ATOM      2  C2  I4B d   1       1.329  -2.409  -1.065  0.00  0.00     0.003 A 
ATOM      3  C3  I4B d   1       2.296  -2.026  -2.026  0.00  0.00     0.002 A 
ATOM      4  C4  I4B d   1       2.470  -0.689  -2.318  0.00  0.00    -0.004 A 
ATOM      5  C5  I4B d   1       1.752   0.278  -1.621  0.00  0.00     0.002 A 
ATOM      6  C6  I4B d   1       0.823  -0.106  -0.644  0.00  0.00     0.003 A 
ENDROOT
BRANCH   1   7
ATOM      7  C1' I4B d   1      -0.431  -1.896   0.590  0.00  0.00     0.060 C 
BRANCH   7   8
ATOM      8  C2' I4B d   1      -1.535  -0.858   0.602  0.00  0.00    -0.013 C 
ATOM      9  C4' I4B d   1      -2.890  -1.504   0.715  0.00  0.00     0.013 C 
ATOM     10  C3' I4B d   1      -1.282   0.073   1.750  0.00  0.00     0.013 C 
ENDBRANCH   7   8
ENDBRANCH   1   7
TORSDOF 2
ENDMDL
