MODEL 1
REMARK minimizedAffinity -3.97826815
REMARK minimizedRMSD -1
REMARK  2 active torsions:
REMARK  status: ('A' for Active; 'I' for Inactive)
REMARK    1  A    between atoms: C2'_3  and  C1'_4 
REMARK    2  A    between atoms: C1'_4  and  C1_5 
ROOT
ATOM      1  C1  I4B d   1       0.499  -0.180  -0.700  0.00  0.00    -0.075 A 
ATOM      2  C2  I4B d   1       1.402   0.553  -1.430  0.00  0.00     0.003 A 
ATOM      3  C3  I4B d   1       2.434  -0.097  -2.148  0.00  0.00     0.002 A 
ATOM      4  C4  I4B d   1       2.556  -1.470  -2.069  0.00  0.00    -0.004 A 
ATOM      5  C5  I4B d   1       1.626  -2.213  -1.347  0.00  0.00     0.002 A 
ATOM      6  C6  I4B d   1       0.584  -1.565  -0.668  0.00  0.00     0.003 A 
ENDROOT
BRANCH   1   7
ATOM      7  C1' I4B d   1      -0.558   0.542   0.074  0.00  0.00     0.060 C 
BRANCH   7   8
ATOM      8  C2' I4B d   1      -1.226  -0.457   0.995  0.00  0.00    -0.013 C 
ATOM      9  C4' I4B d   1      -0.499  -0.558   2.310  0.00  0.00     0.013 C 
ATOM     10  C3' I4B d   1      -2.648  -0.023   1.195  0.00  0.00     0.013 C 
ENDBRANCH   7   8
ENDBRANCH   1   7
TORSDOF 2
ENDMDL
