MODEL 1
REMARK minimizedAffinity -2.0940783
REMARK minimizedRMSD -1
REMARK  2 active torsions:
REMARK  status: ('A' for Active; 'I' for Inactive)
REMARK    1  A    between atoms: C2'_3  and  C1'_4 
REMARK    2  A    between atoms: C1'_4  and  C1_5 
ROOT
ATOM      1  C1  I4B d   1      -1.830   0.438   1.689  0.00  0.00    -0.075 A 
ATOM      2  C2  I4B d   1      -2.771  -0.095   0.844  0.00  0.00     0.003 A 
ATOM      3  C3  I4B d   1      -4.140   0.232   1.004  0.00  0.00     0.002 A 
ATOM      4  C4  I4B d   1      -4.526   1.051   2.045  0.00  0.00    -0.004 A 
ATOM      5  C5  I4B d   1      -3.568   1.609   2.886  0.00  0.00     0.002 A 
ATOM      6  C6  I4B d   1      -2.210   1.311   2.700  0.00  0.00     0.003 A 
ENDROOT
BRANCH   1   7
ATOM      7  C1' I4B d   1      -0.398   0.046   1.512  0.00  0.00     0.060 C 
BRANCH   7   8
ATOM      8  C2' I4B d   1      -0.094   0.042   0.028  0.00  0.00    -0.013 C 
ATOM      9  C4' I4B d   1       0.879   1.134  -0.332  0.00  0.00     0.013 C 
ATOM     10  C3' I4B d   1       0.450  -1.308  -0.331  0.00  0.00     0.013 C 
ENDBRANCH   7   8
ENDBRANCH   1   7
TORSDOF 2
ENDMDL
