MODEL 1
REMARK minimizedAffinity -0.969721735
REMARK minimizedRMSD -1
REMARK  2 active torsions:
REMARK  status: ('A' for Active; 'I' for Inactive)
REMARK    1  A    between atoms: C2'_3  and  C1'_4 
REMARK    2  A    between atoms: C1'_4  and  C1_5 
ROOT
ATOM      1  C1  I4B d   1       1.861  -0.834  -1.101  0.00  0.00    -0.075 A 
ATOM      2  C2  I4B d   1       1.963  -0.788  -2.469  0.00  0.00     0.003 A 
ATOM      3  C3  I4B d   1       2.000   0.459  -3.140  0.00  0.00     0.002 A 
ATOM      4  C4  I4B d   1       1.881   1.625  -2.413  0.00  0.00    -0.004 A 
ATOM      5  C5  I4B d   1       1.800   1.578  -1.024  0.00  0.00     0.002 A 
ATOM      6  C6  I4B d   1       1.802   0.341  -0.362  0.00  0.00     0.003 A 
ENDROOT
BRANCH   1   7
ATOM      7  C1' I4B d   1       1.791  -2.168  -0.427  0.00  0.00     0.060 C 
BRANCH   7   8
ATOM      8  C2' I4B d   1       0.442  -2.277   0.253  0.00  0.00    -0.013 C 
ATOM      9  C4' I4B d   1       0.049  -3.717   0.457  0.00  0.00     0.013 C 
ATOM     10  C3' I4B d   1       0.523  -1.548   1.561  0.00  0.00     0.013 C 
ENDBRANCH   7   8
ENDBRANCH   1   7
TORSDOF 2
ENDMDL
