MODEL 1
REMARK minimizedAffinity -2.55911899
REMARK minimizedRMSD -1
REMARK  0 active torsions:
REMARK  status: ('A' for Active; 'I' for Inactive)
ROOT
ATOM      1  C4' PXY d   1      -2.430  -0.043   0.022  0.00  0.00     0.077 C 
ATOM      2  C1' PXY d   1       2.818  -0.165   2.441  0.00  0.00     0.077 C 
ATOM      3  C1  PXY d   1       1.436  -0.135   1.819  0.00  0.00    -0.082 A 
ATOM      4  C2  PXY d   1       1.291  -0.421   0.535  0.00  0.00     0.003 A 
ATOM      5  C3  PXY d   1       0.053  -0.367  -0.052  0.00  0.00     0.003 A 
ATOM      6  C4  PXY d   1      -1.055  -0.070   0.695  0.00  0.00    -0.082 A 
ATOM      7  C5  PXY d   1      -0.917   0.212   2.008  0.00  0.00     0.003 A 
ATOM      8  C6  PXY d   1       0.354   0.192   2.575  0.00  0.00     0.003 A 
ENDROOT
TORSDOF 0
ENDMDL
