MODEL 1
REMARK minimizedAffinity -4.86049843
REMARK minimizedRMSD -1
REMARK  0 active torsions:
REMARK  status: ('A' for Active; 'I' for Inactive)
ROOT
ATOM      1  C4' PXY d   1       1.461  -0.031   3.614  0.00  0.00     0.077 C 
ATOM      2  C1' PXY d   1      -2.888   0.875  -0.084  0.00  0.00     0.077 C 
ATOM      3  C1  PXY d   1      -1.748   0.650   0.889  0.00  0.00    -0.082 A 
ATOM      4  C2  PXY d   1      -0.892  -0.336   0.677  0.00  0.00     0.003 A 
ATOM      5  C3  PXY d   1       0.126  -0.573   1.564  0.00  0.00     0.003 A 
ATOM      6  C4  PXY d   1       0.300   0.239   2.652  0.00  0.00    -0.082 A 
ATOM      7  C5  PXY d   1      -0.563   1.254   2.870  0.00  0.00     0.003 A 
ATOM      8  C6  PXY d   1      -1.614   1.453   1.980  0.00  0.00     0.003 A 
ENDROOT
TORSDOF 0
ENDMDL
