MODEL 1
REMARK minimizedAffinity -3.65105605
REMARK minimizedRMSD -1
REMARK  0 active torsions:
REMARK  status: ('A' for Active; 'I' for Inactive)
ROOT
ATOM      1  C4' PXY d   1       0.327  -0.531  -2.647  0.00  0.00     0.077 C 
ATOM      2  C1' PXY d   1      -1.087   0.540   2.855  0.00  0.00     0.077 C 
ATOM      3  C1  PXY d   1      -0.703   0.261   1.415  0.00  0.00    -0.082 A 
ATOM      4  C2  PXY d   1      -1.609   0.396   0.459  0.00  0.00     0.003 A 
ATOM      5  C3  PXY d   1      -1.288   0.117  -0.844  0.00  0.00     0.003 A 
ATOM      6  C4  PXY d   1      -0.013  -0.252  -1.180  0.00  0.00    -0.082 A 
ATOM      7  C5  PXY d   1       0.919  -0.381  -0.212  0.00  0.00     0.003 A 
ATOM      8  C6  PXY d   1       0.563  -0.133   1.110  0.00  0.00     0.003 A 
ENDROOT
TORSDOF 0
ENDMDL
