MODEL 1
REMARK minimizedAffinity -0.025258027
REMARK minimizedRMSD -1
REMARK  0 active torsions:
REMARK  status: ('A' for Active; 'I' for Inactive)
ROOT
ATOM      1  C4' PXY d   1       2.852  -0.670   2.771  0.00  0.00     0.077 C 
ATOM      2  C1' PXY d   1      -2.461   0.615   0.891  0.00  0.00     0.077 C 
ATOM      3  C1  PXY d   1      -1.070   0.283   1.396  0.00  0.00    -0.082 A 
ATOM      4  C2  PXY d   1      -0.083   0.114   0.531  0.00  0.00     0.003 A 
ATOM      5  C3  PXY d   1       1.173  -0.218   0.968  0.00  0.00     0.003 A 
ATOM      6  C4  PXY d   1       1.434  -0.325   2.308  0.00  0.00    -0.082 A 
ATOM      7  C5  PXY d   1       0.436  -0.143   3.197  0.00  0.00     0.003 A 
ATOM      8  C6  PXY d   1      -0.842   0.152   2.731  0.00  0.00     0.003 A 
ENDROOT
TORSDOF 0
ENDMDL
