MODEL 1
REMARK minimizedAffinity -1.98654103
REMARK minimizedRMSD -1
REMARK  0 active torsions:
REMARK  status: ('A' for Active; 'I' for Inactive)
ROOT
ATOM      1  C4' PXY d   1      -0.936   0.689   2.556  0.00  0.00     0.077 C 
ATOM      2  C1' PXY d   1       0.168  -1.202  -2.794  0.00  0.00     0.077 C 
ATOM      3  C1  PXY d   1      -0.132  -0.700  -1.395  0.00  0.00    -0.082 A 
ATOM      4  C2  PXY d   1       0.842  -0.630  -0.503  0.00  0.00     0.003 A 
ATOM      5  C3  PXY d   1       0.582  -0.208   0.776  0.00  0.00     0.003 A 
ATOM      6  C4  PXY d   1      -0.678   0.196   1.129  0.00  0.00    -0.082 A 
ATOM      7  C5  PXY d   1      -1.675   0.138   0.221  0.00  0.00     0.003 A 
ATOM      8  C6  PXY d   1      -1.398  -0.332  -1.060  0.00  0.00     0.003 A 
ENDROOT
TORSDOF 0
ENDMDL
