MODEL 1
REMARK minimizedAffinity -4.81029797
REMARK minimizedRMSD -1
REMARK  0 active torsions:
REMARK  status: ('A' for Active; 'I' for Inactive)
ROOT
ATOM      1  C4' PXY d   1      -0.248  -0.650  -1.397  0.00  0.00     0.077 C 
ATOM      2  C1' PXY d   1      -0.305   1.312   4.041  0.00  0.00     0.077 C 
ATOM      3  C1  PXY d   1      -0.303   0.794   2.616  0.00  0.00    -0.082 A 
ATOM      4  C2  PXY d   1       0.834   0.401   2.064  0.00  0.00     0.003 A 
ATOM      5  C3  PXY d   1       0.860  -0.039   0.766  0.00  0.00     0.003 A 
ATOM      6  C4  PXY d   1      -0.299  -0.129   0.042  0.00  0.00    -0.082 A 
ATOM      7  C5  PXY d   1      -1.465   0.260   0.601  0.00  0.00     0.003 A 
ATOM      8  C6  PXY d   1      -1.463   0.743   1.907  0.00  0.00     0.003 A 
ENDROOT
TORSDOF 0
ENDMDL
