MODEL 1
REMARK minimizedAffinity -4.45369673
REMARK minimizedRMSD -1
REMARK  0 active torsions:
REMARK  status: ('A' for Active; 'I' for Inactive)
ROOT
ATOM      1  C4' PXY d   1       2.469  -0.777   2.638  0.00  0.00     0.077 C 
ATOM      2  C1' PXY d   1      -2.346   0.876  -0.100  0.00  0.00     0.077 C 
ATOM      3  C1  PXY d   1      -1.086   0.451   0.628  0.00  0.00    -0.082 A 
ATOM      4  C2  PXY d   1      -0.105  -0.127  -0.046  0.00  0.00     0.003 A 
ATOM      5  C3  PXY d   1       1.029  -0.546   0.602  0.00  0.00     0.003 A 
ATOM      6  C4  PXY d   1       1.182  -0.323   1.944  0.00  0.00    -0.082 A 
ATOM      7  C5  PXY d   1       0.191   0.276   2.636  0.00  0.00     0.003 A 
ATOM      8  C6  PXY d   1      -0.969   0.657   1.968  0.00  0.00     0.003 A 
ENDROOT
TORSDOF 0
ENDMDL
