MODEL 1
REMARK minimizedAffinity -4.48663378
REMARK minimizedRMSD -1
REMARK  0 active torsions:
REMARK  status: ('A' for Active; 'I' for Inactive)
ROOT
ATOM      1  C4' PXY d   1       0.368  -1.114  -2.035  0.00  0.00     0.077 C 
ATOM      2  C1' PXY d   1       0.751  -0.915   3.730  0.00  0.00     0.077 C 
ATOM      3  C1  PXY d   1       0.637  -0.967   2.219  0.00  0.00    -0.082 A 
ATOM      4  C2  PXY d   1       1.640  -1.451   1.504  0.00  0.00     0.003 A 
ATOM      5  C3  PXY d   1       1.567  -1.476   0.135  0.00  0.00     0.003 A 
ATOM      6  C4  PXY d   1       0.435  -1.051  -0.506  0.00  0.00    -0.082 A 
ATOM      7  C5  PXY d   1      -0.597  -0.565   0.216  0.00  0.00     0.003 A 
ATOM      8  C6  PXY d   1      -0.487  -0.510   1.603  0.00  0.00     0.003 A 
ENDROOT
TORSDOF 0
ENDMDL
