MODEL 1
REMARK minimizedAffinity 9.15726376
REMARK minimizedRMSD -1
REMARK  0 active torsions:
REMARK  status: ('A' for Active; 'I' for Inactive)
ROOT
ATOM      1  C   UNL d   1       4.200   5.990   4.672  0.00  0.00    -0.002 A 
ATOM      2  C1  UNL d   1       5.383   5.297   4.886  0.00  0.00     0.010 A 
ATOM      3  C2  UNL d   1       5.988   4.586   3.848  0.00  0.00     0.041 A 
ATOM      4  C3  UNL d   1       5.378   4.584   2.577  0.00  0.00    -0.075 A 
ATOM      5  S   UNL d   1       5.938   3.784   1.157  0.00  0.00     0.015 SA
ATOM      6  C4  UNL d   1       4.621   4.344   0.232  0.00  0.00     0.022 A 
ATOM      7  C5  UNL d   1       3.765   5.124   0.973  0.00  0.00     0.026 A 
ATOM      8  C6  UNL d   1       4.187   5.275   2.337  0.00  0.00    -0.082 A 
ATOM      9  C7  UNL d   1       3.599   5.986   3.410  0.00  0.00     0.045 A 
ENDROOT
TORSDOF 0
ENDMDL
