MODEL 1
REMARK minimizedAffinity 13.1632023
REMARK minimizedRMSD -1
REMARK  0 active torsions:
REMARK  status: ('A' for Active; 'I' for Inactive)
ROOT
ATOM      1  C   UNL d   1      -2.486  -1.369  -0.812  0.00  0.00    -0.002 A 
ATOM      2  C1  UNL d   1      -3.598  -2.040  -0.322  0.00  0.00     0.010 A 
ATOM      3  C2  UNL d   1      -4.100  -1.751   0.948  0.00  0.00     0.041 A 
ATOM      4  C3  UNL d   1      -3.460  -0.766   1.726  0.00  0.00    -0.075 A 
ATOM      5  S   UNL d   1      -3.898  -0.244   3.309  0.00  0.00     0.015 SA
ATOM      6  C4  UNL d   1      -2.620   0.881   3.374  0.00  0.00     0.022 A 
ATOM      7  C5  UNL d   1      -1.867   0.873   2.223  0.00  0.00     0.026 A 
ATOM      8  C6  UNL d   1      -2.339  -0.076   1.254  0.00  0.00    -0.082 A 
ATOM      9  C7  UNL d   1      -1.854  -0.393  -0.038  0.00  0.00     0.045 A 
ENDROOT
TORSDOF 0
ENDMDL
