MODEL 1
REMARK minimizedAffinity 4.52941942
REMARK minimizedRMSD -1
REMARK  0 active torsions:
REMARK  status: ('A' for Active; 'I' for Inactive)
ROOT
ATOM      1  C   UNL d   1       3.830  -6.000   5.224  0.00  0.00    -0.002 A 
ATOM      2  C1  UNL d   1       4.967  -5.825   6.000  0.00  0.00     0.010 A 
ATOM      3  C2  UNL d   1       5.699  -4.638   5.931  0.00  0.00     0.041 A 
ATOM      4  C3  UNL d   1       5.263  -3.618   5.062  0.00  0.00    -0.075 A 
ATOM      5  S   UNL d   1       6.000  -2.079   4.813  0.00  0.00     0.015 SA
ATOM      6  C4  UNL d   1       4.822  -1.617   3.671  0.00  0.00     0.022 A 
ATOM      7  C5  UNL d   1       3.883  -2.601   3.472  0.00  0.00     0.026 A 
ATOM      8  C6  UNL d   1       4.121  -3.770   4.271  0.00  0.00    -0.082 A 
ATOM      9  C7  UNL d   1       3.401  -4.986   4.363  0.00  0.00     0.045 A 
ENDROOT
TORSDOF 0
ENDMDL
