MODEL 1
REMARK minimizedAffinity 14.5387754
REMARK minimizedRMSD -1
REMARK  0 active torsions:
REMARK  status: ('A' for Active; 'I' for Inactive)
ROOT
ATOM      1  C   UNL d   1       5.267   5.143   4.828  0.00  0.00    -0.002 A 
ATOM      2  C1  UNL d   1       3.926   5.497   4.859  0.00  0.00     0.010 A 
ATOM      3  C2  UNL d   1       3.225   5.730   3.675  0.00  0.00     0.041 A 
ATOM      4  C3  UNL d   1       3.901   5.598   2.446  0.00  0.00    -0.075 A 
ATOM      5  S   UNL d   1       3.246   5.833   0.868  0.00  0.00     0.015 SA
ATOM      6  C4  UNL d   1       4.731   5.467   0.116  0.00  0.00     0.022 A 
ATOM      7  C5  UNL d   1       5.714   5.171   1.031  0.00  0.00     0.026 A 
ATOM      8  C6  UNL d   1       5.251   5.241   2.388  0.00  0.00    -0.082 A 
ATOM      9  C7  UNL d   1       5.935   5.012   3.607  0.00  0.00     0.045 A 
ENDROOT
TORSDOF 0
ENDMDL
