MODEL 1
REMARK minimizedAffinity 11.73277
REMARK minimizedRMSD -1
REMARK  0 active torsions:
REMARK  status: ('A' for Active; 'I' for Inactive)
ROOT
ATOM      1  C   UNL d   1       5.279   5.313   4.518  0.00  0.00    -0.002 A 
ATOM      2  C1  UNL d   1       5.939   4.112   4.295  0.00  0.00     0.010 A 
ATOM      3  C2  UNL d   1       5.997   3.561   3.014  0.00  0.00     0.041 A 
ATOM      4  C3  UNL d   1       5.376   4.244   1.949  0.00  0.00    -0.075 A 
ATOM      5  S   UNL d   1       5.319   3.760   0.296  0.00  0.00     0.015 SA
ATOM      6  C4  UNL d   1       4.418   5.135  -0.154  0.00  0.00     0.022 A 
ATOM      7  C5  UNL d   1       4.158   5.954   0.919  0.00  0.00     0.026 A 
ATOM      8  C6  UNL d   1       4.706   5.455   2.149  0.00  0.00    -0.082 A 
ATOM      9  C7  UNL d   1       4.665   5.987   3.460  0.00  0.00     0.045 A 
ENDROOT
TORSDOF 0
ENDMDL
