MODEL 1
REMARK minimizedAffinity 22.9330673
REMARK minimizedRMSD -1
REMARK  0 active torsions:
REMARK  status: ('A' for Active; 'I' for Inactive)
ROOT
ATOM      1  C   UNL d   1      -5.390  -1.553  -0.823  0.00  0.00    -0.002 A 
ATOM      2  C1  UNL d   1      -4.010  -1.683  -0.896  0.00  0.00     0.010 A 
ATOM      3  C2  UNL d   1      -3.213  -1.419   0.220  0.00  0.00     0.041 A 
ATOM      4  C3  UNL d   1      -3.831  -1.020   1.421  0.00  0.00    -0.075 A 
ATOM      5  S   UNL d   1      -3.056  -0.645   2.915  0.00  0.00     0.015 SA
ATOM      6  C4  UNL d   1      -4.539  -0.304   3.684  0.00  0.00     0.022 A 
ATOM      7  C5  UNL d   1      -5.609  -0.467   2.836  0.00  0.00     0.026 A 
ATOM      8  C6  UNL d   1      -5.219  -0.883   1.518  0.00  0.00    -0.082 A 
ATOM      9  C7  UNL d   1      -6.000  -1.157   0.370  0.00  0.00     0.045 A 
ENDROOT
TORSDOF 0
ENDMDL
