MODEL 1
REMARK minimizedAffinity 21.1012764
REMARK minimizedRMSD -1
REMARK  0 active torsions:
REMARK  status: ('A' for Active; 'I' for Inactive)
ROOT
ATOM      1  C   UNL d   1      -5.761   5.784   4.148  0.00  0.00    -0.002 A 
ATOM      2  C1  UNL d   1      -5.261   5.415   2.907  0.00  0.00     0.010 A 
ATOM      3  C2  UNL d   1      -3.887   5.253   2.715  0.00  0.00     0.041 A 
ATOM      4  C3  UNL d   1      -3.017   5.468   3.802  0.00  0.00    -0.075 A 
ATOM      5  S   UNL d   1      -1.298   5.327   3.801  0.00  0.00     0.015 SA
ATOM      6  C4  UNL d   1      -1.188   5.752   5.447  0.00  0.00     0.022 A 
ATOM      7  C5  UNL d   1      -2.422   5.999   6.000  0.00  0.00     0.026 A 
ATOM      8  C6  UNL d   1      -3.497   5.839   5.061  0.00  0.00    -0.082 A 
ATOM      9  C7  UNL d   1      -4.894   5.996   5.224  0.00  0.00     0.045 A 
ENDROOT
TORSDOF 0
ENDMDL
