MODEL 1
REMARK minimizedAffinity 5.27554941
REMARK minimizedRMSD -1
REMARK  0 active torsions:
REMARK  status: ('A' for Active; 'I' for Inactive)
ROOT
ATOM      1  C   UNL d   1      -2.340   1.173   3.491  0.00  0.00    -0.002 A 
ATOM      2  C1  UNL d   1      -2.815   2.460   3.286  0.00  0.00     0.010 A 
ATOM      3  C2  UNL d   1      -2.947   2.971   1.993  0.00  0.00     0.041 A 
ATOM      4  C3  UNL d   1      -2.590   2.158   0.900  0.00  0.00    -0.075 A 
ATOM      5  S   UNL d   1      -2.668   2.572  -0.772  0.00  0.00     0.015 SA
ATOM      6  C4  UNL d   1      -2.073   1.049  -1.253  0.00  0.00     0.022 A 
ATOM      7  C5  UNL d   1      -1.816   0.233  -0.178  0.00  0.00     0.026 A 
ATOM      8  C6  UNL d   1      -2.110   0.858   1.081  0.00  0.00    -0.082 A 
ATOM      9  C7  UNL d   1      -1.987   0.369   2.404  0.00  0.00     0.045 A 
ENDROOT
TORSDOF 0
ENDMDL
