MODEL 1
REMARK minimizedAffinity 22.5266571
REMARK minimizedRMSD -1
REMARK  0 active torsions:
REMARK  status: ('A' for Active; 'I' for Inactive)
ROOT
ATOM      1  C   UNL d   1       1.342   2.144  -2.630  0.00  0.00    -0.002 A 
ATOM      2  C1  UNL d   1       0.472   1.157  -3.071  0.00  0.00     0.010 A 
ATOM      3  C2  UNL d   1       0.778  -0.193  -2.886  0.00  0.00     0.041 A 
ATOM      4  C3  UNL d   1       1.984  -0.537  -2.244  0.00  0.00    -0.075 A 
ATOM      5  S   UNL d   1       2.567  -2.125  -1.909  0.00  0.00     0.015 SA
ATOM      6  C4  UNL d   1       3.984  -1.529  -1.173  0.00  0.00     0.022 A 
ATOM      7  C5  UNL d   1       4.028  -0.155  -1.174  0.00  0.00     0.026 A 
ATOM      8  C6  UNL d   1       2.876   0.439  -1.791  0.00  0.00    -0.082 A 
ATOM      9  C7  UNL d   1       2.538   1.799  -1.994  0.00  0.00     0.045 A 
ENDROOT
TORSDOF 0
ENDMDL
