MODEL 1
REMARK minimizedAffinity 9.83565235
REMARK minimizedRMSD -1
REMARK  0 active torsions:
REMARK  status: ('A' for Active; 'I' for Inactive)
ROOT
ATOM      1  C   UNL d   1      -1.779  -0.732  -0.714  0.00  0.00    -0.002 A 
ATOM      2  C1  UNL d   1      -3.007  -1.289  -0.386  0.00  0.00     0.010 A 
ATOM      3  C2  UNL d   1      -3.568  -1.081   0.875  0.00  0.00     0.041 A 
ATOM      4  C3  UNL d   1      -2.869  -0.293   1.810  0.00  0.00    -0.075 A 
ATOM      5  S   UNL d   1      -3.362   0.098   3.415  0.00  0.00     0.015 SA
ATOM      6  C4  UNL d   1      -1.955   1.016   3.704  0.00  0.00     0.022 A 
ATOM      7  C5  UNL d   1      -1.119   1.034   2.613  0.00  0.00     0.026 A 
ATOM      8  C6  UNL d   1      -1.631   0.280   1.504  0.00  0.00    -0.082 A 
ATOM      9  C7  UNL d   1      -1.088   0.049   0.217  0.00  0.00     0.045 A 
ENDROOT
TORSDOF 0
ENDMDL
