MODEL 1
REMARK minimizedAffinity 18.5497532
REMARK minimizedRMSD -1
REMARK  0 active torsions:
REMARK  status: ('A' for Active; 'I' for Inactive)
ROOT
ATOM      1  C   UNL d   1      -2.977   1.461   3.476  0.00  0.00    -0.002 A 
ATOM      2  C1  UNL d   1      -3.696   2.240   2.582  0.00  0.00     0.010 A 
ATOM      3  C2  UNL d   1      -3.775   1.884   1.234  0.00  0.00     0.041 A 
ATOM      4  C3  UNL d   1      -3.115   0.719   0.797  0.00  0.00    -0.075 A 
ATOM      5  S   UNL d   1      -3.075   0.087  -0.807  0.00  0.00     0.015 SA
ATOM      6  C4  UNL d   1      -2.103  -1.234  -0.342  0.00  0.00     0.022 A 
ATOM      7  C5  UNL d   1      -1.807  -1.208   1.001  0.00  0.00     0.026 A 
ATOM      8  C6  UNL d   1      -2.386  -0.083   1.679  0.00  0.00    -0.082 A 
ATOM      9  C7  UNL d   1      -2.324   0.305   3.039  0.00  0.00     0.045 A 
ENDROOT
TORSDOF 0
ENDMDL
