MODEL 1
REMARK minimizedAffinity 15.6424465
REMARK minimizedRMSD -1
REMARK  0 active torsions:
REMARK  status: ('A' for Active; 'I' for Inactive)
ROOT
ATOM      1  C   UNL d   1      -0.062   2.384  -2.516  0.00  0.00    -0.002 A 
ATOM      2  C1  UNL d   1      -0.611   1.472  -1.626  0.00  0.00     0.010 A 
ATOM      3  C2  UNL d   1       0.041   0.269  -1.351  0.00  0.00     0.041 A 
ATOM      4  C3  UNL d   1       1.266  -0.005  -1.990  0.00  0.00    -0.075 A 
ATOM      5  S   UNL d   1       2.242  -1.414  -1.806  0.00  0.00     0.015 SA
ATOM      6  C4  UNL d   1       3.411  -0.838  -2.904  0.00  0.00     0.022 A 
ATOM      7  C5  UNL d   1       3.080   0.397  -3.409  0.00  0.00     0.026 A 
ATOM      8  C6  UNL d   1       1.839   0.898  -2.890  0.00  0.00    -0.082 A 
ATOM      9  C7  UNL d   1       1.153   2.109  -3.149  0.00  0.00     0.045 A 
ENDROOT
TORSDOF 0
ENDMDL
