MODEL 1
REMARK minimizedAffinity 10.4276276
REMARK minimizedRMSD -1
REMARK  0 active torsions:
REMARK  status: ('A' for Active; 'I' for Inactive)
ROOT
ATOM      1  C   UNL d   1       4.864   5.964   2.520  0.00  0.00    -0.002 A 
ATOM      2  C1  UNL d   1       5.997   5.299   2.073  0.00  0.00     0.010 A 
ATOM      3  C2  UNL d   1       6.000   4.655   0.834  0.00  0.00     0.041 A 
ATOM      4  C3  UNL d   1       4.835   4.693   0.043  0.00  0.00    -0.075 A 
ATOM      5  S   UNL d   1       4.608   3.977  -1.509  0.00  0.00     0.015 SA
ATOM      6  C4  UNL d   1       3.002   4.538  -1.616  0.00  0.00     0.022 A 
ATOM      7  C5  UNL d   1       2.632   5.256  -0.503  0.00  0.00     0.026 A 
ATOM      8  C6  UNL d   1       3.682   5.358   0.471  0.00  0.00    -0.082 A 
ATOM      9  C7  UNL d   1       3.710   6.000   1.732  0.00  0.00     0.045 A 
ENDROOT
TORSDOF 0
ENDMDL
