MODEL 1
REMARK minimizedAffinity -1.55819941
REMARK minimizedRMSD -1
REMARK  0 active torsions:
REMARK  status: ('A' for Active; 'I' for Inactive)
ROOT
ATOM      1  C2' OXE d   1       5.954   0.086   3.182  0.00  0.00     0.078 C 
ATOM      2  C1' OXE d   1       6.000   0.050   5.989  0.00  0.00     0.078 C 
ATOM      3  C1  OXE d   1       5.212  -1.026   5.284  0.00  0.00    -0.078 A 
ATOM      4  C2  OXE d   1       5.156  -0.973   3.912  0.00  0.00    -0.078 A 
ATOM      5  C3  OXE d   1       4.489  -1.973   3.210  0.00  0.00     0.003 A 
ATOM      6  C4  OXE d   1       3.745  -2.943   3.893  0.00  0.00    -0.002 A 
ATOM      7  C5  OXE d   1       3.755  -2.991   5.291  0.00  0.00    -0.002 A 
ATOM      8  C6  OXE d   1       4.516  -2.068   5.999  0.00  0.00     0.003 A 
ENDROOT
TORSDOF 0
ENDMDL
