MODEL 1
REMARK minimizedAffinity -2.24539089
REMARK minimizedRMSD -1
REMARK  0 active torsions:
REMARK  status: ('A' for Active; 'I' for Inactive)
ROOT
ATOM      1  C2' OXE d   1      -0.672  -0.854   0.491  0.00  0.00     0.078 C 
ATOM      2  C1' OXE d   1      -2.179   1.354  -0.367  0.00  0.00     0.078 C 
ATOM      3  C1  OXE d   1      -2.088   1.098   1.117  0.00  0.00    -0.078 A 
ATOM      4  C2  OXE d   1      -1.387  -0.012   1.525  0.00  0.00    -0.078 A 
ATOM      5  C3  OXE d   1      -1.226  -0.263   2.884  0.00  0.00     0.003 A 
ATOM      6  C4  OXE d   1      -1.899   0.515   3.834  0.00  0.00    -0.002 A 
ATOM      7  C5  OXE d   1      -2.650   1.626   3.438  0.00  0.00    -0.002 A 
ATOM      8  C6  OXE d   1      -2.720   1.955   2.088  0.00  0.00     0.003 A 
ENDROOT
TORSDOF 0
ENDMDL
