MODEL 1
REMARK minimizedAffinity 1.85781384
REMARK minimizedRMSD -1
REMARK  0 active torsions:
REMARK  status: ('A' for Active; 'I' for Inactive)
ROOT
ATOM      1  C2' OXE d   1       1.029   1.322  -3.737  0.00  0.00     0.078 C 
ATOM      2  C1' OXE d   1       1.150  -1.452  -4.152  0.00  0.00     0.078 C 
ATOM      3  C1  OXE d   1       0.759  -0.962  -2.781  0.00  0.00    -0.078 A 
ATOM      4  C2  OXE d   1       0.747   0.396  -2.573  0.00  0.00    -0.078 A 
ATOM      5  C3  OXE d   1       0.340   0.902  -1.342  0.00  0.00     0.003 A 
ATOM      6  C4  OXE d   1       0.091   0.039  -0.268  0.00  0.00    -0.002 A 
ATOM      7  C5  OXE d   1       0.136  -1.348  -0.447  0.00  0.00    -0.002 A 
ATOM      8  C6  OXE d   1       0.426  -1.864  -1.705  0.00  0.00     0.003 A 
ENDROOT
TORSDOF 0
ENDMDL
