MODEL 1
REMARK minimizedAffinity 4.62077045
REMARK minimizedRMSD -1
REMARK  0 active torsions:
REMARK  status: ('A' for Active; 'I' for Inactive)
ROOT
ATOM      1  C2' OXE d   1       1.218  -0.927  -4.892  0.00  0.00     0.078 C 
ATOM      2  C1' OXE d   1       0.895   1.842  -4.568  0.00  0.00     0.078 C 
ATOM      3  C1  OXE d   1       0.724   0.967  -3.351  0.00  0.00    -0.078 A 
ATOM      4  C2  OXE d   1       0.838  -0.391  -3.528  0.00  0.00    -0.078 A 
ATOM      5  C3  OXE d   1       0.744  -1.240  -2.429  0.00  0.00     0.003 A 
ATOM      6  C4  OXE d   1       0.382  -0.736  -1.174  0.00  0.00    -0.002 A 
ATOM      7  C5  OXE d   1       0.223   0.640  -0.980  0.00  0.00    -0.002 A 
ATOM      8  C6  OXE d   1       0.431   1.507  -2.047  0.00  0.00     0.003 A 
ENDROOT
TORSDOF 0
ENDMDL
