MODEL 1
REMARK minimizedAffinity -3.39019561
REMARK minimizedRMSD -1
REMARK  0 active torsions:
REMARK  status: ('A' for Active; 'I' for Inactive)
ROOT
ATOM      1  C2' OXE d   1      -3.925   5.915   3.198  0.00  0.00     0.078 C 
ATOM      2  C1' OXE d   1      -3.762   5.925   6.000  0.00  0.00     0.078 C 
ATOM      3  C1  OXE d   1      -3.616   4.602   5.291  0.00  0.00    -0.078 A 
ATOM      4  C2  OXE d   1      -3.744   4.600   3.923  0.00  0.00    -0.078 A 
ATOM      5  C3  OXE d   1      -3.563   3.415   3.216  0.00  0.00     0.003 A 
ATOM      6  C4  OXE d   1      -3.406   2.200   3.895  0.00  0.00    -0.002 A 
ATOM      7  C5  OXE d   1      -3.313   2.175   5.290  0.00  0.00    -0.002 A 
ATOM      8  C6  OXE d   1      -3.373   3.369   6.000  0.00  0.00     0.003 A 
ENDROOT
TORSDOF 0
ENDMDL
