MODEL 1
REMARK minimizedAffinity 12.083334
REMARK minimizedRMSD -1
REMARK  0 active torsions:
REMARK  status: ('A' for Active; 'I' for Inactive)
ROOT
ATOM      1  C2' OXE d   1      -5.973   5.663   2.227  0.00  0.00     0.078 C 
ATOM      2  C1' OXE d   1      -3.170   5.687   2.060  0.00  0.00     0.078 C 
ATOM      3  C1  OXE d   1      -3.794   5.777   3.430  0.00  0.00    -0.078 A 
ATOM      4  C2  OXE d   1      -5.166   5.812   3.499  0.00  0.00    -0.078 A 
ATOM      5  C3  OXE d   1      -5.793   5.840   4.742  0.00  0.00     0.003 A 
ATOM      6  C4  OXE d   1      -5.040   5.988   5.913  0.00  0.00    -0.002 A 
ATOM      7  C5  OXE d   1      -3.642   5.995   5.862  0.00  0.00    -0.002 A 
ATOM      8  C6  OXE d   1      -3.005   5.848   4.635  0.00  0.00     0.003 A 
ENDROOT
TORSDOF 0
ENDMDL
