MODEL 1
REMARK minimizedAffinity 12.4326324
REMARK minimizedRMSD -1
REMARK  0 active torsions:
REMARK  status: ('A' for Active; 'I' for Inactive)
ROOT
ATOM      1  C2' OXE d   1       0.505  -3.536  -2.639  0.00  0.00     0.078 C 
ATOM      2  C1' OXE d   1       1.588  -2.125  -4.811  0.00  0.00     0.078 C 
ATOM      3  C1  OXE d   1       1.189  -1.337  -3.589  0.00  0.00    -0.078 A 
ATOM      4  C2  OXE d   1       0.617  -2.029  -2.549  0.00  0.00    -0.078 A 
ATOM      5  C3  OXE d   1       0.282  -1.359  -1.376  0.00  0.00     0.003 A 
ATOM      6  C4  OXE d   1       0.379   0.036  -1.304  0.00  0.00    -0.002 A 
ATOM      7  C5  OXE d   1       0.922   0.765  -2.367  0.00  0.00    -0.002 A 
ATOM      8  C6  OXE d   1       1.370   0.091  -3.497  0.00  0.00     0.003 A 
ENDROOT
TORSDOF 0
ENDMDL
