MODEL 1
REMARK minimizedAffinity 7.41852379
REMARK minimizedRMSD -1
REMARK  0 active torsions:
REMARK  status: ('A' for Active; 'I' for Inactive)
ROOT
ATOM      1  C2' OXE d   1      -0.285  -1.076   0.020  0.00  0.00     0.078 C 
ATOM      2  C1' OXE d   1       0.071   1.366  -1.318  0.00  0.00     0.078 C 
ATOM      3  C1  OXE d   1       0.388   0.098  -2.071  0.00  0.00    -0.078 A 
ATOM      4  C2  OXE d   1       0.256  -1.090  -1.394  0.00  0.00    -0.078 A 
ATOM      5  C3  OXE d   1       0.482  -2.292  -2.059  0.00  0.00     0.003 A 
ATOM      6  C4  OXE d   1       0.992  -2.295  -3.363  0.00  0.00    -0.002 A 
ATOM      7  C5  OXE d   1       1.172  -1.094  -4.058  0.00  0.00    -0.002 A 
ATOM      8  C6  OXE d   1       0.835   0.106  -3.442  0.00  0.00     0.003 A 
ENDROOT
TORSDOF 0
ENDMDL
