MODEL 1
REMARK minimizedAffinity 8.86755657
REMARK minimizedRMSD -1
REMARK  0 active torsions:
REMARK  status: ('A' for Active; 'I' for Inactive)
ROOT
ATOM      1  C2' OXE d   1      -5.736   5.583   2.295  0.00  0.00     0.078 C 
ATOM      2  C1' OXE d   1      -2.949   5.889   2.153  0.00  0.00     0.078 C 
ATOM      3  C1  OXE d   1      -3.584   5.860   3.520  0.00  0.00    -0.078 A 
ATOM      4  C2  OXE d   1      -4.954   5.758   3.579  0.00  0.00    -0.078 A 
ATOM      5  C3  OXE d   1      -5.586   5.672   4.816  0.00  0.00     0.003 A 
ATOM      6  C4  OXE d   1      -4.856   5.844   5.999  0.00  0.00    -0.002 A 
ATOM      7  C5  OXE d   1      -3.465   5.990   5.960  0.00  0.00    -0.002 A 
ATOM      8  C6  OXE d   1      -2.811   5.957   4.733  0.00  0.00     0.003 A 
ENDROOT
TORSDOF 0
ENDMDL
