MODEL 1
REMARK minimizedAffinity 4.01447868
REMARK minimizedRMSD -1
REMARK  0 active torsions:
REMARK  status: ('A' for Active; 'I' for Inactive)
ROOT
ATOM      1  C2' OXE d   1       3.000   0.372   1.499  0.00  0.00     0.078 C 
ATOM      2  C1' OXE d   1       4.127   2.831   2.250  0.00  0.00     0.078 C 
ATOM      3  C1  OXE d   1       4.614   1.590   2.954  0.00  0.00    -0.078 A 
ATOM      4  C2  OXE d   1       4.024   0.397   2.613  0.00  0.00    -0.078 A 
ATOM      5  C3  OXE d   1       4.475  -0.786   3.193  0.00  0.00     0.003 A 
ATOM      6  C4  OXE d   1       5.415  -0.753   4.230  0.00  0.00    -0.002 A 
ATOM      7  C5  OXE d   1       6.000   0.456   4.620  0.00  0.00    -0.002 A 
ATOM      8  C6  OXE d   1       5.642   1.629   3.964  0.00  0.00     0.003 A 
ENDROOT
TORSDOF 0
ENDMDL
