MODEL 1
REMARK minimizedAffinity 2.01652026
REMARK minimizedRMSD -1
REMARK  0 active torsions:
REMARK  status: ('A' for Active; 'I' for Inactive)
ROOT
ATOM      1  C2' OXE d   1      -4.840   5.954   5.999  0.00  0.00     0.078 C 
ATOM      2  C1' OXE d   1      -2.280   5.820   4.855  0.00  0.00     0.078 C 
ATOM      3  C1  OXE d   1      -2.988   4.521   5.150  0.00  0.00    -0.078 A 
ATOM      4  C2  OXE d   1      -4.221   4.595   5.753  0.00  0.00    -0.078 A 
ATOM      5  C3  OXE d   1      -4.940   3.429   5.997  0.00  0.00     0.003 A 
ATOM      6  C4  OXE d   1      -4.355   2.176   5.776  0.00  0.00    -0.002 A 
ATOM      7  C5  OXE d   1      -3.085   2.078   5.199  0.00  0.00    -0.002 A 
ATOM      8  C6  OXE d   1      -2.407   3.238   4.842  0.00  0.00     0.003 A 
ENDROOT
TORSDOF 0
ENDMDL
