MODEL 1
REMARK minimizedAffinity 5.93309164
REMARK minimizedRMSD -1
REMARK  0 active torsions:
REMARK  status: ('A' for Active; 'I' for Inactive)
ROOT
ATOM      1  C2' OXE d   1       2.686   2.276   0.828  0.00  0.00     0.078 C 
ATOM      2  C1' OXE d   1       3.564   3.437  -1.572  0.00  0.00     0.078 C 
ATOM      3  C1  OXE d   1       2.607   2.274  -1.662  0.00  0.00    -0.078 A 
ATOM      4  C2  OXE d   1       2.219   1.683  -0.484  0.00  0.00    -0.078 A 
ATOM      5  C3  OXE d   1       1.295   0.642  -0.507  0.00  0.00     0.003 A 
ATOM      6  C4  OXE d   1       0.877   0.092  -1.725  0.00  0.00    -0.002 A 
ATOM      7  C5  OXE d   1       1.291   0.654  -2.937  0.00  0.00    -0.002 A 
ATOM      8  C6  OXE d   1       2.121   1.770  -2.922  0.00  0.00     0.003 A 
ENDROOT
TORSDOF 0
ENDMDL
