MODEL 1
REMARK minimizedAffinity 3.74813914
REMARK minimizedRMSD -1
REMARK  0 active torsions:
REMARK  status: ('A' for Active; 'I' for Inactive)
ROOT
ATOM      1  C2' OXE d   1       2.997   4.478  -5.530  0.00  0.00     0.078 C 
ATOM      2  C1' OXE d   1       5.122   4.871  -3.739  0.00  0.00     0.078 C 
ATOM      3  C1  OXE d   1       5.029   3.539  -4.439  0.00  0.00    -0.078 A 
ATOM      4  C2  OXE d   1       3.960   3.338  -5.278  0.00  0.00    -0.078 A 
ATOM      5  C3  OXE d   1       3.857   2.147  -5.991  0.00  0.00     0.003 A 
ATOM      6  C4  OXE d   1       4.746   1.095  -5.745  0.00  0.00    -0.002 A 
ATOM      7  C5  OXE d   1       5.820   1.264  -4.864  0.00  0.00    -0.002 A 
ATOM      8  C6  OXE d   1       6.000   2.491  -4.236  0.00  0.00     0.003 A 
ENDROOT
TORSDOF 0
ENDMDL
