MODEL 1
REMARK minimizedAffinity 7.73837996
REMARK minimizedRMSD -1
REMARK  0 active torsions:
REMARK  status: ('A' for Active; 'I' for Inactive)
ROOT
ATOM      1  C2' OXE d   1      -3.960   1.739   3.935  0.00  0.00     0.078 C 
ATOM      2  C1' OXE d   1      -5.658  -0.201   2.823  0.00  0.00     0.078 C 
ATOM      3  C1  OXE d   1      -4.504  -0.678   3.669  0.00  0.00    -0.078 A 
ATOM      4  C2  OXE d   1      -3.651   0.276   4.171  0.00  0.00    -0.078 A 
ATOM      5  C3  OXE d   1      -2.603  -0.106   5.003  0.00  0.00     0.003 A 
ATOM      6  C4  OXE d   1      -2.318  -1.461   5.208  0.00  0.00    -0.002 A 
ATOM      7  C5  OXE d   1      -3.150  -2.450   4.674  0.00  0.00    -0.002 A 
ATOM      8  C6  OXE d   1      -4.270  -2.075   3.939  0.00  0.00     0.003 A 
ENDROOT
TORSDOF 0
ENDMDL
