MODEL 1
REMARK minimizedAffinity -0.709854603
REMARK minimizedRMSD -1
REMARK  0 active torsions:
REMARK  status: ('A' for Active; 'I' for Inactive)
ROOT
ATOM      1  C2' OXE d   1       1.828   3.124  -0.938  0.00  0.00     0.078 C 
ATOM      2  C1' OXE d   1       3.125   1.437   0.893  0.00  0.00     0.078 C 
ATOM      3  C1  OXE d   1       2.010   0.851   0.064  0.00  0.00    -0.078 A 
ATOM      4  C2  OXE d   1       1.349   1.695  -0.796  0.00  0.00    -0.078 A 
ATOM      5  C3  OXE d   1       0.349   1.193  -1.623  0.00  0.00     0.003 A 
ATOM      6  C4  OXE d   1      -0.094  -0.127  -1.478  0.00  0.00    -0.002 A 
ATOM      7  C5  OXE d   1       0.538  -0.994  -0.580  0.00  0.00    -0.002 A 
ATOM      8  C6  OXE d   1       1.617  -0.533   0.166  0.00  0.00     0.003 A 
ENDROOT
TORSDOF 0
ENDMDL
