MODEL 1
REMARK minimizedAffinity 11.5084543
REMARK minimizedRMSD -1
REMARK  0 active torsions:
REMARK  status: ('A' for Active; 'I' for Inactive)
ROOT
ATOM      1  C2' OXE d   1       1.800   3.297  -5.984  0.00  0.00     0.078 C 
ATOM      2  C1' OXE d   1       2.919   5.342  -4.421  0.00  0.00     0.078 C 
ATOM      3  C1  OXE d   1       3.814   4.198  -4.827  0.00  0.00    -0.078 A 
ATOM      4  C2  OXE d   1       3.246   3.178  -5.552  0.00  0.00    -0.078 A 
ATOM      5  C3  OXE d   1       4.039   2.125  -5.999  0.00  0.00     0.003 A 
ATOM      6  C4  OXE d   1       5.373   2.018  -5.587  0.00  0.00    -0.002 A 
ATOM      7  C5  OXE d   1       5.961   3.026  -4.815  0.00  0.00    -0.002 A 
ATOM      8  C6  OXE d   1       5.208   4.141  -4.463  0.00  0.00     0.003 A 
ENDROOT
TORSDOF 0
ENDMDL
