MODEL 1
REMARK minimizedAffinity 9.36006927
REMARK minimizedRMSD -1
REMARK  0 active torsions:
REMARK  status: ('A' for Active; 'I' for Inactive)
ROOT
ATOM      1  C2' OXE d   1       5.062   5.377  -3.447  0.00  0.00     0.078 C 
ATOM      2  C1' OXE d   1       5.979   2.938  -4.492  0.00  0.00     0.078 C 
ATOM      3  C1  OXE d   1       4.587   3.385  -4.865  0.00  0.00    -0.078 A 
ATOM      4  C2  OXE d   1       4.129   4.556  -4.312  0.00  0.00    -0.078 A 
ATOM      5  C3  OXE d   1       2.873   5.041  -4.666  0.00  0.00     0.003 A 
ATOM      6  C4  OXE d   1       2.013   4.271  -5.458  0.00  0.00    -0.002 A 
ATOM      7  C5  OXE d   1       2.445   3.055  -5.999  0.00  0.00    -0.002 A 
ATOM      8  C6  OXE d   1       3.742   2.620  -5.748  0.00  0.00     0.003 A 
ENDROOT
TORSDOF 0
ENDMDL
