MODEL 1
REMARK minimizedAffinity 6.81374979
REMARK minimizedRMSD -1
REMARK  0 active torsions:
REMARK  status: ('A' for Active; 'I' for Inactive)
ROOT
ATOM      1  C2' OXE d   1       3.753   5.528  -3.425  0.00  0.00     0.078 C 
ATOM      2  C1' OXE d   1       2.052   4.424  -5.366  0.00  0.00     0.078 C 
ATOM      3  C1  OXE d   1       3.426   3.821  -5.210  0.00  0.00    -0.078 A 
ATOM      4  C2  OXE d   1       4.268   4.398  -4.290  0.00  0.00    -0.078 A 
ATOM      5  C3  OXE d   1       5.527   3.846  -4.068  0.00  0.00     0.003 A 
ATOM      6  C4  OXE d   1       5.999   2.808  -4.879  0.00  0.00    -0.002 A 
ATOM      7  C5  OXE d   1       5.171   2.232  -5.849  0.00  0.00    -0.002 A 
ATOM      8  C6  OXE d   1       3.870   2.698  -5.998  0.00  0.00     0.003 A 
ENDROOT
TORSDOF 0
ENDMDL
