MODEL 1
REMARK minimizedAffinity 13.6677942
REMARK minimizedRMSD -1
REMARK  0 active torsions:
REMARK  status: ('A' for Active; 'I' for Inactive)
ROOT
ATOM      1  C2' OXE d   1       0.592  -3.160  -2.392  0.00  0.00     0.078 C 
ATOM      2  C1' OXE d   1      -0.675  -2.441   0.007  0.00  0.00     0.078 C 
ATOM      3  C1  OXE d   1      -0.117  -1.335  -0.852  0.00  0.00    -0.078 A 
ATOM      4  C2  OXE d   1       0.543  -1.699  -2.001  0.00  0.00    -0.078 A 
ATOM      5  C3  OXE d   1       1.030  -0.715  -2.857  0.00  0.00     0.003 A 
ATOM      6  C4  OXE d   1       0.989   0.634  -2.483  0.00  0.00    -0.002 A 
ATOM      7  C5  OXE d   1       0.357   1.023  -1.298  0.00  0.00    -0.002 A 
ATOM      8  C6  OXE d   1      -0.237   0.057  -0.493  0.00  0.00     0.003 A 
ENDROOT
TORSDOF 0
ENDMDL
