MODEL 1
REMARK minimizedAffinity 10.4568462
REMARK minimizedRMSD -1
REMARK  0 active torsions:
REMARK  status: ('A' for Active; 'I' for Inactive)
ROOT
ATOM      1  C2' OXE d   1       1.929   3.761  -5.830  0.00  0.00     0.078 C 
ATOM      2  C1' OXE d   1       3.053   5.383  -3.834  0.00  0.00     0.078 C 
ATOM      3  C1  OXE d   1       3.914   4.293  -4.422  0.00  0.00    -0.078 A 
ATOM      4  C2  OXE d   1       3.341   3.474  -5.365  0.00  0.00    -0.078 A 
ATOM      5  C3  OXE d   1       4.107   2.488  -5.980  0.00  0.00     0.003 A 
ATOM      6  C4  OXE d   1       5.409   2.224  -5.537  0.00  0.00    -0.002 A 
ATOM      7  C5  OXE d   1       5.999   3.020  -4.549  0.00  0.00    -0.002 A 
ATOM      8  C6  OXE d   1       5.281   4.084  -4.013  0.00  0.00     0.003 A 
ENDROOT
TORSDOF 0
ENDMDL
