MODEL 1
REMARK minimizedAffinity 10.0898275
REMARK minimizedRMSD -1
REMARK  0 active torsions:
REMARK  status: ('A' for Active; 'I' for Inactive)
ROOT
ATOM      1  C   UNL d   1       3.496  -0.466   1.056  0.00  0.00     0.023 A 
ATOM      2  C1  UNL d   1       2.851  -1.696   1.192  0.00  0.00     0.003 A 
ATOM      3  C2  UNL d   1       1.921  -2.108   0.236  0.00  0.00     0.048 A 
ATOM      4  C3  UNL d   1       1.642  -1.287  -0.856  0.00  0.00     0.023 A 
ATOM      5  C4  UNL d   1       2.286  -0.056  -0.998  0.00  0.00     0.048 A 
ATOM      6  C5  UNL d   1       3.214   0.352  -0.038  0.00  0.00     0.003 A 
ATOM      7  I   UNL d   1       0.259  -1.899  -2.282  0.00  0.00    -0.146 I 
ENDROOT
TORSDOF 0
ENDMDL
