MODEL 1
REMARK minimizedAffinity 8.53413582
REMARK minimizedRMSD -1
REMARK  0 active torsions:
REMARK  status: ('A' for Active; 'I' for Inactive)
ROOT
ATOM      1  C   UNL d   1      -5.545   4.175   5.971  0.00  0.00     0.023 A 
ATOM      2  C1  UNL d   1      -5.979   5.482   5.747  0.00  0.00     0.003 A 
ATOM      3  C2  UNL d   1      -6.000   5.999   4.450  0.00  0.00     0.048 A 
ATOM      4  C3  UNL d   1      -5.587   5.204   3.382  0.00  0.00     0.023 A 
ATOM      5  C4  UNL d   1      -5.152   3.896   3.601  0.00  0.00     0.048 A 
ATOM      6  C5  UNL d   1      -5.132   3.383   4.899  0.00  0.00     0.003 A 
ATOM      7  I   UNL d   1      -5.618   5.972   1.451  0.00  0.00    -0.146 I 
ENDROOT
TORSDOF 0
ENDMDL
