MODEL 1
REMARK minimizedAffinity 10.8609781
REMARK minimizedRMSD -1
REMARK  0 active torsions:
REMARK  status: ('A' for Active; 'I' for Inactive)
ROOT
ATOM      1  C   UNL d   1      -4.991   5.789   5.996  0.00  0.00     0.023 A 
ATOM      2  C1  UNL d   1      -3.978   5.999   5.061  0.00  0.00     0.003 A 
ATOM      3  C2  UNL d   1      -3.960   5.267   3.872  0.00  0.00     0.048 A 
ATOM      4  C3  UNL d   1      -4.960   4.327   3.624  0.00  0.00     0.023 A 
ATOM      5  C4  UNL d   1      -5.976   4.114   4.557  0.00  0.00     0.048 A 
ATOM      6  C5  UNL d   1      -5.989   4.847   5.744  0.00  0.00     0.003 A 
ATOM      7  I   UNL d   1      -4.936   3.237   1.855  0.00  0.00    -0.146 I 
ENDROOT
TORSDOF 0
ENDMDL
