MODEL 1
REMARK minimizedAffinity 6.91914701
REMARK minimizedRMSD -1
REMARK  0 active torsions:
REMARK  status: ('A' for Active; 'I' for Inactive)
ROOT
ATOM      1  C   UNL d   1       2.235   0.623  -0.581  0.00  0.00     0.023 A 
ATOM      2  C1  UNL d   1       3.353   1.442  -0.427  0.00  0.00     0.003 A 
ATOM      3  C2  UNL d   1       4.435   1.011   0.345  0.00  0.00     0.048 A 
ATOM      4  C3  UNL d   1       4.391  -0.240   0.959  0.00  0.00     0.023 A 
ATOM      5  C4  UNL d   1       3.274  -1.063   0.807  0.00  0.00     0.048 A 
ATOM      6  C5  UNL d   1       2.195  -0.628   0.036  0.00  0.00     0.003 A 
ATOM      7  I   UNL d   1       6.000  -0.883   2.108  0.00  0.00    -0.146 I 
ENDROOT
TORSDOF 0
ENDMDL
