MODEL 1
REMARK minimizedAffinity 9.26603508
REMARK minimizedRMSD -1
REMARK  0 active torsions:
REMARK  status: ('A' for Active; 'I' for Inactive)
ROOT
ATOM      1  C   UNL d   1      -5.991   4.327   5.696  0.00  0.00     0.023 A 
ATOM      2  C1  UNL d   1      -5.989   3.293   4.760  0.00  0.00     0.003 A 
ATOM      3  C2  UNL d   1      -5.992   3.585   3.394  0.00  0.00     0.048 A 
ATOM      4  C3  UNL d   1      -5.995   4.914   2.972  0.00  0.00     0.023 A 
ATOM      5  C4  UNL d   1      -5.996   5.952   3.904  0.00  0.00     0.048 A 
ATOM      6  C5  UNL d   1      -5.995   5.655   5.269  0.00  0.00     0.003 A 
ATOM      7  I   UNL d   1      -5.999   5.351   0.940  0.00  0.00    -0.146 I 
ENDROOT
TORSDOF 0
ENDMDL
