MODEL 1
REMARK minimizedAffinity 10.650528
REMARK minimizedRMSD -1
REMARK  0 active torsions:
REMARK  status: ('A' for Active; 'I' for Inactive)
ROOT
ATOM      1  C   UNL d   1       2.261  -0.008   0.418  0.00  0.00     0.023 A 
ATOM      2  C1  UNL d   1       1.887   0.590  -0.785  0.00  0.00     0.003 A 
ATOM      3  C2  UNL d   1       2.841   1.247  -1.566  0.00  0.00     0.048 A 
ATOM      4  C3  UNL d   1       4.167   1.301  -1.138  0.00  0.00     0.023 A 
ATOM      5  C4  UNL d   1       4.546   0.703   0.065  0.00  0.00     0.048 A 
ATOM      6  C5  UNL d   1       3.589   0.049   0.843  0.00  0.00     0.003 A 
ATOM      7  I   UNL d   1       5.588   2.277  -2.299  0.00  0.00    -0.146 I 
ENDROOT
TORSDOF 0
ENDMDL
