MODEL 1
REMARK minimizedAffinity 11.0390787
REMARK minimizedRMSD -1
REMARK  0 active torsions:
REMARK  status: ('A' for Active; 'I' for Inactive)
ROOT
ATOM      1  C   UNL d   1      -4.919   5.641   6.000  0.00  0.00     0.023 A 
ATOM      2  C1  UNL d   1      -6.000   4.911   5.505  0.00  0.00     0.003 A 
ATOM      3  C2  UNL d   1      -5.883   4.220   4.297  0.00  0.00     0.048 A 
ATOM      4  C3  UNL d   1      -4.682   4.263   3.590  0.00  0.00     0.023 A 
ATOM      5  C4  UNL d   1      -3.598   4.991   4.082  0.00  0.00     0.048 A 
ATOM      6  C5  UNL d   1      -3.720   5.681   5.289  0.00  0.00     0.003 A 
ATOM      7  I   UNL d   1      -4.505   3.235   1.792  0.00  0.00    -0.146 I 
ENDROOT
TORSDOF 0
ENDMDL
