MODEL 1
REMARK minimizedAffinity 12.7231274
REMARK minimizedRMSD -1
REMARK  0 active torsions:
REMARK  status: ('A' for Active; 'I' for Inactive)
ROOT
ATOM      1  C   UNL d   1       2.963   1.035   0.802  0.00  0.00     0.023 A 
ATOM      2  C1  UNL d   1       2.812   1.497  -0.506  0.00  0.00     0.003 A 
ATOM      3  C2  UNL d   1       2.538   0.597  -1.538  0.00  0.00     0.048 A 
ATOM      4  C3  UNL d   1       2.414  -0.763  -1.256  0.00  0.00     0.023 A 
ATOM      5  C4  UNL d   1       2.563  -1.229   0.051  0.00  0.00     0.048 A 
ATOM      6  C5  UNL d   1       2.839  -0.326   1.080  0.00  0.00     0.003 A 
ATOM      7  I   UNL d   1       2.006  -2.103  -2.790  0.00  0.00    -0.146 I 
ENDROOT
TORSDOF 0
ENDMDL
