MODEL 1
REMARK minimizedAffinity 0.448873848
REMARK minimizedRMSD -1
REMARK  0 active torsions:
REMARK  status: ('A' for Active; 'I' for Inactive)
ROOT
ATOM      1  C   UNL d   1       4.933   4.124   4.933  0.00  0.00     0.023 A 
ATOM      2  C1  UNL d   1       4.168   3.653   6.000  0.00  0.00     0.003 A 
ATOM      3  C2  UNL d   1       3.031   2.880   5.758  0.00  0.00     0.048 A 
ATOM      4  C3  UNL d   1       2.666   2.579   4.446  0.00  0.00     0.023 A 
ATOM      5  C4  UNL d   1       3.429   3.047   3.375  0.00  0.00     0.048 A 
ATOM      6  C5  UNL d   1       4.564   3.822   3.622  0.00  0.00     0.003 A 
ATOM      7  I   UNL d   1       0.974   1.427   4.083  0.00  0.00    -0.146 I 
ENDROOT
TORSDOF 0
ENDMDL
