MODEL 1
REMARK minimizedAffinity 12.486455
REMARK minimizedRMSD -1
REMARK  0 active torsions:
REMARK  status: ('A' for Active; 'I' for Inactive)
ROOT
ATOM      1  C   UNL d   1      -5.627   4.484  -2.528  0.00  0.00     0.023 A 
ATOM      2  C1  UNL d   1      -4.893   4.497  -1.341  0.00  0.00     0.003 A 
ATOM      3  C2  UNL d   1      -4.532   3.296  -0.728  0.00  0.00     0.048 A 
ATOM      4  C3  UNL d   1      -4.907   2.084  -1.308  0.00  0.00     0.023 A 
ATOM      5  C4  UNL d   1      -5.640   2.066  -2.496  0.00  0.00     0.048 A 
ATOM      6  C5  UNL d   1      -5.999   3.270  -3.105  0.00  0.00     0.003 A 
ATOM      7  I   UNL d   1      -4.370   0.294  -0.398  0.00  0.00    -0.146 I 
ENDROOT
TORSDOF 0
ENDMDL
