MODEL 1
REMARK minimizedAffinity -0.0454895198
REMARK minimizedRMSD -1
REMARK  2 active torsions:
REMARK  status: ('A' for Active; 'I' for Inactive)
REMARK    1  A    between atoms: C1_2  and  C2_3 
REMARK    2  A    between atoms: C2_3  and  C3_4 
ROOT
ATOM      1  C3  UNL d   1       5.944   2.433   3.876  0.00  0.00    -0.075 A 
ATOM      2  C4  UNL d   1       5.961   1.511   2.820  0.00  0.00     0.002 A 
ATOM      3  C5  UNL d   1       5.897   0.141   3.075  0.00  0.00     0.002 A 
ATOM      4  C6  UNL d   1       5.827  -0.325   4.386  0.00  0.00    -0.004 A 
ATOM      5  C7  UNL d   1       5.827   0.582   5.444  0.00  0.00     0.002 A 
ATOM      6  C8  UNL d   1       5.885   1.954   5.192  0.00  0.00     0.002 A 
ENDROOT
BRANCH   1   7
ATOM      7  C2  UNL d   1       5.983   3.918   3.606  0.00  0.00     0.056 C 
BRANCH   7   8
ATOM      8  C1  UNL d   1       5.988   4.281   2.117  0.00  0.00     0.007 C 
ATOM      9  C   UNL d   1       5.984   5.783   1.865  0.00  0.00     0.009 C 
ENDBRANCH   7   8
ENDBRANCH   1   7
TORSDOF 2
ENDMDL
