MODEL 1
REMARK minimizedAffinity -2.89693141
REMARK minimizedRMSD -1
REMARK  2 active torsions:
REMARK  status: ('A' for Active; 'I' for Inactive)
REMARK    1  A    between atoms: C1_2  and  C2_3 
REMARK    2  A    between atoms: C2_3  and  C3_4 
ROOT
ATOM      1  C3  UNL d   1       5.754   0.948   4.562  0.00  0.00    -0.075 A 
ATOM      2  C4  UNL d   1       5.664   1.641   3.345  0.00  0.00     0.002 A 
ATOM      3  C5  UNL d   1       5.747   3.033   3.316  0.00  0.00     0.002 A 
ATOM      4  C6  UNL d   1       5.909   3.750   4.499  0.00  0.00    -0.004 A 
ATOM      5  C7  UNL d   1       5.982   3.073   5.715  0.00  0.00     0.002 A 
ATOM      6  C8  UNL d   1       5.905   1.679   5.747  0.00  0.00     0.002 A 
ENDROOT
BRANCH   1   7
ATOM      7  C2  UNL d   1       5.695  -0.561   4.598  0.00  0.00     0.056 C 
BRANCH   7   8
ATOM      8  C1  UNL d   1       5.945  -1.162   5.985  0.00  0.00     0.007 C 
ATOM      9  C   UNL d   1       5.980  -2.684   5.982  0.00  0.00     0.009 C 
ENDBRANCH   7   8
ENDBRANCH   1   7
TORSDOF 2
ENDMDL
