MODEL 1
REMARK minimizedAffinity -2.92610383
REMARK minimizedRMSD -1
REMARK  2 active torsions:
REMARK  status: ('A' for Active; 'I' for Inactive)
REMARK    1  A    between atoms: C1_2  and  C2_3 
REMARK    2  A    between atoms: C2_3  and  C3_4 
ROOT
ATOM      1  C3  UNL d   1       5.964   2.082   3.727  0.00  0.00    -0.075 A 
ATOM      2  C4  UNL d   1       5.997   2.108   5.128  0.00  0.00     0.002 A 
ATOM      3  C5  UNL d   1       5.996   0.920   5.859  0.00  0.00     0.002 A 
ATOM      4  C6  UNL d   1       5.952  -0.307   5.200  0.00  0.00    -0.004 A 
ATOM      5  C7  UNL d   1       5.903  -0.345   3.808  0.00  0.00     0.002 A 
ATOM      6  C8  UNL d   1       5.908   0.843   3.074  0.00  0.00     0.002 A 
ENDROOT
BRANCH   1   7
ATOM      7  C2  UNL d   1       5.995   3.364   2.929  0.00  0.00     0.056 C 
BRANCH   7   8
ATOM      8  C1  UNL d   1       5.282   4.538   3.608  0.00  0.00     0.007 C 
ATOM      9  C   UNL d   1       5.987   5.871   3.396  0.00  0.00     0.009 C 
ENDBRANCH   7   8
ENDBRANCH   1   7
TORSDOF 2
ENDMDL
