MODEL 1
REMARK minimizedAffinity -3.90851402
REMARK minimizedRMSD -1
REMARK  2 active torsions:
REMARK  status: ('A' for Active; 'I' for Inactive)
REMARK    1  A    between atoms: C1_2  and  C2_3 
REMARK    2  A    between atoms: C2_3  and  C3_4 
ROOT
ATOM      1  C3  UNL d   1       5.510   1.599   3.421  0.00  0.00    -0.075 A 
ATOM      2  C4  UNL d   1       5.411   1.379   4.803  0.00  0.00     0.002 A 
ATOM      3  C5  UNL d   1       5.287   0.084   5.307  0.00  0.00     0.002 A 
ATOM      4  C6  UNL d   1       5.249  -1.004   4.438  0.00  0.00    -0.004 A 
ATOM      5  C7  UNL d   1       5.329  -0.796   3.063  0.00  0.00     0.002 A 
ATOM      6  C8  UNL d   1       5.458   0.498   2.556  0.00  0.00     0.002 A 
ENDROOT
BRANCH   1   7
ATOM      7  C2  UNL d   1       5.674   2.995   2.871  0.00  0.00     0.056 C 
BRANCH   7   8
ATOM      8  C1  UNL d   1       6.000   4.050   3.933  0.00  0.00     0.007 C 
ATOM      9  C   UNL d   1       5.997   5.472   3.388  0.00  0.00     0.009 C 
ENDBRANCH   7   8
ENDBRANCH   1   7
TORSDOF 2
ENDMDL
