MODEL 1
REMARK minimizedAffinity -2.49358344
REMARK minimizedRMSD -1
REMARK  2 active torsions:
REMARK  status: ('A' for Active; 'I' for Inactive)
REMARK    1  A    between atoms: C1_2  and  C2_3 
REMARK    2  A    between atoms: C2_3  and  C3_4 
ROOT
ATOM      1  C3  UNL d   1       5.115   2.355   4.206  0.00  0.00    -0.075 A 
ATOM      2  C4  UNL d   1       5.675   1.946   2.987  0.00  0.00     0.002 A 
ATOM      3  C5  UNL d   1       6.000   0.606   2.771  0.00  0.00     0.002 A 
ATOM      4  C6  UNL d   1       5.780  -0.337   3.771  0.00  0.00    -0.004 A 
ATOM      5  C7  UNL d   1       5.240   0.060   4.993  0.00  0.00     0.002 A 
ATOM      6  C8  UNL d   1       4.910   1.399   5.210  0.00  0.00     0.002 A 
ENDROOT
BRANCH   1   7
ATOM      7  C2  UNL d   1       4.734   3.798   4.436  0.00  0.00     0.056 C 
BRANCH   7   8
ATOM      8  C1  UNL d   1       5.930   4.751   4.532  0.00  0.00     0.007 C 
ATOM      9  C   UNL d   1       6.000   5.743   3.378  0.00  0.00     0.009 C 
ENDBRANCH   7   8
ENDBRANCH   1   7
TORSDOF 2
ENDMDL
