MODEL 1
REMARK minimizedAffinity 2.58456087
REMARK minimizedRMSD -1
REMARK  2 active torsions:
REMARK  status: ('A' for Active; 'I' for Inactive)
REMARK    1  A    between atoms: C1_2  and  C2_3 
REMARK    2  A    between atoms: C2_3  and  C3_4 
ROOT
ATOM      1  C3  UNL d   1       5.954   1.362   3.529  0.00  0.00    -0.075 A 
ATOM      2  C4  UNL d   1       5.873  -0.006   3.232  0.00  0.00     0.002 A 
ATOM      3  C5  UNL d   1       5.813  -0.951   4.257  0.00  0.00     0.002 A 
ATOM      4  C6  UNL d   1       5.843  -0.542   5.589  0.00  0.00    -0.004 A 
ATOM      5  C7  UNL d   1       5.940   0.814   5.895  0.00  0.00     0.002 A 
ATOM      6  C8  UNL d   1       5.996   1.761   4.871  0.00  0.00     0.002 A 
ENDROOT
BRANCH   1   7
ATOM      7  C2  UNL d   1       5.990   2.391   2.425  0.00  0.00     0.056 C 
BRANCH   7   8
ATOM      8  C1  UNL d   1       5.665   3.815   2.888  0.00  0.00     0.007 C 
ATOM      9  C   UNL d   1       4.323   3.923   3.601  0.00  0.00     0.009 C 
ENDBRANCH   7   8
ENDBRANCH   1   7
TORSDOF 2
ENDMDL
