MODEL 1
REMARK minimizedAffinity 1.45743406
REMARK minimizedRMSD -1
REMARK  2 active torsions:
REMARK  status: ('A' for Active; 'I' for Inactive)
REMARK    1  A    between atoms: C1_2  and  C2_3 
REMARK    2  A    between atoms: C2_3  and  C3_4 
ROOT
ATOM      1  C3  UNL d   1       5.227   1.084   4.033  0.00  0.00    -0.075 A 
ATOM      2  C4  UNL d   1       5.653   0.887   2.711  0.00  0.00     0.002 A 
ATOM      3  C5  UNL d   1       5.999   1.974   1.908  0.00  0.00     0.002 A 
ATOM      4  C6  UNL d   1       5.913   3.270   2.412  0.00  0.00    -0.004 A 
ATOM      5  C7  UNL d   1       5.475   3.479   3.718  0.00  0.00     0.002 A 
ATOM      6  C8  UNL d   1       5.133   2.392   4.525  0.00  0.00     0.002 A 
ENDROOT
BRANCH   1   7
ATOM      7  C2  UNL d   1       4.880  -0.091   4.916  0.00  0.00     0.056 C 
BRANCH   7   8
ATOM      8  C1  UNL d   1       5.999  -1.130   5.040  0.00  0.00     0.007 C 
ATOM      9  C   UNL d   1       5.674  -2.448   4.349  0.00  0.00     0.009 C 
ENDBRANCH   7   8
ENDBRANCH   1   7
TORSDOF 2
ENDMDL
