MODEL 1
REMARK minimizedAffinity -2.33218765
REMARK minimizedRMSD -1
REMARK  2 active torsions:
REMARK  status: ('A' for Active; 'I' for Inactive)
REMARK    1  A    between atoms: C1_2  and  C2_3 
REMARK    2  A    between atoms: C2_3  and  C3_4 
ROOT
ATOM      1  C3  UNL d   1       5.634   0.987   4.779  0.00  0.00    -0.075 A 
ATOM      2  C4  UNL d   1       5.658   0.811   3.388  0.00  0.00     0.002 A 
ATOM      3  C5  UNL d   1       5.845   1.903   2.540  0.00  0.00     0.002 A 
ATOM      4  C6  UNL d   1       6.000   3.182   3.069  0.00  0.00    -0.004 A 
ATOM      5  C7  UNL d   1       5.961   3.370   4.449  0.00  0.00     0.002 A 
ATOM      6  C8  UNL d   1       5.778   2.279   5.301  0.00  0.00     0.002 A 
ENDROOT
BRANCH   1   7
ATOM      7  C2  UNL d   1       5.461  -0.195   5.704  0.00  0.00     0.056 C 
BRANCH   7   8
ATOM      8  C1  UNL d   1       5.658  -1.553   5.023  0.00  0.00     0.007 C 
ATOM      9  C   UNL d   1       5.605  -2.725   5.995  0.00  0.00     0.009 C 
ENDBRANCH   7   8
ENDBRANCH   1   7
TORSDOF 2
ENDMDL
