MODEL 1
REMARK minimizedAffinity -1.14754581
REMARK minimizedRMSD -1
REMARK  2 active torsions:
REMARK  status: ('A' for Active; 'I' for Inactive)
REMARK    1  A    between atoms: C1_2  and  C2_3 
REMARK    2  A    between atoms: C2_3  and  C3_4 
ROOT
ATOM      1  C3  UNL d   1       6.000   2.123   3.703  0.00  0.00    -0.075 A 
ATOM      2  C4  UNL d   1       5.999   1.008   2.853  0.00  0.00     0.002 A 
ATOM      3  C5  UNL d   1       5.976  -0.284   3.378  0.00  0.00     0.002 A 
ATOM      4  C6  UNL d   1       5.963  -0.478   4.758  0.00  0.00    -0.004 A 
ATOM      5  C7  UNL d   1       5.981   0.622   5.612  0.00  0.00     0.002 A 
ATOM      6  C8  UNL d   1       6.000   1.916   5.089  0.00  0.00     0.002 A 
ENDROOT
BRANCH   1   7
ATOM      7  C2  UNL d   1       5.995   3.524   3.140  0.00  0.00     0.056 C 
BRANCH   7   8
ATOM      8  C1  UNL d   1       5.999   3.581   1.609  0.00  0.00     0.007 C 
ATOM      9  C   UNL d   1       5.430   4.880   1.055  0.00  0.00     0.009 C 
ENDBRANCH   7   8
ENDBRANCH   1   7
TORSDOF 2
ENDMDL
