MODEL 1
REMARK minimizedAffinity -2.12892365
REMARK minimizedRMSD -1
REMARK  2 active torsions:
REMARK  status: ('A' for Active; 'I' for Inactive)
REMARK    1  A    between atoms: C1_2  and  C2_3 
REMARK    2  A    between atoms: C2_3  and  C3_4 
ROOT
ATOM      1  C3  UNL d   1       5.975   0.526   4.568  0.00  0.00    -0.075 A 
ATOM      2  C4  UNL d   1       5.990   0.447   3.168  0.00  0.00     0.002 A 
ATOM      3  C5  UNL d   1       6.000   1.608   2.393  0.00  0.00     0.002 A 
ATOM      4  C6  UNL d   1       5.984   2.858   3.006  0.00  0.00    -0.004 A 
ATOM      5  C7  UNL d   1       5.952   2.948   4.396  0.00  0.00     0.002 A 
ATOM      6  C8  UNL d   1       5.947   1.789   5.174  0.00  0.00     0.002 A 
ENDROOT
BRANCH   1   7
ATOM      7  C2  UNL d   1       5.994  -0.726   5.412  0.00  0.00     0.056 C 
BRANCH   7   8
ATOM      8  C1  UNL d   1       5.907  -2.025   4.604  0.00  0.00     0.007 C 
ATOM      9  C   UNL d   1       5.988  -3.276   5.468  0.00  0.00     0.009 C 
ENDBRANCH   7   8
ENDBRANCH   1   7
TORSDOF 2
ENDMDL
