MODEL 1
REMARK minimizedAffinity -0.51673919
REMARK minimizedRMSD -1
REMARK  2 active torsions:
REMARK  status: ('A' for Active; 'I' for Inactive)
REMARK    1  A    between atoms: C1_2  and  C2_3 
REMARK    2  A    between atoms: C2_3  and  C3_4 
ROOT
ATOM      1  C3  UNL d   1       5.917   1.082   4.962  0.00  0.00    -0.075 A 
ATOM      2  C4  UNL d   1       5.972   0.627   3.637  0.00  0.00     0.002 A 
ATOM      3  C5  UNL d   1       5.970  -0.740   3.357  0.00  0.00     0.002 A 
ATOM      4  C6  UNL d   1       5.925  -1.667   4.395  0.00  0.00    -0.004 A 
ATOM      5  C7  UNL d   1       5.887  -1.226   5.717  0.00  0.00     0.002 A 
ATOM      6  C8  UNL d   1       5.884   0.141   6.000  0.00  0.00     0.002 A 
ENDROOT
BRANCH   1   7
ATOM      7  C2  UNL d   1       5.888   2.560   5.271  0.00  0.00     0.056 C 
BRANCH   7   8
ATOM      8  C1  UNL d   1       5.989   3.458   4.033  0.00  0.00     0.007 C 
ATOM      9  C   UNL d   1       5.954   4.944   4.365  0.00  0.00     0.009 C 
ENDBRANCH   7   8
ENDBRANCH   1   7
TORSDOF 2
ENDMDL
