MODEL 1
REMARK minimizedAffinity -1.89478314
REMARK minimizedRMSD -1
REMARK  0 active torsions:
REMARK  status: ('A' for Active; 'I' for Inactive)
ROOT
ATOM      1  C   UNL d   1       2.206  -0.656   0.060  0.00  0.00     0.124 A 
ATOM      2  C1  UNL d   1       1.392  -1.742  -0.229  0.00  0.00     0.062 A 
ATOM      3  C2  UNL d   1       0.015  -1.573  -0.348  0.00  0.00     0.162 A 
ATOM      4  C3  UNL d   1      -0.556  -0.312  -0.178  0.00  0.00    -0.034 A 
ATOM      5  C4  UNL d   1       0.269   0.775   0.114  0.00  0.00     0.162 A 
ATOM      6  C5  UNL d   1       1.644   0.601   0.232  0.00  0.00     0.062 A 
ATOM      7  F   UNL d   1       2.429   1.651   0.511  0.00  0.00    -0.097 F 
ATOM      8  F1  UNL d   1      -0.247   2.001   0.284  0.00  0.00    -0.096 F 
ATOM      9  I   UNL d   1      -2.614  -0.056  -0.354  0.00  0.00    -0.060 I 
ATOM     10  F2  UNL d   1      -0.748  -2.641  -0.628  0.00  0.00    -0.096 F 
ATOM     11  F3  UNL d   1       1.932  -2.958  -0.395  0.00  0.00    -0.097 F 
ATOM     12  F4  UNL d   1       3.530  -0.822   0.174  0.00  0.00    -0.092 F 
ENDROOT
TORSDOF 0
ENDMDL
