MODEL 1
REMARK minimizedAffinity 2.39263368
REMARK minimizedRMSD -1
REMARK  0 active torsions:
REMARK  status: ('A' for Active; 'I' for Inactive)
ROOT
ATOM      1  C   UNL d   1       2.038  -0.240  -0.226  0.00  0.00     0.124 A 
ATOM      2  C1  UNL d   1       1.530   1.051  -0.189  0.00  0.00     0.062 A 
ATOM      3  C2  UNL d   1       0.155   1.262  -0.188  0.00  0.00     0.162 A 
ATOM      4  C3  UNL d   1      -0.724   0.179  -0.223  0.00  0.00    -0.034 A 
ATOM      5  C4  UNL d   1      -0.205  -1.117  -0.262  0.00  0.00     0.162 A 
ATOM      6  C5  UNL d   1       1.171  -1.323  -0.262  0.00  0.00     0.062 A 
ATOM      7  F   UNL d   1       1.660  -2.571  -0.298  0.00  0.00    -0.097 F 
ATOM      8  F1  UNL d   1      -1.021  -2.181  -0.296  0.00  0.00    -0.096 F 
ATOM      9  I   UNL d   1      -2.781   0.490  -0.222  0.00  0.00    -0.060 I 
ATOM     10  F2  UNL d   1      -0.308   2.520  -0.152  0.00  0.00    -0.096 F 
ATOM     11  F3  UNL d   1       2.367   2.098  -0.154  0.00  0.00    -0.097 F 
ATOM     12  F4  UNL d   1       3.363  -0.440  -0.228  0.00  0.00    -0.092 F 
ENDROOT
TORSDOF 0
ENDMDL
