MODEL 1
REMARK minimizedAffinity 4.17134333
REMARK minimizedRMSD -1
REMARK  0 active torsions:
REMARK  status: ('A' for Active; 'I' for Inactive)
ROOT
ATOM      1  C   UNL d   1       1.809  -0.547  -0.157  0.00  0.00     0.124 A 
ATOM      2  C1  UNL d   1       1.387   0.755   0.073  0.00  0.00     0.062 A 
ATOM      3  C2  UNL d   1       0.035   1.032   0.250  0.00  0.00     0.162 A 
ATOM      4  C3  UNL d   1      -0.907   0.004   0.199  0.00  0.00    -0.034 A 
ATOM      5  C4  UNL d   1      -0.476  -1.303  -0.035  0.00  0.00     0.162 A 
ATOM      6  C5  UNL d   1       0.877  -1.575  -0.211  0.00  0.00     0.062 A 
ATOM      7  F   UNL d   1       1.282  -2.833  -0.434  0.00  0.00    -0.097 F 
ATOM      8  F1  UNL d   1      -1.354  -2.315  -0.090  0.00  0.00    -0.096 F 
ATOM      9  I   UNL d   1      -2.930   0.415   0.463  0.00  0.00    -0.060 I 
ATOM     10  F2  UNL d   1      -0.344   2.300   0.471  0.00  0.00    -0.096 F 
ATOM     11  F3  UNL d   1       2.285   1.749   0.124  0.00  0.00    -0.097 F 
ATOM     12  F4  UNL d   1       3.110  -0.811  -0.329  0.00  0.00    -0.092 F 
ENDROOT
TORSDOF 0
ENDMDL
