MODEL 1
REMARK minimizedAffinity -2.02759957
REMARK minimizedRMSD -1
REMARK  0 active torsions:
REMARK  status: ('A' for Active; 'I' for Inactive)
ROOT
ATOM      1  C   UNL d   1       0.232  -1.977   0.337  0.00  0.00     0.124 A 
ATOM      2  C1  UNL d   1      -1.053  -2.295   0.754  0.00  0.00     0.062 A 
ATOM      3  C2  UNL d   1      -2.046  -1.320   0.768  0.00  0.00     0.162 A 
ATOM      4  C3  UNL d   1      -1.758  -0.016   0.363  0.00  0.00    -0.034 A 
ATOM      5  C4  UNL d   1      -0.464   0.296  -0.055  0.00  0.00     0.162 A 
ATOM      6  C5  UNL d   1       0.525  -0.682  -0.067  0.00  0.00     0.062 A 
ATOM      7  F   UNL d   1       1.766  -0.373  -0.471  0.00  0.00    -0.097 F 
ATOM      8  F1  UNL d   1      -0.153   1.539  -0.452  0.00  0.00    -0.096 F 
ATOM      9  I   UNL d   1      -3.240   1.445   0.382  0.00  0.00    -0.060 I 
ATOM     10  F2  UNL d   1      -3.279  -1.655   1.177  0.00  0.00    -0.096 F 
ATOM     11  F3  UNL d   1      -1.339  -3.545   1.146  0.00  0.00    -0.097 F 
ATOM     12  F4  UNL d   1       1.186  -2.917   0.325  0.00  0.00    -0.092 F 
ENDROOT
TORSDOF 0
ENDMDL
