MODEL 1
REMARK minimizedAffinity -1.14086592
REMARK minimizedRMSD -1
REMARK  0 active torsions:
REMARK  status: ('A' for Active; 'I' for Inactive)
ROOT
ATOM      1  C   UNL d   1       1.195   0.778   0.846  0.00  0.00     0.124 A 
ATOM      2  C1  UNL d   1       0.052   1.045   0.106  0.00  0.00     0.062 A 
ATOM      3  C2  UNL d   1      -0.485   0.070  -0.730  0.00  0.00     0.162 A 
ATOM      4  C3  UNL d   1       0.121  -1.182  -0.829  0.00  0.00    -0.034 A 
ATOM      5  C4  UNL d   1       1.272  -1.443  -0.083  0.00  0.00     0.162 A 
ATOM      6  C5  UNL d   1       1.804  -0.465   0.751  0.00  0.00     0.062 A 
ATOM      7  F   UNL d   1       2.909  -0.725   1.464  0.00  0.00    -0.097 F 
ATOM      8  F1  UNL d   1       1.880  -2.637  -0.155  0.00  0.00    -0.096 F 
ATOM      9  I   UNL d   1      -0.678  -2.643  -2.078  0.00  0.00    -0.060 I 
ATOM     10  F2  UNL d   1      -1.591   0.355  -1.433  0.00  0.00    -0.096 F 
ATOM     11  F3  UNL d   1      -0.538   2.246   0.196  0.00  0.00    -0.097 F 
ATOM     12  F4  UNL d   1       1.710   1.719   1.648  0.00  0.00    -0.092 F 
ENDROOT
TORSDOF 0
ENDMDL
