MODEL 1
REMARK minimizedAffinity 15.4799166
REMARK minimizedRMSD -1
REMARK  0 active torsions:
REMARK  status: ('A' for Active; 'I' for Inactive)
ROOT
ATOM      1  C   UNL d   1       1.658  -2.266  -0.011  0.00  0.00     0.124 A 
ATOM      2  C1  UNL d   1       1.220  -1.085  -0.593  0.00  0.00     0.062 A 
ATOM      3  C2  UNL d   1      -0.080  -0.638  -0.377  0.00  0.00     0.162 A 
ATOM      4  C3  UNL d   1      -0.952  -1.373   0.427  0.00  0.00    -0.034 A 
ATOM      5  C4  UNL d   1      -0.505  -2.561   1.008  0.00  0.00     0.162 A 
ATOM      6  C5  UNL d   1       0.796  -3.003   0.789  0.00  0.00     0.062 A 
ATOM      7  F   UNL d   1       1.217  -4.145   1.352  0.00  0.00    -0.097 F 
ATOM      8  F1  UNL d   1      -1.317  -3.292   1.786  0.00  0.00    -0.096 F 
ATOM      9  I   UNL d   1      -2.898  -0.708   0.753  0.00  0.00    -0.060 I 
ATOM     10  F2  UNL d   1      -0.477   0.507  -0.952  0.00  0.00    -0.096 F 
ATOM     11  F3  UNL d   1       2.051  -0.372  -1.367  0.00  0.00    -0.097 F 
ATOM     12  F4  UNL d   1       2.909  -2.694  -0.221  0.00  0.00    -0.092 F 
ENDROOT
TORSDOF 0
ENDMDL
