MODEL 1
REMARK minimizedAffinity -0.372500926
REMARK minimizedRMSD -1
REMARK  0 active torsions:
REMARK  status: ('A' for Active; 'I' for Inactive)
ROOT
ATOM      1  C   UNL d   1      -0.479  -0.333  -0.564  0.00  0.00     0.124 A 
ATOM      2  C1  UNL d   1       0.123  -1.554  -0.833  0.00  0.00     0.062 A 
ATOM      3  C2  UNL d   1       1.384  -1.842  -0.318  0.00  0.00     0.162 A 
ATOM      4  C3  UNL d   1       2.051  -0.907   0.473  0.00  0.00    -0.034 A 
ATOM      5  C4  UNL d   1       1.440   0.319   0.739  0.00  0.00     0.162 A 
ATOM      6  C5  UNL d   1       0.180   0.603   0.221  0.00  0.00     0.062 A 
ATOM      7  F   UNL d   1      -0.400   1.783   0.483  0.00  0.00    -0.097 F 
ATOM      8  F1  UNL d   1       2.053   1.241   1.495  0.00  0.00    -0.096 F 
ATOM      9  I   UNL d   1       3.936  -1.334   1.245  0.00  0.00    -0.060 I 
ATOM     10  F2  UNL d   1       1.941  -3.031  -0.595  0.00  0.00    -0.096 F 
ATOM     11  F3  UNL d   1      -0.511  -2.459  -1.593  0.00  0.00    -0.097 F 
ATOM     12  F4  UNL d   1      -1.691  -0.058  -1.062  0.00  0.00    -0.092 F 
ENDROOT
TORSDOF 0
ENDMDL
