MODEL 1
REMARK minimizedAffinity 0.000244526134
REMARK minimizedRMSD -1
REMARK  0 active torsions:
REMARK  status: ('A' for Active; 'I' for Inactive)
ROOT
ATOM      1  C   UNL d   1       1.974  -0.300  -0.393  0.00  0.00     0.124 A 
ATOM      2  C1  UNL d   1       1.442   0.981  -0.333  0.00  0.00     0.062 A 
ATOM      3  C2  UNL d   1       0.063   1.167  -0.340  0.00  0.00     0.162 A 
ATOM      4  C3  UNL d   1      -0.795   0.069  -0.406  0.00  0.00    -0.034 A 
ATOM      5  C4  UNL d   1      -0.252  -1.216  -0.467  0.00  0.00     0.162 A 
ATOM      6  C5  UNL d   1       1.127  -1.397  -0.460  0.00  0.00     0.062 A 
ATOM      7  F   UNL d   1       1.639  -2.635  -0.518  0.00  0.00    -0.097 F 
ATOM      8  F1  UNL d   1      -1.048  -2.294  -0.531  0.00  0.00    -0.096 F 
ATOM      9  I   UNL d   1      -2.858   0.342  -0.416  0.00  0.00    -0.060 I 
ATOM     10  F2  UNL d   1      -0.423   2.415  -0.281  0.00  0.00    -0.096 F 
ATOM     11  F3  UNL d   1       2.259   2.042  -0.269  0.00  0.00    -0.097 F 
ATOM     12  F4  UNL d   1       3.302  -0.476  -0.387  0.00  0.00    -0.092 F 
ENDROOT
TORSDOF 0
ENDMDL
