MODEL 1
REMARK minimizedAffinity 0.0243630018
REMARK minimizedRMSD -1
REMARK  0 active torsions:
REMARK  status: ('A' for Active; 'I' for Inactive)
ROOT
ATOM      1  C   UNL d   1       3.286   1.112   0.728  0.00  0.00     0.124 A 
ATOM      2  C1  UNL d   1       2.066   1.698   0.420  0.00  0.00     0.062 A 
ATOM      3  C2  UNL d   1       1.042   0.935  -0.134  0.00  0.00     0.162 A 
ATOM      4  C3  UNL d   1       1.234  -0.424  -0.384  0.00  0.00    -0.034 A 
ATOM      5  C4  UNL d   1       2.464  -1.007  -0.072  0.00  0.00     0.162 A 
ATOM      6  C5  UNL d   1       3.484  -0.239   0.482  0.00  0.00     0.062 A 
ATOM      7  F   UNL d   1       4.662  -0.807   0.778  0.00  0.00    -0.097 F 
ATOM      8  F1  UNL d   1       2.682  -2.310  -0.299  0.00  0.00    -0.096 F 
ATOM      9  I   UNL d   1      -0.294  -1.570  -1.212  0.00  0.00    -0.060 I 
ATOM     10  F2  UNL d   1      -0.126   1.527  -0.422  0.00  0.00    -0.096 F 
ATOM     11  F3  UNL d   1       1.872   3.004   0.656  0.00  0.00    -0.097 F 
ATOM     12  F4  UNL d   1       4.269   1.849   1.260  0.00  0.00    -0.092 F 
ENDROOT
TORSDOF 0
ENDMDL
