MODEL 1
REMARK minimizedAffinity 11.9582262
REMARK minimizedRMSD -1
REMARK  1 active torsions:
REMARK  status: ('A' for Active; 'I' for Inactive)
REMARK    1  A    between atoms: C1_2  and  C2_3 
ROOT
ATOM      1  C2  UNL d   1       0.694   0.775   0.772  0.00  0.00    -0.081 A 
ATOM      2  C3  UNL d   1       0.521   0.060  -0.419  0.00  0.00     0.006 A 
ATOM      3  C4  UNL d   1      -0.760  -0.273  -0.866  0.00  0.00     0.002 A 
ATOM      4  C5  UNL d   1      -1.889   0.111  -0.134  0.00  0.00    -0.080 A 
ATOM      5  C6  UNL d   1      -3.271  -0.214  -0.619  0.00  0.00     0.076 C 
ATOM      6  C7  UNL d   1      -1.716   0.810   1.065  0.00  0.00     0.002 A 
ATOM      7  C8  UNL d   1      -0.435   1.142   1.513  0.00  0.00     0.006 A 
ENDROOT
BRANCH   1   8
ATOM      8  C1  UNL d   1       2.070   1.191   1.224  0.00  0.00     0.054 C 
ATOM      9  C   UNL d   1       2.956   1.549   0.039  0.00  0.00     0.018 C 
ENDBRANCH   1   8
TORSDOF 1
ENDMDL
