MODEL 1
REMARK minimizedAffinity 2.36081076
REMARK minimizedRMSD -1
REMARK  1 active torsions:
REMARK  status: ('A' for Active; 'I' for Inactive)
REMARK    1  A    between atoms: C1_2  and  C2_3 
ROOT
ATOM      1  C2  UNL d   1      -2.201   0.056   0.942  0.00  0.00    -0.081 A 
ATOM      2  C3  UNL d   1      -0.864  -0.345   1.054  0.00  0.00     0.006 A 
ATOM      3  C4  UNL d   1      -0.355  -0.776   2.282  0.00  0.00     0.002 A 
ATOM      4  C5  UNL d   1      -1.175  -0.820   3.414  0.00  0.00    -0.080 A 
ATOM      5  C6  UNL d   1      -0.649  -1.309   4.731  0.00  0.00     0.076 C 
ATOM      6  C7  UNL d   1      -2.506  -0.403   3.306  0.00  0.00     0.002 A 
ATOM      7  C8  UNL d   1      -3.015   0.028   2.079  0.00  0.00     0.006 A 
ENDROOT
BRANCH   1   8
ATOM      8  C1  UNL d   1      -2.770   0.459  -0.394  0.00  0.00     0.054 C 
ATOM      9  C   UNL d   1      -3.257  -0.752  -1.177  0.00  0.00     0.018 C 
ENDBRANCH   1   8
TORSDOF 1
ENDMDL
