MODEL 1
REMARK minimizedAffinity 6.10938549
REMARK minimizedRMSD -1
REMARK  1 active torsions:
REMARK  status: ('A' for Active; 'I' for Inactive)
REMARK    1  A    between atoms: C1_2  and  C2_3 
ROOT
ATOM      1  C2  UNL d   1      -1.491   0.065   1.532  0.00  0.00    -0.081 A 
ATOM      2  C3  UNL d   1      -0.111  -0.168   1.501  0.00  0.00     0.006 A 
ATOM      3  C4  UNL d   1       0.596  -0.080   0.300  0.00  0.00     0.002 A 
ATOM      4  C5  UNL d   1      -0.064   0.250  -0.889  0.00  0.00    -0.080 A 
ATOM      5  C6  UNL d   1       0.688   0.377  -2.181  0.00  0.00     0.076 C 
ATOM      6  C7  UNL d   1      -1.446   0.466  -0.862  0.00  0.00     0.002 A 
ATOM      7  C8  UNL d   1      -2.153   0.377   0.339  0.00  0.00     0.006 A 
ENDROOT
BRANCH   1   8
ATOM      8  C1  UNL d   1      -2.245   0.035   2.837  0.00  0.00     0.054 C 
ATOM      9  C   UNL d   1      -1.871  -1.187   3.664  0.00  0.00     0.018 C 
ENDBRANCH   1   8
TORSDOF 1
ENDMDL
