MODEL 1
REMARK minimizedAffinity 8.31894207
REMARK minimizedRMSD -1
REMARK  1 active torsions:
REMARK  status: ('A' for Active; 'I' for Inactive)
REMARK    1  A    between atoms: C1_2  and  C2_3 
ROOT
ATOM      1  C2  UNL d   1      -0.053  -0.006  -1.145  0.00  0.00    -0.081 A 
ATOM      2  C3  UNL d   1      -1.451  -0.002  -1.067  0.00  0.00     0.006 A 
ATOM      3  C4  UNL d   1      -2.091   0.078   0.172  0.00  0.00     0.002 A 
ATOM      4  C5  UNL d   1      -1.344   0.162   1.352  0.00  0.00    -0.080 A 
ATOM      5  C6  UNL d   1      -2.018   0.279   2.687  0.00  0.00     0.076 C 
ATOM      6  C7  UNL d   1       0.053   0.140   1.276  0.00  0.00     0.002 A 
ATOM      7  C8  UNL d   1       0.693   0.060   0.037  0.00  0.00     0.006 A 
ENDROOT
BRANCH   1   8
ATOM      8  C1  UNL d   1       0.640  -0.026  -2.484  0.00  0.00     0.054 C 
ATOM      9  C   UNL d   1      -0.322   0.322  -3.610  0.00  0.00     0.018 C 
ENDBRANCH   1   8
TORSDOF 1
ENDMDL
