MODEL 1
REMARK minimizedAffinity 6.98368883
REMARK minimizedRMSD -1
REMARK  1 active torsions:
REMARK  status: ('A' for Active; 'I' for Inactive)
REMARK    1  A    between atoms: C1_2  and  C2_3 
ROOT
ATOM      1  C2  UNL d   1       1.210   1.204   0.693  0.00  0.00    -0.081 A 
ATOM      2  C3  UNL d   1       0.441   2.113   1.430  0.00  0.00     0.006 A 
ATOM      3  C4  UNL d   1      -0.878   1.809   1.775  0.00  0.00     0.002 A 
ATOM      4  C5  UNL d   1      -1.447   0.589   1.395  0.00  0.00    -0.080 A 
ATOM      5  C6  UNL d   1      -2.852   0.237   1.785  0.00  0.00     0.076 C 
ATOM      6  C7  UNL d   1      -0.686  -0.312   0.643  0.00  0.00     0.002 A 
ATOM      7  C8  UNL d   1       0.633  -0.008   0.298  0.00  0.00     0.006 A 
ENDROOT
BRANCH   1   8
ATOM      8  C1  UNL d   1       2.653   1.501   0.375  0.00  0.00     0.054 C 
ATOM      9  C   UNL d   1       3.124   2.769   1.073  0.00  0.00     0.018 C 
ENDBRANCH   1   8
TORSDOF 1
ENDMDL
