MODEL 1
REMARK minimizedAffinity 11.4497938
REMARK minimizedRMSD -1
REMARK  1 active torsions:
REMARK  status: ('A' for Active; 'I' for Inactive)
REMARK    1  A    between atoms: C1_2  and  C2_3 
ROOT
ATOM      1  C2  UNL d   1      -0.440  -0.157   1.655  0.00  0.00    -0.081 A 
ATOM      2  C3  UNL d   1      -0.386  -0.901   2.839  0.00  0.00     0.006 A 
ATOM      3  C4  UNL d   1      -1.556  -1.209   3.537  0.00  0.00     0.002 A 
ATOM      4  C5  UNL d   1      -2.800  -0.784   3.058  0.00  0.00    -0.080 A 
ATOM      5  C6  UNL d   1      -4.067  -1.133   3.782  0.00  0.00     0.076 C 
ATOM      6  C7  UNL d   1      -2.853  -0.026   1.884  0.00  0.00     0.002 A 
ATOM      7  C8  UNL d   1      -1.683   0.283   1.186  0.00  0.00     0.006 A 
ENDROOT
BRANCH   1   8
ATOM      8  C1  UNL d   1       0.814   0.121   0.865  0.00  0.00     0.054 C 
ATOM      9  C   UNL d   1       0.731  -0.475  -0.532  0.00  0.00     0.018 C 
ENDBRANCH   1   8
TORSDOF 1
ENDMDL
