MODEL 1
REMARK minimizedAffinity 17.9382668
REMARK minimizedRMSD -1
REMARK  1 active torsions:
REMARK  status: ('A' for Active; 'I' for Inactive)
REMARK    1  A    between atoms: C1_2  and  C2_3 
ROOT
ATOM      1  C2  UNL d   1       2.273   1.166  -1.979  0.00  0.00    -0.081 A 
ATOM      2  C3  UNL d   1       3.282   2.131  -1.866  0.00  0.00     0.006 A 
ATOM      3  C4  UNL d   1       3.597   2.684  -0.623  0.00  0.00     0.002 A 
ATOM      4  C5  UNL d   1       2.915   2.277   0.529  0.00  0.00    -0.080 A 
ATOM      5  C6  UNL d   1       3.264   2.841   1.874  0.00  0.00     0.076 C 
ATOM      6  C7  UNL d   1       1.895   1.326   0.414  0.00  0.00     0.002 A 
ATOM      7  C8  UNL d   1       1.579   0.773  -0.829  0.00  0.00     0.006 A 
ENDROOT
BRANCH   1   8
ATOM      8  C1  UNL d   1       1.976   0.520  -3.308  0.00  0.00     0.054 C 
ATOM      9  C   UNL d   1       0.674   1.043  -3.898  0.00  0.00     0.018 C 
ENDBRANCH   1   8
TORSDOF 1
ENDMDL
