MODEL 1
REMARK minimizedAffinity 1.51503003
REMARK minimizedRMSD -1
REMARK  1 active torsions:
REMARK  status: ('A' for Active; 'I' for Inactive)
REMARK    1  A    between atoms: C1_2  and  C2_3 
ROOT
ATOM      1  C2  UNL d   1       0.788   1.000  -2.189  0.00  0.00    -0.081 A 
ATOM      2  C3  UNL d   1       1.957   0.918  -1.422  0.00  0.00     0.006 A 
ATOM      3  C4  UNL d   1       1.898   0.541  -0.078  0.00  0.00     0.002 A 
ATOM      4  C5  UNL d   1       0.671   0.233   0.519  0.00  0.00    -0.080 A 
ATOM      5  C6  UNL d   1       0.597  -0.202   1.952  0.00  0.00     0.076 C 
ATOM      6  C7  UNL d   1      -0.499   0.332  -0.242  0.00  0.00     0.002 A 
ATOM      7  C8  UNL d   1      -0.441   0.709  -1.585  0.00  0.00     0.006 A 
ENDROOT
BRANCH   1   8
ATOM      8  C1  UNL d   1       0.855   1.343  -3.655  0.00  0.00     0.054 C 
ATOM      9  C   UNL d   1       0.031   0.373  -4.489  0.00  0.00     0.018 C 
ENDBRANCH   1   8
TORSDOF 1
ENDMDL
