MODEL 1
REMARK minimizedAffinity 7.68954802
REMARK minimizedRMSD -1
REMARK  1 active torsions:
REMARK  status: ('A' for Active; 'I' for Inactive)
REMARK    1  A    between atoms: C1_2  and  C2_3 
ROOT
ATOM      1  C2  UNL d   1      -1.847   0.059   1.016  0.00  0.00    -0.081 A 
ATOM      2  C3  UNL d   1      -0.462  -0.062   1.185  0.00  0.00     0.006 A 
ATOM      3  C4  UNL d   1       0.072  -0.413   2.427  0.00  0.00     0.002 A 
ATOM      4  C5  UNL d   1      -0.769  -0.657   3.518  0.00  0.00    -0.080 A 
ATOM      5  C6  UNL d   1      -0.210  -1.065   4.849  0.00  0.00     0.076 C 
ATOM      6  C7  UNL d   1      -2.152  -0.520   3.354  0.00  0.00     0.002 A 
ATOM      7  C8  UNL d   1      -2.686  -0.168   2.113  0.00  0.00     0.006 A 
ENDROOT
BRANCH   1   8
ATOM      8  C1  UNL d   1      -2.429   0.374  -0.338  0.00  0.00     0.054 C 
ATOM      9  C   UNL d   1      -3.313  -0.760  -0.838  0.00  0.00     0.018 C 
ENDBRANCH   1   8
TORSDOF 1
ENDMDL
