MODEL 1
REMARK minimizedAffinity -3.54215455
REMARK minimizedRMSD -1
REMARK  0 active torsions:
REMARK  status: ('A' for Active; 'I' for Inactive)
ROOT
ATOM      1  C   UNL d   1      -3.352   0.190  -0.957  0.00  0.00    -0.002 A 
ATOM      2  C1  UNL d   1      -3.305  -0.801   0.013  0.00  0.00     0.010 A 
ATOM      3  C2  UNL d   1      -2.085  -1.199   0.563  0.00  0.00     0.041 A 
ATOM      4  C3  UNL d   1      -0.902  -0.577   0.118  0.00  0.00    -0.075 A 
ATOM      5  S   UNL d   1       0.706  -0.901   0.650  0.00  0.00     0.015 SA
ATOM      6  C4  UNL d   1       1.368   0.270  -0.397  0.00  0.00     0.022 A 
ATOM      7  C5  UNL d   1       0.400   0.902  -1.142  0.00  0.00     0.026 A 
ATOM      8  C6  UNL d   1      -0.924   0.425  -0.857  0.00  0.00    -0.082 A 
ATOM      9  C7  UNL d   1      -2.176   0.805  -1.395  0.00  0.00     0.045 A 
ENDROOT
TORSDOF 0
ENDMDL
