MODEL 1
REMARK minimizedAffinity -1.7876054
REMARK minimizedRMSD -1
REMARK  0 active torsions:
REMARK  status: ('A' for Active; 'I' for Inactive)
ROOT
ATOM      1  C   UNL d   1      -1.139   0.702  -1.492  0.00  0.00    -0.002 A 
ATOM      2  C1  UNL d   1      -2.223  -0.114  -1.203  0.00  0.00     0.010 A 
ATOM      3  C2  UNL d   1      -2.095  -1.173  -0.302  0.00  0.00     0.041 A 
ATOM      4  C3  UNL d   1      -0.847  -1.399   0.311  0.00  0.00    -0.075 A 
ATOM      5  S   UNL d   1      -0.457  -2.636   1.447  0.00  0.00     0.015 SA
ATOM      6  C4  UNL d   1       1.159  -2.109   1.577  0.00  0.00     0.022 A 
ATOM      7  C5  UNL d   1       1.412  -1.018   0.780  0.00  0.00     0.026 A 
ATOM      8  C6  UNL d   1       0.259  -0.591   0.037  0.00  0.00    -0.082 A 
ATOM      9  C7  UNL d   1       0.098   0.474  -0.881  0.00  0.00     0.045 A 
ENDROOT
TORSDOF 0
ENDMDL
