MODEL 1
REMARK minimizedAffinity -2.48207831
REMARK minimizedRMSD -1
REMARK  0 active torsions:
REMARK  status: ('A' for Active; 'I' for Inactive)
ROOT
ATOM      1  C   UNL d   1      -2.639  -0.380  -1.167  0.00  0.00    -0.002 A 
ATOM      2  C1  UNL d   1      -2.597  -1.126   0.002  0.00  0.00     0.010 A 
ATOM      3  C2  UNL d   1      -1.434  -1.175   0.773  0.00  0.00     0.041 A 
ATOM      4  C3  UNL d   1      -0.303  -0.452   0.345  0.00  0.00    -0.075 A 
ATOM      5  S   UNL d   1       1.231  -0.363   1.129  0.00  0.00     0.015 SA
ATOM      6  C4  UNL d   1       1.866   0.669  -0.070  0.00  0.00     0.022 A 
ATOM      7  C5  UNL d   1       0.945   0.948  -1.051  0.00  0.00     0.026 A 
ATOM      8  C6  UNL d   1      -0.320   0.307  -0.828  0.00  0.00    -0.082 A 
ATOM      9  C7  UNL d   1      -1.515   0.335  -1.588  0.00  0.00     0.045 A 
ENDROOT
TORSDOF 0
ENDMDL
