MODEL 1
REMARK minimizedAffinity -0.531070352
REMARK minimizedRMSD -1
REMARK  0 active torsions:
REMARK  status: ('A' for Active; 'I' for Inactive)
ROOT
ATOM      1  C   UNL d   1      -3.146  -1.455  -0.701  0.00  0.00    -0.002 A 
ATOM      2  C1  UNL d   1      -2.722  -1.796   0.576  0.00  0.00     0.010 A 
ATOM      3  C2  UNL d   1      -1.481  -1.365   1.051  0.00  0.00     0.041 A 
ATOM      4  C3  UNL d   1      -0.668  -0.576   0.214  0.00  0.00    -0.075 A 
ATOM      5  S   UNL d   1       0.889   0.066   0.583  0.00  0.00     0.015 SA
ATOM      6  C4  UNL d   1       1.027   0.809  -0.945  0.00  0.00     0.022 A 
ATOM      7  C5  UNL d   1      -0.079   0.583  -1.730  0.00  0.00     0.026 A 
ATOM      8  C6  UNL d   1      -1.074  -0.219  -1.075  0.00  0.00    -0.082 A 
ATOM      9  C7  UNL d   1      -2.336  -0.672  -1.528  0.00  0.00     0.045 A 
ENDROOT
TORSDOF 0
ENDMDL
