MODEL 1
REMARK minimizedAffinity -3.47399211
REMARK minimizedRMSD -1
REMARK  0 active torsions:
REMARK  status: ('A' for Active; 'I' for Inactive)
ROOT
ATOM      1  C   UNL d   1      -1.124  -1.819   1.444  0.00  0.00    -0.002 A 
ATOM      2  C1  UNL d   1      -2.104  -1.180   0.699  0.00  0.00     0.010 A 
ATOM      3  C2  UNL d   1      -1.810  -0.014  -0.010  0.00  0.00     0.041 A 
ATOM      4  C3  UNL d   1      -0.501   0.504   0.042  0.00  0.00    -0.075 A 
ATOM      5  S   UNL d   1       0.089   1.919  -0.747  0.00  0.00     0.015 SA
ATOM      6  C4  UNL d   1       1.657   1.708  -0.113  0.00  0.00     0.022 A 
ATOM      7  C5  UNL d   1       1.746   0.591   0.683  0.00  0.00     0.026 A 
ATOM      8  C6  UNL d   1       0.504  -0.122   0.785  0.00  0.00    -0.082 A 
ATOM      9  C7  UNL d   1       0.174  -1.303   1.493  0.00  0.00     0.045 A 
ENDROOT
TORSDOF 0
ENDMDL
