MODEL 1
REMARK minimizedAffinity 2.55314732
REMARK minimizedRMSD -1
REMARK  0 active torsions:
REMARK  status: ('A' for Active; 'I' for Inactive)
ROOT
ATOM      1  C   UNL d   1       2.346   3.290   1.687  0.00  0.00    -0.002 A 
ATOM      2  C1  UNL d   1       3.026   3.185   0.482  0.00  0.00     0.010 A 
ATOM      3  C2  UNL d   1       2.687   2.194  -0.441  0.00  0.00     0.041 A 
ATOM      4  C3  UNL d   1       1.640   1.303  -0.131  0.00  0.00    -0.075 A 
ATOM      5  S   UNL d   1       1.050   0.012  -1.109  0.00  0.00     0.015 SA
ATOM      6  C4  UNL d   1      -0.120  -0.430   0.049  0.00  0.00     0.022 A 
ATOM      7  C5  UNL d   1      -0.075   0.378   1.161  0.00  0.00     0.026 A 
ATOM      8  C6  UNL d   1       0.940   1.390   1.075  0.00  0.00    -0.082 A 
ATOM      9  C7  UNL d   1       1.308   2.405   1.991  0.00  0.00     0.045 A 
ENDROOT
TORSDOF 0
ENDMDL
