MODEL 1
REMARK minimizedAffinity -4.53570271
REMARK minimizedRMSD -1
REMARK  0 active torsions:
REMARK  status: ('A' for Active; 'I' for Inactive)
ROOT
ATOM      1  C   UNL d   1      -1.908   0.373  -1.542  0.00  0.00    -0.002 A 
ATOM      2  C1  UNL d   1      -2.381  -0.545  -0.615  0.00  0.00     0.010 A 
ATOM      3  C2  UNL d   1      -1.521  -1.110   0.328  0.00  0.00     0.041 A 
ATOM      4  C3  UNL d   1      -0.163  -0.732   0.325  0.00  0.00    -0.075 A 
ATOM      5  S   UNL d   1       1.074  -1.293   1.386  0.00  0.00     0.015 SA
ATOM      6  C4  UNL d   1       2.260  -0.327   0.634  0.00  0.00     0.022 A 
ATOM      7  C5  UNL d   1       1.742   0.412  -0.404  0.00  0.00     0.026 A 
ATOM      8  C6  UNL d   1       0.337   0.191  -0.599  0.00  0.00    -0.082 A 
ATOM      9  C7  UNL d   1      -0.561   0.745  -1.543  0.00  0.00     0.045 A 
ENDROOT
TORSDOF 0
ENDMDL
