MODEL 1
REMARK minimizedAffinity -4.00030947
REMARK minimizedRMSD -1
REMARK  0 active torsions:
REMARK  status: ('A' for Active; 'I' for Inactive)
ROOT
ATOM      1  C   UNL d   1      -2.918  -0.720  -0.788  0.00  0.00    -0.002 A 
ATOM      2  C1  UNL d   1      -2.678  -1.008   0.548  0.00  0.00     0.010 A 
ATOM      3  C2  UNL d   1      -1.405  -0.833   1.094  0.00  0.00     0.041 A 
ATOM      4  C3  UNL d   1      -0.368  -0.358   0.268  0.00  0.00    -0.075 A 
ATOM      5  S   UNL d   1       1.270  -0.067   0.719  0.00  0.00     0.015 SA
ATOM      6  C4  UNL d   1       1.690   0.447  -0.850  0.00  0.00     0.022 A 
ATOM      7  C5  UNL d   1       0.619   0.403  -1.711  0.00  0.00     0.026 A 
ATOM      8  C6  UNL d   1      -0.585  -0.061  -1.081  0.00  0.00    -0.082 A 
ATOM      9  C7  UNL d   1      -1.886  -0.249  -1.605  0.00  0.00     0.045 A 
ENDROOT
TORSDOF 0
ENDMDL
