MODEL 1
REMARK minimizedAffinity -3.14926386
REMARK minimizedRMSD -1
REMARK  0 active torsions:
REMARK  status: ('A' for Active; 'I' for Inactive)
ROOT
ATOM      1  C   UNL d   1      -2.894  -0.341  -0.325  0.00  0.00    -0.002 A 
ATOM      2  C1  UNL d   1      -2.729  -0.647   1.018  0.00  0.00     0.010 A 
ATOM      3  C2  UNL d   1      -1.465  -0.600   1.608  0.00  0.00     0.041 A 
ATOM      4  C3  UNL d   1      -0.358  -0.234   0.817  0.00  0.00    -0.075 A 
ATOM      5  S   UNL d   1       1.285  -0.107   1.324  0.00  0.00     0.015 SA
ATOM      6  C4  UNL d   1       1.807   0.357  -0.231  0.00  0.00     0.022 A 
ATOM      7  C5  UNL d   1       0.767   0.419  -1.127  0.00  0.00     0.026 A 
ATOM      8  C6  UNL d   1      -0.498   0.080  -0.538  0.00  0.00    -0.082 A 
ATOM      9  C7  UNL d   1      -1.794   0.021  -1.106  0.00  0.00     0.045 A 
ENDROOT
TORSDOF 0
ENDMDL
