MODEL 1
REMARK minimizedAffinity -0.940657198
REMARK minimizedRMSD -1
REMARK  0 active torsions:
REMARK  status: ('A' for Active; 'I' for Inactive)
ROOT
ATOM      1  C   UNL d   1      -3.327  -1.318  -0.544  0.00  0.00    -0.002 A 
ATOM      2  C1  UNL d   1      -3.128  -1.063   0.806  0.00  0.00     0.010 A 
ATOM      3  C2  UNL d   1      -1.920  -0.529   1.257  0.00  0.00     0.041 A 
ATOM      4  C3  UNL d   1      -0.906  -0.249   0.320  0.00  0.00    -0.075 A 
ATOM      5  S   UNL d   1       0.655   0.408   0.642  0.00  0.00     0.015 SA
ATOM      6  C4  UNL d   1       1.094   0.369  -1.004  0.00  0.00     0.022 A 
ATOM      7  C5  UNL d   1       0.086  -0.132  -1.795  0.00  0.00     0.026 A 
ATOM      8  C6  UNL d   1      -1.083  -0.496  -1.045  0.00  0.00    -0.082 A 
ATOM      9  C7  UNL d   1      -2.319  -1.039  -1.471  0.00  0.00     0.045 A 
ENDROOT
TORSDOF 0
ENDMDL
