MODEL 1
REMARK minimizedAffinity -2.37620139
REMARK minimizedRMSD -1
REMARK  0 active torsions:
REMARK  status: ('A' for Active; 'I' for Inactive)
ROOT
ATOM      1  C   UNL d   1      -3.228  -0.969  -0.225  0.00  0.00    -0.002 A 
ATOM      2  C1  UNL d   1      -2.692  -0.109  -1.173  0.00  0.00     0.010 A 
ATOM      3  C2  UNL d   1      -1.336   0.223  -1.145  0.00  0.00     0.041 A 
ATOM      4  C3  UNL d   1      -0.519  -0.330  -0.139  0.00  0.00    -0.075 A 
ATOM      5  S   UNL d   1       1.169  -0.066   0.091  0.00  0.00     0.015 SA
ATOM      6  C4  UNL d   1       1.219  -1.089   1.453  0.00  0.00     0.022 A 
ATOM      7  C5  UNL d   1      -0.014  -1.627   1.740  0.00  0.00     0.026 A 
ATOM      8  C6  UNL d   1      -1.036  -1.199   0.826  0.00  0.00    -0.082 A 
ATOM      9  C7  UNL d   1      -2.414  -1.515   0.772  0.00  0.00     0.045 A 
ENDROOT
TORSDOF 0
ENDMDL
