MODEL 1
REMARK minimizedAffinity 4.3897028
REMARK minimizedRMSD -1
REMARK  0 active torsions:
REMARK  status: ('A' for Active; 'I' for Inactive)
ROOT
ATOM      1  C   UNL d   1      -0.844  -1.765   2.029  0.00  0.00    -0.002 A 
ATOM      2  C1  UNL d   1      -2.037  -1.202   1.596  0.00  0.00     0.010 A 
ATOM      3  C2  UNL d   1      -2.040  -0.226   0.597  0.00  0.00     0.041 A 
ATOM      4  C3  UNL d   1      -0.814   0.177   0.034  0.00  0.00    -0.075 A 
ATOM      5  S   UNL d   1      -0.575   1.355  -1.202  0.00  0.00     0.015 SA
ATOM      6  C4  UNL d   1       1.116   1.138  -1.186  0.00  0.00     0.022 A 
ATOM      7  C5  UNL d   1       1.506   0.194  -0.265  0.00  0.00     0.026 A 
ATOM      8  C6  UNL d   1       0.400  -0.376   0.452  0.00  0.00    -0.082 A 
ATOM      9  C7  UNL d   1       0.371  -1.362   1.468  0.00  0.00     0.045 A 
ENDROOT
TORSDOF 0
ENDMDL
