MODEL 1
REMARK minimizedAffinity -1.79632068
REMARK minimizedRMSD -1
REMARK  0 active torsions:
REMARK  status: ('A' for Active; 'I' for Inactive)
ROOT
ATOM      1  C   UNL d   1      -2.593  -0.372   0.056  0.00  0.00    -0.002 A 
ATOM      2  C1  UNL d   1      -2.184  -1.545   0.676  0.00  0.00     0.010 A 
ATOM      3  C2  UNL d   1      -0.864  -1.699   1.103  0.00  0.00     0.041 A 
ATOM      4  C3  UNL d   1       0.047  -0.645   0.897  0.00  0.00    -0.075 A 
ATOM      5  S   UNL d   1       1.714  -0.610   1.338  0.00  0.00     0.015 SA
ATOM      6  C4  UNL d   1       1.922   0.963   0.715  0.00  0.00     0.022 A 
ATOM      7  C5  UNL d   1       0.759   1.464   0.180  0.00  0.00     0.026 A 
ATOM      8  C6  UNL d   1      -0.341   0.546   0.276  0.00  0.00    -0.082 A 
ATOM      9  C7  UNL d   1      -1.686   0.672  -0.146  0.00  0.00     0.045 A 
ENDROOT
TORSDOF 0
ENDMDL
