MODEL 1
REMARK minimizedAffinity -2.35268879
REMARK minimizedRMSD -1
REMARK  0 active torsions:
REMARK  status: ('A' for Active; 'I' for Inactive)
ROOT
ATOM      1  C   UNL d   1       2.421   2.529   1.992  0.00  0.00    -0.002 A 
ATOM      2  C1  UNL d   1       2.762   2.682   0.656  0.00  0.00     0.010 A 
ATOM      3  C2  UNL d   1       2.151   1.901  -0.327  0.00  0.00     0.041 A 
ATOM      4  C3  UNL d   1       1.182   0.955   0.059  0.00  0.00    -0.075 A 
ATOM      5  S   UNL d   1       0.301  -0.111  -0.971  0.00  0.00     0.015 SA
ATOM      6  C4  UNL d   1      -0.548  -0.795   0.339  0.00  0.00     0.022 A 
ATOM      7  C5  UNL d   1      -0.182  -0.236   1.540  0.00  0.00     0.026 A 
ATOM      8  C6  UNL d   1       0.821   0.783   1.399  0.00  0.00    -0.082 A 
ATOM      9  C7  UNL d   1       1.459   1.589   2.372  0.00  0.00     0.045 A 
ENDROOT
TORSDOF 0
ENDMDL
