MODEL 1
REMARK minimizedAffinity 4.58091593
REMARK minimizedRMSD -1
REMARK  1 active torsions:
REMARK  status: ('A' for Active; 'I' for Inactive)
REMARK    1  A    between atoms: C1_2  and  C2_3 
ROOT
ATOM      1  C2  UNL d   1       0.159  -0.477  -0.379  0.00  0.00    -0.081 A 
ATOM      2  C3  UNL d   1       0.914   0.655  -0.049  0.00  0.00     0.006 A 
ATOM      3  C4  UNL d   1       2.254   0.527   0.325  0.00  0.00     0.002 A 
ATOM      4  C5  UNL d   1       2.862  -0.732   0.368  0.00  0.00    -0.080 A 
ATOM      5  C6  UNL d   1       4.308  -0.880   0.738  0.00  0.00     0.076 C 
ATOM      6  C7  UNL d   1       2.103  -1.864   0.055  0.00  0.00     0.002 A 
ATOM      7  C8  UNL d   1       0.763  -1.737  -0.319  0.00  0.00     0.006 A 
ENDROOT
BRANCH   1   8
ATOM      8  C1  UNL d   1      -1.268  -0.336  -0.845  0.00  0.00     0.054 C 
ATOM      9  C   UNL d   1      -2.237  -0.345   0.329  0.00  0.00     0.018 C 
ENDBRANCH   1   8
TORSDOF 1
ENDMDL
