MODEL 1
REMARK minimizedAffinity -3.59353971
REMARK minimizedRMSD -1
REMARK  1 active torsions:
REMARK  status: ('A' for Active; 'I' for Inactive)
REMARK    1  A    between atoms: C1_2  and  C2_3 
ROOT
ATOM      1  C2  UNL d   1      -1.892   0.365   0.434  0.00  0.00    -0.081 A 
ATOM      2  C3  UNL d   1      -0.927   0.958  -0.389  0.00  0.00     0.006 A 
ATOM      3  C4  UNL d   1       0.295   0.322  -0.620  0.00  0.00     0.002 A 
ATOM      4  C5  UNL d   1       0.570  -0.920  -0.038  0.00  0.00    -0.080 A 
ATOM      5  C6  UNL d   1       1.866  -1.628  -0.302  0.00  0.00     0.076 C 
ATOM      6  C7  UNL d   1      -0.387  -1.505   0.799  0.00  0.00     0.002 A 
ATOM      7  C8  UNL d   1      -1.609  -0.869   1.030  0.00  0.00     0.006 A 
ENDROOT
BRANCH   1   8
ATOM      8  C1  UNL d   1      -3.236   1.017   0.633  0.00  0.00     0.054 C 
ATOM      9  C   UNL d   1      -3.190   2.048   1.753  0.00  0.00     0.018 C 
ENDBRANCH   1   8
TORSDOF 1
ENDMDL
