MODEL 1
REMARK minimizedAffinity 0.337182641
REMARK minimizedRMSD -1
REMARK  1 active torsions:
REMARK  status: ('A' for Active; 'I' for Inactive)
REMARK    1  A    between atoms: C1_2  and  C2_3 
ROOT
ATOM      1  C2  UNL d   1      -0.200   1.362   0.548  0.00  0.00    -0.081 A 
ATOM      2  C3  UNL d   1      -0.716   0.311  -0.220  0.00  0.00     0.006 A 
ATOM      3  C4  UNL d   1      -2.028  -0.127  -0.028  0.00  0.00     0.002 A 
ATOM      4  C5  UNL d   1      -2.848   0.483   0.927  0.00  0.00    -0.080 A 
ATOM      5  C6  UNL d   1      -4.269   0.043   1.121  0.00  0.00     0.076 C 
ATOM      6  C7  UNL d   1      -2.327   1.522   1.706  0.00  0.00     0.002 A 
ATOM      7  C8  UNL d   1      -1.015   1.960   1.515  0.00  0.00     0.006 A 
ENDROOT
BRANCH   1   8
ATOM      8  C1  UNL d   1       1.194   1.880   0.299  0.00  0.00     0.054 C 
ATOM      9  C   UNL d   1       1.307   3.356   0.652  0.00  0.00     0.018 C 
ENDBRANCH   1   8
TORSDOF 1
ENDMDL
