MODEL 1
REMARK minimizedAffinity -2.5817349
REMARK minimizedRMSD -1
REMARK  1 active torsions:
REMARK  status: ('A' for Active; 'I' for Inactive)
REMARK    1  A    between atoms: C1_2  and  C2_3 
ROOT
ATOM      1  C2  UNL d   1       1.274   1.430   0.323  0.00  0.00    -0.081 A 
ATOM      2  C3  UNL d   1       1.717   0.112   0.495  0.00  0.00     0.006 A 
ATOM      3  C4  UNL d   1       0.864  -0.961   0.227  0.00  0.00     0.002 A 
ATOM      4  C5  UNL d   1      -0.440  -0.736  -0.225  0.00  0.00    -0.080 A 
ATOM      5  C6  UNL d   1      -1.356  -1.880  -0.546  0.00  0.00     0.076 C 
ATOM      6  C7  UNL d   1      -0.888   0.580  -0.380  0.00  0.00     0.002 A 
ATOM      7  C8  UNL d   1      -0.037   1.654  -0.111  0.00  0.00     0.006 A 
ENDROOT
BRANCH   1   8
ATOM      8  C1  UNL d   1       2.212   2.589   0.550  0.00  0.00     0.054 C 
ATOM      9  C   UNL d   1       3.614   2.272   0.051  0.00  0.00     0.018 C 
ENDBRANCH   1   8
TORSDOF 1
ENDMDL
