MODEL 1
REMARK minimizedAffinity -5.22366571
REMARK minimizedRMSD -1
REMARK  1 active torsions:
REMARK  status: ('A' for Active; 'I' for Inactive)
REMARK    1  A    between atoms: C1_2  and  C2_3 
ROOT
ATOM      1  C2  UNL d   1       2.089  -0.015   0.672  0.00  0.00    -0.081 A 
ATOM      2  C3  UNL d   1       2.301   1.342   0.946  0.00  0.00     0.006 A 
ATOM      3  C4  UNL d   1       3.394   2.014   0.393  0.00  0.00     0.002 A 
ATOM      4  C5  UNL d   1       4.287   1.343  -0.449  0.00  0.00    -0.080 A 
ATOM      5  C6  UNL d   1       5.447   2.060  -1.074  0.00  0.00     0.076 C 
ATOM      6  C7  UNL d   1       4.086  -0.017  -0.709  0.00  0.00     0.002 A 
ATOM      7  C8  UNL d   1       2.994  -0.689  -0.155  0.00  0.00     0.006 A 
ENDROOT
BRANCH   1   8
ATOM      8  C1  UNL d   1       0.876  -0.726   1.216  0.00  0.00     0.054 C 
ATOM      9  C   UNL d   1      -0.163  -0.957   0.128  0.00  0.00     0.018 C 
ENDBRANCH   1   8
TORSDOF 1
ENDMDL
