MODEL 1
REMARK minimizedAffinity 4.1596427
REMARK minimizedRMSD -1
REMARK  0 active torsions:
REMARK  status: ('A' for Active; 'I' for Inactive)
ROOT
ATOM      1  C4' PXY d   1       1.077  -0.553   2.595  0.00  0.00     0.077 C 
ATOM      2  C1' PXY d   1      -3.635   0.267  -0.651  0.00  0.00     0.077 C 
ATOM      3  C1  PXY d   1      -2.395   0.044   0.192  0.00  0.00    -0.082 A 
ATOM      4  C2  PXY d   1      -2.442   0.259   1.496  0.00  0.00     0.003 A 
ATOM      5  C3  PXY d   1      -1.321   0.093   2.268  0.00  0.00     0.003 A 
ATOM      6  C4  PXY d   1      -0.153  -0.349   1.707  0.00  0.00    -0.082 A 
ATOM      7  C5  PXY d   1      -0.099  -0.581   0.379  0.00  0.00     0.003 A 
ATOM      8  C6  PXY d   1      -1.237  -0.367  -0.394  0.00  0.00     0.003 A 
ENDROOT
TORSDOF 0
ENDMDL
