MODEL 1
REMARK minimizedAffinity 0.745311975
REMARK minimizedRMSD -1
REMARK  0 active torsions:
REMARK  status: ('A' for Active; 'I' for Inactive)
ROOT
ATOM      1  C4' PXY d   1       1.841   0.389   0.986  0.00  0.00     0.077 C 
ATOM      2  C1' PXY d   1      -3.096  -1.285   3.483  0.00  0.00     0.077 C 
ATOM      3  C1  PXY d   1      -1.796  -0.847   2.839  0.00  0.00    -0.082 A 
ATOM      4  C2  PXY d   1      -1.824  -0.162   1.708  0.00  0.00     0.003 A 
ATOM      5  C3  PXY d   1      -0.656   0.215   1.096  0.00  0.00     0.003 A 
ATOM      6  C4  PXY d   1       0.552  -0.066   1.676  0.00  0.00    -0.082 A 
ATOM      7  C5  PXY d   1       0.589  -0.755   2.836  0.00  0.00     0.003 A 
ATOM      8  C6  PXY d   1      -0.607  -1.164   3.420  0.00  0.00     0.003 A 
ENDROOT
TORSDOF 0
ENDMDL
