MODEL 1
REMARK minimizedAffinity -2.36800861
REMARK minimizedRMSD -1
REMARK  0 active torsions:
REMARK  status: ('A' for Active; 'I' for Inactive)
ROOT
ATOM      1  C4' PXY d   1      -2.140  -0.000   2.911  0.00  0.00     0.077 C 
ATOM      2  C1' PXY d   1       2.317   0.100  -0.769  0.00  0.00     0.077 C 
ATOM      3  C1  PXY d   1       1.142   0.083   0.189  0.00  0.00    -0.082 A 
ATOM      4  C2  PXY d   1       1.317  -0.339   1.431  0.00  0.00     0.003 A 
ATOM      5  C3  PXY d   1       0.258  -0.391   2.301  0.00  0.00     0.003 A 
ATOM      6  C4  PXY d   1      -0.981   0.043   1.912  0.00  0.00    -0.082 A 
ATOM      7  C5  PXY d   1      -1.165   0.485   0.650  0.00  0.00     0.003 A 
ATOM      8  C6  PXY d   1      -0.086   0.491  -0.230  0.00  0.00     0.003 A 
ENDROOT
TORSDOF 0
ENDMDL
