MODEL 1
REMARK minimizedAffinity 2.52911806
REMARK minimizedRMSD -1
REMARK  0 active torsions:
REMARK  status: ('A' for Active; 'I' for Inactive)
ROOT
ATOM      1  C4' PXY d   1      -2.329  -0.380  -0.669  0.00  0.00     0.077 C 
ATOM      2  C1' PXY d   1       3.337  -0.645   0.446  0.00  0.00     0.077 C 
ATOM      3  C1  PXY d   1       1.852  -0.562   0.154  0.00  0.00    -0.082 A 
ATOM      4  C2  PXY d   1       1.071  -1.592   0.439  0.00  0.00     0.003 A 
ATOM      5  C3  PXY d   1      -0.269  -1.547   0.152  0.00  0.00     0.003 A 
ATOM      6  C4  PXY d   1      -0.825  -0.415  -0.383  0.00  0.00    -0.082 A 
ATOM      7  C5  PXY d   1      -0.037   0.644  -0.666  0.00  0.00     0.003 A 
ATOM      8  C6  PXY d   1       1.328   0.562  -0.405  0.00  0.00     0.003 A 
ENDROOT
TORSDOF 0
ENDMDL
