MODEL 1
REMARK minimizedAffinity -1.40339458
REMARK minimizedRMSD -1
REMARK  0 active torsions:
REMARK  status: ('A' for Active; 'I' for Inactive)
ROOT
ATOM      1  C4' PXY d   1      -0.032  -1.360   4.585  0.00  0.00     0.077 C 
ATOM      2  C1' PXY d   1      -2.160   0.785  -0.343  0.00  0.00     0.077 C 
ATOM      3  C1  PXY d   1      -1.611   0.230   0.956  0.00  0.00    -0.082 A 
ATOM      4  C2  PXY d   1      -0.382  -0.259   0.990  0.00  0.00     0.003 A 
ATOM      5  C3  PXY d   1       0.120  -0.794   2.149  0.00  0.00     0.003 A 
ATOM      6  C4  PXY d   1      -0.625  -0.780   3.298  0.00  0.00    -0.082 A 
ATOM      7  C5  PXY d   1      -1.876  -0.273   3.273  0.00  0.00     0.003 A 
ATOM      8  C6  PXY d   1      -2.382   0.228   2.077  0.00  0.00     0.003 A 
ENDROOT
TORSDOF 0
ENDMDL
