MODEL 1
REMARK minimizedAffinity 1.65442002
REMARK minimizedRMSD -1
REMARK  0 active torsions:
REMARK  status: ('A' for Active; 'I' for Inactive)
ROOT
ATOM      1  C4' PXY d   1       2.261  -0.635   1.167  0.00  0.00     0.077 C 
ATOM      2  C1' PXY d   1      -3.371   0.002   0.032  0.00  0.00     0.077 C 
ATOM      3  C1  PXY d   1      -1.896  -0.161   0.342  0.00  0.00    -0.082 A 
ATOM      4  C2  PXY d   1      -1.015  -0.146  -0.645  0.00  0.00     0.003 A 
ATOM      5  C3  PXY d   1       0.320  -0.323  -0.386  0.00  0.00     0.003 A 
ATOM      6  C4  PXY d   1       0.762  -0.465   0.902  0.00  0.00    -0.082 A 
ATOM      7  C5  PXY d   1      -0.129  -0.471   1.915  0.00  0.00     0.003 A 
ATOM      8  C6  PXY d   1      -1.484  -0.330   1.627  0.00  0.00     0.003 A 
ENDROOT
TORSDOF 0
ENDMDL
