MODEL 1
REMARK minimizedAffinity 2.45635819
REMARK minimizedRMSD -1
REMARK  0 active torsions:
REMARK  status: ('A' for Active; 'I' for Inactive)
ROOT
ATOM      1  C4' PXY d   1       5.003   2.092  -1.530  0.00  0.00     0.077 C 
ATOM      2  C1' PXY d   1       0.602  -0.610   1.067  0.00  0.00     0.077 C 
ATOM      3  C1  PXY d   1       1.753   0.110   0.391  0.00  0.00    -0.082 A 
ATOM      4  C2  PXY d   1       2.277  -0.390  -0.716  0.00  0.00     0.003 A 
ATOM      5  C3  PXY d   1       3.339   0.231  -1.322  0.00  0.00     0.003 A 
ATOM      6  C4  PXY d   1       3.835   1.404  -0.819  0.00  0.00    -0.082 A 
ATOM      7  C5  PXY d   1       3.298   1.926   0.304  0.00  0.00     0.003 A 
ATOM      8  C6  PXY d   1       2.248   1.258   0.927  0.00  0.00     0.003 A 
ENDROOT
TORSDOF 0
ENDMDL
