MODEL 1
REMARK minimizedAffinity 0.629644871
REMARK minimizedRMSD -1
REMARK  0 active torsions:
REMARK  status: ('A' for Active; 'I' for Inactive)
ROOT
ATOM      1  C4' PXY d   1       6.000  -0.443   0.342  0.00  0.00     0.077 C 
ATOM      2  C1' PXY d   1       2.274   1.408  -3.672  0.00  0.00     0.077 C 
ATOM      3  C1  PXY d   1       3.246   0.931  -2.611  0.00  0.00    -0.082 A 
ATOM      4  C2  PXY d   1       4.367   0.330  -2.974  0.00  0.00     0.003 A 
ATOM      5  C3  PXY d   1       5.243  -0.136  -2.026  0.00  0.00     0.003 A 
ATOM      6  C4  PXY d   1       4.993   0.063  -0.695  0.00  0.00    -0.082 A 
ATOM      7  C5  PXY d   1       3.857   0.686  -0.317  0.00  0.00     0.003 A 
ATOM      8  C6  PXY d   1       2.961   1.114  -1.293  0.00  0.00     0.003 A 
ENDROOT
TORSDOF 0
ENDMDL
