MODEL 1
REMARK minimizedAffinity -1.97962308
REMARK minimizedRMSD -1
REMARK  0 active torsions:
REMARK  status: ('A' for Active; 'I' for Inactive)
ROOT
ATOM      1  C4' PXY d   1       0.315  -0.642   4.881  0.00  0.00     0.077 C 
ATOM      2  C1' PXY d   1      -1.965   0.113  -0.377  0.00  0.00     0.077 C 
ATOM      3  C1  PXY d   1      -1.376  -0.077   1.007  0.00  0.00    -0.082 A 
ATOM      4  C2  PXY d   1      -0.113  -0.452   1.134  0.00  0.00     0.003 A 
ATOM      5  C3  PXY d   1       0.426  -0.659   2.378  0.00  0.00     0.003 A 
ATOM      6  C4  PXY d   1      -0.319  -0.429   3.503  0.00  0.00    -0.082 A 
ATOM      7  C5  PXY d   1      -1.604  -0.036   3.382  0.00  0.00     0.003 A 
ATOM      8  C6  PXY d   1      -2.145   0.129   2.110  0.00  0.00     0.003 A 
ENDROOT
TORSDOF 0
ENDMDL
