MODEL 1
REMARK minimizedAffinity 10.6833544
REMARK minimizedRMSD -1
REMARK  0 active torsions:
REMARK  status: ('A' for Active; 'I' for Inactive)
ROOT
ATOM      1  C   UNL d   1      -1.484  -3.171   3.105  0.00  0.00    -0.002 A 
ATOM      2  C1  UNL d   1      -1.481  -1.783   3.078  0.00  0.00     0.010 A 
ATOM      3  C2  UNL d   1      -0.430  -1.087   2.478  0.00  0.00     0.041 A 
ATOM      4  C3  UNL d   1       0.628  -1.815   1.899  0.00  0.00    -0.075 A 
ATOM      5  S   UNL d   1       2.020  -1.175   1.108  0.00  0.00     0.015 SA
ATOM      6  C4  UNL d   1       2.643  -2.728   0.787  0.00  0.00     0.022 A 
ATOM      7  C5  UNL d   1       1.823  -3.722   1.265  0.00  0.00     0.026 A 
ATOM      8  C6  UNL d   1       0.647  -3.212   1.913  0.00  0.00    -0.082 A 
ATOM      9  C7  UNL d   1      -0.433  -3.890   2.529  0.00  0.00     0.045 A 
ENDROOT
TORSDOF 0
ENDMDL
