MODEL 1
REMARK minimizedAffinity 18.7241364
REMARK minimizedRMSD -1
REMARK  0 active torsions:
REMARK  status: ('A' for Active; 'I' for Inactive)
ROOT
ATOM      1  C   UNL d   1      -2.738  -1.440  -1.383  0.00  0.00    -0.002 A 
ATOM      2  C1  UNL d   1      -3.990  -1.261  -1.953  0.00  0.00     0.010 A 
ATOM      3  C2  UNL d   1      -4.297  -0.084  -2.639  0.00  0.00     0.041 A 
ATOM      4  C3  UNL d   1      -3.313   0.920  -2.744  0.00  0.00    -0.075 A 
ATOM      5  S   UNL d   1      -3.463   2.443  -3.537  0.00  0.00     0.015 SA
ATOM      6  C4  UNL d   1      -1.868   2.891  -3.138  0.00  0.00     0.022 A 
ATOM      7  C5  UNL d   1      -1.222   1.915  -2.417  0.00  0.00     0.026 A 
ATOM      8  C6  UNL d   1      -2.045   0.762  -2.179  0.00  0.00    -0.082 A 
ATOM      9  C7  UNL d   1      -1.765  -0.443  -1.489  0.00  0.00     0.045 A 
ENDROOT
TORSDOF 0
ENDMDL
