MODEL 1
REMARK minimizedAffinity 6.82352161
REMARK minimizedRMSD -1
REMARK  0 active torsions:
REMARK  status: ('A' for Active; 'I' for Inactive)
ROOT
ATOM      1  C   UNL d   1       5.999  -2.915   0.198  0.00  0.00    -0.002 A 
ATOM      2  C1  UNL d   1       4.982  -1.992   0.393  0.00  0.00     0.010 A 
ATOM      3  C2  UNL d   1       3.644  -2.386   0.336  0.00  0.00     0.041 A 
ATOM      4  C3  UNL d   1       3.342  -3.738   0.078  0.00  0.00    -0.075 A 
ATOM      5  S   UNL d   1       1.776  -4.451  -0.036  0.00  0.00     0.015 SA
ATOM      6  C4  UNL d   1       2.421  -5.998  -0.346  0.00  0.00     0.022 A 
ATOM      7  C5  UNL d   1       3.796  -5.989  -0.365  0.00  0.00     0.026 A 
ATOM      8  C6  UNL d   1       4.349  -4.687  -0.120  0.00  0.00    -0.082 A 
ATOM      9  C7  UNL d   1       5.696  -4.255  -0.057  0.00  0.00     0.045 A 
ENDROOT
TORSDOF 0
ENDMDL
