MODEL 1
REMARK minimizedAffinity -4.00532436
REMARK minimizedRMSD -1
REMARK  0 active torsions:
REMARK  status: ('A' for Active; 'I' for Inactive)
ROOT
ATOM      1  O1  BZF d   1      -1.994   0.847   2.323  0.00  0.00    -0.204 OA
ATOM      2  C2  BZF d   1      -1.101   1.597   3.064  0.00  0.00     0.174 A 
ATOM      3  C3  BZF d   1       0.145   1.497   2.556  0.00  0.00    -0.012 A 
ATOM      4  C3A BZF d   1       0.006   0.705   1.373  0.00  0.00    -0.107 A 
ATOM      5  C4  BZF d   1       0.888   0.270   0.425  0.00  0.00     0.055 A 
ATOM      6  C5  BZF d   1       0.444  -0.549  -0.564  0.00  0.00    -0.016 A 
ATOM      7  C6  BZF d   1      -0.872  -0.957  -0.633  0.00  0.00     0.022 A 
ATOM      8  C7  BZF d   1      -1.785  -0.548   0.282  0.00  0.00     0.029 A 
ATOM      9  C7A BZF d   1      -1.346   0.306   1.264  0.00  0.00     0.058 A 
ENDROOT
TORSDOF 0
ENDMDL
