MODEL 1
REMARK minimizedAffinity 2.83381367
REMARK minimizedRMSD -1
REMARK  0 active torsions:
REMARK  status: ('A' for Active; 'I' for Inactive)
ROOT
ATOM      1  O1  BZF d   1      -1.290  -0.641   0.751  0.00  0.00    -0.204 OA
ATOM      2  C2  BZF d   1      -1.875   0.461   1.344  0.00  0.00     0.174 A 
ATOM      3  C3  BZF d   1      -0.936   1.283   1.856  0.00  0.00    -0.012 A 
ATOM      4  C3A BZF d   1       0.317   0.701   1.485  0.00  0.00    -0.107 A 
ATOM      5  C4  BZF d   1       1.617   1.063   1.689  0.00  0.00     0.055 A 
ATOM      6  C5  BZF d   1       2.608   0.238   1.259  0.00  0.00    -0.016 A 
ATOM      7  C6  BZF d   1       2.334  -0.958   0.628  0.00  0.00     0.022 A 
ATOM      8  C7  BZF d   1       1.060  -1.357   0.398  0.00  0.00     0.029 A 
ATOM      9  C7A BZF d   1       0.057  -0.510   0.801  0.00  0.00     0.058 A 
ENDROOT
TORSDOF 0
ENDMDL
