MODEL 1
REMARK minimizedAffinity 8.83177662
REMARK minimizedRMSD -1
REMARK  0 active torsions:
REMARK  status: ('A' for Active; 'I' for Inactive)
ROOT
ATOM      1  O1  BZF d   1      -2.427  -0.596   4.435  0.00  0.00    -0.204 OA
ATOM      2  C2  BZF d   1      -3.528  -1.368   4.118  0.00  0.00     0.174 A 
ATOM      3  C3  BZF d   1      -3.717  -1.405   2.783  0.00  0.00    -0.012 A 
ATOM      4  C3A BZF d   1      -2.615  -0.683   2.227  0.00  0.00    -0.107 A 
ATOM      5  C4  BZF d   1      -2.236  -0.387   0.948  0.00  0.00     0.055 A 
ATOM      6  C5  BZF d   1      -1.146   0.400   0.748  0.00  0.00    -0.016 A 
ATOM      7  C6  BZF d   1      -0.416   0.911   1.801  0.00  0.00     0.022 A 
ATOM      8  C7  BZF d   1      -0.751   0.641   3.087  0.00  0.00     0.029 A 
ATOM      9  C7A BZF d   1      -1.832  -0.181   3.292  0.00  0.00     0.058 A 
ENDROOT
TORSDOF 0
ENDMDL
