MODEL 1
REMARK minimizedAffinity 10.6655121
REMARK minimizedRMSD -1
REMARK  0 active torsions:
REMARK  status: ('A' for Active; 'I' for Inactive)
ROOT
ATOM      1  O1  BZF d   1      -2.566   1.479   1.384  0.00  0.00    -0.204 OA
ATOM      2  C2  BZF d   1      -3.337   0.340   1.251  0.00  0.00     0.174 A 
ATOM      3  C3  BZF d   1      -2.813  -0.678   1.964  0.00  0.00    -0.012 A 
ATOM      4  C3A BZF d   1      -1.693  -0.118   2.654  0.00  0.00    -0.107 A 
ATOM      5  C4  BZF d   1      -0.779  -0.628   3.531  0.00  0.00     0.055 A 
ATOM      6  C5  BZF d   1       0.235   0.166   3.965  0.00  0.00    -0.016 A 
ATOM      7  C6  BZF d   1       0.368   1.471   3.540  0.00  0.00     0.022 A 
ATOM      8  C7  BZF d   1      -0.517   2.024   2.675  0.00  0.00     0.029 A 
ATOM      9  C7A BZF d   1      -1.561   1.234   2.260  0.00  0.00     0.058 A 
ENDROOT
TORSDOF 0
ENDMDL
