MODEL 1
REMARK minimizedAffinity 3.98803258
REMARK minimizedRMSD -1
REMARK  0 active torsions:
REMARK  status: ('A' for Active; 'I' for Inactive)
ROOT
ATOM      1  O1  BZF d   1       0.834   0.756  -3.833  0.00  0.00    -0.204 OA
ATOM      2  C2  BZF d   1       1.279   0.760  -5.141  0.00  0.00     0.174 A 
ATOM      3  C3  BZF d   1       2.598   0.484  -5.198  0.00  0.00    -0.012 A 
ATOM      4  C3A BZF d   1       2.983   0.205  -3.848  0.00  0.00    -0.107 A 
ATOM      5  C4  BZF d   1       4.165  -0.149  -3.263  0.00  0.00     0.055 A 
ATOM      6  C5  BZF d   1       4.221  -0.275  -1.911  0.00  0.00    -0.016 A 
ATOM      7  C6  BZF d   1       3.118  -0.050  -1.115  0.00  0.00     0.022 A 
ATOM      8  C7  BZF d   1       1.923   0.299  -1.650  0.00  0.00     0.029 A 
ATOM      9  C7A BZF d   1       1.854   0.395  -3.018  0.00  0.00     0.058 A 
ENDROOT
TORSDOF 0
ENDMDL
