MODEL 1
REMARK minimizedAffinity 1.05223739
REMARK minimizedRMSD -1
REMARK  0 active torsions:
REMARK  status: ('A' for Active; 'I' for Inactive)
ROOT
ATOM      1  O1  BZF d   1       3.252  -1.837  -1.236  0.00  0.00    -0.204 OA
ATOM      2  C2  BZF d   1       2.088  -2.270  -0.632  0.00  0.00     0.174 A 
ATOM      3  C3  BZF d   1       1.009  -1.718  -1.223  0.00  0.00    -0.012 A 
ATOM      4  C3A BZF d   1       1.527  -0.960  -2.320  0.00  0.00    -0.107 A 
ATOM      5  C4  BZF d   1       0.945  -0.197  -3.292  0.00  0.00     0.055 A 
ATOM      6  C5  BZF d   1       1.738   0.470  -4.171  0.00  0.00    -0.016 A 
ATOM      7  C6  BZF d   1       3.114   0.401  -4.105  0.00  0.00     0.022 A 
ATOM      8  C7  BZF d   1       3.737  -0.347  -3.161  0.00  0.00     0.029 A 
ATOM      9  C7A BZF d   1       2.938  -1.049  -2.292  0.00  0.00     0.058 A 
ENDROOT
TORSDOF 0
ENDMDL
