MODEL 1
REMARK minimizedAffinity 9.48057747
REMARK minimizedRMSD -1
REMARK  0 active torsions:
REMARK  status: ('A' for Active; 'I' for Inactive)
ROOT
ATOM      1  O1  BZF d   1      -0.075  -0.722  -2.964  0.00  0.00    -0.204 OA
ATOM      2  C2  BZF d   1      -0.419  -1.131  -4.238  0.00  0.00     0.174 A 
ATOM      3  C3  BZF d   1       0.371  -0.542  -5.159  0.00  0.00    -0.012 A 
ATOM      4  C3A BZF d   1       1.325   0.215  -4.408  0.00  0.00    -0.107 A 
ATOM      5  C4  BZF d   1       2.381   1.006  -4.758  0.00  0.00     0.055 A 
ATOM      6  C5  BZF d   1       3.067   1.662  -3.785  0.00  0.00    -0.016 A 
ATOM      7  C6  BZF d   1       2.720   1.554  -2.454  0.00  0.00     0.022 A 
ATOM      8  C7  BZF d   1       1.683   0.777  -2.057  0.00  0.00     0.029 A 
ATOM      9  C7A BZF d   1       1.009   0.087  -3.035  0.00  0.00     0.058 A 
ENDROOT
TORSDOF 0
ENDMDL
