MODEL 1
REMARK minimizedAffinity 10.5988865
REMARK minimizedRMSD -1
REMARK  0 active torsions:
REMARK  status: ('A' for Active; 'I' for Inactive)
ROOT
ATOM      1  O1  BZF d   1      -0.046   0.000  -3.804  0.00  0.00    -0.204 OA
ATOM      2  C2  BZF d   1      -0.090  -1.031  -4.721  0.00  0.00     0.174 A 
ATOM      3  C3  BZF d   1       1.156  -1.414  -5.070  0.00  0.00    -0.012 A 
ATOM      4  C3A BZF d   1       2.032  -0.631  -4.254  0.00  0.00    -0.107 A 
ATOM      5  C4  BZF d   1       3.391  -0.567  -4.128  0.00  0.00     0.055 A 
ATOM      6  C5  BZF d   1       3.934   0.357  -3.293  0.00  0.00    -0.016 A 
ATOM      7  C6  BZF d   1       3.150   1.235  -2.573  0.00  0.00     0.022 A 
ATOM      8  C7  BZF d   1       1.798   1.207  -2.662  0.00  0.00     0.029 A 
ATOM      9  C7A BZF d   1       1.245   0.252  -3.480  0.00  0.00     0.058 A 
ENDROOT
TORSDOF 0
ENDMDL
