MODEL 1
REMARK minimizedAffinity 8.0609436
REMARK minimizedRMSD -1
REMARK  0 active torsions:
REMARK  status: ('A' for Active; 'I' for Inactive)
ROOT
ATOM      1  O1  BZF d   1      -0.885  -5.625  -5.137  0.00  0.00    -0.204 OA
ATOM      2  C2  BZF d   1      -1.698  -4.539  -4.874  0.00  0.00     0.174 A 
ATOM      3  C3  BZF d   1      -0.998  -3.389  -4.944  0.00  0.00    -0.012 A 
ATOM      4  C3A BZF d   1       0.316  -3.773  -5.362  0.00  0.00    -0.107 A 
ATOM      5  C4  BZF d   1       1.459  -3.073  -5.624  0.00  0.00     0.055 A 
ATOM      6  C5  BZF d   1       2.592  -3.754  -5.941  0.00  0.00    -0.016 A 
ATOM      7  C6  BZF d   1       2.618  -5.132  -5.999  0.00  0.00     0.022 A 
ATOM      8  C7  BZF d   1       1.508  -5.869  -5.752  0.00  0.00     0.029 A 
ATOM      9  C7A BZF d   1       0.354  -5.182  -5.464  0.00  0.00     0.058 A 
ENDROOT
TORSDOF 0
ENDMDL
