MODEL 1
REMARK minimizedAffinity 7.99488449
REMARK minimizedRMSD -1
REMARK  0 active torsions:
REMARK  status: ('A' for Active; 'I' for Inactive)
ROOT
ATOM      1  O1  BZF d   1       0.522   0.140  -5.446  0.00  0.00    -0.204 OA
ATOM      2  C2  BZF d   1      -0.568  -0.399  -4.790  0.00  0.00     0.174 A 
ATOM      3  C3  BZF d   1      -0.284  -0.614  -3.489  0.00  0.00    -0.012 A 
ATOM      4  C3A BZF d   1       1.037  -0.096  -3.301  0.00  0.00    -0.107 A 
ATOM      5  C4  BZF d   1       1.864  -0.005  -2.218  0.00  0.00     0.055 A 
ATOM      6  C5  BZF d   1       3.120   0.487  -2.387  0.00  0.00    -0.016 A 
ATOM      7  C6  BZF d   1       3.582   0.891  -3.622  0.00  0.00     0.022 A 
ATOM      8  C7  BZF d   1       2.796   0.825  -4.724  0.00  0.00     0.029 A 
ATOM      9  C7A BZF d   1       1.515   0.359  -4.551  0.00  0.00     0.058 A 
ENDROOT
TORSDOF 0
ENDMDL
