MODEL 1
REMARK minimizedAffinity 12.5012674
REMARK minimizedRMSD -1
REMARK  0 active torsions:
REMARK  status: ('A' for Active; 'I' for Inactive)
ROOT
ATOM      1  O1  BZF d   1       1.043  -0.824   1.488  0.00  0.00    -0.204 OA
ATOM      2  C2  BZF d   1       2.265  -0.180   1.449  0.00  0.00     0.174 A 
ATOM      3  C3  BZF d   1       2.131   1.119   1.785  0.00  0.00    -0.012 A 
ATOM      4  C3A BZF d   1       0.754   1.277   2.139  0.00  0.00    -0.107 A 
ATOM      5  C4  BZF d   1       0.012   2.337   2.574  0.00  0.00     0.055 A 
ATOM      6  C5  BZF d   1      -1.325   2.176   2.760  0.00  0.00    -0.016 A 
ATOM      7  C6  BZF d   1      -1.952   0.972   2.517  0.00  0.00     0.022 A 
ATOM      8  C7  BZF d   1      -1.257  -0.110   2.089  0.00  0.00     0.029 A 
ATOM      9  C7A BZF d   1       0.100   0.041   1.932  0.00  0.00     0.058 A 
ENDROOT
TORSDOF 0
ENDMDL
