MODEL 1
REMARK minimizedAffinity 3.85891271
REMARK minimizedRMSD -1
REMARK  0 active torsions:
REMARK  status: ('A' for Active; 'I' for Inactive)
ROOT
ATOM      1  O1  BZF d   1       0.628  -1.100   0.260  0.00  0.00    -0.204 OA
ATOM      2  C2  BZF d   1       1.959  -0.830   0.515  0.00  0.00     0.174 A 
ATOM      3  C3  BZF d   1       2.082   0.082   1.500  0.00  0.00    -0.012 A 
ATOM      4  C3A BZF d   1       0.747   0.334   1.949  0.00  0.00    -0.107 A 
ATOM      5  C4  BZF d   1       0.219   1.137   2.919  0.00  0.00     0.055 A 
ATOM      6  C5  BZF d   1      -1.132   1.209   3.053  0.00  0.00    -0.016 A 
ATOM      7  C6  BZF d   1      -1.982   0.497   2.233  0.00  0.00     0.022 A 
ATOM      8  C7  BZF d   1      -1.504  -0.316   1.259  0.00  0.00     0.029 A 
ATOM      9  C7A BZF d   1      -0.139  -0.416   1.143  0.00  0.00     0.058 A 
ENDROOT
TORSDOF 0
ENDMDL
