MODEL 1
REMARK minimizedAffinity 6.11712217
REMARK minimizedRMSD -1
REMARK  0 active torsions:
REMARK  status: ('A' for Active; 'I' for Inactive)
ROOT
ATOM      1  O1  BZF d   1       0.497   0.318  -5.955  0.00  0.00    -0.204 OA
ATOM      2  C2  BZF d   1      -0.592  -0.456  -5.602  0.00  0.00     0.174 A 
ATOM      3  C3  BZF d   1      -0.560  -0.754  -4.287  0.00  0.00    -0.012 A 
ATOM      4  C3A BZF d   1       0.573  -0.049  -3.769  0.00  0.00    -0.107 A 
ATOM      5  C4  BZF d   1       1.117   0.065  -2.522  0.00  0.00     0.055 A 
ATOM      6  C5  BZF d   1       2.268   0.770  -2.366  0.00  0.00    -0.016 A 
ATOM      7  C6  BZF d   1       2.903   1.369  -3.434  0.00  0.00     0.022 A 
ATOM      8  C7  BZF d   1       2.398   1.288  -4.689  0.00  0.00     0.029 A 
ATOM      9  C7A BZF d   1       1.217   0.604  -4.845  0.00  0.00     0.058 A 
ENDROOT
TORSDOF 0
ENDMDL
