MODEL 1
REMARK minimizedAffinity 7.04498339
REMARK minimizedRMSD -1
REMARK  0 active torsions:
REMARK  status: ('A' for Active; 'I' for Inactive)
ROOT
ATOM      1  O1  BZF d   1       0.996  -0.967   0.973  0.00  0.00    -0.204 OA
ATOM      2  C2  BZF d   1       2.264  -0.419   0.995  0.00  0.00     0.174 A 
ATOM      3  C3  BZF d   1       2.274   0.739   1.686  0.00  0.00    -0.012 A 
ATOM      4  C3A BZF d   1       0.947   0.880   2.202  0.00  0.00    -0.107 A 
ATOM      5  C4  BZF d   1       0.338   1.820   2.983  0.00  0.00     0.055 A 
ATOM      6  C5  BZF d   1      -0.990   1.700   3.247  0.00  0.00    -0.016 A 
ATOM      7  C6  BZF d   1      -1.739   0.657   2.743  0.00  0.00     0.022 A 
ATOM      8  C7  BZF d   1      -1.178  -0.303   1.969  0.00  0.00     0.029 A 
ATOM      9  C7A BZF d   1       0.170  -0.203   1.727  0.00  0.00     0.058 A 
ENDROOT
TORSDOF 0
ENDMDL
