MODEL 1
REMARK minimizedAffinity 13.1085958
REMARK minimizedRMSD -1
REMARK  1 active torsions:
REMARK  status: ('A' for Active; 'I' for Inactive)
REMARK    1  A    between atoms: C1_2  and  C2_3 
ROOT
ATOM      1  C2  UNL d   1      -3.217   2.592  -3.661  0.00  0.00    -0.073 A 
ATOM      2  C3  UNL d   1      -1.963   2.100  -4.040  0.00  0.00    -0.002 A 
ATOM      3  C4  UNL d   1      -1.342   1.099  -3.293  0.00  0.00     0.004 A 
ATOM      4  C5  UNL d   1      -1.971   0.574  -2.163  0.00  0.00    -0.004 A 
ATOM      5  C6  UNL d   1      -3.230   1.044  -1.775  0.00  0.00    -0.075 A 
ATOM      6  C7  UNL d   1      -3.919   0.492  -0.561  0.00  0.00     0.076 C 
ATOM      7  C8  UNL d   1      -3.845   2.052  -2.529  0.00  0.00     0.001 A 
ENDROOT
BRANCH   1   8
ATOM      8  C1  UNL d   1      -3.894   3.669  -4.469  0.00  0.00     0.053 C 
ATOM      9  C   UNL d   1      -4.966   3.104  -5.387  0.00  0.00     0.018 C 
ENDBRANCH   1   8
TORSDOF 1
ENDMDL
