MODEL 1
REMARK minimizedAffinity 20.4507332
REMARK minimizedRMSD -1
REMARK  1 active torsions:
REMARK  status: ('A' for Active; 'I' for Inactive)
REMARK    1  A    between atoms: C1_2  and  C2_3 
ROOT
ATOM      1  C2  UNL d   1      -4.224   1.223   2.968  0.00  0.00    -0.073 A 
ATOM      2  C3  UNL d   1      -3.397   1.598   4.033  0.00  0.00    -0.002 A 
ATOM      3  C4  UNL d   1      -2.235   0.877   4.311  0.00  0.00     0.004 A 
ATOM      4  C5  UNL d   1      -1.883  -0.218   3.522  0.00  0.00    -0.004 A 
ATOM      5  C6  UNL d   1      -2.690  -0.601   2.446  0.00  0.00    -0.075 A 
ATOM      6  C7  UNL d   1      -2.327  -1.778   1.590  0.00  0.00     0.076 C 
ATOM      7  C8  UNL d   1      -3.857   0.126   2.176  0.00  0.00     0.001 A 
ENDROOT
BRANCH   1   8
ATOM      8  C1  UNL d   1      -5.477   2.002   2.661  0.00  0.00     0.053 C 
ATOM      9  C   UNL d   1      -5.516   2.472   1.215  0.00  0.00     0.018 C 
ENDBRANCH   1   8
TORSDOF 1
ENDMDL
