MODEL 1
REMARK minimizedAffinity 0.286243647
REMARK minimizedRMSD -1
REMARK  1 active torsions:
REMARK  status: ('A' for Active; 'I' for Inactive)
REMARK    1  A    between atoms: C1_2  and  C2_3 
ROOT
ATOM      1  C2  UNL d   1       2.533  -4.116  -0.114  0.00  0.00    -0.073 A 
ATOM      2  C3  UNL d   1       3.086  -5.305  -0.604  0.00  0.00    -0.002 A 
ATOM      3  C4  UNL d   1       4.468  -5.429  -0.756  0.00  0.00     0.004 A 
ATOM      4  C5  UNL d   1       5.310  -4.371  -0.414  0.00  0.00    -0.004 A 
ATOM      5  C6  UNL d   1       4.777  -3.180   0.088  0.00  0.00    -0.075 A 
ATOM      6  C7  UNL d   1       5.668  -2.031   0.459  0.00  0.00     0.076 C 
ATOM      7  C8  UNL d   1       3.388  -3.062   0.236  0.00  0.00     0.001 A 
ENDROOT
BRANCH   1   8
ATOM      8  C1  UNL d   1       1.042  -3.980   0.057  0.00  0.00     0.053 C 
ATOM      9  C   UNL d   1       0.655  -2.618   0.612  0.00  0.00     0.018 C 
ENDBRANCH   1   8
TORSDOF 1
ENDMDL
