MODEL 1
REMARK minimizedAffinity 11.4013243
REMARK minimizedRMSD -1
REMARK  1 active torsions:
REMARK  status: ('A' for Active; 'I' for Inactive)
REMARK    1  A    between atoms: C1_2  and  C2_3 
ROOT
ATOM      1  C2  UNL d   1      -2.939  -1.281   1.235  0.00  0.00    -0.073 A 
ATOM      2  C3  UNL d   1      -1.802  -1.843   1.828  0.00  0.00    -0.002 A 
ATOM      3  C4  UNL d   1      -1.303  -1.327   3.025  0.00  0.00     0.004 A 
ATOM      4  C5  UNL d   1      -1.938  -0.251   3.644  0.00  0.00    -0.004 A 
ATOM      5  C6  UNL d   1      -3.082   0.317   3.073  0.00  0.00    -0.075 A 
ATOM      6  C7  UNL d   1      -3.776   1.476   3.726  0.00  0.00     0.076 C 
ATOM      7  C8  UNL d   1      -3.576  -0.205   1.870  0.00  0.00     0.001 A 
ENDROOT
BRANCH   1   8
ATOM      8  C1  UNL d   1      -3.485  -1.839  -0.054  0.00  0.00     0.053 C 
ATOM      9  C   UNL d   1      -3.152  -0.954  -1.244  0.00  0.00     0.018 C 
ENDBRANCH   1   8
TORSDOF 1
ENDMDL
