MODEL 1
REMARK minimizedAffinity 5.62926102
REMARK minimizedRMSD -1
REMARK  3 active torsions:
REMARK  status: ('A' for Active; 'I' for Inactive)
REMARK    1  A    between atoms: C3'_2  and  C2'_3 
REMARK    2  A    between atoms: C2'_3  and  C1'_4 
REMARK    3  A    between atoms: C1'_4  and  C1_5 
ROOT
ATOM      1  C1  N4B d   1       3.210  -2.545   5.917  0.00  0.00    -0.075 A 
ATOM      2  C2  N4B d   1       4.405  -1.793   5.949  0.00  0.00     0.002 A 
ATOM      3  C3  N4B d   1       5.620  -2.433   5.955  0.00  0.00     0.002 A 
ATOM      4  C4  N4B d   1       5.664  -3.819   5.949  0.00  0.00    -0.004 A 
ATOM      5  C5  N4B d   1       4.506  -4.538   5.892  0.00  0.00     0.002 A 
ATOM      6  C6  N4B d   1       3.279  -3.908   5.882  0.00  0.00     0.002 A 
ENDROOT
BRANCH   1   7
ATOM      7  C1' N4B d   1       1.858  -1.892   5.996  0.00  0.00     0.057 C 
BRANCH   7   8
ATOM      8  C2' N4B d   1       1.432  -1.451   4.598  0.00  0.00     0.009 C 
BRANCH   8   9
ATOM      9  C3' N4B d   1       1.422  -2.610   3.616  0.00  0.00     0.004 C 
ATOM     10  C4' N4B d   1       0.760  -2.263   2.316  0.00  0.00     0.003 C 
ENDBRANCH   8   9
ENDBRANCH   7   8
ENDBRANCH   1   7
TORSDOF 3
ENDMDL
