MODEL 1
REMARK minimizedAffinity 5.75082302
REMARK minimizedRMSD -1
REMARK  3 active torsions:
REMARK  status: ('A' for Active; 'I' for Inactive)
REMARK    1  A    between atoms: C3'_2  and  C2'_3 
REMARK    2  A    between atoms: C2'_3  and  C1'_4 
REMARK    3  A    between atoms: C1'_4  and  C1_5 
ROOT
ATOM      1  C1  N4B d   1       0.732   1.566   0.115  0.00  0.00    -0.075 A 
ATOM      2  C2  N4B d   1       1.407   2.785   0.344  0.00  0.00     0.002 A 
ATOM      3  C3  N4B d   1       0.702   3.963   0.385  0.00  0.00     0.002 A 
ATOM      4  C4  N4B d   1      -0.670   3.948   0.182  0.00  0.00    -0.004 A 
ATOM      5  C5  N4B d   1      -1.318   2.764  -0.013  0.00  0.00     0.002 A 
ATOM      6  C6  N4B d   1      -0.622   1.572  -0.053  0.00  0.00     0.002 A 
ENDROOT
BRANCH   1   7
ATOM      7  C1' N4B d   1       1.471   0.263  -0.024  0.00  0.00     0.057 C 
BRANCH   7   8
ATOM      8  C2' N4B d   1       1.686  -0.341   1.361  0.00  0.00     0.009 C 
BRANCH   8   9
ATOM      9  C3' N4B d   1       1.452  -1.842   1.369  0.00  0.00     0.004 C 
ATOM     10  C4' N4B d   1       0.228  -2.234   2.141  0.00  0.00     0.003 C 
ENDBRANCH   8   9
ENDBRANCH   7   8
ENDBRANCH   1   7
TORSDOF 3
ENDMDL
