MODEL 1
REMARK minimizedAffinity 13.1719198
REMARK minimizedRMSD -1
REMARK  3 active torsions:
REMARK  status: ('A' for Active; 'I' for Inactive)
REMARK    1  A    between atoms: C3'_2  and  C2'_3 
REMARK    2  A    between atoms: C2'_3  and  C1'_4 
REMARK    3  A    between atoms: C1'_4  and  C1_5 
ROOT
ATOM      1  C1  N4B d   1      -3.507   4.885  -4.112  0.00  0.00    -0.075 A 
ATOM      2  C2  N4B d   1      -4.674   5.268  -3.415  0.00  0.00     0.002 A 
ATOM      3  C3  N4B d   1      -5.909   5.073  -3.984  0.00  0.00     0.002 A 
ATOM      4  C4  N4B d   1      -6.000   4.518  -5.251  0.00  0.00    -0.004 A 
ATOM      5  C5  N4B d   1      -4.869   4.128  -5.908  0.00  0.00     0.002 A 
ATOM      6  C6  N4B d   1      -3.622   4.314  -5.346  0.00  0.00     0.002 A 
ENDROOT
BRANCH   1   7
ATOM      7  C1' N4B d   1      -2.132   5.157  -3.567  0.00  0.00     0.057 C 
BRANCH   7   8
ATOM      8  C2' N4B d   1      -2.028   4.580  -2.158  0.00  0.00     0.009 C 
BRANCH   8   9
ATOM      9  C3' N4B d   1      -0.913   5.231  -1.358  0.00  0.00     0.004 C 
ATOM     10  C4' N4B d   1      -0.023   4.230  -0.683  0.00  0.00     0.003 C 
ENDBRANCH   8   9
ENDBRANCH   7   8
ENDBRANCH   1   7
TORSDOF 3
ENDMDL
