MODEL 1
REMARK minimizedAffinity 5.7690773
REMARK minimizedRMSD -1
REMARK  3 active torsions:
REMARK  status: ('A' for Active; 'I' for Inactive)
REMARK    1  A    between atoms: C3'_2  and  C2'_3 
REMARK    2  A    between atoms: C2'_3  and  C1'_4 
REMARK    3  A    between atoms: C1'_4  and  C1_5 
ROOT
ATOM      1  C1  N4B d   1      -5.175   3.031  -3.267  0.00  0.00    -0.075 A 
ATOM      2  C2  N4B d   1      -3.779   3.050  -3.055  0.00  0.00     0.002 A 
ATOM      3  C3  N4B d   1      -3.052   4.173  -3.367  0.00  0.00     0.002 A 
ATOM      4  C4  N4B d   1      -3.695   5.277  -3.907  0.00  0.00    -0.004 A 
ATOM      5  C5  N4B d   1      -5.047   5.260  -4.085  0.00  0.00     0.002 A 
ATOM      6  C6  N4B d   1      -5.790   4.140  -3.772  0.00  0.00     0.002 A 
ENDROOT
BRANCH   1   7
ATOM      7  C1' N4B d   1      -5.998   1.796  -3.021  0.00  0.00     0.057 C 
BRANCH   7   8
ATOM      8  C2' N4B d   1      -5.243   0.871  -2.072  0.00  0.00     0.009 C 
BRANCH   8   9
ATOM      9  C3' N4B d   1      -4.887  -0.451  -2.730  0.00  0.00     0.004 C 
ATOM     10  C4' N4B d   1      -3.576  -0.404  -3.455  0.00  0.00     0.003 C 
ENDBRANCH   8   9
ENDBRANCH   7   8
ENDBRANCH   1   7
TORSDOF 3
ENDMDL
