MODEL 1
REMARK minimizedAffinity -5.94235229
REMARK minimizedRMSD -1
REMARK  0 active torsions:
REMARK  status: ('A' for Active; 'I' for Inactive)
ROOT
ATOM      1  O1  BZF d   1       0.373  -1.290   0.681  0.00  0.00    -0.204 OA
ATOM      2  C2  BZF d   1       0.009   0.009   0.981  0.00  0.00     0.174 A 
ATOM      3  C3  BZF d   1       0.393   0.852   0.001  0.00  0.00    -0.012 A 
ATOM      4  C3A BZF d   1       0.956   0.017  -1.015  0.00  0.00    -0.107 A 
ATOM      5  C4  BZF d   1       1.499   0.268  -2.243  0.00  0.00     0.055 A 
ATOM      6  C5  BZF d   1       2.026  -0.762  -2.955  0.00  0.00    -0.016 A 
ATOM      7  C6  BZF d   1       2.031  -2.053  -2.469  0.00  0.00     0.022 A 
ATOM      8  C7  BZF d   1       1.499  -2.352  -1.259  0.00  0.00     0.029 A 
ATOM      9  C7A BZF d   1       0.937  -1.319  -0.551  0.00  0.00     0.058 A 
ENDROOT
TORSDOF 0
ENDMDL
