MODEL 1
REMARK minimizedAffinity -1.99405718
REMARK minimizedRMSD -1
REMARK  0 active torsions:
REMARK  status: ('A' for Active; 'I' for Inactive)
ROOT
ATOM      1  O1  BZF d   1       2.806  -1.636  -1.586  0.00  0.00    -0.204 OA
ATOM      2  C2  BZF d   1       3.411  -0.576  -2.234  0.00  0.00     0.174 A 
ATOM      3  C3  BZF d   1       2.774   0.580  -1.958  0.00  0.00    -0.012 A 
ATOM      4  C3A BZF d   1       1.761   0.233  -1.009  0.00  0.00    -0.107 A 
ATOM      5  C4  BZF d   1       0.811   0.955  -0.343  0.00  0.00     0.055 A 
ATOM      6  C5  BZF d   1      -0.072   0.304   0.459  0.00  0.00    -0.016 A 
ATOM      7  C6  BZF d   1      -0.038  -1.066   0.614  0.00  0.00     0.022 A 
ATOM      8  C7  BZF d   1       0.889  -1.824  -0.022  0.00  0.00     0.029 A 
ATOM      9  C7A BZF d   1       1.803  -1.166  -0.807  0.00  0.00     0.058 A 
ENDROOT
TORSDOF 0
ENDMDL
