MODEL 1
REMARK minimizedAffinity -2.50374484
REMARK minimizedRMSD -1
REMARK  0 active torsions:
REMARK  status: ('A' for Active; 'I' for Inactive)
ROOT
ATOM      1  O1  BZF d   1      -0.860  -1.069   0.009  0.00  0.00    -0.204 OA
ATOM      2  C2  BZF d   1      -1.342  -0.302   1.052  0.00  0.00     0.174 A 
ATOM      3  C3  BZF d   1      -0.692   0.878   1.119  0.00  0.00    -0.012 A 
ATOM      4  C3A BZF d   1       0.193   0.884  -0.005  0.00  0.00    -0.107 A 
ATOM      5  C4  BZF d   1       1.092   1.792  -0.487  0.00  0.00     0.055 A 
ATOM      6  C5  BZF d   1       1.851   1.462  -1.565  0.00  0.00    -0.016 A 
ATOM      7  C6  BZF d   1       1.742   0.232  -2.180  0.00  0.00     0.022 A 
ATOM      8  C7  BZF d   1       0.861  -0.699  -1.741  0.00  0.00     0.029 A 
ATOM      9  C7A BZF d   1       0.069  -0.356  -0.673  0.00  0.00     0.058 A 
ENDROOT
TORSDOF 0
ENDMDL
