MODEL 1
REMARK minimizedAffinity -2.22602272
REMARK minimizedRMSD -1
REMARK  0 active torsions:
REMARK  status: ('A' for Active; 'I' for Inactive)
ROOT
ATOM      1  O1  BZF d   1      -0.759  -0.244   0.452  0.00  0.00    -0.204 OA
ATOM      2  C2  BZF d   1      -0.414   0.746   1.351  0.00  0.00     0.174 A 
ATOM      3  C3  BZF d   1       0.741   1.341   0.989  0.00  0.00    -0.012 A 
ATOM      4  C3A BZF d   1       1.095   0.743  -0.262  0.00  0.00    -0.107 A 
ATOM      5  C4  BZF d   1       2.133   0.928  -1.130  0.00  0.00     0.055 A 
ATOM      6  C5  BZF d   1       2.226   0.131  -2.227  0.00  0.00    -0.016 A 
ATOM      7  C6  BZF d   1       1.303  -0.861  -2.484  0.00  0.00     0.022 A 
ATOM      8  C7  BZF d   1       0.253  -1.078  -1.655  0.00  0.00     0.029 A 
ATOM      9  C7A BZF d   1       0.138  -0.254  -0.563  0.00  0.00     0.058 A 
ENDROOT
TORSDOF 0
ENDMDL
