MODEL 1
REMARK minimizedAffinity -4.89321852
REMARK minimizedRMSD -1
REMARK  0 active torsions:
REMARK  status: ('A' for Active; 'I' for Inactive)
ROOT
ATOM      1  O1  BZF d   1       0.022  -1.069   0.374  0.00  0.00    -0.204 OA
ATOM      2  C2  BZF d   1      -0.062   0.299   0.547  0.00  0.00     0.174 A 
ATOM      3  C3  BZF d   1       0.629   0.945  -0.414  0.00  0.00    -0.012 A 
ATOM      4  C3A BZF d   1       1.102  -0.080  -1.292  0.00  0.00    -0.107 A 
ATOM      5  C4  BZF d   1       1.837  -0.066  -2.443  0.00  0.00     0.055 A 
ATOM      6  C5  BZF d   1       2.191  -1.246  -3.016  0.00  0.00    -0.016 A 
ATOM      7  C6  BZF d   1       1.832  -2.458  -2.463  0.00  0.00     0.022 A 
ATOM      8  C7  BZF d   1       1.098  -2.523  -1.325  0.00  0.00     0.029 A 
ATOM      9  C7A BZF d   1       0.711  -1.332  -0.762  0.00  0.00     0.058 A 
ENDROOT
TORSDOF 0
ENDMDL
