MODEL 1
REMARK minimizedAffinity -3.32322264
REMARK minimizedRMSD -1
REMARK  0 active torsions:
REMARK  status: ('A' for Active; 'I' for Inactive)
ROOT
ATOM      1  O1  BZF d   1       1.406   0.773   1.112  0.00  0.00    -0.204 OA
ATOM      2  C2  BZF d   1       0.503   0.007   1.823  0.00  0.00     0.174 A 
ATOM      3  C3  BZF d   1      -0.184  -0.811   1.000  0.00  0.00    -0.012 A 
ATOM      4  C3A BZF d   1       0.387  -0.606  -0.296  0.00  0.00    -0.107 A 
ATOM      5  C4  BZF d   1       0.140  -1.144  -1.527  0.00  0.00     0.055 A 
ATOM      6  C5  BZF d   1       0.824  -0.674  -2.603  0.00  0.00    -0.016 A 
ATOM      7  C6  BZF d   1       1.757   0.335  -2.485  0.00  0.00     0.022 A 
ATOM      8  C7  BZF d   1       2.039   0.897  -1.285  0.00  0.00     0.029 A 
ATOM      9  C7A BZF d   1       1.373   0.401  -0.191  0.00  0.00     0.058 A 
ENDROOT
TORSDOF 0
ENDMDL
