MODEL 1
REMARK minimizedAffinity -5.67714214
REMARK minimizedRMSD -1
REMARK  0 active torsions:
REMARK  status: ('A' for Active; 'I' for Inactive)
ROOT
ATOM      1  O1  BZF d   1       0.007  -1.029   0.158  0.00  0.00    -0.204 OA
ATOM      2  C2  BZF d   1      -0.050   0.292   0.559  0.00  0.00     0.174 A 
ATOM      3  C3  BZF d   1       0.717   1.067  -0.235  0.00  0.00    -0.012 A 
ATOM      4  C3A BZF d   1       1.217   0.188  -1.248  0.00  0.00    -0.107 A 
ATOM      5  C4  BZF d   1       2.024   0.371  -2.334  0.00  0.00     0.055 A 
ATOM      6  C5  BZF d   1       2.382  -0.707  -3.080  0.00  0.00    -0.016 A 
ATOM      7  C6  BZF d   1       1.956  -1.981  -2.766  0.00  0.00     0.022 A 
ATOM      8  C7  BZF d   1       1.150  -2.211  -1.701  0.00  0.00     0.029 A 
ATOM      9  C7A BZF d   1       0.760  -1.119  -0.964  0.00  0.00     0.058 A 
ENDROOT
TORSDOF 0
ENDMDL
