MODEL 1
REMARK minimizedAffinity -3.42918587
REMARK minimizedRMSD -1
REMARK  0 active torsions:
REMARK  status: ('A' for Active; 'I' for Inactive)
ROOT
ATOM      1  O1  BZF d   1       1.854   1.255  -1.485  0.00  0.00    -0.204 OA
ATOM      2  C2  BZF d   1       1.901   0.493  -2.637  0.00  0.00     0.174 A 
ATOM      3  C3  BZF d   1       1.222  -0.660  -2.476  0.00  0.00    -0.012 A 
ATOM      4  C3A BZF d   1       0.640  -0.576  -1.171  0.00  0.00    -0.107 A 
ATOM      5  C4  BZF d   1      -0.161  -1.409  -0.445  0.00  0.00     0.055 A 
ATOM      6  C5  BZF d   1      -0.493  -1.063   0.827  0.00  0.00    -0.016 A 
ATOM      7  C6  BZF d   1      -0.038   0.104   1.405  0.00  0.00     0.022 A 
ATOM      8  C7  BZF d   1       0.756   0.964   0.721  0.00  0.00     0.029 A 
ATOM      9  C7A BZF d   1       1.066   0.634  -0.575  0.00  0.00     0.058 A 
ENDROOT
TORSDOF 0
ENDMDL
