MODEL 1
REMARK minimizedAffinity -2.60960817
REMARK minimizedRMSD -1
REMARK  0 active torsions:
REMARK  status: ('A' for Active; 'I' for Inactive)
ROOT
ATOM      1  O1  BZF d   1       0.394   0.806   0.420  0.00  0.00    -0.204 OA
ATOM      2  C2  BZF d   1      -0.448  -0.077   1.070  0.00  0.00     0.174 A 
ATOM      3  C3  BZF d   1      -0.757  -1.119   0.272  0.00  0.00    -0.012 A 
ATOM      4  C3A BZF d   1       0.008  -0.919  -0.921  0.00  0.00    -0.107 A 
ATOM      5  C4  BZF d   1       0.140  -1.627  -2.081  0.00  0.00     0.055 A 
ATOM      6  C5  BZF d   1       0.911  -1.122  -3.079  0.00  0.00    -0.016 A 
ATOM      7  C6  BZF d   1       1.559   0.090  -2.954  0.00  0.00     0.022 A 
ATOM      8  C7  BZF d   1       1.461   0.826  -1.820  0.00  0.00     0.029 A 
ATOM      9  C7A BZF d   1       0.710   0.302  -0.797  0.00  0.00     0.058 A 
ENDROOT
TORSDOF 0
ENDMDL
