MODEL 1
REMARK minimizedAffinity -4.60795307
REMARK minimizedRMSD -1
REMARK  0 active torsions:
REMARK  status: ('A' for Active; 'I' for Inactive)
ROOT
ATOM      1  O1  BZF d   1       0.470  -1.838  -1.469  0.00  0.00    -0.204 OA
ATOM      2  C2  BZF d   1       1.534  -2.083  -2.316  0.00  0.00     0.174 A 
ATOM      3  C3  BZF d   1       2.200  -0.943  -2.588  0.00  0.00    -0.012 A 
ATOM      4  C3A BZF d   1       1.566   0.063  -1.794  0.00  0.00    -0.107 A 
ATOM      5  C4  BZF d   1       1.787   1.400  -1.619  0.00  0.00     0.055 A 
ATOM      6  C5  BZF d   1       0.941   2.111  -0.828  0.00  0.00    -0.016 A 
ATOM      7  C6  BZF d   1      -0.136   1.520  -0.201  0.00  0.00     0.022 A 
ATOM      8  C7  BZF d   1      -0.393   0.197  -0.340  0.00  0.00     0.029 A 
ATOM      9  C7A BZF d   1       0.478  -0.531  -1.113  0.00  0.00     0.058 A 
ENDROOT
TORSDOF 0
ENDMDL
