MODEL 1
REMARK minimizedAffinity -6.36188936
REMARK minimizedRMSD -1
REMARK  0 active torsions:
REMARK  status: ('A' for Active; 'I' for Inactive)
ROOT
ATOM      1  O1  BZF d   1      -0.125  -0.891   0.578  0.00  0.00    -0.204 OA
ATOM      2  C2  BZF d   1      -0.066   0.357   1.167  0.00  0.00     0.174 A 
ATOM      3  C3  BZF d   1       0.714   1.190   0.447  0.00  0.00    -0.012 A 
ATOM      4  C3A BZF d   1       1.097   0.440  -0.710  0.00  0.00    -0.107 A 
ATOM      5  C4  BZF d   1       1.858   0.729  -1.806  0.00  0.00     0.055 A 
ATOM      6  C5  BZF d   1       2.099  -0.248  -2.719  0.00  0.00    -0.016 A 
ATOM      7  C6  BZF d   1       1.598  -1.525  -2.566  0.00  0.00     0.022 A 
ATOM      8  C7  BZF d   1       0.833  -1.857  -1.498  0.00  0.00     0.029 A 
ATOM      9  C7A BZF d   1       0.561  -0.863  -0.590  0.00  0.00     0.058 A 
ENDROOT
TORSDOF 0
ENDMDL
