MODEL 1
REMARK minimizedAffinity -3.07730532
REMARK minimizedRMSD -1
REMARK  0 active torsions:
REMARK  status: ('A' for Active; 'I' for Inactive)
ROOT
ATOM      1  O1  BZF d   1       1.502   0.774  -2.365  0.00  0.00    -0.204 OA
ATOM      2  C2  BZF d   1       1.577  -0.349  -3.165  0.00  0.00     0.174 A 
ATOM      3  C3  BZF d   1       1.219  -1.452  -2.477  0.00  0.00    -0.012 A 
ATOM      4  C3A BZF d   1       0.811  -0.976  -1.190  0.00  0.00    -0.107 A 
ATOM      5  C4  BZF d   1       0.333  -1.593  -0.069  0.00  0.00     0.055 A 
ATOM      6  C5  BZF d   1       0.099  -0.850   1.044  0.00  0.00    -0.016 A 
ATOM      7  C6  BZF d   1       0.336   0.509   1.073  0.00  0.00     0.022 A 
ATOM      8  C7  BZF d   1       0.805   1.166  -0.016  0.00  0.00     0.029 A 
ATOM      9  C7A BZF d   1       1.011   0.423  -1.153  0.00  0.00     0.058 A 
ENDROOT
TORSDOF 0
ENDMDL
