MODEL 1
REMARK minimizedAffinity -2.08443069
REMARK minimizedRMSD -1
REMARK  0 active torsions:
REMARK  status: ('A' for Active; 'I' for Inactive)
ROOT
ATOM      1  O1  BZF d   1      -1.128  -1.048   0.421  0.00  0.00    -0.204 OA
ATOM      2  C2  BZF d   1      -1.287  -0.073   1.387  0.00  0.00     0.174 A 
ATOM      3  C3  BZF d   1      -0.419   0.941   1.190  0.00  0.00    -0.012 A 
ATOM      4  C3A BZF d   1       0.265   0.620  -0.025  0.00  0.00    -0.107 A 
ATOM      5  C4  BZF d   1       1.235   1.251  -0.750  0.00  0.00     0.055 A 
ATOM      6  C5  BZF d   1       1.740   0.636  -1.852  0.00  0.00    -0.016 A 
ATOM      7  C6  BZF d   1       1.302  -0.609  -2.254  0.00  0.00     0.022 A 
ATOM      8  C7  BZF d   1       0.338  -1.271  -1.570  0.00  0.00     0.029 A 
ATOM      9  C7A BZF d   1      -0.198  -0.638  -0.474  0.00  0.00     0.058 A 
ENDROOT
TORSDOF 0
ENDMDL
