MODEL 1
REMARK minimizedAffinity -3.30126739
REMARK minimizedRMSD -1
REMARK  0 active torsions:
REMARK  status: ('A' for Active; 'I' for Inactive)
ROOT
ATOM      1  O1  BZF d   1      -0.700  -0.663   1.633  0.00  0.00    -0.204 OA
ATOM      2  C2  BZF d   1      -0.642   0.711   1.763  0.00  0.00     0.174 A 
ATOM      3  C3  BZF d   1      -0.020   1.265   0.702  0.00  0.00    -0.012 A 
ATOM      4  C3A BZF d   1       0.251   0.177  -0.186  0.00  0.00    -0.107 A 
ATOM      5  C4  BZF d   1       0.838   0.093  -1.416  0.00  0.00     0.055 A 
ATOM      6  C5  BZF d   1       1.015  -1.130  -1.982  0.00  0.00    -0.016 A 
ATOM      7  C6  BZF d   1       0.621  -2.288  -1.344  0.00  0.00     0.022 A 
ATOM      8  C7  BZF d   1       0.029  -2.255  -0.126  0.00  0.00     0.029 A 
ATOM      9  C7A BZF d   1      -0.180  -1.018   0.434  0.00  0.00     0.058 A 
ENDROOT
TORSDOF 0
ENDMDL
