MODEL 1
REMARK minimizedAffinity -4.68960762
REMARK minimizedRMSD -1
REMARK  0 active torsions:
REMARK  status: ('A' for Active; 'I' for Inactive)
ROOT
ATOM      1  O1  BZF d   1       2.205   1.078  -1.079  0.00  0.00    -0.204 OA
ATOM      2  C2  BZF d   1       2.059   0.445  -2.299  0.00  0.00     0.174 A 
ATOM      3  C3  BZF d   1       0.981  -0.365  -2.292  0.00  0.00    -0.012 A 
ATOM      4  C3A BZF d   1       0.364  -0.159  -1.017  0.00  0.00    -0.107 A 
ATOM      5  C4  BZF d   1      -0.754  -0.669  -0.422  0.00  0.00     0.055 A 
ATOM      6  C5  BZF d   1      -1.039  -0.317   0.860  0.00  0.00    -0.016 A 
ATOM      7  C6  BZF d   1      -0.226   0.537   1.576  0.00  0.00     0.022 A 
ATOM      8  C7  BZF d   1       0.891   1.072   1.026  0.00  0.00     0.029 A 
ATOM      9  C7A BZF d   1       1.164   0.744  -0.279  0.00  0.00     0.058 A 
ENDROOT
TORSDOF 0
ENDMDL
