MODEL 1
REMARK minimizedAffinity -4.4052639
REMARK minimizedRMSD -1
REMARK  0 active torsions:
REMARK  status: ('A' for Active; 'I' for Inactive)
ROOT
ATOM      1  O1  BZF d   1       1.975   0.715  -2.002  0.00  0.00    -0.204 OA
ATOM      2  C2  BZF d   1       1.908  -0.357  -2.870  0.00  0.00     0.174 A 
ATOM      3  C3  BZF d   1       1.121  -1.331  -2.368  0.00  0.00    -0.012 A 
ATOM      4  C3A BZF d   1       0.595  -0.797  -1.149  0.00  0.00    -0.107 A 
ATOM      5  C4  BZF d   1      -0.262  -1.284  -0.204  0.00  0.00     0.055 A 
ATOM      6  C5  BZF d   1      -0.516  -0.540   0.905  0.00  0.00    -0.016 A 
ATOM      7  C6  BZF d   1       0.074   0.692   1.102  0.00  0.00     0.022 A 
ATOM      8  C7  BZF d   1       0.927   1.219   0.190  0.00  0.00     0.029 A 
ATOM      9  C7A BZF d   1       1.159   0.483  -0.946  0.00  0.00     0.058 A 
ENDROOT
TORSDOF 0
ENDMDL
