MODEL 1
REMARK minimizedAffinity -4.89482212
REMARK minimizedRMSD -1
REMARK  0 active torsions:
REMARK  status: ('A' for Active; 'I' for Inactive)
ROOT
ATOM      1  O1  BZF d   1       0.282  -1.770  -0.470  0.00  0.00    -0.204 OA
ATOM      2  C2  BZF d   1      -0.094  -1.847   0.857  0.00  0.00     0.174 A 
ATOM      3  C3  BZF d   1       0.123  -0.673   1.484  0.00  0.00    -0.012 A 
ATOM      4  C3A BZF d   1       0.582   0.220   0.464  0.00  0.00    -0.107 A 
ATOM      5  C4  BZF d   1       0.948   1.535   0.463  0.00  0.00     0.055 A 
ATOM      6  C5  BZF d   1       1.418   2.089  -0.686  0.00  0.00    -0.016 A 
ATOM      7  C6  BZF d   1       1.541   1.356  -1.848  0.00  0.00     0.022 A 
ATOM      8  C7  BZF d   1       1.186   0.049  -1.897  0.00  0.00     0.029 A 
ATOM      9  C7A BZF d   1       0.679  -0.505  -0.746  0.00  0.00     0.058 A 
ENDROOT
TORSDOF 0
ENDMDL
