MODEL 1
REMARK minimizedAffinity -4.00465155
REMARK minimizedRMSD -1
REMARK  0 active torsions:
REMARK  status: ('A' for Active; 'I' for Inactive)
ROOT
ATOM      1  O1  BZF d   1       0.956   0.548   0.829  0.00  0.00    -0.204 OA
ATOM      2  C2  BZF d   1      -0.069  -0.278   1.247  0.00  0.00     0.174 A 
ATOM      3  C3  BZF d   1      -0.684  -0.849   0.192  0.00  0.00    -0.012 A 
ATOM      4  C3A BZF d   1       0.058  -0.421  -0.954  0.00  0.00    -0.107 A 
ATOM      5  C4  BZF d   1      -0.055  -0.667  -2.292  0.00  0.00     0.055 A 
ATOM      6  C5  BZF d   1       0.785  -0.036  -3.154  0.00  0.00    -0.016 A 
ATOM      7  C6  BZF d   1       1.745   0.851  -2.712  0.00  0.00     0.022 A 
ATOM      8  C7  BZF d   1       1.899   1.124  -1.394  0.00  0.00     0.029 A 
ATOM      9  C7A BZF d   1       1.073   0.462  -0.518  0.00  0.00     0.058 A 
ENDROOT
TORSDOF 0
ENDMDL
