MODEL 1
REMARK minimizedAffinity -4.93958187
REMARK minimizedRMSD -1
REMARK  1 active torsions:
REMARK  status: ('A' for Active; 'I' for Inactive)
REMARK    1  A    between atoms: C1_2  and  C2_3 
ROOT
ATOM      1  C2  UNL d   1      -0.067  -0.103  -0.308  0.00  0.00    -0.073 A 
ATOM      2  C3  UNL d   1      -0.770  -0.980   0.524  0.00  0.00    -0.002 A 
ATOM      3  C4  UNL d   1      -0.678  -2.359   0.334  0.00  0.00     0.004 A 
ATOM      4  C5  UNL d   1       0.124  -2.875  -0.685  0.00  0.00    -0.004 A 
ATOM      5  C6  UNL d   1       0.844  -2.015  -1.519  0.00  0.00    -0.075 A 
ATOM      6  C7  UNL d   1       1.709  -2.553  -2.621  0.00  0.00     0.076 C 
ATOM      7  C8  UNL d   1       0.744  -0.631  -1.324  0.00  0.00     0.001 A 
ENDROOT
BRANCH   1   8
ATOM      8  C1  UNL d   1      -0.159   1.387  -0.102  0.00  0.00     0.053 C 
ATOM      9  C   UNL d   1       1.209   2.021   0.098  0.00  0.00     0.018 C 
ENDBRANCH   1   8
TORSDOF 1
ENDMDL
