MODEL 1
REMARK minimizedAffinity -4.15351868
REMARK minimizedRMSD -1
REMARK  1 active torsions:
REMARK  status: ('A' for Active; 'I' for Inactive)
REMARK    1  A    between atoms: C1_2  and  C2_3 
ROOT
ATOM      1  C2  UNL d   1      -0.087   0.052  -0.178  0.00  0.00    -0.073 A 
ATOM      2  C3  UNL d   1      -1.126   0.287   0.730  0.00  0.00    -0.002 A 
ATOM      3  C4  UNL d   1      -1.621  -0.752   1.520  0.00  0.00     0.004 A 
ATOM      4  C5  UNL d   1      -1.078  -2.032   1.416  0.00  0.00    -0.004 A 
ATOM      5  C6  UNL d   1      -0.031  -2.285   0.523  0.00  0.00    -0.075 A 
ATOM      6  C7  UNL d   1       0.562  -3.657   0.398  0.00  0.00     0.076 C 
ATOM      7  C8  UNL d   1       0.458  -1.237  -0.269  0.00  0.00     0.001 A 
ENDROOT
BRANCH   1   8
ATOM      8  C1  UNL d   1       0.454   1.172  -1.028  0.00  0.00     0.053 C 
ATOM      9  C   UNL d   1       0.720   2.428  -0.214  0.00  0.00     0.018 C 
ENDBRANCH   1   8
TORSDOF 1
ENDMDL
