MODEL 1
REMARK minimizedAffinity -3.82468629
REMARK minimizedRMSD -1
REMARK  1 active torsions:
REMARK  status: ('A' for Active; 'I' for Inactive)
REMARK    1  A    between atoms: C1_2  and  C2_3 
ROOT
ATOM      1  C2  UNL d   1      -0.602  -1.419  -0.112  0.00  0.00    -0.073 A 
ATOM      2  C3  UNL d   1      -0.220  -1.673  -1.435  0.00  0.00    -0.002 A 
ATOM      3  C4  UNL d   1       0.296  -0.648  -2.228  0.00  0.00     0.004 A 
ATOM      4  C5  UNL d   1       0.442   0.638  -1.707  0.00  0.00    -0.004 A 
ATOM      5  C6  UNL d   1       0.077   0.909  -0.385  0.00  0.00    -0.075 A 
ATOM      6  C7  UNL d   1       0.225   2.287   0.190  0.00  0.00     0.076 C 
ATOM      7  C8  UNL d   1      -0.443  -0.125   0.405  0.00  0.00     0.001 A 
ENDROOT
BRANCH   1   8
ATOM      8  C1  UNL d   1      -1.153  -2.524   0.750  0.00  0.00     0.053 C 
ATOM      9  C   UNL d   1      -0.734  -3.899   0.254  0.00  0.00     0.018 C 
ENDBRANCH   1   8
TORSDOF 1
ENDMDL
