MODEL 1
REMARK minimizedAffinity -6.73063087
REMARK minimizedRMSD -1
REMARK  1 active torsions:
REMARK  status: ('A' for Active; 'I' for Inactive)
REMARK    1  A    between atoms: C1_2  and  C2_3 
ROOT
ATOM      1  C2  UNL d   1       0.227  -1.744  -0.745  0.00  0.00    -0.073 A 
ATOM      2  C3  UNL d   1       0.475  -2.771   0.173  0.00  0.00    -0.002 A 
ATOM      3  C4  UNL d   1       0.051  -2.651   1.497  0.00  0.00     0.004 A 
ATOM      4  C5  UNL d   1      -0.630  -1.508   1.915  0.00  0.00    -0.004 A 
ATOM      5  C6  UNL d   1      -0.899  -0.476   1.010  0.00  0.00    -0.075 A 
ATOM      6  C7  UNL d   1      -1.629   0.761   1.444  0.00  0.00     0.076 C 
ATOM      7  C8  UNL d   1      -0.467  -0.603  -0.317  0.00  0.00     0.001 A 
ENDROOT
BRANCH   1   8
ATOM      8  C1  UNL d   1       0.677  -1.872  -2.177  0.00  0.00     0.053 C 
ATOM      9  C   UNL d   1      -0.047  -2.993  -2.904  0.00  0.00     0.018 C 
ENDBRANCH   1   8
TORSDOF 1
ENDMDL
