MODEL 1
REMARK minimizedAffinity -5.85931206
REMARK minimizedRMSD -1
REMARK  1 active torsions:
REMARK  status: ('A' for Active; 'I' for Inactive)
REMARK    1  A    between atoms: C1_2  and  C2_3 
ROOT
ATOM      1  C2  UNL d   1      -0.574  -1.139   0.074  0.00  0.00    -0.073 A 
ATOM      2  C3  UNL d   1      -0.728  -2.236   0.929  0.00  0.00    -0.002 A 
ATOM      3  C4  UNL d   1      -0.304  -3.505   0.532  0.00  0.00     0.004 A 
ATOM      4  C5  UNL d   1       0.284  -3.689  -0.720  0.00  0.00    -0.004 A 
ATOM      5  C6  UNL d   1       0.458  -2.603  -1.584  0.00  0.00    -0.075 A 
ATOM      6  C7  UNL d   1       1.086  -2.785  -2.934  0.00  0.00     0.076 C 
ATOM      7  C8  UNL d   1       0.027  -1.333  -1.179  0.00  0.00     0.001 A 
ENDROOT
BRANCH   1   8
ATOM      8  C1  UNL d   1      -1.024   0.234   0.501  0.00  0.00     0.053 C 
ATOM      9  C   UNL d   1      -1.768   0.203   1.826  0.00  0.00     0.018 C 
ENDBRANCH   1   8
TORSDOF 1
ENDMDL
