MODEL 1
REMARK minimizedAffinity -5.40178204
REMARK minimizedRMSD -1
REMARK  1 active torsions:
REMARK  status: ('A' for Active; 'I' for Inactive)
REMARK    1  A    between atoms: C1_2  and  C2_3 
ROOT
ATOM      1  C2  UNL d   1      -0.247  -1.042   0.139  0.00  0.00    -0.073 A 
ATOM      2  C3  UNL d   1      -0.579  -2.202   0.848  0.00  0.00    -0.002 A 
ATOM      3  C4  UNL d   1      -0.305  -3.460   0.309  0.00  0.00     0.004 A 
ATOM      4  C5  UNL d   1       0.309  -3.571  -0.938  0.00  0.00    -0.004 A 
ATOM      5  C6  UNL d   1       0.659  -2.423  -1.657  0.00  0.00    -0.075 A 
ATOM      6  C7  UNL d   1       1.318  -2.525  -3.001  0.00  0.00     0.076 C 
ATOM      7  C8  UNL d   1       0.378  -1.163  -1.110  0.00  0.00     0.001 A 
ENDROOT
BRANCH   1   8
ATOM      8  C1  UNL d   1      -0.535   0.319   0.719  0.00  0.00     0.053 C 
ATOM      9  C   UNL d   1      -0.104   1.439  -0.214  0.00  0.00     0.018 C 
ENDBRANCH   1   8
TORSDOF 1
ENDMDL
