MODEL 1
REMARK minimizedAffinity -4.53037167
REMARK minimizedRMSD -1
REMARK  1 active torsions:
REMARK  status: ('A' for Active; 'I' for Inactive)
REMARK    1  A    between atoms: C1_2  and  C2_3 
ROOT
ATOM      1  C2  UNL d   1      -0.302  -2.207  -0.473  0.00  0.00    -0.073 A 
ATOM      2  C3  UNL d   1      -0.931  -2.572   0.723  0.00  0.00    -0.002 A 
ATOM      3  C4  UNL d   1      -1.152  -1.622   1.721  0.00  0.00     0.004 A 
ATOM      4  C5  UNL d   1      -0.753  -0.299   1.533  0.00  0.00    -0.004 A 
ATOM      5  C6  UNL d   1      -0.134   0.088   0.340  0.00  0.00    -0.075 A 
ATOM      6  C7  UNL d   1       0.303   1.506   0.122  0.00  0.00     0.076 C 
ATOM      7  C8  UNL d   1       0.087  -0.872  -0.657  0.00  0.00     0.001 A 
ENDROOT
BRANCH   1   8
ATOM      8  C1  UNL d   1      -0.067  -3.227  -1.556  0.00  0.00     0.053 C 
ATOM      9  C   UNL d   1       0.267  -2.576  -2.889  0.00  0.00     0.018 C 
ENDBRANCH   1   8
TORSDOF 1
ENDMDL
