MODEL 1
REMARK minimizedAffinity -1.21070921
REMARK minimizedRMSD -1
REMARK  1 active torsions:
REMARK  status: ('A' for Active; 'I' for Inactive)
REMARK    1  A    between atoms: C1_2  and  C2_3 
ROOT
ATOM      1  C2  UNL d   1       0.092  -0.479   0.276  0.00  0.00    -0.073 A 
ATOM      2  C3  UNL d   1      -0.162  -0.750  -1.073  0.00  0.00    -0.002 A 
ATOM      3  C4  UNL d   1      -0.197   0.288  -2.006  0.00  0.00     0.004 A 
ATOM      4  C5  UNL d   1       0.028   1.603  -1.601  0.00  0.00    -0.004 A 
ATOM      5  C6  UNL d   1       0.295   1.893  -0.259  0.00  0.00    -0.075 A 
ATOM      6  C7  UNL d   1       0.537   3.303   0.193  0.00  0.00     0.076 C 
ATOM      7  C8  UNL d   1       0.326   0.846   0.672  0.00  0.00     0.001 A 
ENDROOT
BRANCH   1   8
ATOM      8  C1  UNL d   1       0.136  -1.597   1.286  0.00  0.00     0.053 C 
ATOM      9  C   UNL d   1       0.031  -2.963   0.628  0.00  0.00     0.018 C 
ENDBRANCH   1   8
TORSDOF 1
ENDMDL
