MODEL 1
REMARK minimizedAffinity -1.92198515
REMARK minimizedRMSD -1
REMARK  1 active torsions:
REMARK  status: ('A' for Active; 'I' for Inactive)
REMARK    1  A    between atoms: C1_2  and  C2_3 
ROOT
ATOM      1  C2  UNL d   1       0.809  -0.453  -2.206  0.00  0.00    -0.077 A 
ATOM      2  C3  UNL d   1       1.874   0.414  -2.489  0.00  0.00     0.002 A 
ATOM      3  C4  UNL d   1       2.044   0.929  -3.776  0.00  0.00     0.002 A 
ATOM      4  C5  UNL d   1       1.150   0.586  -4.788  0.00  0.00    -0.004 A 
ATOM      5  C6  UNL d   1       0.089  -0.277  -4.518  0.00  0.00     0.002 A 
ATOM      6  C7  UNL d   1      -0.081  -0.793  -3.232  0.00  0.00     0.002 A 
ENDROOT
BRANCH   1   7
ATOM      7  C1  UNL d   1       0.596  -0.970  -0.807  0.00  0.00     0.055 C 
ATOM      8  C   UNL d   1      -0.428  -0.131  -0.057  0.00  0.00     0.019 C 
ENDBRANCH   1   7
TORSDOF 1
ENDMDL
