MODEL 1
REMARK minimizedAffinity -3.40463638
REMARK minimizedRMSD -1
REMARK  1 active torsions:
REMARK  status: ('A' for Active; 'I' for Inactive)
REMARK    1  A    between atoms: C1_2  and  C2_3 
ROOT
ATOM      1  C2  UNL d   1       0.568  -0.431  -0.553  0.00  0.00    -0.077 A 
ATOM      2  C3  UNL d   1      -0.798  -0.113  -0.546  0.00  0.00     0.002 A 
ATOM      3  C4  UNL d   1      -1.337   0.660   0.485  0.00  0.00     0.002 A 
ATOM      4  C5  UNL d   1      -0.519   1.123   1.512  0.00  0.00    -0.004 A 
ATOM      5  C6  UNL d   1       0.840   0.811   1.515  0.00  0.00     0.002 A 
ATOM      6  C7  UNL d   1       1.381   0.038   0.487  0.00  0.00     0.002 A 
ENDROOT
BRANCH   1   7
ATOM      7  C1  UNL d   1       1.161  -1.222  -1.689  0.00  0.00     0.055 C 
ATOM      8  C   UNL d   1       0.892  -0.553  -3.030  0.00  0.00     0.019 C 
ENDBRANCH   1   7
TORSDOF 1
ENDMDL
