MODEL 1
REMARK minimizedAffinity -5.16347742
REMARK minimizedRMSD -1
REMARK  1 active torsions:
REMARK  status: ('A' for Active; 'I' for Inactive)
REMARK    1  A    between atoms: C1_2  and  C2_3 
ROOT
ATOM      1  C2  UNL d   1       0.090  -0.152   0.216  0.00  0.00    -0.077 A 
ATOM      2  C3  UNL d   1      -1.300  -0.116   0.395  0.00  0.00     0.002 A 
ATOM      3  C4  UNL d   1      -1.860   0.636   1.430  0.00  0.00     0.002 A 
ATOM      4  C5  UNL d   1      -1.037   1.361   2.290  0.00  0.00    -0.004 A 
ATOM      5  C6  UNL d   1       0.346   1.329   2.121  0.00  0.00     0.002 A 
ATOM      6  C7  UNL d   1       0.907   0.577   1.088  0.00  0.00     0.002 A 
ENDROOT
BRANCH   1   7
ATOM      7  C1  UNL d   1       0.692  -0.923  -0.930  0.00  0.00     0.055 C 
ATOM      8  C   UNL d   1       0.481  -0.203  -2.253  0.00  0.00     0.019 C 
ENDBRANCH   1   7
TORSDOF 1
ENDMDL
