MODEL 1
REMARK minimizedAffinity -3.66056681
REMARK minimizedRMSD -1
REMARK  1 active torsions:
REMARK  status: ('A' for Active; 'I' for Inactive)
REMARK    1  A    between atoms: C1_2  and  C2_3 
ROOT
ATOM      1  C2  UNL d   1      -0.265   0.626   1.264  0.00  0.00    -0.077 A 
ATOM      2  C3  UNL d   1      -1.212   0.261   0.296  0.00  0.00     0.002 A 
ATOM      3  C4  UNL d   1      -0.832  -0.497  -0.813  0.00  0.00     0.002 A 
ATOM      4  C5  UNL d   1       0.493  -0.900  -0.963  0.00  0.00    -0.004 A 
ATOM      5  C6  UNL d   1       1.443  -0.541  -0.007  0.00  0.00     0.002 A 
ATOM      6  C7  UNL d   1       1.065   0.217   1.102  0.00  0.00     0.002 A 
ENDROOT
BRANCH   1   7
ATOM      7  C1  UNL d   1      -0.682   1.401   2.486  0.00  0.00     0.055 C 
ATOM      8  C   UNL d   1      -1.458   0.526   3.459  0.00  0.00     0.019 C 
ENDBRANCH   1   7
TORSDOF 1
ENDMDL
