MODEL 1
REMARK minimizedAffinity -0.949935377
REMARK minimizedRMSD -1
REMARK  0 active torsions:
REMARK  status: ('A' for Active; 'I' for Inactive)
ROOT
ATOM      1  C   UNL d   1      -0.788   0.610   2.264  0.00  0.00     0.124 A 
ATOM      2  C1  UNL d   1       0.507   0.699   1.773  0.00  0.00     0.062 A 
ATOM      3  C2  UNL d   1       0.781   0.351   0.453  0.00  0.00     0.162 A 
ATOM      4  C3  UNL d   1      -0.243  -0.090  -0.385  0.00  0.00    -0.034 A 
ATOM      5  C4  UNL d   1      -1.543  -0.177   0.117  0.00  0.00     0.162 A 
ATOM      6  C5  UNL d   1      -1.811   0.172   1.436  0.00  0.00     0.062 A 
ATOM      7  F   UNL d   1      -3.063   0.086   1.909  0.00  0.00    -0.097 F 
ATOM      8  F1  UNL d   1      -2.551  -0.597  -0.662  0.00  0.00    -0.096 F 
ATOM      9  I   UNL d   1       0.162  -0.612  -2.359  0.00  0.00    -0.060 I 
ATOM     10  F2  UNL d   1       2.042   0.446   0.005  0.00  0.00    -0.096 F 
ATOM     11  F3  UNL d   1       1.498   1.122   2.571  0.00  0.00    -0.097 F 
ATOM     12  F4  UNL d   1      -1.048   0.946   3.534  0.00  0.00    -0.092 F 
ENDROOT
TORSDOF 0
ENDMDL
