MODEL 1
REMARK minimizedAffinity 2.68827915
REMARK minimizedRMSD -1
REMARK  0 active torsions:
REMARK  status: ('A' for Active; 'I' for Inactive)
ROOT
ATOM      1  C   UNL d   1      -0.635   0.544   2.446  0.00  0.00     0.124 A 
ATOM      2  C1  UNL d   1       0.676   0.634   2.001  0.00  0.00     0.062 A 
ATOM      3  C2  UNL d   1       0.994   0.308   0.686  0.00  0.00     0.162 A 
ATOM      4  C3  UNL d   1      -0.003  -0.111  -0.195  0.00  0.00    -0.034 A 
ATOM      5  C4  UNL d   1      -1.320  -0.200   0.260  0.00  0.00     0.162 A 
ATOM      6  C5  UNL d   1      -1.632   0.127   1.575  0.00  0.00     0.062 A 
ATOM      7  F   UNL d   1      -2.900   0.039   2.003  0.00  0.00    -0.097 F 
ATOM      8  F1  UNL d   1      -2.303  -0.599  -0.561  0.00  0.00    -0.096 F 
ATOM      9  I   UNL d   1       0.467  -0.599  -2.163  0.00  0.00    -0.060 I 
ATOM     10  F2  UNL d   1       2.270   0.405   0.284  0.00  0.00    -0.096 F 
ATOM     11  F3  UNL d   1       1.641   1.036   2.841  0.00  0.00    -0.097 F 
ATOM     12  F4  UNL d   1      -0.938   0.858   3.712  0.00  0.00    -0.092 F 
ENDROOT
TORSDOF 0
ENDMDL
