MODEL 1
REMARK minimizedAffinity 0.795598447
REMARK minimizedRMSD -1
REMARK  0 active torsions:
REMARK  status: ('A' for Active; 'I' for Inactive)
ROOT
ATOM      1  C   UNL d   1      -0.473   0.709   1.849  0.00  0.00     0.124 A 
ATOM      2  C1  UNL d   1      -1.611   0.486   1.086  0.00  0.00     0.062 A 
ATOM      3  C2  UNL d   1      -1.495   0.146  -0.259  0.00  0.00     0.162 A 
ATOM      4  C3  UNL d   1      -0.237   0.026  -0.849  0.00  0.00    -0.034 A 
ATOM      5  C4  UNL d   1       0.902   0.253  -0.075  0.00  0.00     0.162 A 
ATOM      6  C5  UNL d   1       0.782   0.592   1.269  0.00  0.00     0.062 A 
ATOM      7  F   UNL d   1       1.882   0.807   2.005  0.00  0.00    -0.097 F 
ATOM      8  F1  UNL d   1       2.127   0.146  -0.611  0.00  0.00    -0.096 F 
ATOM      9  I   UNL d   1      -0.060  -0.482  -2.860  0.00  0.00    -0.060 I 
ATOM     10  F2  UNL d   1      -2.611  -0.063  -0.973  0.00  0.00    -0.096 F 
ATOM     11  F3  UNL d   1      -2.824   0.600   1.644  0.00  0.00    -0.097 F 
ATOM     12  F4  UNL d   1      -0.587   1.037   3.143  0.00  0.00    -0.092 F 
ENDROOT
TORSDOF 0
ENDMDL
