MODEL 1
REMARK minimizedAffinity 0.363374949
REMARK minimizedRMSD -1
REMARK  0 active torsions:
REMARK  status: ('A' for Active; 'I' for Inactive)
ROOT
ATOM      1  C   UNL d   1      -1.904   0.649   1.066  0.00  0.00     0.124 A 
ATOM      2  C1  UNL d   1      -0.654   1.096   1.471  0.00  0.00     0.062 A 
ATOM      3  C2  UNL d   1       0.487   0.713   0.771  0.00  0.00     0.162 A 
ATOM      4  C3  UNL d   1       0.382  -0.121  -0.343  0.00  0.00    -0.034 A 
ATOM      5  C4  UNL d   1      -0.879  -0.567  -0.743  0.00  0.00     0.162 A 
ATOM      6  C5  UNL d   1      -2.015  -0.182  -0.040  0.00  0.00     0.062 A 
ATOM      7  F   UNL d   1      -3.222  -0.615  -0.432  0.00  0.00    -0.097 F 
ATOM      8  F1  UNL d   1      -1.015  -1.370  -1.809  0.00  0.00    -0.096 F 
ATOM      9  I   UNL d   1       2.085  -0.696  -1.392  0.00  0.00    -0.060 I 
ATOM     10  F2  UNL d   1       1.682   1.160   1.184  0.00  0.00    -0.096 F 
ATOM     11  F3  UNL d   1      -0.544   1.897   2.540  0.00  0.00    -0.097 F 
ATOM     12  F4  UNL d   1      -3.000   1.018   1.742  0.00  0.00    -0.092 F 
ENDROOT
TORSDOF 0
ENDMDL
