MODEL 1
REMARK minimizedAffinity 2.31909561
REMARK minimizedRMSD -1
REMARK  0 active torsions:
REMARK  status: ('A' for Active; 'I' for Inactive)
ROOT
ATOM      1  C   UNL d   1      -1.113  -0.076   0.769  0.00  0.00     0.124 A 
ATOM      2  C1  UNL d   1       0.146   0.497   0.883  0.00  0.00     0.062 A 
ATOM      3  C2  UNL d   1       0.950   0.650  -0.244  0.00  0.00     0.162 A 
ATOM      4  C3  UNL d   1       0.496   0.232  -1.494  0.00  0.00    -0.034 A 
ATOM      5  C4  UNL d   1      -0.771  -0.344  -1.601  0.00  0.00     0.162 A 
ATOM      6  C5  UNL d   1      -1.571  -0.495  -0.472  0.00  0.00     0.062 A 
ATOM      7  F   UNL d   1      -2.787  -1.048  -0.584  0.00  0.00    -0.097 F 
ATOM      8  F1  UNL d   1      -1.239  -0.757  -2.788  0.00  0.00    -0.096 F 
ATOM      9  I   UNL d   1       1.694   0.460  -3.181  0.00  0.00    -0.060 I 
ATOM     10  F2  UNL d   1       2.162   1.207  -0.104  0.00  0.00    -0.096 F 
ATOM     11  F3  UNL d   1       0.591   0.902   2.081  0.00  0.00    -0.097 F 
ATOM     12  F4  UNL d   1      -1.883  -0.223   1.854  0.00  0.00    -0.092 F 
ENDROOT
TORSDOF 0
ENDMDL
