MODEL 1
REMARK minimizedAffinity -1.28925192
REMARK minimizedRMSD -1
REMARK  0 active torsions:
REMARK  status: ('A' for Active; 'I' for Inactive)
ROOT
ATOM      1  C   UNL d   1      -1.870   0.465   1.268  0.00  0.00     0.124 A 
ATOM      2  C1  UNL d   1      -0.618   0.455   1.868  0.00  0.00     0.062 A 
ATOM      3  C2  UNL d   1       0.506   0.079   1.139  0.00  0.00     0.162 A 
ATOM      4  C3  UNL d   1       0.384  -0.289  -0.201  0.00  0.00    -0.034 A 
ATOM      5  C4  UNL d   1      -0.878  -0.278  -0.798  0.00  0.00     0.162 A 
ATOM      6  C5  UNL d   1      -1.998   0.099  -0.065  0.00  0.00     0.062 A 
ATOM      7  F   UNL d   1      -3.206   0.107  -0.647  0.00  0.00    -0.097 F 
ATOM      8  F1  UNL d   1      -1.031  -0.626  -2.084  0.00  0.00    -0.096 F 
ATOM      9  I   UNL d   1       2.062  -0.852  -1.296  0.00  0.00    -0.060 I 
ATOM     10  F2  UNL d   1       1.702   0.079   1.745  0.00  0.00    -0.096 F 
ATOM     11  F3  UNL d   1      -0.492   0.808   3.156  0.00  0.00    -0.097 F 
ATOM     12  F4  UNL d   1      -2.950   0.826   1.973  0.00  0.00    -0.092 F 
ENDROOT
TORSDOF 0
ENDMDL
