MODEL 1
REMARK minimizedAffinity -2.0267005
REMARK minimizedRMSD -1
REMARK  0 active torsions:
REMARK  status: ('A' for Active; 'I' for Inactive)
ROOT
ATOM      1  C   UNL d   1      -1.672  -0.253   1.428  0.00  0.00     0.124 A 
ATOM      2  C1  UNL d   1      -0.705   0.726   1.609  0.00  0.00     0.062 A 
ATOM      3  C2  UNL d   1       0.182   1.031   0.581  0.00  0.00     0.162 A 
ATOM      4  C3  UNL d   1       0.107   0.357  -0.637  0.00  0.00    -0.034 A 
ATOM      5  C4  UNL d   1      -0.867  -0.628  -0.811  0.00  0.00     0.162 A 
ATOM      6  C5  UNL d   1      -1.752  -0.929   0.219  0.00  0.00     0.062 A 
ATOM      7  F   UNL d   1      -2.685  -1.876   0.043  0.00  0.00    -0.097 F 
ATOM      8  F1  UNL d   1      -0.967  -1.296  -1.970  0.00  0.00    -0.096 F 
ATOM      9  I   UNL d   1       1.433   0.810  -2.176  0.00  0.00    -0.060 I 
ATOM     10  F2  UNL d   1       1.107   1.982   0.784  0.00  0.00    -0.096 F 
ATOM     11  F3  UNL d   1      -0.625   1.380   2.777  0.00  0.00    -0.097 F 
ATOM     12  F4  UNL d   1      -2.525  -0.545   2.419  0.00  0.00    -0.092 F 
ENDROOT
TORSDOF 0
ENDMDL
