MODEL 1
REMARK minimizedAffinity -3.05805969
REMARK minimizedRMSD -1
REMARK  1 active torsions:
REMARK  status: ('A' for Active; 'I' for Inactive)
REMARK    1  A    between atoms: C1_2  and  C2_3 
ROOT
ATOM      1  C2  UNL d   1       3.425   1.263  -1.453  0.00  0.00    -0.076 A 
ATOM      2  C3  UNL d   1       3.906   0.438  -2.484  0.00  0.00     0.004 A 
ATOM      3  C4  UNL d   1       3.398  -0.846  -2.671  0.00  0.00    -0.003 A 
ATOM      4  C5  UNL d   1       2.399  -1.326  -1.831  0.00  0.00     0.000 A 
ATOM      5  C6  UNL d   1       1.898  -0.514  -0.814  0.00  0.00     0.000 A 
ATOM      6  C7  UNL d   1       2.388   0.789  -0.622  0.00  0.00    -0.073 A 
ATOM      7  C8  UNL d   1       1.816   1.619   0.495  0.00  0.00     0.078 C 
ENDROOT
BRANCH   1   8
ATOM      8  C1  UNL d   1       4.034   2.637  -1.282  0.00  0.00     0.053 C 
ATOM      9  C   UNL d   1       5.248   2.626  -0.365  0.00  0.00     0.018 C 
ENDBRANCH   1   8
TORSDOF 1
ENDMDL
