MODEL 1
REMARK minimizedAffinity 4.0022397
REMARK minimizedRMSD -1
REMARK  1 active torsions:
REMARK  status: ('A' for Active; 'I' for Inactive)
REMARK    1  A    between atoms: C1_2  and  C2_3 
ROOT
ATOM      1  C2  UNL d   1       3.654   0.934  -0.379  0.00  0.00    -0.076 A 
ATOM      2  C3  UNL d   1       4.023   2.159   0.203  0.00  0.00     0.004 A 
ATOM      3  C4  UNL d   1       5.186   2.819  -0.191  0.00  0.00    -0.003 A 
ATOM      4  C5  UNL d   1       5.999   2.265  -1.174  0.00  0.00     0.000 A 
ATOM      5  C6  UNL d   1       5.638   1.059  -1.775  0.00  0.00     0.000 A 
ATOM      6  C7  UNL d   1       4.461   0.389  -1.401  0.00  0.00    -0.073 A 
ATOM      7  C8  UNL d   1       4.124  -0.911  -2.078  0.00  0.00     0.078 C 
ENDROOT
BRANCH   1   8
ATOM      8  C1  UNL d   1       2.396   0.251   0.107  0.00  0.00     0.053 C 
ATOM      9  C   UNL d   1       1.457   1.205   0.829  0.00  0.00     0.018 C 
ENDBRANCH   1   8
TORSDOF 1
ENDMDL
