MODEL 1
REMARK minimizedAffinity 0.238565847
REMARK minimizedRMSD -1
REMARK  1 active torsions:
REMARK  status: ('A' for Active; 'I' for Inactive)
REMARK    1  A    between atoms: C1_2  and  C2_3 
ROOT
ATOM      1  C2  UNL d   1       2.154   0.291   1.016  0.00  0.00    -0.076 A 
ATOM      2  C3  UNL d   1       1.804   1.475   1.688  0.00  0.00     0.004 A 
ATOM      3  C4  UNL d   1       1.023   1.440   2.842  0.00  0.00    -0.003 A 
ATOM      4  C5  UNL d   1       0.581   0.221   3.344  0.00  0.00     0.000 A 
ATOM      5  C6  UNL d   1       0.934  -0.965   2.700  0.00  0.00     0.000 A 
ATOM      6  C7  UNL d   1       1.734  -0.949   1.544  0.00  0.00    -0.073 A 
ATOM      7  C8  UNL d   1       2.079  -2.257   0.887  0.00  0.00     0.078 C 
ENDROOT
BRANCH   1   8
ATOM      8  C1  UNL d   1       2.980   0.392  -0.246  0.00  0.00     0.053 C 
ATOM      9  C   UNL d   1       3.846   1.642  -0.277  0.00  0.00     0.018 C 
ENDBRANCH   1   8
TORSDOF 1
ENDMDL
