MODEL 1
REMARK minimizedAffinity -2.56322789
REMARK minimizedRMSD -1
REMARK  1 active torsions:
REMARK  status: ('A' for Active; 'I' for Inactive)
REMARK    1  A    between atoms: C1_2  and  C2_3 
ROOT
ATOM      1  C2  UNL d   1      -3.723   1.505  -3.842  0.00  0.00    -0.076 A 
ATOM      2  C3  UNL d   1      -3.252   2.704  -3.276  0.00  0.00     0.004 A 
ATOM      3  C4  UNL d   1      -4.135   3.713  -2.897  0.00  0.00    -0.003 A 
ATOM      4  C5  UNL d   1      -5.503   3.540  -3.076  0.00  0.00     0.000 A 
ATOM      5  C6  UNL d   1      -5.989   2.351  -3.618  0.00  0.00     0.000 A 
ATOM      6  C7  UNL d   1      -5.113   1.317  -3.991  0.00  0.00    -0.073 A 
ATOM      7  C8  UNL d   1      -5.691   0.058  -4.577  0.00  0.00     0.078 C 
ENDROOT
BRANCH   1   8
ATOM      8  C1  UNL d   1      -2.716   0.457  -4.259  0.00  0.00     0.053 C 
ATOM      9  C   UNL d   1      -2.140  -0.302  -3.074  0.00  0.00     0.018 C 
ENDBRANCH   1   8
TORSDOF 1
ENDMDL
