MODEL 1
REMARK minimizedAffinity -0.920028389
REMARK minimizedRMSD -1
REMARK  1 active torsions:
REMARK  status: ('A' for Active; 'I' for Inactive)
REMARK    1  A    between atoms: C1_2  and  C2_3 
ROOT
ATOM      1  C2  UNL d   1       3.496   2.316   1.609  0.00  0.00    -0.076 A 
ATOM      2  C3  UNL d   1       4.854   2.642   1.774  0.00  0.00     0.004 A 
ATOM      3  C4  UNL d   1       5.794   2.313   0.799  0.00  0.00    -0.003 A 
ATOM      4  C5  UNL d   1       5.393   1.652  -0.357  0.00  0.00     0.000 A 
ATOM      5  C6  UNL d   1       4.047   1.337  -0.545  0.00  0.00     0.000 A 
ATOM      6  C7  UNL d   1       3.084   1.677   0.420  0.00  0.00    -0.073 A 
ATOM      7  C8  UNL d   1       1.648   1.307   0.168  0.00  0.00     0.078 C 
ENDROOT
BRANCH   1   8
ATOM      8  C1  UNL d   1       2.526   2.675   2.711  0.00  0.00     0.053 C 
ATOM      9  C   UNL d   1       1.468   1.604   2.927  0.00  0.00     0.018 C 
ENDBRANCH   1   8
TORSDOF 1
ENDMDL
