MODEL 1
REMARK minimizedAffinity 2.20491552
REMARK minimizedRMSD -1
REMARK  1 active torsions:
REMARK  status: ('A' for Active; 'I' for Inactive)
REMARK    1  A    between atoms: C1_2  and  C2_3 
ROOT
ATOM      1  C2  UNL d   1      -3.927   0.731  -2.881  0.00  0.00    -0.076 A 
ATOM      2  C3  UNL d   1      -3.671  -0.246  -1.904  0.00  0.00     0.004 A 
ATOM      3  C4  UNL d   1      -4.385  -0.268  -0.707  0.00  0.00    -0.003 A 
ATOM      4  C5  UNL d   1      -5.368   0.686  -0.468  0.00  0.00     0.000 A 
ATOM      5  C6  UNL d   1      -5.648   1.652  -1.434  0.00  0.00     0.000 A 
ATOM      6  C7  UNL d   1      -4.948   1.679  -2.653  0.00  0.00    -0.073 A 
ATOM      7  C8  UNL d   1      -5.287   2.747  -3.657  0.00  0.00     0.078 C 
ENDROOT
BRANCH   1   8
ATOM      8  C1  UNL d   1      -3.102   0.722  -4.148  0.00  0.00     0.053 C 
ATOM      9  C   UNL d   1      -3.960   0.635  -5.401  0.00  0.00     0.018 C 
ENDBRANCH   1   8
TORSDOF 1
ENDMDL
