MODEL 1
REMARK minimizedAffinity 4.4004426
REMARK minimizedRMSD -1
REMARK  1 active torsions:
REMARK  status: ('A' for Active; 'I' for Inactive)
REMARK    1  A    between atoms: C1_2  and  C2_3 
ROOT
ATOM      1  C2  UNL d   1       0.981  -0.572  -0.690  0.00  0.00    -0.076 A 
ATOM      2  C3  UNL d   1       1.639  -1.791  -0.452  0.00  0.00     0.004 A 
ATOM      3  C4  UNL d   1       1.017  -3.008  -0.725  0.00  0.00    -0.003 A 
ATOM      4  C5  UNL d   1      -0.273  -3.025  -1.243  0.00  0.00     0.000 A 
ATOM      5  C6  UNL d   1      -0.934  -1.825  -1.503  0.00  0.00     0.000 A 
ATOM      6  C7  UNL d   1      -0.315  -0.589  -1.248  0.00  0.00    -0.073 A 
ATOM      7  C8  UNL d   1      -1.077   0.674  -1.541  0.00  0.00     0.078 C 
ENDROOT
BRANCH   1   8
ATOM      8  C1  UNL d   1       1.696   0.716  -0.348  0.00  0.00     0.053 C 
ATOM      9  C   UNL d   1       3.133   0.735  -0.846  0.00  0.00     0.018 C 
ENDBRANCH   1   8
TORSDOF 1
ENDMDL
