MODEL 1
REMARK minimizedAffinity 1.22296393
REMARK minimizedRMSD -1
REMARK  1 active torsions:
REMARK  status: ('A' for Active; 'I' for Inactive)
REMARK    1  A    between atoms: C1_2  and  C2_3 
ROOT
ATOM      1  C2  UNL d   1      -1.113   1.819   0.345  0.00  0.00    -0.073 A 
ATOM      2  C3  UNL d   1      -1.350   2.626   1.463  0.00  0.00    -0.002 A 
ATOM      3  C4  UNL d   1      -1.023   2.173   2.742  0.00  0.00     0.004 A 
ATOM      4  C5  UNL d   1      -0.449   0.913   2.915  0.00  0.00    -0.004 A 
ATOM      5  C6  UNL d   1      -0.194   0.096   1.808  0.00  0.00    -0.075 A 
ATOM      6  C7  UNL d   1       0.420  -1.262   1.978  0.00  0.00     0.076 C 
ATOM      7  C8  UNL d   1      -0.528   0.557   0.528  0.00  0.00     0.001 A 
ENDROOT
BRANCH   1   8
ATOM      8  C1  UNL d   1      -1.459   2.306  -1.038  0.00  0.00     0.053 C 
ATOM      9  C   UNL d   1      -0.273   2.966  -1.723  0.00  0.00     0.018 C 
ENDBRANCH   1   8
TORSDOF 1
ENDMDL
