MODEL 1
REMARK minimizedAffinity -3.38829303
REMARK minimizedRMSD -1
REMARK  1 active torsions:
REMARK  status: ('A' for Active; 'I' for Inactive)
REMARK    1  A    between atoms: C1_2  and  C2_3 
ROOT
ATOM      1  C2  UNL d   1      -0.618   1.753   0.029  0.00  0.00    -0.073 A 
ATOM      2  C3  UNL d   1       0.251   1.279  -0.961  0.00  0.00    -0.002 A 
ATOM      3  C4  UNL d   1       1.047   0.159  -0.723  0.00  0.00     0.004 A 
ATOM      4  C5  UNL d   1       0.980  -0.503   0.503  0.00  0.00    -0.004 A 
ATOM      5  C6  UNL d   1       0.110  -0.052   1.501  0.00  0.00    -0.075 A 
ATOM      6  C7  UNL d   1       0.027  -0.751   2.826  0.00  0.00     0.076 C 
ATOM      7  C8  UNL d   1      -0.685   1.076   1.255  0.00  0.00     0.001 A 
ENDROOT
BRANCH   1   8
ATOM      8  C1  UNL d   1      -1.485   2.959  -0.226  0.00  0.00     0.053 C 
ATOM      9  C   UNL d   1      -2.291   3.351   1.002  0.00  0.00     0.018 C 
ENDBRANCH   1   8
TORSDOF 1
ENDMDL
