MODEL 1
REMARK minimizedAffinity 0.524674296
REMARK minimizedRMSD -1
REMARK  1 active torsions:
REMARK  status: ('A' for Active; 'I' for Inactive)
REMARK    1  A    between atoms: C1_2  and  C2_3 
ROOT
ATOM      1  C2  UNL d   1       0.309  -0.431   1.887  0.00  0.00    -0.073 A 
ATOM      2  C3  UNL d   1      -0.189  -1.090   0.757  0.00  0.00    -0.002 A 
ATOM      3  C4  UNL d   1      -1.199  -0.509  -0.010  0.00  0.00     0.004 A 
ATOM      4  C5  UNL d   1      -1.716   0.739   0.340  0.00  0.00    -0.004 A 
ATOM      5  C6  UNL d   1      -1.224   1.418   1.458  0.00  0.00    -0.075 A 
ATOM      6  C7  UNL d   1      -1.771   2.760   1.849  0.00  0.00     0.076 C 
ATOM      7  C8  UNL d   1      -0.211   0.827   2.225  0.00  0.00     0.001 A 
ENDROOT
BRANCH   1   8
ATOM      8  C1  UNL d   1       1.404  -1.052   2.715  0.00  0.00     0.053 C 
ATOM      9  C   UNL d   1       0.854  -2.003   3.767  0.00  0.00     0.018 C 
ENDBRANCH   1   8
TORSDOF 1
ENDMDL
