MODEL 1
REMARK minimizedAffinity 5.90238476
REMARK minimizedRMSD -1
REMARK  1 active torsions:
REMARK  status: ('A' for Active; 'I' for Inactive)
REMARK    1  A    between atoms: C1_2  and  C2_3 
ROOT
ATOM      1  C2  UNL d   1      -1.066   2.592   1.047  0.00  0.00    -0.073 A 
ATOM      2  C3  UNL d   1      -2.262   1.993   0.634  0.00  0.00    -0.002 A 
ATOM      3  C4  UNL d   1      -2.334   1.339  -0.597  0.00  0.00     0.004 A 
ATOM      4  C5  UNL d   1      -1.212   1.272  -1.423  0.00  0.00    -0.004 A 
ATOM      5  C6  UNL d   1      -0.005   1.854  -1.022  0.00  0.00    -0.075 A 
ATOM      6  C7  UNL d   1       1.210   1.793  -1.900  0.00  0.00     0.076 C 
ATOM      7  C8  UNL d   1       0.059   2.511   0.214  0.00  0.00     0.001 A 
ENDROOT
BRANCH   1   8
ATOM      8  C1  UNL d   1      -0.982   3.293   2.378  0.00  0.00     0.053 C 
ATOM      9  C   UNL d   1       0.367   3.085   3.048  0.00  0.00     0.018 C 
ENDBRANCH   1   8
TORSDOF 1
ENDMDL
