MODEL 1
REMARK minimizedAffinity -3.76819277
REMARK minimizedRMSD -1
REMARK  1 active torsions:
REMARK  status: ('A' for Active; 'I' for Inactive)
REMARK    1  A    between atoms: C1_2  and  C2_3 
ROOT
ATOM      1  C2  UNL d   1      -0.710   1.344   2.443  0.00  0.00    -0.073 A 
ATOM      2  C3  UNL d   1      -1.583   2.187   1.746  0.00  0.00    -0.002 A 
ATOM      3  C4  UNL d   1      -1.822   1.986   0.386  0.00  0.00     0.004 A 
ATOM      4  C5  UNL d   1      -1.196   0.938  -0.289  0.00  0.00    -0.004 A 
ATOM      5  C6  UNL d   1      -0.329   0.077   0.392  0.00  0.00    -0.075 A 
ATOM      6  C7  UNL d   1       0.353  -1.054  -0.320  0.00  0.00     0.076 C 
ATOM      7  C8  UNL d   1      -0.093   0.287   1.758  0.00  0.00     0.001 A 
ENDROOT
BRANCH   1   8
ATOM      8  C1  UNL d   1      -0.455   1.553   3.913  0.00  0.00     0.053 C 
ATOM      9  C   UNL d   1       0.529   2.684   4.165  0.00  0.00     0.018 C 
ENDBRANCH   1   8
TORSDOF 1
ENDMDL
