MODEL 1
REMARK minimizedAffinity -2.79629469
REMARK minimizedRMSD -1
REMARK  1 active torsions:
REMARK  status: ('A' for Active; 'I' for Inactive)
REMARK    1  A    between atoms: C1_2  and  C2_3 
ROOT
ATOM      1  C2  UNL d   1       0.468  -0.555  -0.620  0.00  0.00    -0.073 A 
ATOM      2  C3  UNL d   1       0.972   0.405  -1.506  0.00  0.00    -0.002 A 
ATOM      3  C4  UNL d   1       0.520   1.724  -1.446  0.00  0.00     0.004 A 
ATOM      4  C5  UNL d   1      -0.432   2.098  -0.498  0.00  0.00    -0.004 A 
ATOM      5  C6  UNL d   1      -0.938   1.156   0.403  0.00  0.00    -0.075 A 
ATOM      6  C7  UNL d   1      -1.965   1.542   1.427  0.00  0.00     0.076 C 
ATOM      7  C8  UNL d   1      -0.482  -0.167   0.335  0.00  0.00     0.001 A 
ENDROOT
BRANCH   1   8
ATOM      8  C1  UNL d   1       0.957  -1.979  -0.677  0.00  0.00     0.053 C 
ATOM      9  C   UNL d   1       0.543  -2.673  -1.965  0.00  0.00     0.018 C 
ENDBRANCH   1   8
TORSDOF 1
ENDMDL
