MODEL 1
REMARK minimizedAffinity -3.44506049
REMARK minimizedRMSD -1
REMARK  1 active torsions:
REMARK  status: ('A' for Active; 'I' for Inactive)
REMARK    1  A    between atoms: C1_2  and  C2_3 
ROOT
ATOM      1  C2  UNL d   1       0.424  -0.504  -0.616  0.00  0.00    -0.073 A 
ATOM      2  C3  UNL d   1       1.114   0.423  -1.406  0.00  0.00    -0.002 A 
ATOM      3  C4  UNL d   1       0.798   1.780  -1.338  0.00  0.00     0.004 A 
ATOM      4  C5  UNL d   1      -0.204   2.226  -0.476  0.00  0.00    -0.004 A 
ATOM      5  C6  UNL d   1      -0.897   1.316   0.330  0.00  0.00    -0.075 A 
ATOM      6  C7  UNL d   1      -1.979   1.779   1.261  0.00  0.00     0.076 C 
ATOM      7  C8  UNL d   1      -0.575  -0.046   0.254  0.00  0.00     0.001 A 
ENDROOT
BRANCH   1   8
ATOM      8  C1  UNL d   1       0.766  -1.970  -0.681  0.00  0.00     0.053 C 
ATOM      9  C   UNL d   1       0.257  -2.618  -1.959  0.00  0.00     0.018 C 
ENDBRANCH   1   8
TORSDOF 1
ENDMDL
