MODEL 1
REMARK minimizedAffinity -5.99129248
REMARK minimizedRMSD -1
REMARK  1 active torsions:
REMARK  status: ('A' for Active; 'I' for Inactive)
REMARK    1  A    between atoms: C1_2  and  C2_3 
ROOT
ATOM      1  C2  UNL d   1       0.242  -0.387   0.617  0.00  0.00    -0.073 A 
ATOM      2  C3  UNL d   1       0.695  -0.777   1.883  0.00  0.00    -0.002 A 
ATOM      3  C4  UNL d   1       0.224  -0.135   3.029  0.00  0.00     0.004 A 
ATOM      4  C5  UNL d   1      -0.709   0.896   2.922  0.00  0.00    -0.004 A 
ATOM      5  C6  UNL d   1      -1.183   1.292   1.667  0.00  0.00    -0.075 A 
ATOM      6  C7  UNL d   1      -2.185   2.401   1.536  0.00  0.00     0.076 C 
ATOM      7  C8  UNL d   1      -0.703   0.644   0.521  0.00  0.00     0.001 A 
ENDROOT
BRANCH   1   8
ATOM      8  C1  UNL d   1       0.743  -1.082  -0.623  0.00  0.00     0.053 C 
ATOM      9  C   UNL d   1       1.757  -0.237  -1.379  0.00  0.00     0.018 C 
ENDBRANCH   1   8
TORSDOF 1
ENDMDL
