MODEL 1
REMARK minimizedAffinity -6.03568268
REMARK minimizedRMSD -1
REMARK  1 active torsions:
REMARK  status: ('A' for Active; 'I' for Inactive)
REMARK    1  A    between atoms: C1_2  and  C2_3 
ROOT
ATOM      1  C2  UNL d   1       0.250   0.085  -0.153  0.00  0.00    -0.073 A 
ATOM      2  C3  UNL d   1      -0.469   1.286  -0.151  0.00  0.00    -0.002 A 
ATOM      3  C4  UNL d   1      -1.276   1.622   0.936  0.00  0.00     0.004 A 
ATOM      4  C5  UNL d   1      -1.368   0.766   2.034  0.00  0.00    -0.004 A 
ATOM      5  C6  UNL d   1      -0.649  -0.433   2.055  0.00  0.00    -0.075 A 
ATOM      6  C7  UNL d   1      -0.738  -1.365   3.227  0.00  0.00     0.076 C 
ATOM      7  C8  UNL d   1       0.158  -0.765   0.958  0.00  0.00     0.001 A 
ENDROOT
BRANCH   1   8
ATOM      8  C1  UNL d   1       1.128  -0.279  -1.323  0.00  0.00     0.053 C 
ATOM      9  C   UNL d   1       0.861  -1.692  -1.818  0.00  0.00     0.018 C 
ENDBRANCH   1   8
TORSDOF 1
ENDMDL
