MODEL 1
REMARK minimizedAffinity -5.62779951
REMARK minimizedRMSD -1
REMARK  1 active torsions:
REMARK  status: ('A' for Active; 'I' for Inactive)
REMARK    1  A    between atoms: C1_2  and  C2_3 
ROOT
ATOM      1  C2  UNL d   1       1.350  -4.582  -1.037  0.00  0.00    -0.073 A 
ATOM      2  C3  UNL d   1       0.663  -4.561  -2.256  0.00  0.00    -0.002 A 
ATOM      3  C4  UNL d   1       0.226  -3.351  -2.798  0.00  0.00     0.004 A 
ATOM      4  C5  UNL d   1       0.476  -2.152  -2.131  0.00  0.00    -0.004 A 
ATOM      5  C6  UNL d   1       1.171  -2.151  -0.917  0.00  0.00    -0.075 A 
ATOM      6  C7  UNL d   1       1.446  -0.870  -0.187  0.00  0.00     0.076 C 
ATOM      7  C8  UNL d   1       1.605  -3.370  -0.379  0.00  0.00     0.001 A 
ENDROOT
BRANCH   1   8
ATOM      8  C1  UNL d   1       1.830  -5.884  -0.452  0.00  0.00     0.053 C 
ATOM      9  C   UNL d   1       3.166  -5.732   0.259  0.00  0.00     0.018 C 
ENDBRANCH   1   8
TORSDOF 1
ENDMDL
