MODEL 1
REMARK minimizedAffinity -5.30991697
REMARK minimizedRMSD -1
REMARK  1 active torsions:
REMARK  status: ('A' for Active; 'I' for Inactive)
REMARK    1  A    between atoms: C1_2  and  C2_3 
ROOT
ATOM      1  C2  UNL d   1       0.004  -0.133   0.164  0.00  0.00    -0.073 A 
ATOM      2  C3  UNL d   1      -0.023  -0.938   1.309  0.00  0.00    -0.002 A 
ATOM      3  C4  UNL d   1      -0.758  -0.547   2.429  0.00  0.00     0.004 A 
ATOM      4  C5  UNL d   1      -1.480   0.647   2.413  0.00  0.00    -0.004 A 
ATOM      5  C6  UNL d   1      -1.475   1.459   1.274  0.00  0.00    -0.075 A 
ATOM      6  C7  UNL d   1      -2.244   2.747   1.242  0.00  0.00     0.076 C 
ATOM      7  C8  UNL d   1      -0.732   1.061   0.155  0.00  0.00     0.001 A 
ENDROOT
BRANCH   1   8
ATOM      8  C1  UNL d   1       0.791  -0.554  -1.049  0.00  0.00     0.053 C 
ATOM      9  C   UNL d   1       1.127  -2.037  -1.025  0.00  0.00     0.018 C 
ENDBRANCH   1   8
TORSDOF 1
ENDMDL
