MODEL 1
REMARK minimizedAffinity 8.71003151
REMARK minimizedRMSD -1
REMARK  2 active torsions:
REMARK  status: ('A' for Active; 'I' for Inactive)
REMARK    1  A    between atoms: C1_2  and  C2_3 
REMARK    2  A    between atoms: C2_3  and  C3_4 
ROOT
ATOM      1  C3  UNL d   1       0.498   3.821  -0.473  0.00  0.00    -0.075 A 
ATOM      2  C4  UNL d   1       1.833   4.126  -0.174  0.00  0.00     0.002 A 
ATOM      3  C5  UNL d   1       2.412   3.684   1.016  0.00  0.00     0.002 A 
ATOM      4  C6  UNL d   1       1.662   2.942   1.925  0.00  0.00    -0.004 A 
ATOM      5  C7  UNL d   1       0.329   2.647   1.646  0.00  0.00     0.002 A 
ATOM      6  C8  UNL d   1      -0.251   3.084   0.454  0.00  0.00     0.002 A 
ENDROOT
BRANCH   1   7
ATOM      7  C2  UNL d   1      -0.126   4.271  -1.773  0.00  0.00     0.056 C 
BRANCH   7   8
ATOM      8  C1  UNL d   1      -1.439   5.041  -1.601  0.00  0.00     0.007 C 
ATOM      9  C   UNL d   1      -2.652   4.286  -2.128  0.00  0.00     0.009 C 
ENDBRANCH   7   8
ENDBRANCH   1   7
TORSDOF 2
ENDMDL
