MODEL 1
REMARK minimizedAffinity 2.50195527
REMARK minimizedRMSD -1
REMARK  2 active torsions:
REMARK  status: ('A' for Active; 'I' for Inactive)
REMARK    1  A    between atoms: C1_2  and  C2_3 
REMARK    2  A    between atoms: C2_3  and  C3_4 
ROOT
ATOM      1  C3  UNL d   1      -5.089   4.223  -3.938  0.00  0.00    -0.075 A 
ATOM      2  C4  UNL d   1      -3.698   4.175  -3.763  0.00  0.00     0.002 A 
ATOM      3  C5  UNL d   1      -2.864   5.039  -4.474  0.00  0.00     0.002 A 
ATOM      4  C6  UNL d   1      -3.408   5.952  -5.374  0.00  0.00    -0.004 A 
ATOM      5  C7  UNL d   1      -4.787   5.998  -5.569  0.00  0.00     0.002 A 
ATOM      6  C8  UNL d   1      -5.624   5.138  -4.855  0.00  0.00     0.002 A 
ENDROOT
BRANCH   1   7
ATOM      7  C2  UNL d   1      -5.999   3.311  -3.150  0.00  0.00     0.056 C 
BRANCH   7   8
ATOM      8  C1  UNL d   1      -5.991   1.856  -3.630  0.00  0.00     0.007 C 
ATOM      9  C   UNL d   1      -6.000   1.724  -5.147  0.00  0.00     0.009 C 
ENDBRANCH   7   8
ENDBRANCH   1   7
TORSDOF 2
ENDMDL
