MODEL 1
REMARK minimizedAffinity 3.97738743
REMARK minimizedRMSD -1
REMARK  2 active torsions:
REMARK  status: ('A' for Active; 'I' for Inactive)
REMARK    1  A    between atoms: C1_2  and  C2_3 
REMARK    2  A    between atoms: C2_3  and  C3_4 
ROOT
ATOM      1  C3  UNL d   1      -0.391   3.900  -0.428  0.00  0.00    -0.075 A 
ATOM      2  C4  UNL d   1       0.951   3.556  -0.213  0.00  0.00     0.002 A 
ATOM      3  C5  UNL d   1       1.321   2.814   0.909  0.00  0.00     0.002 A 
ATOM      4  C6  UNL d   1       0.358   2.417   1.834  0.00  0.00    -0.004 A 
ATOM      5  C7  UNL d   1      -0.976   2.768   1.639  0.00  0.00     0.002 A 
ATOM      6  C8  UNL d   1      -1.350   3.506   0.515  0.00  0.00     0.002 A 
ENDROOT
BRANCH   1   7
ATOM      7  C2  UNL d   1      -0.803   4.678  -1.655  0.00  0.00     0.056 C 
BRANCH   7   8
ATOM      8  C1  UNL d   1      -2.272   5.113  -1.655  0.00  0.00     0.007 C 
ATOM      9  C   UNL d   1      -3.215   4.043  -2.190  0.00  0.00     0.009 C 
ENDBRANCH   7   8
ENDBRANCH   1   7
TORSDOF 2
ENDMDL
