MODEL 1
REMARK minimizedAffinity 0.0974048078
REMARK minimizedRMSD -1
REMARK  2 active torsions:
REMARK  status: ('A' for Active; 'I' for Inactive)
REMARK    1  A    between atoms: C1_2  and  C2_3 
REMARK    2  A    between atoms: C2_3  and  C3_4 
ROOT
ATOM      1  C3  UNL d   1      -0.348   5.206  -1.523  0.00  0.00    -0.075 A 
ATOM      2  C4  UNL d   1       0.792   4.404  -1.361  0.00  0.00     0.002 A 
ATOM      3  C5  UNL d   1       0.970   3.653  -0.199  0.00  0.00     0.002 A 
ATOM      4  C6  UNL d   1       0.020   3.701   0.818  0.00  0.00    -0.004 A 
ATOM      5  C7  UNL d   1      -1.108   4.507   0.676  0.00  0.00     0.002 A 
ATOM      6  C8  UNL d   1      -1.292   5.256  -0.488  0.00  0.00     0.002 A 
ENDROOT
BRANCH   1   7
ATOM      7  C2  UNL d   1      -0.562   5.998  -2.790  0.00  0.00     0.056 C 
BRANCH   7   8
ATOM      8  C1  UNL d   1      -2.008   5.984  -3.298  0.00  0.00     0.007 C 
ATOM      9  C   UNL d   1      -2.111   6.000  -4.817  0.00  0.00     0.009 C 
ENDBRANCH   7   8
ENDBRANCH   1   7
TORSDOF 2
ENDMDL
