MODEL 1
REMARK minimizedAffinity 4.80237675
REMARK minimizedRMSD -1
REMARK  2 active torsions:
REMARK  status: ('A' for Active; 'I' for Inactive)
REMARK    1  A    between atoms: C1_2  and  C2_3 
REMARK    2  A    between atoms: C2_3  and  C3_4 
ROOT
ATOM      1  C3  UNL d   1      -0.465  -2.843  -1.445  0.00  0.00    -0.075 A 
ATOM      2  C4  UNL d   1      -0.209  -1.477  -1.257  0.00  0.00     0.002 A 
ATOM      3  C5  UNL d   1       0.978  -1.055  -0.657  0.00  0.00     0.002 A 
ATOM      4  C6  UNL d   1       1.918  -1.991  -0.230  0.00  0.00    -0.004 A 
ATOM      5  C7  UNL d   1       1.666  -3.351  -0.397  0.00  0.00     0.002 A 
ATOM      6  C8  UNL d   1       0.481  -3.776  -1.001  0.00  0.00     0.002 A 
ENDROOT
BRANCH   1   7
ATOM      7  C2  UNL d   1      -1.734  -3.305  -2.120  0.00  0.00     0.056 C 
BRANCH   7   8
ATOM      8  C1  UNL d   1      -1.540  -3.753  -3.572  0.00  0.00     0.007 C 
ATOM      9  C   UNL d   1      -0.525  -2.909  -4.331  0.00  0.00     0.009 C 
ENDBRANCH   7   8
ENDBRANCH   1   7
TORSDOF 2
ENDMDL
