MODEL 1
REMARK minimizedAffinity 3.11462951
REMARK minimizedRMSD -1
REMARK  2 active torsions:
REMARK  status: ('A' for Active; 'I' for Inactive)
REMARK    1  A    between atoms: C1_2  and  C2_3 
REMARK    2  A    between atoms: C2_3  and  C3_4 
ROOT
ATOM      1  C3  UNL d   1      -0.104   4.216   0.879  0.00  0.00    -0.075 A 
ATOM      2  C4  UNL d   1      -0.356   3.319  -0.169  0.00  0.00     0.002 A 
ATOM      3  C5  UNL d   1      -0.942   3.762  -1.356  0.00  0.00     0.002 A 
ATOM      4  C6  UNL d   1      -1.291   5.103  -1.506  0.00  0.00    -0.004 A 
ATOM      5  C7  UNL d   1      -1.060   5.999  -0.465  0.00  0.00     0.002 A 
ATOM      6  C8  UNL d   1      -0.471   5.559   0.722  0.00  0.00     0.002 A 
ENDROOT
BRANCH   1   7
ATOM      7  C2  UNL d   1       0.556   3.748   2.154  0.00  0.00     0.056 C 
BRANCH   7   8
ATOM      8  C1  UNL d   1      -0.211   2.640   2.883  0.00  0.00     0.007 C 
ATOM      9  C   UNL d   1      -1.593   3.076   3.354  0.00  0.00     0.009 C 
ENDBRANCH   7   8
ENDBRANCH   1   7
TORSDOF 2
ENDMDL
