MODEL 1
REMARK minimizedAffinity 2.77096891
REMARK minimizedRMSD -1
REMARK  2 active torsions:
REMARK  status: ('A' for Active; 'I' for Inactive)
REMARK    1  A    between atoms: C1_2  and  C2_3 
REMARK    2  A    between atoms: C2_3  and  C3_4 
ROOT
ATOM      1  C3  UNL d   1      -1.461   4.149  -1.356  0.00  0.00    -0.075 A 
ATOM      2  C4  UNL d   1      -0.333   4.823  -1.847  0.00  0.00     0.002 A 
ATOM      3  C5  UNL d   1       0.917   4.635  -1.257  0.00  0.00     0.002 A 
ATOM      4  C6  UNL d   1       1.054   3.782  -0.164  0.00  0.00    -0.004 A 
ATOM      5  C7  UNL d   1      -0.062   3.121   0.343  0.00  0.00     0.002 A 
ATOM      6  C8  UNL d   1      -1.314   3.303  -0.249  0.00  0.00     0.002 A 
ENDROOT
BRANCH   1   7
ATOM      7  C2  UNL d   1      -2.811   4.325  -2.009  0.00  0.00     0.056 C 
BRANCH   7   8
ATOM      8  C1  UNL d   1      -3.344   3.059  -2.689  0.00  0.00     0.007 C 
ATOM      9  C   UNL d   1      -4.630   2.537  -2.061  0.00  0.00     0.009 C 
ENDBRANCH   7   8
ENDBRANCH   1   7
TORSDOF 2
ENDMDL
