MODEL 1
REMARK minimizedAffinity 11.0507374
REMARK minimizedRMSD -1
REMARK  2 active torsions:
REMARK  status: ('A' for Active; 'I' for Inactive)
REMARK    1  A    between atoms: C1_2  and  C2_3 
REMARK    2  A    between atoms: C2_3  and  C3_4 
ROOT
ATOM      1  C3  UNL d   1       3.417  -3.446  -0.376  0.00  0.00    -0.075 A 
ATOM      2  C4  UNL d   1       3.863  -2.159  -0.709  0.00  0.00     0.002 A 
ATOM      3  C5  UNL d   1       5.144  -1.965  -1.226  0.00  0.00     0.002 A 
ATOM      4  C6  UNL d   1       5.997  -3.051  -1.408  0.00  0.00    -0.004 A 
ATOM      5  C7  UNL d   1       5.571  -4.332  -1.065  0.00  0.00     0.002 A 
ATOM      6  C8  UNL d   1       4.288  -4.530  -0.550  0.00  0.00     0.002 A 
ENDROOT
BRANCH   1   7
ATOM      7  C2  UNL d   1       2.021  -3.666   0.157  0.00  0.00     0.056 C 
BRANCH   7   8
ATOM      8  C1  UNL d   1       1.154  -4.574  -0.721  0.00  0.00     0.007 C 
ATOM      9  C   UNL d   1      -0.050  -3.859  -1.319  0.00  0.00     0.009 C 
ENDBRANCH   7   8
ENDBRANCH   1   7
TORSDOF 2
ENDMDL
