MODEL 1
REMARK minimizedAffinity 0.578484237
REMARK minimizedRMSD -1
REMARK  0 active torsions:
REMARK  status: ('A' for Active; 'I' for Inactive)
ROOT
ATOM      1  C   UNL d   1      -0.823  -2.538  -0.858  0.00  0.00     0.172 C 
ATOM      2  N   UNL d   1       0.153  -1.526  -0.528  0.00  0.00    -0.070 N 
ATOM      3  C1  UNL d   1       0.960  -1.525   0.578  0.00  0.00    -0.004 A 
ATOM      4  C2  UNL d   1       1.746  -0.394   0.526  0.00  0.00    -0.047 A 
ATOM      5  C3  UNL d   1       1.398   0.310  -0.651  0.00  0.00    -0.047 A 
ATOM      6  C4  UNL d   1       0.409  -0.413  -1.285  0.00  0.00    -0.004 A 
ENDROOT
TORSDOF 0
ENDMDL
