MODEL 1
REMARK minimizedAffinity -1.99732101
REMARK minimizedRMSD -1
REMARK  0 active torsions:
REMARK  status: ('A' for Active; 'I' for Inactive)
ROOT
ATOM      1  C   UNL d   1       0.927  -0.664   0.530  0.00  0.00     0.172 C 
ATOM      2  N   UNL d   1      -0.093  -1.190  -0.347  0.00  0.00    -0.070 N 
ATOM      3  C1  UNL d   1      -1.050  -0.452  -0.991  0.00  0.00    -0.004 A 
ATOM      4  C2  UNL d   1      -1.828  -1.319  -1.727  0.00  0.00    -0.047 A 
ATOM      5  C3  UNL d   1      -1.321  -2.624  -1.518  0.00  0.00    -0.047 A 
ATOM      6  C4  UNL d   1      -0.247  -2.514  -0.660  0.00  0.00    -0.004 A 
ENDROOT
TORSDOF 0
ENDMDL
