MODEL 1
REMARK minimizedAffinity 0.49145332
REMARK minimizedRMSD -1
REMARK  0 active torsions:
REMARK  status: ('A' for Active; 'I' for Inactive)
ROOT
ATOM      1  C   UNL d   1       0.544  -1.011   0.128  0.00  0.00     0.172 C 
ATOM      2  N   UNL d   1       1.290   0.162   0.519  0.00  0.00    -0.070 N 
ATOM      3  C1  UNL d   1       2.445   0.605  -0.067  0.00  0.00    -0.004 A 
ATOM      4  C2  UNL d   1       2.841   1.749   0.593  0.00  0.00    -0.047 A 
ATOM      5  C3  UNL d   1       1.891   2.000   1.611  0.00  0.00    -0.047 A 
ATOM      6  C4  UNL d   1       0.942   1.003   1.543  0.00  0.00    -0.004 A 
ENDROOT
TORSDOF 0
ENDMDL
