MODEL 1
REMARK minimizedAffinity -0.450710267
REMARK minimizedRMSD -1
REMARK  0 active torsions:
REMARK  status: ('A' for Active; 'I' for Inactive)
ROOT
ATOM      1  C   UNL d   1       0.538  -1.082   0.246  0.00  0.00     0.172 C 
ATOM      2  N   UNL d   1       0.692  -0.312   1.458  0.00  0.00    -0.070 N 
ATOM      3  C1  UNL d   1       0.067  -0.565   2.650  0.00  0.00    -0.004 A 
ATOM      4  C2  UNL d   1       0.477   0.392   3.553  0.00  0.00    -0.047 A 
ATOM      5  C3  UNL d   1       1.378   1.251   2.880  0.00  0.00    -0.047 A 
ATOM      6  C4  UNL d   1       1.493   0.792   1.585  0.00  0.00    -0.004 A 
ENDROOT
TORSDOF 0
ENDMDL
