MODEL 1
REMARK minimizedAffinity 1.65981662
REMARK minimizedRMSD -1
REMARK  0 active torsions:
REMARK  status: ('A' for Active; 'I' for Inactive)
ROOT
ATOM      1  C   UNL d   1       0.968  -0.071  -0.378  0.00  0.00     0.172 C 
ATOM      2  N   UNL d   1       1.591   1.156  -0.814  0.00  0.00    -0.070 N 
ATOM      3  C1  UNL d   1       1.921   2.214  -0.009  0.00  0.00    -0.004 A 
ATOM      4  C2  UNL d   1       2.493   3.185  -0.802  0.00  0.00    -0.047 A 
ATOM      5  C3  UNL d   1       2.506   2.695  -2.129  0.00  0.00    -0.047 A 
ATOM      6  C4  UNL d   1       1.941   1.437  -2.108  0.00  0.00    -0.004 A 
ENDROOT
TORSDOF 0
ENDMDL
