MODEL 1
REMARK minimizedAffinity 3.88029075
REMARK minimizedRMSD -1
REMARK  0 active torsions:
REMARK  status: ('A' for Active; 'I' for Inactive)
ROOT
ATOM      1  C   UNL d   1       3.301  -0.760  -0.351  0.00  0.00     0.172 C 
ATOM      2  N   UNL d   1       2.596   0.260   0.388  0.00  0.00    -0.070 N 
ATOM      3  C1  UNL d   1       1.236   0.420   0.431  0.00  0.00    -0.004 A 
ATOM      4  C2  UNL d   1       0.963   1.500   1.242  0.00  0.00    -0.047 A 
ATOM      5  C3  UNL d   1       2.201   2.008   1.702  0.00  0.00    -0.047 A 
ATOM      6  C4  UNL d   1       3.195   1.222   1.158  0.00  0.00    -0.004 A 
ENDROOT
TORSDOF 0
ENDMDL
