MODEL 1
REMARK minimizedAffinity 10.3360958
REMARK minimizedRMSD -1
REMARK  0 active torsions:
REMARK  status: ('A' for Active; 'I' for Inactive)
ROOT
ATOM      1  C   UNL d   1       3.390  -0.463  -1.645  0.00  0.00     0.172 C 
ATOM      2  N   UNL d   1       3.080   0.175  -2.903  0.00  0.00    -0.070 N 
ATOM      3  C1  UNL d   1       3.593   1.367  -3.341  0.00  0.00    -0.004 A 
ATOM      4  C2  UNL d   1       3.052   1.629  -4.581  0.00  0.00    -0.047 A 
ATOM      5  C3  UNL d   1       2.184   0.558  -4.899  0.00  0.00    -0.047 A 
ATOM      6  C4  UNL d   1       2.221  -0.328  -3.843  0.00  0.00    -0.004 A 
ENDROOT
TORSDOF 0
ENDMDL
