MODEL 1
REMARK minimizedAffinity 1.14927006
REMARK minimizedRMSD -1
REMARK  0 active torsions:
REMARK  status: ('A' for Active; 'I' for Inactive)
ROOT
ATOM      1  C   UNL d   1       3.278  -0.920  -0.820  0.00  0.00     0.172 C 
ATOM      2  N   UNL d   1       1.929  -0.832  -0.311  0.00  0.00    -0.070 N 
ATOM      3  C1  UNL d   1       0.822  -1.400  -0.882  0.00  0.00    -0.004 A 
ATOM      4  C2  UNL d   1      -0.266  -1.087  -0.096  0.00  0.00    -0.047 A 
ATOM      5  C3  UNL d   1       0.204  -0.303   0.985  0.00  0.00    -0.047 A 
ATOM      6  C4  UNL d   1       1.566  -0.161   0.827  0.00  0.00    -0.004 A 
ENDROOT
TORSDOF 0
ENDMDL
