MODEL 1
REMARK minimizedAffinity 2.84994555
REMARK minimizedRMSD -1
REMARK  0 active torsions:
REMARK  status: ('A' for Active; 'I' for Inactive)
ROOT
ATOM      1  C   UNL d   1       0.823  -0.996   0.179  0.00  0.00     0.172 C 
ATOM      2  N   UNL d   1       1.304  -0.040   1.148  0.00  0.00    -0.070 N 
ATOM      3  C1  UNL d   1       1.104  -0.105   2.502  0.00  0.00    -0.004 A 
ATOM      4  C2  UNL d   1       1.718   0.989   3.072  0.00  0.00    -0.047 A 
ATOM      5  C3  UNL d   1       2.306   1.738   2.025  0.00  0.00    -0.047 A 
ATOM      6  C4  UNL d   1       2.034   1.079   0.845  0.00  0.00    -0.004 A 
ENDROOT
TORSDOF 0
ENDMDL
