MODEL 1
REMARK minimizedAffinity 2.01375437
REMARK minimizedRMSD -1
REMARK  0 active torsions:
REMARK  status: ('A' for Active; 'I' for Inactive)
ROOT
ATOM      1  C   UNL d   1      -1.132  -6.000  -2.175  0.00  0.00     0.172 C 
ATOM      2  N   UNL d   1      -0.689  -5.384  -3.404  0.00  0.00    -0.070 N 
ATOM      3  C1  UNL d   1      -1.402  -4.482  -4.147  0.00  0.00    -0.004 A 
ATOM      4  C2  UNL d   1      -0.636  -4.136  -5.239  0.00  0.00    -0.047 A 
ATOM      5  C3  UNL d   1       0.580  -4.855  -5.149  0.00  0.00    -0.047 A 
ATOM      6  C4  UNL d   1       0.520  -5.620  -4.003  0.00  0.00    -0.004 A 
ENDROOT
TORSDOF 0
ENDMDL
