MODEL 1
REMARK minimizedAffinity 1.3652935
REMARK minimizedRMSD -1
REMARK  0 active torsions:
REMARK  status: ('A' for Active; 'I' for Inactive)
ROOT
ATOM      1  C   UNL d   1      -4.026  -0.048  -1.096  0.00  0.00     0.172 C 
ATOM      2  N   UNL d   1      -3.482  -0.145   0.238  0.00  0.00    -0.070 N 
ATOM      3  C1  UNL d   1      -3.288   0.901   1.099  0.00  0.00    -0.004 A 
ATOM      4  C2  UNL d   1      -2.752   0.395   2.264  0.00  0.00    -0.047 A 
ATOM      5  C3  UNL d   1      -2.619  -1.004   2.096  0.00  0.00    -0.047 A 
ATOM      6  C4  UNL d   1      -3.078  -1.311   0.833  0.00  0.00    -0.004 A 
ENDROOT
TORSDOF 0
ENDMDL
