MODEL 1
REMARK minimizedAffinity 5.67398882
REMARK minimizedRMSD -1
REMARK  1 active torsions:
REMARK  status: ('A' for Active; 'I' for Inactive)
REMARK    1  A    between atoms: N_2  and  C1_3 
ROOT
ATOM      1  C1  UNL d   1       0.749  -0.771   2.899  0.00  0.00     0.143 A 
ATOM      2  C2  UNL d   1       1.164  -0.224   1.680  0.00  0.00    -0.057 A 
ATOM      3  C3  UNL d   1       0.240   0.286   0.760  0.00  0.00     0.033 A 
ATOM      4  C4  UNL d   1      -1.123   0.231   1.032  0.00  0.00    -0.042 A 
ATOM      5  C5  UNL d   1      -1.561  -0.331   2.226  0.00  0.00     0.033 A 
ATOM      6  C6  UNL d   1      -0.632  -0.832   3.144  0.00  0.00    -0.057 A 
ENDROOT
BRANCH   1   7
ATOM      7  N   UNL d   1       1.612  -1.383   3.811  0.00  0.00    -0.732 N 
ATOM      8  C   UNL d   1       1.107  -1.924   5.054  0.00  0.00     0.284 C 
ATOM      9  H3  UNL d   1       2.308  -1.968   3.355  0.00  0.00     0.395 HD
ENDBRANCH   1   7
TORSDOF 1
ENDMDL
