MODEL 1
REMARK minimizedAffinity -1.34983349
REMARK minimizedRMSD -1
REMARK  1 active torsions:
REMARK  status: ('A' for Active; 'I' for Inactive)
REMARK    1  A    between atoms: N_2  and  C1_3 
ROOT
ATOM      1  C1  UNL d   1       0.845  -1.461   3.829  0.00  0.00     0.143 A 
ATOM      2  C2  UNL d   1      -0.419  -0.871   3.721  0.00  0.00    -0.057 A 
ATOM      3  C3  UNL d   1      -0.797  -0.170   2.569  0.00  0.00     0.033 A 
ATOM      4  C4  UNL d   1       0.096  -0.022   1.513  0.00  0.00    -0.042 A 
ATOM      5  C5  UNL d   1       1.367  -0.578   1.609  0.00  0.00     0.033 A 
ATOM      6  C6  UNL d   1       1.736  -1.283   2.759  0.00  0.00    -0.057 A 
ENDROOT
BRANCH   1   7
ATOM      7  N   UNL d   1       1.315  -2.086   4.987  0.00  0.00    -0.732 N 
ATOM      8  C   UNL d   1       2.633  -1.785   5.504  0.00  0.00     0.284 C 
ATOM      9  H3  UNL d   1       0.597  -2.169   5.702  0.00  0.00     0.395 HD
ENDBRANCH   1   7
TORSDOF 1
ENDMDL
