MODEL 1
REMARK minimizedAffinity 2.47545981
REMARK minimizedRMSD -1
REMARK  1 active torsions:
REMARK  status: ('A' for Active; 'I' for Inactive)
REMARK    1  A    between atoms: N_2  and  C1_3 
ROOT
ATOM      1  C1  UNL d   1      -1.063  -0.399   1.441  0.00  0.00     0.143 A 
ATOM      2  C2  UNL d   1      -1.444  -1.423   2.315  0.00  0.00    -0.057 A 
ATOM      3  C3  UNL d   1      -0.548  -1.947   3.254  0.00  0.00     0.033 A 
ATOM      4  C4  UNL d   1       0.759  -1.474   3.317  0.00  0.00    -0.042 A 
ATOM      5  C5  UNL d   1       1.167  -0.474   2.441  0.00  0.00     0.033 A 
ATOM      6  C6  UNL d   1       0.265   0.050   1.510  0.00  0.00    -0.057 A 
ENDROOT
BRANCH   1   7
ATOM      7  N   UNL d   1      -1.878   0.095   0.420  0.00  0.00    -0.732 N 
ATOM      8  C   UNL d   1      -1.933  -0.568  -0.866  0.00  0.00     0.284 C 
ATOM      9  H3  UNL d   1      -2.782   0.412   0.763  0.00  0.00     0.395 HD
ENDBRANCH   1   7
TORSDOF 1
ENDMDL
