MODEL 1
REMARK minimizedAffinity -0.800877988
REMARK minimizedRMSD -1
REMARK  1 active torsions:
REMARK  status: ('A' for Active; 'I' for Inactive)
REMARK    1  A    between atoms: N_2  and  C1_3 
ROOT
ATOM      1  C1  UNL d   1      -0.471  -0.013   1.963  0.00  0.00     0.143 A 
ATOM      2  C2  UNL d   1      -0.744  -0.830   3.065  0.00  0.00    -0.057 A 
ATOM      3  C3  UNL d   1       0.287  -1.430   3.798  0.00  0.00     0.033 A 
ATOM      4  C4  UNL d   1       1.614  -1.244   3.422  0.00  0.00    -0.042 A 
ATOM      5  C5  UNL d   1       1.908  -0.456   2.316  0.00  0.00     0.033 A 
ATOM      6  C6  UNL d   1       0.873   0.145   1.592  0.00  0.00    -0.057 A 
ENDROOT
BRANCH   1   7
ATOM      7  N   UNL d   1      -1.456   0.531   1.135  0.00  0.00    -0.732 N 
ATOM      8  C   UNL d   1      -1.748  -0.064  -0.152  0.00  0.00     0.284 C 
ATOM      9  H3  UNL d   1      -2.280   0.826   1.653  0.00  0.00     0.395 HD
ENDBRANCH   1   7
TORSDOF 1
ENDMDL
