MODEL 1
REMARK minimizedAffinity 1.33443785
REMARK minimizedRMSD -1
REMARK  0 active torsions:
REMARK  status: ('A' for Active; 'I' for Inactive)
ROOT
ATOM      1  C   UNL d   1      -0.614  -0.689  -2.929  0.00  0.00     0.078 C 
ATOM      2  C1  UNL d   1      -1.947  -0.202  -3.415  0.00  0.00    -0.077 A 
ATOM      3  C2  UNL d   1      -3.132  -0.592  -2.780  0.00  0.00    -0.001 A 
ATOM      4  C3  UNL d   1      -4.366  -0.138  -3.249  0.00  0.00     0.003 A 
ATOM      5  C4  UNL d   1      -4.427   0.706  -4.356  0.00  0.00    -0.005 A 
ATOM      6  C5  UNL d   1      -3.252   1.098  -4.995  0.00  0.00     0.003 A 
ATOM      7  C6  UNL d   1      -2.017   0.645  -4.528  0.00  0.00    -0.001 A 
ENDROOT
TORSDOF 0
ENDMDL
