MODEL 1
REMARK minimizedAffinity 6.02897739
REMARK minimizedRMSD -1
REMARK  0 active torsions:
REMARK  status: ('A' for Active; 'I' for Inactive)
ROOT
ATOM      1  C   UNL d   1       2.023   1.589   1.138  0.00  0.00     0.078 C 
ATOM      2  C1  UNL d   1       2.414   0.169   0.855  0.00  0.00    -0.077 A 
ATOM      3  C2  UNL d   1       3.310  -0.512   1.687  0.00  0.00    -0.001 A 
ATOM      4  C3  UNL d   1       3.672  -1.830   1.406  0.00  0.00     0.003 A 
ATOM      5  C4  UNL d   1       3.143  -2.479   0.292  0.00  0.00    -0.005 A 
ATOM      6  C5  UNL d   1       2.252  -1.808  -0.543  0.00  0.00     0.003 A 
ATOM      7  C6  UNL d   1       1.889  -0.490  -0.264  0.00  0.00    -0.001 A 
ENDROOT
TORSDOF 0
ENDMDL
