MODEL 1
REMARK minimizedAffinity 3.66491771
REMARK minimizedRMSD -1
REMARK  0 active torsions:
REMARK  status: ('A' for Active; 'I' for Inactive)
ROOT
ATOM      1  C   UNL d   1      -1.112   0.493   3.114  0.00  0.00     0.078 C 
ATOM      2  C1  UNL d   1      -0.421   1.468   2.207  0.00  0.00    -0.077 A 
ATOM      3  C2  UNL d   1       0.619   1.056   1.365  0.00  0.00    -0.001 A 
ATOM      4  C3  UNL d   1       1.260   1.976   0.534  0.00  0.00     0.003 A 
ATOM      5  C4  UNL d   1       0.869   3.313   0.537  0.00  0.00    -0.005 A 
ATOM      6  C5  UNL d   1      -0.163   3.733   1.373  0.00  0.00     0.003 A 
ATOM      7  C6  UNL d   1      -0.806   2.814   2.206  0.00  0.00    -0.001 A 
ENDROOT
TORSDOF 0
ENDMDL
