MODEL 1
REMARK minimizedAffinity -0.119217023
REMARK minimizedRMSD -1
REMARK  0 active torsions:
REMARK  status: ('A' for Active; 'I' for Inactive)
ROOT
ATOM      1  C   UNL d   1      -0.975  -2.399   0.972  0.00  0.00     0.124 A 
ATOM      2  C1  UNL d   1       0.376  -2.440   0.657  0.00  0.00     0.062 A 
ATOM      3  C2  UNL d   1       0.975  -1.368   0.002  0.00  0.00     0.162 A 
ATOM      4  C3  UNL d   1       0.222  -0.245  -0.343  0.00  0.00    -0.034 A 
ATOM      5  C4  UNL d   1      -1.136  -0.212  -0.024  0.00  0.00     0.162 A 
ATOM      6  C5  UNL d   1      -1.730  -1.286   0.632  0.00  0.00     0.062 A 
ATOM      7  F   UNL d   1      -3.035  -1.245   0.935  0.00  0.00    -0.097 F 
ATOM      8  F1  UNL d   1      -1.889   0.852  -0.341  0.00  0.00    -0.096 F 
ATOM      9  I   UNL d   1       1.113   1.360  -1.324  0.00  0.00    -0.060 I 
ATOM     10  F2  UNL d   1       2.282  -1.434  -0.290  0.00  0.00    -0.096 F 
ATOM     11  F3  UNL d   1       1.108  -3.515   0.985  0.00  0.00    -0.097 F 
ATOM     12  F4  UNL d   1      -1.548  -3.433   1.602  0.00  0.00    -0.092 F 
ENDROOT
TORSDOF 0
ENDMDL
