MODEL 1
REMARK minimizedAffinity 10.9078875
REMARK minimizedRMSD -1
REMARK  0 active torsions:
REMARK  status: ('A' for Active; 'I' for Inactive)
ROOT
ATOM      1  C   UNL d   1      -1.843  -3.520  -3.493  0.00  0.00     0.124 A 
ATOM      2  C1  UNL d   1      -3.077  -2.935  -3.242  0.00  0.00     0.062 A 
ATOM      3  C2  UNL d   1      -4.212  -3.379  -3.914  0.00  0.00     0.162 A 
ATOM      4  C3  UNL d   1      -4.119  -4.416  -4.843  0.00  0.00    -0.034 A 
ATOM      5  C4  UNL d   1      -2.875  -4.999  -5.091  0.00  0.00     0.162 A 
ATOM      6  C5  UNL d   1      -1.743  -4.551  -4.417  0.00  0.00     0.062 A 
ATOM      7  F   UNL d   1      -0.553  -5.118  -4.660  0.00  0.00    -0.097 F 
ATOM      8  F1  UNL d   1      -2.750  -5.997  -5.978  0.00  0.00    -0.096 F 
ATOM      9  I   UNL d   1      -5.814  -5.083  -5.850  0.00  0.00    -0.060 I 
ATOM     10  F2  UNL d   1      -5.390  -2.796  -3.652  0.00  0.00    -0.096 F 
ATOM     11  F3  UNL d   1      -3.175  -1.938  -2.351  0.00  0.00    -0.097 F 
ATOM     12  F4  UNL d   1      -0.752  -3.090  -2.845  0.00  0.00    -0.092 F 
ENDROOT
TORSDOF 0
ENDMDL
