MODEL 1
REMARK minimizedAffinity 1.01059508
REMARK minimizedRMSD -1
REMARK  0 active torsions:
REMARK  status: ('A' for Active; 'I' for Inactive)
ROOT
ATOM      1  C   UNL d   1      -5.275  -2.266  -3.140  0.00  0.00     0.124 A 
ATOM      2  C1  UNL d   1      -4.525  -1.739  -4.182  0.00  0.00     0.062 A 
ATOM      3  C2  UNL d   1      -3.773  -2.580  -4.997  0.00  0.00     0.162 A 
ATOM      4  C3  UNL d   1      -3.768  -3.957  -4.775  0.00  0.00    -0.034 A 
ATOM      5  C4  UNL d   1      -4.524  -4.479  -3.724  0.00  0.00     0.162 A 
ATOM      6  C5  UNL d   1      -5.275  -3.635  -2.912  0.00  0.00     0.062 A 
ATOM      7  F   UNL d   1      -5.999  -4.146  -1.906  0.00  0.00    -0.097 F 
ATOM      8  F1  UNL d   1      -4.542  -5.798  -3.482  0.00  0.00    -0.096 F 
ATOM      9  I   UNL d   1      -2.644  -5.217  -5.992  0.00  0.00    -0.060 I 
ATOM     10  F2  UNL d   1      -3.057  -2.043  -5.997  0.00  0.00    -0.096 F 
ATOM     11  F3  UNL d   1      -4.523  -0.417  -4.403  0.00  0.00    -0.097 F 
ATOM     12  F4  UNL d   1      -5.998  -1.455  -2.356  0.00  0.00    -0.092 F 
ENDROOT
TORSDOF 0
ENDMDL
