MODEL 1
REMARK minimizedAffinity 1.06803048
REMARK minimizedRMSD -1
REMARK  0 active torsions:
REMARK  status: ('A' for Active; 'I' for Inactive)
ROOT
ATOM      1  C   UNL d   1      -4.926  -2.604  -4.271  0.00  0.00     0.124 A 
ATOM      2  C1  UNL d   1      -4.951  -3.891  -3.752  0.00  0.00     0.062 A 
ATOM      3  C2  UNL d   1      -3.892  -4.762  -3.987  0.00  0.00     0.162 A 
ATOM      4  C3  UNL d   1      -2.797  -4.350  -4.746  0.00  0.00    -0.034 A 
ATOM      5  C4  UNL d   1      -2.778  -3.054  -5.266  0.00  0.00     0.162 A 
ATOM      6  C5  UNL d   1      -3.840  -2.187  -5.028  0.00  0.00     0.062 A 
ATOM      7  F   UNL d   1      -3.813  -0.944  -5.531  0.00  0.00    -0.097 F 
ATOM      8  F1  UNL d   1      -1.741  -2.625  -6.000  0.00  0.00    -0.096 F 
ATOM      9  I   UNL d   1      -1.211  -5.650  -5.100  0.00  0.00    -0.060 I 
ATOM     10  F2  UNL d   1      -3.944  -6.000  -3.472  0.00  0.00    -0.096 F 
ATOM     11  F3  UNL d   1      -6.000  -4.296  -3.021  0.00  0.00    -0.097 F 
ATOM     12  F4  UNL d   1      -5.947  -1.768  -4.044  0.00  0.00    -0.092 F 
ENDROOT
TORSDOF 0
ENDMDL
