MODEL 1
REMARK minimizedAffinity 7.60398436
REMARK minimizedRMSD -1
REMARK  0 active torsions:
REMARK  status: ('A' for Active; 'I' for Inactive)
ROOT
ATOM      1  C   UNL d   1      -3.953  -2.393  -3.001  0.00  0.00     0.124 A 
ATOM      2  C1  UNL d   1      -4.728  -2.036  -4.096  0.00  0.00     0.062 A 
ATOM      3  C2  UNL d   1      -5.227  -3.015  -4.949  0.00  0.00     0.162 A 
ATOM      4  C3  UNL d   1      -4.955  -4.362  -4.710  0.00  0.00    -0.034 A 
ATOM      5  C4  UNL d   1      -4.174  -4.714  -3.608  0.00  0.00     0.162 A 
ATOM      6  C5  UNL d   1      -3.677  -3.731  -2.758  0.00  0.00     0.062 A 
ATOM      7  F   UNL d   1      -2.929  -4.078  -1.701  0.00  0.00    -0.097 F 
ATOM      8  F1  UNL d   1      -3.893  -6.000  -3.349  0.00  0.00    -0.096 F 
ATOM      9  I   UNL d   1      -5.700  -5.830  -5.984  0.00  0.00    -0.060 I 
ATOM     10  F2  UNL d   1      -5.973  -2.642  -5.999  0.00  0.00    -0.096 F 
ATOM     11  F3  UNL d   1      -4.995  -0.744  -4.333  0.00  0.00    -0.097 F 
ATOM     12  F4  UNL d   1      -3.472  -1.448  -2.182  0.00  0.00    -0.092 F 
ENDROOT
TORSDOF 0
ENDMDL
