MODEL 1
REMARK minimizedAffinity 10.2560225
REMARK minimizedRMSD -1
REMARK  0 active torsions:
REMARK  status: ('A' for Active; 'I' for Inactive)
ROOT
ATOM      1  C   UNL d   1      -4.818  -2.632  -4.571  0.00  0.00     0.124 A 
ATOM      2  C1  UNL d   1      -3.665  -2.300  -3.872  0.00  0.00     0.062 A 
ATOM      3  C2  UNL d   1      -2.568  -3.156  -3.882  0.00  0.00     0.162 A 
ATOM      4  C3  UNL d   1      -2.618  -4.354  -4.595  0.00  0.00    -0.034 A 
ATOM      5  C4  UNL d   1      -3.781  -4.683  -5.295  0.00  0.00     0.162 A 
ATOM      6  C5  UNL d   1      -4.874  -3.823  -5.281  0.00  0.00     0.062 A 
ATOM      7  F   UNL d   1      -5.987  -4.146  -5.957  0.00  0.00    -0.097 F 
ATOM      8  F1  UNL d   1      -3.862  -5.826  -5.990  0.00  0.00    -0.096 F 
ATOM      9  I   UNL d   1      -0.980  -5.638  -4.613  0.00  0.00    -0.060 I 
ATOM     10  F2  UNL d   1      -1.468  -2.809  -3.198  0.00  0.00    -0.096 F 
ATOM     11  F3  UNL d   1      -3.609  -1.150  -3.184  0.00  0.00    -0.097 F 
ATOM     12  F4  UNL d   1      -5.872  -1.807  -4.558  0.00  0.00    -0.092 F 
ENDROOT
TORSDOF 0
ENDMDL
