MODEL 1
REMARK minimizedAffinity 2.52733207
REMARK minimizedRMSD -1
REMARK  0 active torsions:
REMARK  status: ('A' for Active; 'I' for Inactive)
ROOT
ATOM      1  C   UNL d   1      -4.672  -2.402  -2.663  0.00  0.00     0.124 A 
ATOM      2  C1  UNL d   1      -5.292  -2.151  -3.880  0.00  0.00     0.062 A 
ATOM      3  C2  UNL d   1      -5.396  -3.160  -4.833  0.00  0.00     0.162 A 
ATOM      4  C3  UNL d   1      -4.879  -4.429  -4.575  0.00  0.00    -0.034 A 
ATOM      5  C4  UNL d   1      -4.256  -4.674  -3.350  0.00  0.00     0.162 A 
ATOM      6  C5  UNL d   1      -4.155  -3.663  -2.399  0.00  0.00     0.062 A 
ATOM      7  F   UNL d   1      -3.555  -3.907  -1.225  0.00  0.00    -0.097 F 
ATOM      8  F1  UNL d   1      -3.748  -5.883  -3.068  0.00  0.00    -0.096 F 
ATOM      9  I   UNL d   1      -5.032  -5.940  -5.998  0.00  0.00    -0.060 I 
ATOM     10  F2  UNL d   1      -6.000  -2.889  -6.000  0.00  0.00    -0.096 F 
ATOM     11  F3  UNL d   1      -5.791  -0.934  -4.137  0.00  0.00    -0.097 F 
ATOM     12  F4  UNL d   1      -4.572  -1.430  -1.748  0.00  0.00    -0.092 F 
ENDROOT
TORSDOF 0
ENDMDL
