MODEL 1
REMARK minimizedAffinity 16.4878654
REMARK minimizedRMSD -1
REMARK  0 active torsions:
REMARK  status: ('A' for Active; 'I' for Inactive)
ROOT
ATOM      1  C   UNL d   1      -2.077  -4.759  -4.323  0.00  0.00     0.124 A 
ATOM      2  C1  UNL d   1      -3.238  -4.971  -5.054  0.00  0.00     0.062 A 
ATOM      3  C2  UNL d   1      -4.359  -4.176  -4.833  0.00  0.00     0.162 A 
ATOM      4  C3  UNL d   1      -4.325  -3.161  -3.877  0.00  0.00    -0.034 A 
ATOM      5  C4  UNL d   1      -3.154  -2.955  -3.145  0.00  0.00     0.162 A 
ATOM      6  C5  UNL d   1      -2.037  -3.752  -3.369  0.00  0.00     0.062 A 
ATOM      7  F   UNL d   1      -0.916  -3.546  -2.662  0.00  0.00    -0.097 F 
ATOM      8  F1  UNL d   1      -3.087  -1.988  -2.218  0.00  0.00    -0.096 F 
ATOM      9  I   UNL d   1      -5.999  -1.971  -3.544  0.00  0.00    -0.060 I 
ATOM     10  F2  UNL d   1      -5.467  -4.403  -5.555  0.00  0.00    -0.096 F 
ATOM     11  F3  UNL d   1      -3.280  -5.944  -5.975  0.00  0.00    -0.097 F 
ATOM     12  F4  UNL d   1      -1.000  -5.526  -4.537  0.00  0.00    -0.092 F 
ENDROOT
TORSDOF 0
ENDMDL
