MODEL 1
REMARK minimizedAffinity 11.6496038
REMARK minimizedRMSD -1
REMARK  0 active torsions:
REMARK  status: ('A' for Active; 'I' for Inactive)
ROOT
ATOM      1  C   UNL d   1      -3.640  -4.989  -4.971  0.00  0.00     0.124 A 
ATOM      2  C1  UNL d   1      -2.348  -4.733  -4.531  0.00  0.00     0.062 A 
ATOM      3  C2  UNL d   1      -2.131  -3.867  -3.463  0.00  0.00     0.162 A 
ATOM      4  C3  UNL d   1      -3.209  -3.251  -2.827  0.00  0.00    -0.034 A 
ATOM      5  C4  UNL d   1      -4.505  -3.512  -3.275  0.00  0.00     0.162 A 
ATOM      6  C5  UNL d   1      -4.716  -4.379  -4.343  0.00  0.00     0.062 A 
ATOM      7  F   UNL d   1      -5.965  -4.625  -4.766  0.00  0.00    -0.097 F 
ATOM      8  F1  UNL d   1      -5.563  -2.937  -2.686  0.00  0.00    -0.096 F 
ATOM      9  I   UNL d   1      -2.888  -1.955  -1.230  0.00  0.00    -0.060 I 
ATOM     10  F2  UNL d   1      -0.873  -3.638  -3.060  0.00  0.00    -0.096 F 
ATOM     11  F3  UNL d   1      -1.307  -5.320  -5.137  0.00  0.00    -0.097 F 
ATOM     12  F4  UNL d   1      -3.846  -5.822  -5.999  0.00  0.00    -0.092 F 
ENDROOT
TORSDOF 0
ENDMDL
