MODEL 1
REMARK minimizedAffinity 7.683074
REMARK minimizedRMSD -1
REMARK  0 active torsions:
REMARK  status: ('A' for Active; 'I' for Inactive)
ROOT
ATOM      1  C   UNL d   1      -1.310  -4.352  -4.289  0.00  0.00     0.124 A 
ATOM      2  C1  UNL d   1      -2.196  -5.004  -5.136  0.00  0.00     0.062 A 
ATOM      3  C2  UNL d   1      -3.536  -4.627  -5.172  0.00  0.00     0.162 A 
ATOM      4  C3  UNL d   1      -3.998  -3.592  -4.358  0.00  0.00    -0.034 A 
ATOM      5  C4  UNL d   1      -3.101  -2.942  -3.508  0.00  0.00     0.162 A 
ATOM      6  C5  UNL d   1      -1.763  -3.323  -3.476  0.00  0.00     0.062 A 
ATOM      7  F   UNL d   1      -0.909  -2.692  -2.657  0.00  0.00    -0.097 F 
ATOM      8  F1  UNL d   1      -3.512  -1.943  -2.713  0.00  0.00    -0.096 F 
ATOM      9  I   UNL d   1      -6.000  -3.026  -4.409  0.00  0.00    -0.060 I 
ATOM     10  F2  UNL d   1      -4.369  -5.274  -6.000  0.00  0.00    -0.096 F 
ATOM     11  F3  UNL d   1      -1.761  -6.000  -5.921  0.00  0.00    -0.097 F 
ATOM     12  F4  UNL d   1      -0.022  -4.718  -4.255  0.00  0.00    -0.092 F 
ENDROOT
TORSDOF 0
ENDMDL
