MODEL 1
REMARK minimizedAffinity 4.78108263
REMARK minimizedRMSD -1
REMARK  0 active torsions:
REMARK  status: ('A' for Active; 'I' for Inactive)
ROOT
ATOM      1  C   UNL d   1      -2.401  -2.375  -5.871  0.00  0.00     0.124 A 
ATOM      2  C1  UNL d   1      -3.747  -2.051  -5.773  0.00  0.00     0.062 A 
ATOM      3  C2  UNL d   1      -4.706  -3.057  -5.709  0.00  0.00     0.162 A 
ATOM      4  C3  UNL d   1      -4.323  -4.398  -5.742  0.00  0.00    -0.034 A 
ATOM      5  C4  UNL d   1      -2.968  -4.716  -5.841  0.00  0.00     0.162 A 
ATOM      6  C5  UNL d   1      -2.013  -3.707  -5.905  0.00  0.00     0.062 A 
ATOM      7  F   UNL d   1      -0.713  -4.023  -6.000  0.00  0.00    -0.097 F 
ATOM      8  F1  UNL d   1      -2.565  -5.995  -5.875  0.00  0.00    -0.096 F 
ATOM      9  I   UNL d   1      -5.755  -5.905  -5.646  0.00  0.00    -0.060 I 
ATOM     10  F2  UNL d   1      -6.000  -2.714  -5.615  0.00  0.00    -0.096 F 
ATOM     11  F3  UNL d   1      -4.124  -0.765  -5.741  0.00  0.00    -0.097 F 
ATOM     12  F4  UNL d   1      -1.479  -1.405  -5.933  0.00  0.00    -0.092 F 
ENDROOT
TORSDOF 0
ENDMDL
