MODEL 1
REMARK minimizedAffinity -0.884068429
REMARK minimizedRMSD -1
REMARK  0 active torsions:
REMARK  status: ('A' for Active; 'I' for Inactive)
ROOT
ATOM      1  C   UNL d   1      -2.406  -3.223  -3.594  0.00  0.00     0.124 A 
ATOM      2  C1  UNL d   1      -3.716  -2.784  -3.460  0.00  0.00     0.062 A 
ATOM      3  C2  UNL d   1      -4.743  -3.428  -4.143  0.00  0.00     0.162 A 
ATOM      4  C3  UNL d   1      -4.465  -4.519  -4.967  0.00  0.00    -0.034 A 
ATOM      5  C4  UNL d   1      -3.145  -4.954  -5.098  0.00  0.00     0.162 A 
ATOM      6  C5  UNL d   1      -2.122  -4.307  -4.413  0.00  0.00     0.062 A 
ATOM      7  F   UNL d   1      -0.857  -4.732  -4.544  0.00  0.00    -0.097 F 
ATOM      8  F1  UNL d   1      -2.843  -6.000  -5.881  0.00  0.00    -0.096 F 
ATOM      9  I   UNL d   1      -5.999  -5.484  -5.990  0.00  0.00    -0.060 I 
ATOM     10  F2  UNL d   1      -5.999  -2.982  -3.995  0.00  0.00    -0.096 F 
ATOM     11  F3  UNL d   1      -3.992  -1.736  -2.670  0.00  0.00    -0.097 F 
ATOM     12  F4  UNL d   1      -1.419  -2.601  -2.936  0.00  0.00    -0.092 F 
ENDROOT
TORSDOF 0
ENDMDL
