MODEL 1
REMARK minimizedAffinity 10.4187298
REMARK minimizedRMSD -1
REMARK  0 active torsions:
REMARK  status: ('A' for Active; 'I' for Inactive)
ROOT
ATOM      1  C   UNL d   1      -2.662  -5.022  -4.275  0.00  0.00     0.124 A 
ATOM      2  C1  UNL d   1      -3.807  -4.995  -5.058  0.00  0.00     0.062 A 
ATOM      3  C2  UNL d   1      -4.760  -3.998  -4.871  0.00  0.00     0.162 A 
ATOM      4  C3  UNL d   1      -4.571  -3.018  -3.897  0.00  0.00    -0.034 A 
ATOM      5  C4  UNL d   1      -3.417  -3.052  -3.112  0.00  0.00     0.162 A 
ATOM      6  C5  UNL d   1      -2.468  -4.050  -3.303  0.00  0.00     0.062 A 
ATOM      7  F   UNL d   1      -1.362  -4.075  -2.545  0.00  0.00    -0.097 F 
ATOM      8  F1  UNL d   1      -3.204  -2.125  -2.166  0.00  0.00    -0.096 F 
ATOM      9  I   UNL d   1      -5.994  -1.525  -3.614  0.00  0.00    -0.060 I 
ATOM     10  F2  UNL d   1      -5.857  -3.997  -5.643  0.00  0.00    -0.096 F 
ATOM     11  F3  UNL d   1      -3.997  -5.933  -5.998  0.00  0.00    -0.097 F 
ATOM     12  F4  UNL d   1      -1.747  -5.983  -4.456  0.00  0.00    -0.092 F 
ENDROOT
TORSDOF 0
ENDMDL
