MODEL 1
REMARK minimizedAffinity 6.76993847
REMARK minimizedRMSD -1
REMARK  0 active torsions:
REMARK  status: ('A' for Active; 'I' for Inactive)
ROOT
ATOM      1  C   UNL d   1       0.376   3.015  -3.967  0.00  0.00     0.124 A 
ATOM      2  C1  UNL d   1      -0.823   2.914  -3.275  0.00  0.00     0.062 A 
ATOM      3  C2  UNL d   1      -0.998   1.918  -2.319  0.00  0.00     0.162 A 
ATOM      4  C3  UNL d   1       0.029   1.014  -2.048  0.00  0.00    -0.034 A 
ATOM      5  C4  UNL d   1       1.232   1.121  -2.748  0.00  0.00     0.162 A 
ATOM      6  C5  UNL d   1       1.402   2.118  -3.703  0.00  0.00     0.062 A 
ATOM      7  F   UNL d   1       2.562   2.214  -4.370  0.00  0.00    -0.097 F 
ATOM      8  F1  UNL d   1       2.240   0.268  -2.512  0.00  0.00    -0.096 F 
ATOM      9  I   UNL d   1      -0.229  -0.477  -0.619  0.00  0.00    -0.060 I 
ATOM     10  F2  UNL d   1      -2.168   1.845  -1.666  0.00  0.00    -0.096 F 
ATOM     11  F3  UNL d   1      -1.816   3.779  -3.529  0.00  0.00    -0.097 F 
ATOM     12  F4  UNL d   1       0.542   3.974  -4.887  0.00  0.00    -0.092 F 
ENDROOT
TORSDOF 0
ENDMDL
