MODEL 1
REMARK minimizedAffinity 6.61897659
REMARK minimizedRMSD -1
REMARK  0 active torsions:
REMARK  status: ('A' for Active; 'I' for Inactive)
ROOT
ATOM      1  C   UNL d   1      -2.216  -3.765  -3.168  0.00  0.00     0.124 A 
ATOM      2  C1  UNL d   1      -3.523  -3.357  -2.945  0.00  0.00     0.062 A 
ATOM      3  C2  UNL d   1      -4.553  -3.837  -3.748  0.00  0.00     0.162 A 
ATOM      4  C3  UNL d   1      -4.280  -4.732  -4.783  0.00  0.00    -0.034 A 
ATOM      5  C4  UNL d   1      -2.962  -5.137  -5.002  0.00  0.00     0.162 A 
ATOM      6  C5  UNL d   1      -1.936  -4.654  -4.196  0.00  0.00     0.062 A 
ATOM      7  F   UNL d   1      -0.673  -5.049  -4.414  0.00  0.00    -0.097 F 
ATOM      8  F1  UNL d   1      -2.664  -5.996  -5.988  0.00  0.00    -0.096 F 
ATOM      9  I   UNL d   1      -5.818  -5.453  -5.986  0.00  0.00    -0.060 I 
ATOM     10  F2  UNL d   1      -5.808  -3.426  -3.509  0.00  0.00    -0.096 F 
ATOM     11  F3  UNL d   1      -3.796  -2.497  -1.953  0.00  0.00    -0.097 F 
ATOM     12  F4  UNL d   1      -1.226  -3.300  -2.394  0.00  0.00    -0.092 F 
ENDROOT
TORSDOF 0
ENDMDL
