MODEL 1
REMARK minimizedAffinity 11.4760799
REMARK minimizedRMSD -1
REMARK  0 active torsions:
REMARK  status: ('A' for Active; 'I' for Inactive)
ROOT
ATOM      1  C   UNL d   1       0.005  -1.613   2.634  0.00  0.00     0.124 A 
ATOM      2  C1  UNL d   1       0.580  -1.433   1.384  0.00  0.00     0.062 A 
ATOM      3  C2  UNL d   1      -0.218  -1.131   0.283  0.00  0.00     0.162 A 
ATOM      4  C3  UNL d   1      -1.599  -1.006   0.429  0.00  0.00    -0.034 A 
ATOM      5  C4  UNL d   1      -2.170  -1.190   1.689  0.00  0.00     0.162 A 
ATOM      6  C5  UNL d   1      -1.369  -1.491   2.786  0.00  0.00     0.062 A 
ATOM      7  F   UNL d   1      -1.926  -1.665   3.993  0.00  0.00    -0.097 F 
ATOM      8  F1  UNL d   1      -3.495  -1.077   1.864  0.00  0.00    -0.096 F 
ATOM      9  I   UNL d   1      -2.795  -0.555  -1.214  0.00  0.00    -0.060 I 
ATOM     10  F2  UNL d   1       0.365  -0.963  -0.913  0.00  0.00    -0.096 F 
ATOM     11  F3  UNL d   1       1.907  -1.551   1.234  0.00  0.00    -0.097 F 
ATOM     12  F4  UNL d   1       0.774  -1.904   3.691  0.00  0.00    -0.092 F 
ENDROOT
TORSDOF 0
ENDMDL
