MODEL 1
REMARK minimizedAffinity 3.31915021
REMARK minimizedRMSD -1
REMARK  0 active torsions:
REMARK  status: ('A' for Active; 'I' for Inactive)
ROOT
ATOM      1  C   UNL d   1      -4.870  -2.813  -4.364  0.00  0.00     0.124 A 
ATOM      2  C1  UNL d   1      -3.780  -2.604  -3.531  0.00  0.00     0.062 A 
ATOM      3  C2  UNL d   1      -2.721  -3.507  -3.524  0.00  0.00     0.162 A 
ATOM      4  C3  UNL d   1      -2.746  -4.628  -4.354  0.00  0.00    -0.034 A 
ATOM      5  C4  UNL d   1      -3.847  -4.832  -5.188  0.00  0.00     0.162 A 
ATOM      6  C5  UNL d   1      -4.903  -3.926  -5.192  0.00  0.00     0.062 A 
ATOM      7  F   UNL d   1      -5.955  -4.130  -5.997  0.00  0.00    -0.097 F 
ATOM      8  F1  UNL d   1      -3.904  -5.899  -5.999  0.00  0.00    -0.096 F 
ATOM      9  I   UNL d   1      -1.165  -5.981  -4.346  0.00  0.00    -0.060 I 
ATOM     10  F2  UNL d   1      -1.680  -3.280  -2.709  0.00  0.00    -0.096 F 
ATOM     11  F3  UNL d   1      -3.747  -1.529  -2.730  0.00  0.00    -0.097 F 
ATOM     12  F4  UNL d   1      -5.888  -1.943  -4.368  0.00  0.00    -0.092 F 
ENDROOT
TORSDOF 0
ENDMDL
