MODEL 1
REMARK minimizedAffinity -3.09787393
REMARK minimizedRMSD -1
REMARK  0 active torsions:
REMARK  status: ('A' for Active; 'I' for Inactive)
ROOT
ATOM      1  C4' PXY d   1      -1.505  -1.827  -6.000  0.00  0.00     0.077 C 
ATOM      2  C1' PXY d   1       2.268   1.363  -3.000  0.00  0.00     0.077 C 
ATOM      3  C1  PXY d   1       1.272   0.537  -3.789  0.00  0.00    -0.082 A 
ATOM      4  C2  PXY d   1       1.119  -0.747  -3.510  0.00  0.00     0.003 A 
ATOM      5  C3  PXY d   1       0.246  -1.516  -4.235  0.00  0.00     0.003 A 
ATOM      6  C4  PXY d   1      -0.518  -0.953  -5.222  0.00  0.00    -0.082 A 
ATOM      7  C5  PXY d   1      -0.376   0.359  -5.506  0.00  0.00     0.003 A 
ATOM      8  C6  PXY d   1       0.546   1.113  -4.786  0.00  0.00     0.003 A 
ENDROOT
TORSDOF 0
ENDMDL
