MODEL 1
REMARK minimizedAffinity -3.71417952
REMARK minimizedRMSD -1
REMARK  0 active torsions:
REMARK  status: ('A' for Active; 'I' for Inactive)
ROOT
ATOM      1  C4' PXY d   1       0.136  -0.609  -2.843  0.00  0.00     0.077 C 
ATOM      2  C1' PXY d   1      -0.756   0.768   2.700  0.00  0.00     0.077 C 
ATOM      3  C1  PXY d   1      -0.510   0.410   1.247  0.00  0.00    -0.082 A 
ATOM      4  C2  PXY d   1      -1.515   0.436   0.388  0.00  0.00     0.003 A 
ATOM      5  C3  PXY d   1      -1.316   0.084  -0.923  0.00  0.00     0.003 A 
ATOM      6  C4  PXY d   1      -0.065  -0.246  -1.369  0.00  0.00    -0.082 A 
ATOM      7  C5  PXY d   1       0.968  -0.265  -0.500  0.00  0.00     0.003 A 
ATOM      8  C6  PXY d   1       0.738   0.056   0.834  0.00  0.00     0.003 A 
ENDROOT
TORSDOF 0
ENDMDL
