MODEL 1
REMARK minimizedAffinity -2.91722822
REMARK minimizedRMSD -1
REMARK  0 active torsions:
REMARK  status: ('A' for Active; 'I' for Inactive)
ROOT
ATOM      1  C4' PXY d   1       1.247  -0.086  -3.806  0.00  0.00     0.077 C 
ATOM      2  C1' PXY d   1      -0.734  -0.036   1.625  0.00  0.00     0.077 C 
ATOM      3  C1  PXY d   1      -0.208  -0.060   0.203  0.00  0.00    -0.082 A 
ATOM      4  C2  PXY d   1      -0.173   1.060  -0.500  0.00  0.00     0.003 A 
ATOM      5  C3  PXY d   1       0.270   1.051  -1.798  0.00  0.00     0.003 A 
ATOM      6  C4  PXY d   1       0.732  -0.108  -2.364  0.00  0.00    -0.082 A 
ATOM      7  C5  PXY d   1       0.710  -1.252  -1.649  0.00  0.00     0.003 A 
ATOM      8  C6  PXY d   1       0.217  -1.229  -0.347  0.00  0.00     0.003 A 
ENDROOT
TORSDOF 0
ENDMDL
