MODEL 1
REMARK minimizedAffinity -1.55911386
REMARK minimizedRMSD -1
REMARK  0 active torsions:
REMARK  status: ('A' for Active; 'I' for Inactive)
ROOT
ATOM      1  C4' PXY d   1       0.879  -1.140  -2.090  0.00  0.00     0.077 C 
ATOM      2  C1' PXY d   1      -1.875   0.589   2.689  0.00  0.00     0.077 C 
ATOM      3  C1  PXY d   1      -1.142   0.141   1.440  0.00  0.00    -0.082 A 
ATOM      4  C2  PXY d   1      -1.823  -0.094   0.330  0.00  0.00     0.003 A 
ATOM      5  C3  PXY d   1      -1.180  -0.530  -0.799  0.00  0.00     0.003 A 
ATOM      6  C4  PXY d   1       0.182  -0.677  -0.808  0.00  0.00    -0.082 A 
ATOM      7  C5  PXY d   1       0.885  -0.429   0.317  0.00  0.00     0.003 A 
ATOM      8  C6  PXY d   1       0.209  -0.026   1.464  0.00  0.00     0.003 A 
ENDROOT
TORSDOF 0
ENDMDL
