MODEL 1
REMARK minimizedAffinity -4.45427847
REMARK minimizedRMSD -1
REMARK  0 active torsions:
REMARK  status: ('A' for Active; 'I' for Inactive)
ROOT
ATOM      1  C4' PXY d   1      -2.890   0.918  -0.659  0.00  0.00     0.077 C 
ATOM      2  C1' PXY d   1       1.355  -0.060   3.141  0.00  0.00     0.077 C 
ATOM      3  C1  PXY d   1       0.251   0.195   2.134  0.00  0.00    -0.082 A 
ATOM      4  C2  PXY d   1      -0.826   0.872   2.502  0.00  0.00     0.003 A 
ATOM      5  C3  PXY d   1      -1.848   1.084   1.613  0.00  0.00     0.003 A 
ATOM      6  C4  PXY d   1      -1.745   0.645   0.321  0.00  0.00    -0.082 A 
ATOM      7  C5  PXY d   1      -0.646  -0.037  -0.065  0.00  0.00     0.003 A 
ATOM      8  C6  PXY d   1       0.363  -0.277   0.863  0.00  0.00     0.003 A 
ENDROOT
TORSDOF 0
ENDMDL
