MODEL 1
REMARK minimizedAffinity -1.14069104
REMARK minimizedRMSD -1
REMARK  0 active torsions:
REMARK  status: ('A' for Active; 'I' for Inactive)
ROOT
ATOM      1  C4' PXY d   1      -2.068   0.246  -0.725  0.00  0.00     0.077 C 
ATOM      2  C1' PXY d   1       1.371  -0.157   3.903  0.00  0.00     0.077 C 
ATOM      3  C1  PXY d   1       0.459  -0.056   2.696  0.00  0.00    -0.082 A 
ATOM      4  C2  PXY d   1       0.977  -0.102   1.479  0.00  0.00     0.003 A 
ATOM      5  C3  PXY d   1       0.170   0.021   0.378  0.00  0.00     0.003 A 
ATOM      6  C4  PXY d   1      -1.186   0.138   0.522  0.00  0.00    -0.082 A 
ATOM      7  C5  PXY d   1      -1.723   0.175   1.760  0.00  0.00     0.003 A 
ATOM      8  C6  PXY d   1      -0.883   0.090   2.866  0.00  0.00     0.003 A 
ENDROOT
TORSDOF 0
ENDMDL
