MODEL 1
REMARK minimizedAffinity -4.64624929
REMARK minimizedRMSD -1
REMARK  0 active torsions:
REMARK  status: ('A' for Active; 'I' for Inactive)
ROOT
ATOM      1  C4' PXY d   1      -3.537   0.551  -0.025  0.00  0.00     0.077 C 
ATOM      2  C1' PXY d   1       1.886  -0.149   1.851  0.00  0.00     0.077 C 
ATOM      3  C1  PXY d   1       0.460   0.034   1.371  0.00  0.00    -0.082 A 
ATOM      4  C2  PXY d   1       0.130  -0.334   0.144  0.00  0.00     0.003 A 
ATOM      5  C3  PXY d   1      -1.148  -0.146  -0.317  0.00  0.00     0.003 A 
ATOM      6  C4  PXY d   1      -2.111   0.376   0.505  0.00  0.00    -0.082 A 
ATOM      7  C5  PXY d   1      -1.785   0.745   1.761  0.00  0.00     0.003 A 
ATOM      8  C6  PXY d   1      -0.472   0.584   2.196  0.00  0.00     0.003 A 
ENDROOT
TORSDOF 0
ENDMDL
