MODEL 1
REMARK minimizedAffinity -2.40631962
REMARK minimizedRMSD -1
REMARK  0 active torsions:
REMARK  status: ('A' for Active; 'I' for Inactive)
ROOT
ATOM      1  C4' PXY d   1       0.591  -0.227  -3.009  0.00  0.00     0.077 C 
ATOM      2  C1' PXY d   1      -1.484   0.000   2.381  0.00  0.00     0.077 C 
ATOM      3  C1  PXY d   1      -0.928  -0.061   0.972  0.00  0.00    -0.082 A 
ATOM      4  C2  PXY d   1      -1.594   0.507  -0.019  0.00  0.00     0.003 A 
ATOM      5  C3  PXY d   1      -1.122   0.434  -1.304  0.00  0.00     0.003 A 
ATOM      6  C4  PXY d   1       0.072  -0.182  -1.569  0.00  0.00    -0.082 A 
ATOM      7  C5  PXY d   1       0.763  -0.755  -0.561  0.00  0.00     0.003 A 
ATOM      8  C6  PXY d   1       0.246  -0.705   0.730  0.00  0.00     0.003 A 
ENDROOT
TORSDOF 0
ENDMDL
