MODEL 1
REMARK minimizedAffinity 0.187358722
REMARK minimizedRMSD -1
REMARK  0 active torsions:
REMARK  status: ('A' for Active; 'I' for Inactive)
ROOT
ATOM      1  O1  BZF d   1       1.409  -4.858   2.750  0.00  0.00    -0.204 OA
ATOM      2  C2  BZF d   1       2.634  -4.573   2.178  0.00  0.00     0.174 A 
ATOM      3  C3  BZF d   1       2.742  -3.255   1.914  0.00  0.00    -0.012 A 
ATOM      4  C3A BZF d   1       1.545  -2.667   2.432  0.00  0.00    -0.107 A 
ATOM      5  C4  BZF d   1       1.075  -1.386   2.485  0.00  0.00     0.055 A 
ATOM      6  C5  BZF d   1      -0.165  -1.158   2.992  0.00  0.00    -0.016 A 
ATOM      7  C6  BZF d   1      -0.963  -2.186   3.449  0.00  0.00     0.022 A 
ATOM      8  C7  BZF d   1      -0.538  -3.473   3.421  0.00  0.00     0.029 A 
ATOM      9  C7A BZF d   1       0.728  -3.703   2.940  0.00  0.00     0.058 A 
ENDROOT
TORSDOF 0
ENDMDL
