MODEL 1
REMARK minimizedAffinity 4.67514896
REMARK minimizedRMSD -1
REMARK  0 active torsions:
REMARK  status: ('A' for Active; 'I' for Inactive)
ROOT
ATOM      1  O1  BZF d   1       3.635  -2.339   0.844  0.00  0.00    -0.204 OA
ATOM      2  C2  BZF d   1       2.271  -2.497   0.693  0.00  0.00     0.174 A 
ATOM      3  C3  BZF d   1       1.683  -1.319   0.398  0.00  0.00    -0.012 A 
ATOM      4  C3A BZF d   1       2.758  -0.383   0.272  0.00  0.00    -0.107 A 
ATOM      5  C4  BZF d   1       2.813   0.948  -0.026  0.00  0.00     0.055 A 
ATOM      6  C5  BZF d   1       4.015   1.582   0.003  0.00  0.00    -0.016 A 
ATOM      7  C6  BZF d   1       5.179   0.917   0.330  0.00  0.00     0.022 A 
ATOM      8  C7  BZF d   1       5.175  -0.405   0.628  0.00  0.00     0.029 A 
ATOM      9  C7A BZF d   1       3.966  -1.055   0.568  0.00  0.00     0.058 A 
ENDROOT
TORSDOF 0
ENDMDL
