MODEL 1
REMARK minimizedAffinity 9.57520676
REMARK minimizedRMSD -1
REMARK  0 active torsions:
REMARK  status: ('A' for Active; 'I' for Inactive)
ROOT
ATOM      1  O1  BZF d   1       5.917   2.990  -0.073  0.00  0.00    -0.204 OA
ATOM      2  C2  BZF d   1       5.999   2.562   1.238  0.00  0.00     0.174 A 
ATOM      3  C3  BZF d   1       5.990   1.215   1.303  0.00  0.00    -0.012 A 
ATOM      4  C3A BZF d   1       5.991   0.773  -0.058  0.00  0.00    -0.107 A 
ATOM      5  C4  BZF d   1       6.000  -0.460  -0.645  0.00  0.00     0.055 A 
ATOM      6  C5  BZF d   1       5.923  -0.548  -1.999  0.00  0.00    -0.016 A 
ATOM      7  C6  BZF d   1       5.832   0.575  -2.795  0.00  0.00     0.022 A 
ATOM      8  C7  BZF d   1       5.824   1.820  -2.259  0.00  0.00     0.029 A 
ATOM      9  C7A BZF d   1       5.935   1.913  -0.894  0.00  0.00     0.058 A 
ENDROOT
TORSDOF 0
ENDMDL
