MODEL 1
REMARK minimizedAffinity 11.3467093
REMARK minimizedRMSD -1
REMARK  0 active torsions:
REMARK  status: ('A' for Active; 'I' for Inactive)
ROOT
ATOM      1  O1  BZF d   1       0.619  -1.571   2.091  0.00  0.00    -0.204 OA
ATOM      2  C2  BZF d   1      -0.695  -1.695   2.498  0.00  0.00     0.174 A 
ATOM      3  C3  BZF d   1      -1.533  -1.607   1.445  0.00  0.00    -0.012 A 
ATOM      4  C3A BZF d   1      -0.684  -1.508   0.297  0.00  0.00    -0.107 A 
ATOM      5  C4  BZF d   1      -0.926  -1.409  -1.044  0.00  0.00     0.055 A 
ATOM      6  C5  BZF d   1       0.122  -1.256  -1.894  0.00  0.00    -0.016 A 
ATOM      7  C6  BZF d   1       1.423  -1.192  -1.440  0.00  0.00     0.022 A 
ATOM      8  C7  BZF d   1       1.713  -1.290  -0.119  0.00  0.00     0.029 A 
ATOM      9  C7A BZF d   1       0.658  -1.478   0.740  0.00  0.00     0.058 A 
ENDROOT
TORSDOF 0
ENDMDL
