MODEL 1
REMARK minimizedAffinity 13.2944698
REMARK minimizedRMSD -1
REMARK  0 active torsions:
REMARK  status: ('A' for Active; 'I' for Inactive)
ROOT
ATOM      1  O1  BZF d   1       2.125  -4.424  -0.649  0.00  0.00    -0.204 OA
ATOM      2  C2  BZF d   1       1.199  -5.355  -0.221  0.00  0.00     0.174 A 
ATOM      3  C3  BZF d   1       0.405  -4.834   0.737  0.00  0.00    -0.012 A 
ATOM      4  C3A BZF d   1       0.803  -3.465   0.853  0.00  0.00    -0.107 A 
ATOM      5  C4  BZF d   1       0.374  -2.425   1.626  0.00  0.00     0.055 A 
ATOM      6  C5  BZF d   1       1.023  -1.233   1.550  0.00  0.00    -0.016 A 
ATOM      7  C6  BZF d   1       2.106  -1.049   0.716  0.00  0.00     0.022 A 
ATOM      8  C7  BZF d   1       2.565  -2.050  -0.074  0.00  0.00     0.029 A 
ATOM      9  C7A BZF d   1       1.891  -3.245  -0.024  0.00  0.00     0.058 A 
ENDROOT
TORSDOF 0
ENDMDL
