MODEL 1
REMARK minimizedAffinity 4.48358202
REMARK minimizedRMSD -1
REMARK  0 active torsions:
REMARK  status: ('A' for Active; 'I' for Inactive)
ROOT
ATOM      1  O1  BZF d   1      -2.260   5.514  -5.240  0.00  0.00    -0.204 OA
ATOM      2  C2  BZF d   1      -3.505   5.999  -4.889  0.00  0.00     0.174 A 
ATOM      3  C3  BZF d   1      -4.164   5.112  -4.115  0.00  0.00    -0.012 A 
ATOM      4  C3A BZF d   1      -3.239   4.043  -3.898  0.00  0.00    -0.107 A 
ATOM      5  C4  BZF d   1      -3.304   2.874  -3.195  0.00  0.00     0.055 A 
ATOM      6  C5  BZF d   1      -2.253   2.014  -3.245  0.00  0.00    -0.016 A 
ATOM      7  C6  BZF d   1      -1.125   2.288  -3.990  0.00  0.00     0.022 A 
ATOM      8  C7  BZF d   1      -1.013   3.437  -4.700  0.00  0.00     0.029 A 
ATOM      9  C7A BZF d   1      -2.060   4.323  -4.626  0.00  0.00     0.058 A 
ENDROOT
TORSDOF 0
ENDMDL
