MODEL 1
REMARK minimizedAffinity 11.8635263
REMARK minimizedRMSD -1
REMARK  0 active torsions:
REMARK  status: ('A' for Active; 'I' for Inactive)
ROOT
ATOM      1  O1  BZF d   1      -0.949  -4.599   1.844  0.00  0.00    -0.204 OA
ATOM      2  C2  BZF d   1      -0.198  -5.420   1.026  0.00  0.00     0.174 A 
ATOM      3  C3  BZF d   1       0.844  -4.746   0.499  0.00  0.00    -0.012 A 
ATOM      4  C3A BZF d   1       0.791  -3.446   1.093  0.00  0.00    -0.107 A 
ATOM      5  C4  BZF d   1       1.570  -2.330   0.981  0.00  0.00     0.055 A 
ATOM      6  C5  BZF d   1       1.204  -1.200   1.641  0.00  0.00    -0.016 A 
ATOM      7  C6  BZF d   1       0.064  -1.149   2.418  0.00  0.00     0.022 A 
ATOM      8  C7  BZF d   1      -0.737  -2.233   2.564  0.00  0.00     0.029 A 
ATOM      9  C7A BZF d   1      -0.351  -3.386   1.924  0.00  0.00     0.058 A 
ENDROOT
TORSDOF 0
ENDMDL
