MODEL 1
REMARK minimizedAffinity 9.51670074
REMARK minimizedRMSD -1
REMARK  0 active torsions:
REMARK  status: ('A' for Active; 'I' for Inactive)
ROOT
ATOM      1  O1  BZF d   1      -2.797   3.428  -2.603  0.00  0.00    -0.204 OA
ATOM      2  C2  BZF d   1      -2.563   2.086  -2.377  0.00  0.00     0.174 A 
ATOM      3  C3  BZF d   1      -3.452   1.325  -3.047  0.00  0.00    -0.012 A 
ATOM      4  C3A BZF d   1      -4.236   2.248  -3.810  0.00  0.00    -0.107 A 
ATOM      5  C4  BZF d   1      -5.271   2.098  -4.689  0.00  0.00     0.055 A 
ATOM      6  C5  BZF d   1      -5.864   3.206  -5.205  0.00  0.00    -0.016 A 
ATOM      7  C6  BZF d   1      -5.453   4.477  -4.861  0.00  0.00     0.022 A 
ATOM      8  C7  BZF d   1      -4.428   4.676  -3.997  0.00  0.00     0.029 A 
ATOM      9  C7A BZF d   1      -3.805   3.558  -3.499  0.00  0.00     0.058 A 
ENDROOT
TORSDOF 0
ENDMDL
