MODEL 1
REMARK minimizedAffinity 8.72739792
REMARK minimizedRMSD -1
REMARK  0 active torsions:
REMARK  status: ('A' for Active; 'I' for Inactive)
ROOT
ATOM      1  O1  BZF d   1       4.557   3.772  -5.547  0.00  0.00    -0.204 OA
ATOM      2  C2  BZF d   1       5.283   4.931  -5.741  0.00  0.00     0.174 A 
ATOM      3  C3  BZF d   1       4.464   5.972  -5.994  0.00  0.00    -0.012 A 
ATOM      4  C3A BZF d   1       3.139   5.448  -5.866  0.00  0.00    -0.107 A 
ATOM      5  C4  BZF d   1       1.896   6.000  -5.984  0.00  0.00     0.055 A 
ATOM      6  C5  BZF d   1       0.804   5.199  -5.870  0.00  0.00    -0.016 A 
ATOM      7  C6  BZF d   1       0.918   3.843  -5.643  0.00  0.00     0.022 A 
ATOM      8  C7  BZF d   1       2.131   3.251  -5.513  0.00  0.00     0.029 A 
ATOM      9  C7A BZF d   1       3.235   4.063  -5.595  0.00  0.00     0.058 A 
ENDROOT
TORSDOF 0
ENDMDL
