MODEL 1
REMARK minimizedAffinity -4.84058714
REMARK minimizedRMSD -1
REMARK  0 active torsions:
REMARK  status: ('A' for Active; 'I' for Inactive)
ROOT
ATOM      1  C2' OXE d   1       0.060  -1.251   2.227  0.00  0.00     0.078 C 
ATOM      2  C1' OXE d   1       0.612  -0.906  -0.504  0.00  0.00     0.078 C 
ATOM      3  C1  OXE d   1      -0.310   0.087   0.159  0.00  0.00    -0.078 A 
ATOM      4  C2  OXE d   1      -0.611  -0.116   1.484  0.00  0.00    -0.078 A 
ATOM      5  C3  OXE d   1      -1.412   0.801   2.158  0.00  0.00     0.003 A 
ATOM      6  C4  OXE d   1      -2.037   1.842   1.461  0.00  0.00    -0.002 A 
ATOM      7  C5  OXE d   1      -1.775   2.044   0.101  0.00  0.00    -0.002 A 
ATOM      8  C6  OXE d   1      -0.882   1.203  -0.553  0.00  0.00     0.003 A 
ENDROOT
TORSDOF 0
ENDMDL
