MODEL 1
REMARK minimizedAffinity -5.60381174
REMARK minimizedRMSD -1
REMARK  0 active torsions:
REMARK  status: ('A' for Active; 'I' for Inactive)
ROOT
ATOM      1  C2' OXE d   1       0.373  -1.646  -0.970  0.00  0.00     0.078 C 
ATOM      2  C1' OXE d   1      -1.361  -2.370   1.116  0.00  0.00     0.078 C 
ATOM      3  C1  OXE d   1      -1.125  -0.900   0.875  0.00  0.00    -0.078 A 
ATOM      4  C2  OXE d   1      -0.239  -0.556  -0.117  0.00  0.00    -0.078 A 
ATOM      5  C3  OXE d   1      -0.027   0.787  -0.417  0.00  0.00     0.003 A 
ATOM      6  C4  OXE d   1      -0.590   1.789   0.383  0.00  0.00    -0.002 A 
ATOM      7  C5  OXE d   1      -1.464   1.459   1.424  0.00  0.00    -0.002 A 
ATOM      8  C6  OXE d   1      -1.775   0.124   1.656  0.00  0.00     0.003 A 
ENDROOT
TORSDOF 0
ENDMDL
