MODEL 1
REMARK minimizedAffinity -4.28048849
REMARK minimizedRMSD -1
REMARK  0 active torsions:
REMARK  status: ('A' for Active; 'I' for Inactive)
ROOT
ATOM      1  C2' OXE d   1      -0.675   2.134  -1.545  0.00  0.00     0.078 C 
ATOM      2  C1' OXE d   1       1.244   0.140  -1.072  0.00  0.00     0.078 C 
ATOM      3  C1  OXE d   1       0.149   0.320  -0.050  0.00  0.00    -0.078 A 
ATOM      4  C2  OXE d   1      -0.758   1.329  -0.267  0.00  0.00    -0.078 A 
ATOM      5  C3  OXE d   1      -1.820   1.502   0.617  0.00  0.00     0.003 A 
ATOM      6  C4  OXE d   1      -1.884   0.760   1.802  0.00  0.00    -0.002 A 
ATOM      7  C5  OXE d   1      -0.947  -0.246   2.062  0.00  0.00    -0.002 A 
ATOM      8  C6  OXE d   1       0.049  -0.507   1.127  0.00  0.00     0.003 A 
ENDROOT
TORSDOF 0
ENDMDL
