MODEL 1
REMARK minimizedAffinity -4.17776728
REMARK minimizedRMSD -1
REMARK  0 active torsions:
REMARK  status: ('A' for Active; 'I' for Inactive)
ROOT
ATOM      1  C2' OXE d   1      -0.293  -1.362   1.955  0.00  0.00     0.078 C 
ATOM      2  C1' OXE d   1       0.640  -0.816  -0.636  0.00  0.00     0.078 C 
ATOM      3  C1  OXE d   1      -0.381   0.123  -0.043  0.00  0.00    -0.078 A 
ATOM      4  C2  OXE d   1      -0.866  -0.178   1.207  0.00  0.00    -0.078 A 
ATOM      5  C3  OXE d   1      -1.768   0.685   1.822  0.00  0.00     0.003 A 
ATOM      6  C4  OXE d   1      -2.301   1.772   1.119  0.00  0.00    -0.002 A 
ATOM      7  C5  OXE d   1      -1.850   2.074  -0.170  0.00  0.00    -0.002 A 
ATOM      8  C6  OXE d   1      -0.861   1.286  -0.748  0.00  0.00     0.003 A 
ENDROOT
TORSDOF 0
ENDMDL
