MODEL 1
REMARK minimizedAffinity -3.61208034
REMARK minimizedRMSD -1
REMARK  0 active torsions:
REMARK  status: ('A' for Active; 'I' for Inactive)
ROOT
ATOM      1  C2' OXE d   1      -0.668  -1.113   1.749  0.00  0.00     0.078 C 
ATOM      2  C1' OXE d   1      -1.433   1.586   1.633  0.00  0.00     0.078 C 
ATOM      3  C1  OXE d   1      -0.549   1.057   0.531  0.00  0.00    -0.078 A 
ATOM      4  C2  OXE d   1      -0.141  -0.253   0.621  0.00  0.00    -0.078 A 
ATOM      5  C3  OXE d   1       0.630  -0.806  -0.397  0.00  0.00     0.003 A 
ATOM      6  C4  OXE d   1       1.121  -0.001  -1.432  0.00  0.00    -0.002 A 
ATOM      7  C5  OXE d   1       0.751   1.345  -1.521  0.00  0.00    -0.002 A 
ATOM      8  C6  OXE d   1      -0.116   1.878  -0.573  0.00  0.00     0.003 A 
ENDROOT
TORSDOF 0
ENDMDL
