MODEL 1
REMARK minimizedAffinity -4.01612616
REMARK minimizedRMSD -1
REMARK  0 active torsions:
REMARK  status: ('A' for Active; 'I' for Inactive)
ROOT
ATOM      1  C2' OXE d   1       0.091  -0.679  -0.935  0.00  0.00     0.078 C 
ATOM      2  C1' OXE d   1       0.890  -0.269   1.725  0.00  0.00     0.078 C 
ATOM      3  C1  OXE d   1      -0.366   0.420   1.253  0.00  0.00    -0.078 A 
ATOM      4  C2  OXE d   1      -0.724   0.252  -0.063  0.00  0.00    -0.078 A 
ATOM      5  C3  OXE d   1      -1.903   0.821  -0.534  0.00  0.00     0.003 A 
ATOM      6  C4  OXE d   1      -2.645   1.688   0.276  0.00  0.00    -0.002 A 
ATOM      7  C5  OXE d   1      -2.276   1.905   1.608  0.00  0.00    -0.002 A 
ATOM      8  C6  OXE d   1      -1.165   1.247   2.123  0.00  0.00     0.003 A 
ENDROOT
TORSDOF 0
ENDMDL
