MODEL 1
REMARK minimizedAffinity -6.10708666
REMARK minimizedRMSD -1
REMARK  0 active torsions:
REMARK  status: ('A' for Active; 'I' for Inactive)
ROOT
ATOM      1  C2' OXE d   1       0.400  -1.160   0.034  0.00  0.00     0.078 C 
ATOM      2  C1' OXE d   1      -1.530  -0.857   2.049  0.00  0.00     0.078 C 
ATOM      3  C1  OXE d   1      -1.232   0.336   1.176  0.00  0.00    -0.078 A 
ATOM      4  C2  OXE d   1      -0.253   0.193   0.223  0.00  0.00    -0.078 A 
ATOM      5  C3  OXE d   1       0.024   1.245  -0.645  0.00  0.00     0.003 A 
ATOM      6  C4  OXE d   1      -0.577   2.496  -0.457  0.00  0.00    -0.002 A 
ATOM      7  C5  OXE d   1      -1.548   2.675   0.534  0.00  0.00    -0.002 A 
ATOM      8  C6  OXE d   1      -1.917   1.596   1.330  0.00  0.00     0.003 A 
ENDROOT
TORSDOF 0
ENDMDL
