MODEL 1
REMARK minimizedAffinity -5.73801994
REMARK minimizedRMSD -1
REMARK  0 active torsions:
REMARK  status: ('A' for Active; 'I' for Inactive)
ROOT
ATOM      1  C2' OXE d   1       0.434  -1.156  -0.533  0.00  0.00     0.078 C 
ATOM      2  C1' OXE d   1      -0.377  -1.468   2.136  0.00  0.00     0.078 C 
ATOM      3  C1  OXE d   1      -0.768  -0.196   1.427  0.00  0.00    -0.078 A 
ATOM      4  C2  OXE d   1      -0.327  -0.031   0.136  0.00  0.00    -0.078 A 
ATOM      5  C3  OXE d   1      -0.706   1.099  -0.583  0.00  0.00     0.003 A 
ATOM      6  C4  OXE d   1      -1.402   2.139   0.046  0.00  0.00    -0.002 A 
ATOM      7  C5  OXE d   1      -1.826   2.008   1.373  0.00  0.00    -0.002 A 
ATOM      8  C6  OXE d   1      -1.555   0.832   2.062  0.00  0.00     0.003 A 
ENDROOT
TORSDOF 0
ENDMDL
