MODEL 1
REMARK minimizedAffinity -1.63748848
REMARK minimizedRMSD -1
REMARK  0 active torsions:
REMARK  status: ('A' for Active; 'I' for Inactive)
ROOT
ATOM      1  C2' OXE d   1      -0.673  -0.778   2.607  0.00  0.00     0.078 C 
ATOM      2  C1' OXE d   1      -2.129   1.450   1.714  0.00  0.00     0.078 C 
ATOM      3  C1  OXE d   1      -1.124   0.841   0.769  0.00  0.00    -0.078 A 
ATOM      4  C2  OXE d   1      -0.383  -0.220   1.231  0.00  0.00    -0.078 A 
ATOM      5  C3  OXE d   1       0.519  -0.853   0.381  0.00  0.00     0.003 A 
ATOM      6  C4  OXE d   1       0.789  -0.324  -0.888  0.00  0.00    -0.002 A 
ATOM      7  C5  OXE d   1       0.074   0.780  -1.363  0.00  0.00    -0.002 A 
ATOM      8  C6  OXE d   1      -0.914   1.347  -0.566  0.00  0.00     0.003 A 
ENDROOT
TORSDOF 0
ENDMDL
