MODEL 1
REMARK minimizedAffinity -6.15666389
REMARK minimizedRMSD -1
REMARK  0 active torsions:
REMARK  status: ('A' for Active; 'I' for Inactive)
ROOT
ATOM      1  C2' OXE d   1       0.877  -1.471   2.257  0.00  0.00     0.078 C 
ATOM      2  C1' OXE d   1       1.042  -0.944  -0.495  0.00  0.00     0.078 C 
ATOM      3  C1  OXE d   1       0.018  -0.181   0.307  0.00  0.00    -0.078 A 
ATOM      4  C2  OXE d   1      -0.087  -0.478   1.644  0.00  0.00    -0.078 A 
ATOM      5  C3  OXE d   1      -0.977   0.236   2.441  0.00  0.00     0.003 A 
ATOM      6  C4  OXE d   1      -1.872   1.145   1.865  0.00  0.00    -0.002 A 
ATOM      7  C5  OXE d   1      -1.809   1.434   0.497  0.00  0.00    -0.002 A 
ATOM      8  C6  OXE d   1      -0.843   0.813  -0.286  0.00  0.00     0.003 A 
ENDROOT
TORSDOF 0
ENDMDL
