MODEL 1
REMARK minimizedAffinity -4.21151781
REMARK minimizedRMSD -1
REMARK  0 active torsions:
REMARK  status: ('A' for Active; 'I' for Inactive)
ROOT
ATOM      1  C2' OXE d   1       0.103  -0.807   2.113  0.00  0.00     0.078 C 
ATOM      2  C1' OXE d   1       0.230  -0.860  -0.690  0.00  0.00     0.078 C 
ATOM      3  C1  OXE d   1      -0.548   0.258  -0.042  0.00  0.00    -0.078 A 
ATOM      4  C2  OXE d   1      -0.644   0.250   1.328  0.00  0.00    -0.078 A 
ATOM      5  C3  OXE d   1      -1.304   1.288   1.979  0.00  0.00     0.003 A 
ATOM      6  C4  OXE d   1      -2.001   2.256   1.246  0.00  0.00    -0.002 A 
ATOM      7  C5  OXE d   1      -1.949   2.260  -0.152  0.00  0.00    -0.002 A 
ATOM      8  C6  OXE d   1      -1.193   1.295  -0.809  0.00  0.00     0.003 A 
ENDROOT
TORSDOF 0
ENDMDL
