MODEL 1
REMARK minimizedAffinity -4.77770615
REMARK minimizedRMSD -1
REMARK  0 active torsions:
REMARK  status: ('A' for Active; 'I' for Inactive)
ROOT
ATOM      1  C2' OXE d   1       0.422  -0.611   2.411  0.00  0.00     0.078 C 
ATOM      2  C1' OXE d   1       0.559  -0.418  -0.386  0.00  0.00     0.078 C 
ATOM      3  C1  OXE d   1      -0.414   0.482   0.334  0.00  0.00    -0.078 A 
ATOM      4  C2  OXE d   1      -0.508   0.348   1.699  0.00  0.00    -0.078 A 
ATOM      5  C3  OXE d   1      -1.350   1.192   2.418  0.00  0.00     0.003 A 
ATOM      6  C4  OXE d   1      -2.213   2.069   1.750  0.00  0.00    -0.002 A 
ATOM      7  C5  OXE d   1      -2.162   2.193   0.358  0.00  0.00    -0.002 A 
ATOM      8  C6  OXE d   1      -1.240   1.439  -0.360  0.00  0.00     0.003 A 
ENDROOT
TORSDOF 0
ENDMDL
