MODEL 1
REMARK minimizedAffinity -3.35799479
REMARK minimizedRMSD -1
REMARK  0 active torsions:
REMARK  status: ('A' for Active; 'I' for Inactive)
ROOT
ATOM      1  C2' OXE d   1      -0.768   2.386  -1.570  0.00  0.00     0.078 C 
ATOM      2  C1' OXE d   1      -2.323   1.676   0.656  0.00  0.00     0.078 C 
ATOM      3  C1  OXE d   1      -1.143   0.801   0.315  0.00  0.00    -0.078 A 
ATOM      4  C2  OXE d   1      -0.415   1.129  -0.804  0.00  0.00    -0.078 A 
ATOM      5  C3  OXE d   1       0.716   0.387  -1.132  0.00  0.00     0.003 A 
ATOM      6  C4  OXE d   1       1.029  -0.779  -0.424  0.00  0.00    -0.002 A 
ATOM      7  C5  OXE d   1       0.277  -1.153   0.695  0.00  0.00    -0.002 A 
ATOM      8  C6  OXE d   1      -0.784  -0.352   1.102  0.00  0.00     0.003 A 
ENDROOT
TORSDOF 0
ENDMDL
