MODEL 1
REMARK minimizedAffinity -3.41171312
REMARK minimizedRMSD -1
REMARK  0 active torsions:
REMARK  status: ('A' for Active; 'I' for Inactive)
ROOT
ATOM      1  C2' OXE d   1      -0.013   1.923  -1.381  0.00  0.00     0.078 C 
ATOM      2  C1' OXE d   1       0.768  -0.722  -0.854  0.00  0.00     0.078 C 
ATOM      3  C1  OXE d   1      -0.113  -0.033   0.158  0.00  0.00    -0.078 A 
ATOM      4  C2  OXE d   1      -0.452   1.276  -0.085  0.00  0.00    -0.078 A 
ATOM      5  C3  OXE d   1      -1.307   1.941   0.789  0.00  0.00     0.003 A 
ATOM      6  C4  OXE d   1      -1.701   1.339   1.990  0.00  0.00    -0.002 A 
ATOM      7  C5  OXE d   1      -1.334   0.020   2.277  0.00  0.00    -0.002 A 
ATOM      8  C6  OXE d   1      -0.578  -0.693   1.353  0.00  0.00     0.003 A 
ENDROOT
TORSDOF 0
ENDMDL
