MODEL 1
REMARK minimizedAffinity -3.26278734
REMARK minimizedRMSD -1
REMARK  0 active torsions:
REMARK  status: ('A' for Active; 'I' for Inactive)
ROOT
ATOM      1  C2' OXE d   1       1.508   1.127  -1.497  0.00  0.00     0.078 C 
ATOM      2  C1' OXE d   1       0.498  -1.417  -0.875  0.00  0.00     0.078 C 
ATOM      3  C1  OXE d   1       0.070  -0.260  -0.009  0.00  0.00    -0.078 A 
ATOM      4  C2  OXE d   1       0.605   0.974  -0.291  0.00  0.00    -0.078 A 
ATOM      5  C3  OXE d   1       0.201   2.085   0.443  0.00  0.00     0.003 A 
ATOM      6  C4  OXE d   1      -0.626   1.933   1.562  0.00  0.00    -0.002 A 
ATOM      7  C5  OXE d   1      -1.151   0.679   1.892  0.00  0.00    -0.002 A 
ATOM      8  C6  OXE d   1      -0.848  -0.418   1.093  0.00  0.00     0.003 A 
ENDROOT
TORSDOF 0
ENDMDL
