MODEL 1
REMARK minimizedAffinity -5.72736359
REMARK minimizedRMSD -1
REMARK  0 active torsions:
REMARK  status: ('A' for Active; 'I' for Inactive)
ROOT
ATOM      1  C2' OXE d   1       1.105  -0.561  -0.895  0.00  0.00     0.078 C 
ATOM      2  C1' OXE d   1       0.158   2.029  -1.419  0.00  0.00     0.078 C 
ATOM      3  C1  OXE d   1      -0.386   1.313  -0.209  0.00  0.00    -0.078 A 
ATOM      4  C2  OXE d   1       0.048   0.028   0.014  0.00  0.00    -0.078 A 
ATOM      5  C3  OXE d   1      -0.380  -0.658   1.147  0.00  0.00     0.003 A 
ATOM      6  C4  OXE d   1      -1.365  -0.109   1.977  0.00  0.00    -0.002 A 
ATOM      7  C5  OXE d   1      -1.850   1.182   1.746  0.00  0.00    -0.002 A 
ATOM      8  C6  OXE d   1      -1.341   1.922   0.684  0.00  0.00     0.003 A 
ENDROOT
TORSDOF 0
ENDMDL
