MODEL 1
REMARK minimizedAffinity -2.42568374
REMARK minimizedRMSD -1
REMARK  0 active torsions:
REMARK  status: ('A' for Active; 'I' for Inactive)
ROOT
ATOM      1  C2' OXE d   1      -0.404  -1.158   2.378  0.00  0.00     0.078 C 
ATOM      2  C1' OXE d   1      -0.046  -1.205  -0.405  0.00  0.00     0.078 C 
ATOM      3  C1  OXE d   1      -0.716   0.004   0.197  0.00  0.00    -0.078 A 
ATOM      4  C2  OXE d   1      -0.929  -0.002   1.555  0.00  0.00    -0.078 A 
ATOM      5  C3  OXE d   1      -1.493   1.113   2.169  0.00  0.00     0.003 A 
ATOM      6  C4  OXE d   1      -1.985   2.173   1.399  0.00  0.00    -0.002 A 
ATOM      7  C5  OXE d   1      -1.814   2.182   0.010  0.00  0.00    -0.002 A 
ATOM      8  C6  OXE d   1      -1.145   1.127  -0.600  0.00  0.00     0.003 A 
ENDROOT
TORSDOF 0
ENDMDL
