MODEL 1
REMARK minimizedAffinity -4.02836704
REMARK minimizedRMSD -1
REMARK  0 active torsions:
REMARK  status: ('A' for Active; 'I' for Inactive)
ROOT
ATOM      1  C2' OXE d   1       0.709   1.810  -1.079  0.00  0.00     0.078 C 
ATOM      2  C1' OXE d   1       0.417  -0.972  -0.845  0.00  0.00     0.078 C 
ATOM      3  C1  OXE d   1      -0.185  -0.108   0.235  0.00  0.00    -0.078 A 
ATOM      4  C2  OXE d   1       0.003   1.250   0.137  0.00  0.00    -0.078 A 
ATOM      5  C3  OXE d   1      -0.578   2.096   1.077  0.00  0.00     0.003 A 
ATOM      6  C4  OXE d   1      -1.220   1.569   2.204  0.00  0.00    -0.002 A 
ATOM      7  C5  OXE d   1      -1.388   0.187   2.344  0.00  0.00    -0.002 A 
ATOM      8  C6  OXE d   1      -0.914  -0.661   1.349  0.00  0.00     0.003 A 
ENDROOT
TORSDOF 0
ENDMDL
