MODEL 1
REMARK minimizedAffinity -3.53811717
REMARK minimizedRMSD -1
REMARK  0 active torsions:
REMARK  status: ('A' for Active; 'I' for Inactive)
ROOT
ATOM      1  C2' OXE d   1      -0.664  -0.811   1.671  0.00  0.00     0.078 C 
ATOM      2  C1' OXE d   1      -2.085   1.487   0.911  0.00  0.00     0.078 C 
ATOM      3  C1  OXE d   1      -0.848   1.133   0.124  0.00  0.00    -0.078 A 
ATOM      4  C2  OXE d   1      -0.133   0.033   0.533  0.00  0.00    -0.078 A 
ATOM      5  C3  OXE d   1       0.986  -0.370  -0.192  0.00  0.00     0.003 A 
ATOM      6  C4  OXE d   1       1.476   0.422  -1.237  0.00  0.00    -0.002 A 
ATOM      7  C5  OXE d   1       0.785   1.569  -1.644  0.00  0.00    -0.002 A 
ATOM      8  C6  OXE d   1      -0.400   1.913  -1.002  0.00  0.00     0.003 A 
ENDROOT
TORSDOF 0
ENDMDL
