MODEL 1
REMARK minimizedAffinity 0.175583526
REMARK minimizedRMSD -1
REMARK  1 active torsions:
REMARK  status: ('A' for Active; 'I' for Inactive)
REMARK    1  A    between atoms: N_2  and  C1_3 
ROOT
ATOM      1  C1  UNL d   1       1.046  -1.696   2.382  0.00  0.00     0.143 A 
ATOM      2  C2  UNL d   1       2.231  -1.026   2.704  0.00  0.00    -0.057 A 
ATOM      3  C3  UNL d   1       2.946  -0.310   1.736  0.00  0.00     0.033 A 
ATOM      4  C4  UNL d   1       2.502  -0.275   0.418  0.00  0.00    -0.042 A 
ATOM      5  C5  UNL d   1       1.340  -0.954   0.071  0.00  0.00     0.033 A 
ATOM      6  C6  UNL d   1       0.627  -1.663   1.043  0.00  0.00    -0.057 A 
ENDROOT
BRANCH   1   7
ATOM      7  N   UNL d   1       0.343  -2.507   3.277  0.00  0.00    -0.732 N 
ATOM      8  C   UNL d   1      -0.529  -3.555   2.793  0.00  0.00     0.284 C 
ATOM      9  H3  UNL d   1       0.904  -2.771   4.084  0.00  0.00     0.395 HD
ENDBRANCH   1   7
TORSDOF 1
ENDMDL
