MODEL 1
REMARK minimizedAffinity 4.24955368
REMARK minimizedRMSD -1
REMARK  1 active torsions:
REMARK  status: ('A' for Active; 'I' for Inactive)
REMARK    1  A    between atoms: N_2  and  C1_3 
ROOT
ATOM      1  C1  UNL d   1       0.760   3.187  -4.027  0.00  0.00     0.143 A 
ATOM      2  C2  UNL d   1       0.847   4.392  -3.323  0.00  0.00    -0.057 A 
ATOM      3  C3  UNL d   1       0.012   4.657  -2.231  0.00  0.00     0.033 A 
ATOM      4  C4  UNL d   1      -0.948   3.730  -1.841  0.00  0.00    -0.042 A 
ATOM      5  C5  UNL d   1      -1.069   2.535  -2.541  0.00  0.00     0.033 A 
ATOM      6  C6  UNL d   1      -0.228   2.273  -3.627  0.00  0.00    -0.057 A 
ENDROOT
BRANCH   1   7
ATOM      7  N   UNL d   1       1.495   2.905  -5.181  0.00  0.00    -0.732 N 
ATOM      8  C   UNL d   1       1.172   1.756  -5.999  0.00  0.00     0.284 C 
ATOM      9  H3  UNL d   1       1.720   3.743  -5.713  0.00  0.00     0.395 HD
ENDBRANCH   1   7
TORSDOF 1
ENDMDL
