MODEL 1
REMARK minimizedAffinity -0.900277138
REMARK minimizedRMSD -1
REMARK  1 active torsions:
REMARK  status: ('A' for Active; 'I' for Inactive)
REMARK    1  A    between atoms: N_2  and  C1_3 
ROOT
ATOM      1  C1  UNL d   1      -0.017   0.600  -1.334  0.00  0.00     0.143 A 
ATOM      2  C2  UNL d   1       0.878  -0.329  -1.875  0.00  0.00    -0.057 A 
ATOM      3  C3  UNL d   1       1.705  -1.104  -1.053  0.00  0.00     0.033 A 
ATOM      4  C4  UNL d   1       1.671  -0.943   0.328  0.00  0.00    -0.042 A 
ATOM      5  C5  UNL d   1       0.807  -0.007   0.886  0.00  0.00     0.033 A 
ATOM      6  C6  UNL d   1      -0.021   0.759   0.060  0.00  0.00    -0.057 A 
ENDROOT
BRANCH   1   7
ATOM      7  N   UNL d   1      -0.794   1.470  -2.103  0.00  0.00    -0.732 N 
ATOM      8  C   UNL d   1      -0.369   2.836  -2.327  0.00  0.00     0.284 C 
ATOM      9  H3  UNL d   1      -1.186   1.017  -2.925  0.00  0.00     0.395 HD
ENDBRANCH   1   7
TORSDOF 1
ENDMDL
