MODEL 1
REMARK minimizedAffinity 1.37395132
REMARK minimizedRMSD -1
REMARK  1 active torsions:
REMARK  status: ('A' for Active; 'I' for Inactive)
REMARK    1  A    between atoms: N_2  and  C1_3 
ROOT
ATOM      1  C1  UNL d   1      -0.108  -0.053   0.100  0.00  0.00     0.143 A 
ATOM      2  C2  UNL d   1       0.677   0.222   1.225  0.00  0.00    -0.057 A 
ATOM      3  C3  UNL d   1       2.039  -0.100   1.257  0.00  0.00     0.033 A 
ATOM      4  C4  UNL d   1       2.636  -0.731   0.171  0.00  0.00    -0.042 A 
ATOM      5  C5  UNL d   1       1.870  -1.037  -0.949  0.00  0.00     0.033 A 
ATOM      6  C6  UNL d   1       0.512  -0.707  -0.977  0.00  0.00    -0.057 A 
ENDROOT
BRANCH   1   7
ATOM      7  N   UNL d   1      -1.488   0.152   0.045  0.00  0.00    -0.732 N 
ATOM      8  C   UNL d   1      -2.397  -0.969  -0.063  0.00  0.00     0.284 C 
ATOM      9  H3  UNL d   1      -1.799   0.879   0.686  0.00  0.00     0.395 HD
ENDBRANCH   1   7
TORSDOF 1
ENDMDL
