MODEL 1
REMARK minimizedAffinity -1.05880928
REMARK minimizedRMSD -1
REMARK  1 active torsions:
REMARK  status: ('A' for Active; 'I' for Inactive)
REMARK    1  A    between atoms: N_2  and  C1_3 
ROOT
ATOM      1  C1  UNL d   1      -0.448  -0.646   0.655  0.00  0.00     0.143 A 
ATOM      2  C2  UNL d   1      -0.736  -1.036   1.967  0.00  0.00    -0.057 A 
ATOM      3  C3  UNL d   1       0.243  -1.001   2.967  0.00  0.00     0.033 A 
ATOM      4  C4  UNL d   1       1.540  -0.600   2.664  0.00  0.00    -0.042 A 
ATOM      5  C5  UNL d   1       1.856  -0.232   1.361  0.00  0.00     0.033 A 
ATOM      6  C6  UNL d   1       0.872  -0.263   0.368  0.00  0.00    -0.057 A 
ENDROOT
BRANCH   1   7
ATOM      7  N   UNL d   1      -1.352  -0.753  -0.405  0.00  0.00    -0.732 N 
ATOM      8  C   UNL d   1      -2.546  -1.561  -0.277  0.00  0.00     0.284 C 
ATOM      9  H3  UNL d   1      -1.500   0.135  -0.880  0.00  0.00     0.395 HD
ENDBRANCH   1   7
TORSDOF 1
ENDMDL
