MODEL 1
REMARK minimizedAffinity 1.04467392
REMARK minimizedRMSD -1
REMARK  1 active torsions:
REMARK  status: ('A' for Active; 'I' for Inactive)
REMARK    1  A    between atoms: N_2  and  C1_3 
ROOT
ATOM      1  C1  UNL d   1      -0.891  -0.317  -0.690  0.00  0.00     0.143 A 
ATOM      2  C2  UNL d   1      -1.073  -0.400   0.694  0.00  0.00    -0.057 A 
ATOM      3  C3  UNL d   1       0.019  -0.419   1.570  0.00  0.00     0.033 A 
ATOM      4  C4  UNL d   1       1.318  -0.384   1.073  0.00  0.00    -0.042 A 
ATOM      5  C5  UNL d   1       1.523  -0.327  -0.301  0.00  0.00     0.033 A 
ATOM      6  C6  UNL d   1       0.428  -0.302  -1.170  0.00  0.00    -0.057 A 
ENDROOT
BRANCH   1   7
ATOM      7  N   UNL d   1      -1.933  -0.394  -1.618  0.00  0.00    -0.732 N 
ATOM      8  C   UNL d   1      -3.011  -1.344  -1.439  0.00  0.00     0.284 C 
ATOM      9  H3  UNL d   1      -2.236   0.523  -1.939  0.00  0.00     0.395 HD
ENDBRANCH   1   7
TORSDOF 1
ENDMDL
