MODEL 1
REMARK minimizedAffinity 2.01555562
REMARK minimizedRMSD -1
REMARK  1 active torsions:
REMARK  status: ('A' for Active; 'I' for Inactive)
REMARK    1  A    between atoms: N_2  and  C1_3 
ROOT
ATOM      1  C1  UNL d   1      -0.479   3.454  -2.679  0.00  0.00     0.143 A 
ATOM      2  C2  UNL d   1      -0.354   2.664  -3.827  0.00  0.00    -0.057 A 
ATOM      3  C3  UNL d   1       0.716   2.837  -4.714  0.00  0.00     0.033 A 
ATOM      4  C4  UNL d   1       1.667   3.825  -4.482  0.00  0.00    -0.042 A 
ATOM      5  C5  UNL d   1       1.549   4.638  -3.361  0.00  0.00     0.033 A 
ATOM      6  C6  UNL d   1       0.482   4.457  -2.475  0.00  0.00    -0.057 A 
ENDROOT
BRANCH   1   7
ATOM      7  N   UNL d   1      -1.573   3.397  -1.811  0.00  0.00    -0.732 N 
ATOM      8  C   UNL d   1      -2.912   3.210  -2.325  0.00  0.00     0.284 C 
ATOM      9  H3  UNL d   1      -1.372   2.864  -0.968  0.00  0.00     0.395 HD
ENDBRANCH   1   7
TORSDOF 1
ENDMDL
