MODEL 1
REMARK minimizedAffinity 4.73220873
REMARK minimizedRMSD -1
REMARK  0 active torsions:
REMARK  status: ('A' for Active; 'I' for Inactive)
ROOT
ATOM      1  N1  IND d   1      -3.392  -2.984  -1.521  0.00  0.00    -0.196 N 
ATOM      2  C2  IND d   1      -3.568  -4.339  -1.546  0.00  0.00     0.054 A 
ATOM      3  C3  IND d   1      -2.789  -4.932  -0.614  0.00  0.00    -0.031 A 
ATOM      4  C4  IND d   1      -1.225  -3.864   1.130  0.00  0.00     0.051 A 
ATOM      5  C5  IND d   1      -0.708  -2.660   1.519  0.00  0.00    -0.031 A 
ATOM      6  C6  IND d   1      -1.068  -1.479   0.903  0.00  0.00     0.015 A 
ATOM      7  C7  IND d   1      -1.972  -1.456  -0.121  0.00  0.00    -0.016 A 
ATOM      8  C8  IND d   1      -2.494  -2.677  -0.523  0.00  0.00    -0.047 A 
ATOM      9  C9  IND d   1      -2.100  -3.883   0.070  0.00  0.00    -0.096 A 
ATOM     10  HN1 IND d   1      -3.778  -2.418  -2.041  0.00  0.00     0.298 HD
ENDROOT
TORSDOF 0
ENDMDL
