MODEL 1
REMARK minimizedAffinity 0.971211135
REMARK minimizedRMSD -1
REMARK  0 active torsions:
REMARK  status: ('A' for Active; 'I' for Inactive)
ROOT
ATOM      1  N1  IND d   1       2.173   1.042   0.712  0.00  0.00    -0.196 N 
ATOM      2  C2  IND d   1       2.065   2.035   1.646  0.00  0.00     0.054 A 
ATOM      3  C3  IND d   1       0.774   2.409   1.787  0.00  0.00    -0.031 A 
ATOM      4  C4  IND d   1      -1.338   1.458   0.663  0.00  0.00     0.051 A 
ATOM      5  C5  IND d   1      -1.741   0.566  -0.291  0.00  0.00    -0.031 A 
ATOM      6  C6  IND d   1      -0.843  -0.231  -0.970  0.00  0.00     0.015 A 
ATOM      7  C7  IND d   1       0.497  -0.173  -0.713  0.00  0.00    -0.016 A 
ATOM      8  C8  IND d   1       0.912   0.736   0.250  0.00  0.00    -0.047 A 
ATOM      9  C9  IND d   1       0.009   1.578   0.913  0.00  0.00    -0.096 A 
ATOM     10  HN1 IND d   1       2.905   0.671   0.457  0.00  0.00     0.298 HD
ENDROOT
TORSDOF 0
ENDMDL
