MODEL 1
REMARK minimizedAffinity 10.6350737
REMARK minimizedRMSD -1
REMARK  0 active torsions:
REMARK  status: ('A' for Active; 'I' for Inactive)
ROOT
ATOM      1  N1  IND d   1       3.320   4.508   0.181  0.00  0.00    -0.196 N 
ATOM      2  C2  IND d   1       3.103   3.310  -0.440  0.00  0.00     0.054 A 
ATOM      3  C3  IND d   1       3.738   2.316   0.221  0.00  0.00    -0.031 A 
ATOM      4  C4  IND d   1       5.106   2.414   2.400  0.00  0.00     0.051 A 
ATOM      5  C5  IND d   1       5.613   3.294   3.315  0.00  0.00    -0.031 A 
ATOM      6  C6  IND d   1       5.374   4.650   3.232  0.00  0.00     0.015 A 
ATOM      7  C7  IND d   1       4.607   5.179   2.233  0.00  0.00    -0.016 A 
ATOM      8  C8  IND d   1       4.097   4.289   1.298  0.00  0.00    -0.047 A 
ATOM      9  C9  IND d   1       4.371   2.917   1.352  0.00  0.00    -0.096 A 
ATOM     10  HN1 IND d   1       3.023   5.271  -0.083  0.00  0.00     0.298 HD
ENDROOT
TORSDOF 0
ENDMDL
