MODEL 1
REMARK minimizedAffinity 4.8231287
REMARK minimizedRMSD -1
REMARK  0 active torsions:
REMARK  status: ('A' for Active; 'I' for Inactive)
ROOT
ATOM      1  N1  IND d   1      -5.827   5.999  -1.506  0.00  0.00    -0.196 N 
ATOM      2  C2  IND d   1      -5.891   5.410  -0.275  0.00  0.00     0.054 A 
ATOM      3  C3  IND d   1      -6.000   4.068  -0.400  0.00  0.00    -0.031 A 
ATOM      4  C4  IND d   1      -5.989   2.619  -2.528  0.00  0.00     0.051 A 
ATOM      5  C5  IND d   1      -5.986   2.707  -3.892  0.00  0.00    -0.031 A 
ATOM      6  C6  IND d   1      -5.927   3.922  -4.543  0.00  0.00     0.015 A 
ATOM      7  C7  IND d   1      -5.855   5.098  -3.852  0.00  0.00    -0.016 A 
ATOM      8  C8  IND d   1      -5.865   5.013  -2.467  0.00  0.00    -0.047 A 
ATOM      9  C9  IND d   1      -5.968   3.785  -1.800  0.00  0.00    -0.096 A 
ATOM     10  HN1 IND d   1      -5.772   6.844  -1.656  0.00  0.00     0.298 HD
ENDROOT
TORSDOF 0
ENDMDL
