MODEL 1
REMARK minimizedAffinity -1.58754838
REMARK minimizedRMSD -1
REMARK  0 active torsions:
REMARK  status: ('A' for Active; 'I' for Inactive)
ROOT
ATOM      1  N1  IND d   1      -5.999   4.281   0.010  0.00  0.00    -0.196 N 
ATOM      2  C2  IND d   1      -5.998   2.915   0.064  0.00  0.00     0.054 A 
ATOM      3  C3  IND d   1      -5.907   2.396  -1.181  0.00  0.00    -0.031 A 
ATOM      4  C4  IND d   1      -5.644   3.601  -3.441  0.00  0.00     0.051 A 
ATOM      5  C5  IND d   1      -5.629   4.848  -4.001  0.00  0.00    -0.031 A 
ATOM      6  C6  IND d   1      -5.736   5.992  -3.238  0.00  0.00     0.015 A 
ATOM      7  C7  IND d   1      -5.851   5.932  -1.878  0.00  0.00    -0.016 A 
ATOM      8  C8  IND d   1      -5.874   4.668  -1.306  0.00  0.00    -0.047 A 
ATOM      9  C9  IND d   1      -5.808   3.502  -2.079  0.00  0.00    -0.096 A 
ATOM     10  HN1 IND d   1      -6.066   4.809   0.686  0.00  0.00     0.298 HD
ENDROOT
TORSDOF 0
ENDMDL
