MODEL 1
REMARK minimizedAffinity 15.6866922
REMARK minimizedRMSD -1
REMARK  0 active torsions:
REMARK  status: ('A' for Active; 'I' for Inactive)
ROOT
ATOM      1  N1  IND d   1      -4.096  -4.526  -2.167  0.00  0.00    -0.196 N 
ATOM      2  C2  IND d   1      -5.376  -4.419  -1.697  0.00  0.00     0.054 A 
ATOM      3  C3  IND d   1      -5.370  -4.043  -0.399  0.00  0.00    -0.031 A 
ATOM      4  C4  IND d   1      -3.381  -3.451   1.124  0.00  0.00     0.051 A 
ATOM      5  C5  IND d   1      -2.014  -3.436   1.154  0.00  0.00    -0.031 A 
ATOM      6  C6  IND d   1      -1.257  -3.787   0.055  0.00  0.00     0.015 A 
ATOM      7  C7  IND d   1      -1.840  -4.158  -1.123  0.00  0.00    -0.016 A 
ATOM      8  C8  IND d   1      -3.228  -4.182  -1.155  0.00  0.00    -0.047 A 
ATOM      9  C9  IND d   1      -4.001  -3.868  -0.030  0.00  0.00    -0.096 A 
ATOM     10  HN1 IND d   1      -3.872  -4.768  -2.961  0.00  0.00     0.298 HD
ENDROOT
TORSDOF 0
ENDMDL
