MODEL 1
REMARK minimizedAffinity 11.9650049
REMARK minimizedRMSD -1
REMARK  0 active torsions:
REMARK  status: ('A' for Active; 'I' for Inactive)
ROOT
ATOM      1  N1  IND d   1      -2.332  -0.783   2.577  0.00  0.00    -0.196 N 
ATOM      2  C2  IND d   1      -2.962   0.189   1.851  0.00  0.00     0.054 A 
ATOM      3  C3  IND d   1      -3.257  -0.265   0.612  0.00  0.00    -0.031 A 
ATOM      4  C4  IND d   1      -2.889  -2.603  -0.402  0.00  0.00     0.051 A 
ATOM      5  C5  IND d   1      -2.317  -3.815  -0.136  0.00  0.00    -0.031 A 
ATOM      6  C6  IND d   1      -1.711  -4.085   1.074  0.00  0.00     0.015 A 
ATOM      7  C7  IND d   1      -1.664  -3.152   2.071  0.00  0.00    -0.016 A 
ATOM      8  C8  IND d   1      -2.238  -1.917   1.801  0.00  0.00    -0.047 A 
ATOM      9  C9  IND d   1      -2.817  -1.623   0.560  0.00  0.00    -0.096 A 
ATOM     10  HN1 IND d   1      -2.043  -0.699   3.382  0.00  0.00     0.298 HD
ENDROOT
TORSDOF 0
ENDMDL
