MODEL 1
REMARK minimizedAffinity 4.42134094
REMARK minimizedRMSD -1
REMARK  0 active torsions:
REMARK  status: ('A' for Active; 'I' for Inactive)
ROOT
ATOM      1  N1  IND d   1       3.306   2.376  -5.963  0.00  0.00    -0.196 N 
ATOM      2  C2  IND d   1       4.342   1.484  -5.967  0.00  0.00     0.054 A 
ATOM      3  C3  IND d   1       5.525   2.137  -5.997  0.00  0.00    -0.031 A 
ATOM      4  C4  IND d   1       5.998   4.667  -5.943  0.00  0.00     0.051 A 
ATOM      5  C5  IND d   1       5.372   5.881  -5.973  0.00  0.00    -0.031 A 
ATOM      6  C6  IND d   1       3.996   5.991  -6.000  0.00  0.00     0.015 A 
ATOM      7  C7  IND d   1       3.193   4.886  -5.985  0.00  0.00    -0.016 A 
ATOM      8  C8  IND d   1       3.826   3.651  -5.962  0.00  0.00    -0.047 A 
ATOM      9  C9  IND d   1       5.222   3.533  -5.977  0.00  0.00    -0.096 A 
ATOM     10  HN1 IND d   1       2.470   2.174  -5.963  0.00  0.00     0.298 HD
ENDROOT
TORSDOF 0
ENDMDL
