MODEL 1
REMARK minimizedAffinity 7.10177279
REMARK minimizedRMSD -1
REMARK  0 active torsions:
REMARK  status: ('A' for Active; 'I' for Inactive)
ROOT
ATOM      1  N1  IND d   1      -1.321   2.099   2.095  0.00  0.00    -0.196 N 
ATOM      2  C2  IND d   1      -1.073   3.118   2.972  0.00  0.00     0.054 A 
ATOM      3  C3  IND d   1       0.251   3.386   3.018  0.00  0.00    -0.031 A 
ATOM      4  C4  IND d   1       2.179   2.348   1.663  0.00  0.00     0.051 A 
ATOM      5  C5  IND d   1       2.451   1.356   0.764  0.00  0.00    -0.031 A 
ATOM      6  C6  IND d   1       1.459   0.546   0.249  0.00  0.00     0.015 A 
ATOM      7  C7  IND d   1       0.150   0.707   0.608  0.00  0.00    -0.016 A 
ATOM      8  C8  IND d   1      -0.129   1.708   1.527  0.00  0.00    -0.047 A 
ATOM      9  C9  IND d   1       0.880   2.505   2.085  0.00  0.00    -0.096 A 
ATOM     10  HN1 IND d   1      -2.093   1.759   1.927  0.00  0.00     0.298 HD
ENDROOT
TORSDOF 0
ENDMDL
