MODEL 1
REMARK minimizedAffinity 5.12463379
REMARK minimizedRMSD -1
REMARK  0 active torsions:
REMARK  status: ('A' for Active; 'I' for Inactive)
ROOT
ATOM      1  N1  IND d   1       0.298   2.822   4.083  0.00  0.00    -0.196 N 
ATOM      2  C2  IND d   1      -0.857   3.331   4.606  0.00  0.00     0.054 A 
ATOM      3  C3  IND d   1      -1.899   3.077   3.782  0.00  0.00    -0.031 A 
ATOM      4  C4  IND d   1      -1.952   1.753   1.575  0.00  0.00     0.051 A 
ATOM      5  C5  IND d   1      -1.137   1.127   0.675  0.00  0.00    -0.031 A 
ATOM      6  C6  IND d   1       0.226   1.029   0.870  0.00  0.00     0.015 A 
ATOM      7  C7  IND d   1       0.825   1.547   1.983  0.00  0.00    -0.016 A 
ATOM      8  C8  IND d   1       0.001   2.190   2.896  0.00  0.00    -0.047 A 
ATOM      9  C9  IND d   1      -1.376   2.329   2.683  0.00  0.00    -0.096 A 
ATOM     10  HN1 IND d   1       1.080   2.887   4.436  0.00  0.00     0.298 HD
ENDROOT
TORSDOF 0
ENDMDL
