MODEL 1
REMARK minimizedAffinity 9.34972095
REMARK minimizedRMSD -1
REMARK  0 active torsions:
REMARK  status: ('A' for Active; 'I' for Inactive)
ROOT
ATOM      1  N1  IND d   1       0.652   4.749  -5.990  0.00  0.00    -0.196 N 
ATOM      2  C2  IND d   1      -0.660   5.134  -6.000  0.00  0.00     0.054 A 
ATOM      3  C3  IND d   1      -1.436   4.174  -5.448  0.00  0.00    -0.031 A 
ATOM      4  C4  IND d   1      -0.753   1.937  -4.372  0.00  0.00     0.051 A 
ATOM      5  C5  IND d   1       0.329   1.130  -4.159  0.00  0.00    -0.031 A 
ATOM      6  C6  IND d   1       1.600   1.497  -4.551  0.00  0.00     0.015 A 
ATOM      7  C7  IND d   1       1.839   2.694  -5.163  0.00  0.00    -0.016 A 
ATOM      8  C8  IND d   1       0.742   3.513  -5.387  0.00  0.00    -0.047 A 
ATOM      9  C9  IND d   1      -0.557   3.128  -5.030  0.00  0.00    -0.096 A 
ATOM     10  HN1 IND d   1       1.310   5.202  -6.308  0.00  0.00     0.298 HD
ENDROOT
TORSDOF 0
ENDMDL
