MODEL 1
REMARK minimizedAffinity 12.204215
REMARK minimizedRMSD -1
REMARK  0 active torsions:
REMARK  status: ('A' for Active; 'I' for Inactive)
ROOT
ATOM      1  N1  IND d   1       4.876   4.804  -1.235  0.00  0.00    -0.196 N 
ATOM      2  C2  IND d   1       5.445   3.746  -1.888  0.00  0.00     0.054 A 
ATOM      3  C3  IND d   1       5.998   2.889  -1.001  0.00  0.00    -0.031 A 
ATOM      4  C4  IND d   1       6.000   2.972   1.572  0.00  0.00     0.051 A 
ATOM      5  C5  IND d   1       5.636   3.765   2.625  0.00  0.00    -0.031 A 
ATOM      6  C6  IND d   1       4.985   4.967   2.441  0.00  0.00     0.015 A 
ATOM      7  C7  IND d   1       4.661   5.419   1.192  0.00  0.00    -0.016 A 
ATOM      8  C8  IND d   1       5.035   4.620   0.121  0.00  0.00    -0.047 A 
ATOM      9  C9  IND d   1       5.734   3.419   0.299  0.00  0.00    -0.096 A 
ATOM     10  HN1 IND d   1       4.484   5.472  -1.608  0.00  0.00     0.298 HD
ENDROOT
TORSDOF 0
ENDMDL
