MODEL 1
REMARK minimizedAffinity 5.90696764
REMARK minimizedRMSD -1
REMARK  0 active torsions:
REMARK  status: ('A' for Active; 'I' for Inactive)
ROOT
ATOM      1  N1  IND d   1       0.815   0.069   1.376  0.00  0.00    -0.196 N 
ATOM      2  C2  IND d   1       0.993   1.171   0.587  0.00  0.00     0.054 A 
ATOM      3  C3  IND d   1      -0.154   1.477  -0.060  0.00  0.00    -0.031 A 
ATOM      4  C4  IND d   1      -2.470   0.366   0.104  0.00  0.00     0.051 A 
ATOM      5  C5  IND d   1      -3.117  -0.698   0.667  0.00  0.00    -0.031 A 
ATOM      6  C6  IND d   1      -2.474  -1.577   1.514  0.00  0.00     0.015 A 
ATOM      7  C7  IND d   1      -1.157  -1.417   1.841  0.00  0.00    -0.016 A 
ATOM      8  C8  IND d   1      -0.495  -0.342   1.266  0.00  0.00    -0.047 A 
ATOM      9  C9  IND d   1      -1.131   0.529   0.371  0.00  0.00    -0.096 A 
ATOM     10  HN1 IND d   1       1.419  -0.304   1.860  0.00  0.00     0.298 HD
ENDROOT
TORSDOF 0
ENDMDL
