MODEL 1
REMARK minimizedAffinity 12.3079081
REMARK minimizedRMSD -1
REMARK  0 active torsions:
REMARK  status: ('A' for Active; 'I' for Inactive)
ROOT
ATOM      1  N1  IND d   1      -1.419  -3.750   3.186  0.00  0.00    -0.196 N 
ATOM      2  C2  IND d   1      -1.040  -3.855   1.877  0.00  0.00     0.054 A 
ATOM      3  C3  IND d   1      -1.764  -3.010   1.109  0.00  0.00    -0.031 A 
ATOM      4  C4  IND d   1      -3.550  -1.291   1.804  0.00  0.00     0.051 A 
ATOM      5  C5  IND d   1      -4.260  -0.854   2.886  0.00  0.00    -0.031 A 
ATOM      6  C6  IND d   1      -4.054  -1.367   4.150  0.00  0.00     0.015 A 
ATOM      7  C7  IND d   1      -3.117  -2.335   4.382  0.00  0.00    -0.016 A 
ATOM      8  C8  IND d   1      -2.398  -2.786   3.283  0.00  0.00    -0.047 A 
ATOM      9  C9  IND d   1      -2.633  -2.299   1.991  0.00  0.00    -0.096 A 
ATOM     10  HN1 IND d   1      -1.098  -4.208   3.840  0.00  0.00     0.298 HD
ENDROOT
TORSDOF 0
ENDMDL
