MODEL 1
REMARK minimizedAffinity -3.16906571
REMARK minimizedRMSD -1
REMARK  0 active torsions:
REMARK  status: ('A' for Active; 'I' for Inactive)
ROOT
ATOM      1  N1  IND d   1      -5.954   3.114  -2.598  0.00  0.00    -0.196 N 
ATOM      2  C2  IND d   1      -5.979   1.847  -3.110  0.00  0.00     0.054 A 
ATOM      3  C3  IND d   1      -5.812   1.878  -4.452  0.00  0.00    -0.031 A 
ATOM      4  C4  IND d   1      -5.380   3.890  -5.999  0.00  0.00     0.051 A 
ATOM      5  C5  IND d   1      -5.308   5.255  -5.997  0.00  0.00    -0.031 A 
ATOM      6  C6  IND d   1      -5.448   5.990  -4.838  0.00  0.00     0.015 A 
ATOM      7  C7  IND d   1      -5.655   5.385  -3.631  0.00  0.00    -0.016 A 
ATOM      8  C8  IND d   1      -5.735   4.000  -3.630  0.00  0.00    -0.047 A 
ATOM      9  C9  IND d   1      -5.636   3.250  -4.809  0.00  0.00    -0.096 A 
ATOM     10  HN1 IND d   1      -6.058   3.323  -1.770  0.00  0.00     0.298 HD
ENDROOT
TORSDOF 0
ENDMDL
