MODEL 1
REMARK minimizedAffinity 21.8355198
REMARK minimizedRMSD -1
REMARK  0 active torsions:
REMARK  status: ('A' for Active; 'I' for Inactive)
ROOT
ATOM      1  N1  IND d   1      -3.342  -1.655   1.257  0.00  0.00    -0.196 N 
ATOM      2  C2  IND d   1      -2.450  -1.782   2.284  0.00  0.00     0.054 A 
ATOM      3  C3  IND d   1      -1.965  -3.044   2.333  0.00  0.00    -0.031 A 
ATOM      4  C4  IND d   1      -2.423  -5.032   0.763  0.00  0.00     0.051 A 
ATOM      5  C5  IND d   1      -3.195  -5.411  -0.299  0.00  0.00    -0.031 A 
ATOM      6  C6  IND d   1      -4.072  -4.539  -0.910  0.00  0.00     0.015 A 
ATOM      7  C7  IND d   1      -4.201  -3.246  -0.488  0.00  0.00    -0.016 A 
ATOM      8  C8  IND d   1      -3.423  -2.860   0.594  0.00  0.00    -0.047 A 
ATOM      9  C9  IND d   1      -2.563  -3.753   1.246  0.00  0.00    -0.096 A 
ATOM     10  HN1 IND d   1      -3.780  -0.941   1.058  0.00  0.00     0.298 HD
ENDROOT
TORSDOF 0
ENDMDL
