MODEL 1
REMARK minimizedAffinity 20.4192619
REMARK minimizedRMSD -1
REMARK  0 active torsions:
REMARK  status: ('A' for Active; 'I' for Inactive)
ROOT
ATOM      1  O1  BZF d   1      -0.421  -5.503   5.347  0.00  0.00    -0.204 OA
ATOM      2  C2  BZF d   1       0.713  -5.950   5.997  0.00  0.00     0.174 A 
ATOM      3  C3  BZF d   1       1.724  -5.069   5.856  0.00  0.00    -0.012 A 
ATOM      4  C3A BZF d   1       1.162  -3.961   5.147  0.00  0.00    -0.107 A 
ATOM      5  C4  BZF d   1       1.666  -2.765   4.721  0.00  0.00     0.055 A 
ATOM      6  C5  BZF d   1       0.874  -1.937   3.991  0.00  0.00    -0.016 A 
ATOM      7  C6  BZF d   1      -0.423  -2.274   3.665  0.00  0.00     0.022 A 
ATOM      8  C7  BZF d   1      -0.969  -3.447   4.069  0.00  0.00     0.029 A 
ATOM      9  C7A BZF d   1      -0.182  -4.272   4.835  0.00  0.00     0.058 A 
ENDROOT
TORSDOF 0
ENDMDL
