MODEL 1
REMARK minimizedAffinity 8.23175526
REMARK minimizedRMSD -1
REMARK  0 active torsions:
REMARK  status: ('A' for Active; 'I' for Inactive)
ROOT
ATOM      1  O1  BZF d   1      -5.971   0.640  -0.977  0.00  0.00    -0.204 OA
ATOM      2  C2  BZF d   1      -5.748   0.744   0.383  0.00  0.00     0.174 A 
ATOM      3  C3  BZF d   1      -5.455   2.015   0.724  0.00  0.00    -0.012 A 
ATOM      4  C3A BZF d   1      -5.588   2.769  -0.485  0.00  0.00    -0.107 A 
ATOM      5  C4  BZF d   1      -5.441   4.093  -0.787  0.00  0.00     0.055 A 
ATOM      6  C5  BZF d   1      -5.570   4.495  -2.078  0.00  0.00    -0.016 A 
ATOM      7  C6  BZF d   1      -5.841   3.600  -3.093  0.00  0.00     0.022 A 
ATOM      8  C7  BZF d   1      -6.000   2.278  -2.842  0.00  0.00     0.029 A 
ATOM      9  C7A BZF d   1      -5.903   1.874  -1.533  0.00  0.00     0.058 A 
ENDROOT
TORSDOF 0
ENDMDL
