MODEL 1
REMARK minimizedAffinity 16.0997601
REMARK minimizedRMSD -1
REMARK  0 active torsions:
REMARK  status: ('A' for Active; 'I' for Inactive)
ROOT
ATOM      1  O1  BZF d   1       0.692  -0.317   5.157  0.00  0.00    -0.204 OA
ATOM      2  C2  BZF d   1       0.268   0.298   3.995  0.00  0.00     0.174 A 
ATOM      3  C3  BZF d   1      -0.276  -0.600   3.150  0.00  0.00    -0.012 A 
ATOM      4  C3A BZF d   1      -0.270  -1.841   3.863  0.00  0.00    -0.107 A 
ATOM      5  C4  BZF d   1      -0.695  -3.102   3.557  0.00  0.00     0.055 A 
ATOM      6  C5  BZF d   1      -0.477  -4.106   4.447  0.00  0.00    -0.016 A 
ATOM      7  C6  BZF d   1       0.167  -3.886   5.647  0.00  0.00     0.022 A 
ATOM      8  C7  BZF d   1       0.602  -2.651   5.997  0.00  0.00     0.029 A 
ATOM      9  C7A BZF d   1       0.354  -1.628   5.114  0.00  0.00     0.058 A 
ENDROOT
TORSDOF 0
ENDMDL
