MODEL 1
REMARK minimizedAffinity 7.34401083
REMARK minimizedRMSD -1
REMARK  0 active torsions:
REMARK  status: ('A' for Active; 'I' for Inactive)
ROOT
ATOM      1  O1  BZF d   1       2.675   1.096  -0.461  0.00  0.00    -0.204 OA
ATOM      2  C2  BZF d   1       3.164   1.646   0.708  0.00  0.00     0.174 A 
ATOM      3  C3  BZF d   1       3.077   0.765   1.725  0.00  0.00    -0.012 A 
ATOM      4  C3A BZF d   1       2.583  -0.442   1.135  0.00  0.00    -0.107 A 
ATOM      5  C4  BZF d   1       2.300  -1.682   1.632  0.00  0.00     0.055 A 
ATOM      6  C5  BZF d   1       1.762  -2.618   0.806  0.00  0.00    -0.016 A 
ATOM      7  C6  BZF d   1       1.490  -2.346  -0.519  0.00  0.00     0.022 A 
ATOM      8  C7  BZF d   1       1.758  -1.132  -1.058  0.00  0.00     0.029 A 
ATOM      9  C7A BZF d   1       2.332  -0.195  -0.234  0.00  0.00     0.058 A 
ENDROOT
TORSDOF 0
ENDMDL
