MODEL 1
REMARK minimizedAffinity 9.50566578
REMARK minimizedRMSD -1
REMARK  0 active torsions:
REMARK  status: ('A' for Active; 'I' for Inactive)
ROOT
ATOM      1  O1  BZF d   1      -5.258   3.921   3.891  0.00  0.00    -0.204 OA
ATOM      2  C2  BZF d   1      -5.667   5.143   4.389  0.00  0.00     0.174 A 
ATOM      3  C3  BZF d   1      -5.965   5.993   3.385  0.00  0.00    -0.012 A 
ATOM      4  C3A BZF d   1      -5.816   5.226   2.186  0.00  0.00    -0.107 A 
ATOM      5  C4  BZF d   1      -5.988   5.511   0.862  0.00  0.00     0.055 A 
ATOM      6  C5  BZF d   1      -5.689   4.561  -0.063  0.00  0.00    -0.016 A 
ATOM      7  C6  BZF d   1      -5.212   3.319   0.301  0.00  0.00     0.022 A 
ATOM      8  C7  BZF d   1      -5.030   2.988   1.602  0.00  0.00     0.029 A 
ATOM      9  C7A BZF d   1      -5.362   3.934   2.541  0.00  0.00     0.058 A 
ENDROOT
TORSDOF 0
ENDMDL
