MODEL 1
REMARK minimizedAffinity 8.32901001
REMARK minimizedRMSD -1
REMARK  0 active torsions:
REMARK  status: ('A' for Active; 'I' for Inactive)
ROOT
ATOM      1  O1  BZF d   1       3.003  -1.126  -1.259  0.00  0.00    -0.204 OA
ATOM      2  C2  BZF d   1       2.105  -1.445  -0.259  0.00  0.00     0.174 A 
ATOM      3  C3  BZF d   1       1.959  -0.415   0.599  0.00  0.00    -0.012 A 
ATOM      4  C3A BZF d   1       2.749   0.645   0.053  0.00  0.00    -0.107 A 
ATOM      5  C4  BZF d   1       2.995   1.930   0.443  0.00  0.00     0.055 A 
ATOM      6  C5  BZF d   1       3.873   2.682  -0.273  0.00  0.00    -0.016 A 
ATOM      7  C6  BZF d   1       4.525   2.179  -1.380  0.00  0.00     0.022 A 
ATOM      8  C7  BZF d   1       4.309   0.912  -1.808  0.00  0.00     0.029 A 
ATOM      9  C7A BZF d   1       3.398   0.161  -1.106  0.00  0.00     0.058 A 
ENDROOT
TORSDOF 0
ENDMDL
