MODEL 1
REMARK minimizedAffinity 13.424159
REMARK minimizedRMSD -1
REMARK  0 active torsions:
REMARK  status: ('A' for Active; 'I' for Inactive)
ROOT
ATOM      1  O1  BZF d   1       2.686  -1.061   0.731  0.00  0.00    -0.204 OA
ATOM      2  C2  BZF d   1       1.506  -0.925   0.026  0.00  0.00     0.174 A 
ATOM      3  C3  BZF d   1       1.587   0.099  -0.848  0.00  0.00    -0.012 A 
ATOM      4  C3A BZF d   1       2.931   0.578  -0.744  0.00  0.00    -0.107 A 
ATOM      5  C4  BZF d   1       3.624   1.572  -1.373  0.00  0.00     0.055 A 
ATOM      6  C5  BZF d   1       4.902   1.831  -0.989  0.00  0.00    -0.016 A 
ATOM      7  C6  BZF d   1       5.515   1.119   0.022  0.00  0.00     0.022 A 
ATOM      8  C7  BZF d   1       4.869   0.119   0.671  0.00  0.00     0.029 A 
ATOM      9  C7A BZF d   1       3.589  -0.166   0.263  0.00  0.00     0.058 A 
ENDROOT
TORSDOF 0
ENDMDL
