MODEL 1
REMARK minimizedAffinity 5.83821011
REMARK minimizedRMSD -1
REMARK  0 active torsions:
REMARK  status: ('A' for Active; 'I' for Inactive)
ROOT
ATOM      1  O1  BZF d   1      -5.819   0.794  -1.661  0.00  0.00    -0.204 OA
ATOM      2  C2  BZF d   1      -5.028   0.435  -0.587  0.00  0.00     0.174 A 
ATOM      3  C3  BZF d   1      -3.748   0.260  -0.972  0.00  0.00    -0.012 A 
ATOM      4  C3A BZF d   1      -3.719   0.617  -2.357  0.00  0.00    -0.107 A 
ATOM      5  C4  BZF d   1      -2.727   0.664  -3.294  0.00  0.00     0.055 A 
ATOM      6  C5  BZF d   1      -3.044   0.984  -4.576  0.00  0.00    -0.016 A 
ATOM      7  C6  BZF d   1      -4.342   1.256  -4.957  0.00  0.00     0.022 A 
ATOM      8  C7  BZF d   1      -5.359   1.226  -4.062  0.00  0.00     0.029 A 
ATOM      9  C7A BZF d   1      -5.037   0.936  -2.759  0.00  0.00     0.058 A 
ENDROOT
TORSDOF 0
ENDMDL
