MODEL 1
REMARK minimizedAffinity -2.41727614
REMARK minimizedRMSD -1
REMARK  1 active torsions:
REMARK  status: ('A' for Active; 'I' for Inactive)
REMARK    1  A    between atoms: C1_2  and  C2_3 
ROOT
ATOM      1  C2  UNL d   1      -0.156  -0.761   1.572  0.00  0.00    -0.081 A 
ATOM      2  C3  UNL d   1       0.966  -1.591   1.465  0.00  0.00     0.006 A 
ATOM      3  C4  UNL d   1       1.988  -1.288   0.561  0.00  0.00     0.002 A 
ATOM      4  C5  UNL d   1       1.907  -0.147  -0.245  0.00  0.00    -0.080 A 
ATOM      5  C6  UNL d   1       3.011   0.205  -1.198  0.00  0.00     0.076 C 
ATOM      6  C7  UNL d   1       0.778   0.673  -0.150  0.00  0.00     0.002 A 
ATOM      7  C8  UNL d   1      -0.244   0.370   0.753  0.00  0.00     0.006 A 
ENDROOT
BRANCH   1   8
ATOM      8  C1  UNL d   1      -1.228  -1.049   2.591  0.00  0.00     0.054 C 
ATOM      9  C   UNL d   1      -0.647  -1.709   3.833  0.00  0.00     0.018 C 
ENDBRANCH   1   8
TORSDOF 1
ENDMDL
