MODEL 1
REMARK minimizedAffinity -1.66902959
REMARK minimizedRMSD -1
REMARK  1 active torsions:
REMARK  status: ('A' for Active; 'I' for Inactive)
REMARK    1  A    between atoms: C1_2  and  C2_3 
ROOT
ATOM      1  C2  UNL d   1      -0.613   1.209  -0.587  0.00  0.00    -0.081 A 
ATOM      2  C3  UNL d   1       0.702   1.177  -1.066  0.00  0.00     0.006 A 
ATOM      3  C4  UNL d   1       1.596   0.203  -0.616  0.00  0.00     0.002 A 
ATOM      4  C5  UNL d   1       1.189  -0.759   0.315  0.00  0.00    -0.080 A 
ATOM      5  C6  UNL d   1       2.130  -1.828   0.784  0.00  0.00     0.076 C 
ATOM      6  C7  UNL d   1      -0.120  -0.716   0.807  0.00  0.00     0.002 A 
ATOM      7  C8  UNL d   1      -1.014   0.258   0.358  0.00  0.00     0.006 A 
ENDROOT
BRANCH   1   8
ATOM      8  C1  UNL d   1      -1.599   2.218  -1.119  0.00  0.00     0.054 C 
ATOM      9  C   UNL d   1      -2.271   1.717  -2.389  0.00  0.00     0.018 C 
ENDBRANCH   1   8
TORSDOF 1
ENDMDL
