MODEL 1
REMARK minimizedAffinity -3.76774025
REMARK minimizedRMSD -1
REMARK  1 active torsions:
REMARK  status: ('A' for Active; 'I' for Inactive)
REMARK    1  A    between atoms: C1_2  and  C2_3 
ROOT
ATOM      1  C2  UNL d   1       0.035   0.500  -0.616  0.00  0.00    -0.081 A 
ATOM      2  C3  UNL d   1       1.313  -0.063  -0.719  0.00  0.00     0.006 A 
ATOM      3  C4  UNL d   1       1.643  -1.207   0.013  0.00  0.00     0.002 A 
ATOM      4  C5  UNL d   1       0.700  -1.810   0.852  0.00  0.00    -0.080 A 
ATOM      5  C6  UNL d   1       1.032  -3.055   1.619  0.00  0.00     0.076 C 
ATOM      6  C7  UNL d   1      -0.571  -1.237   0.968  0.00  0.00     0.002 A 
ATOM      7  C8  UNL d   1      -0.902  -0.093   0.237  0.00  0.00     0.006 A 
ENDROOT
BRANCH   1   8
ATOM      8  C1  UNL d   1      -0.345   1.695  -1.453  0.00  0.00     0.054 C 
ATOM      9  C   UNL d   1      -1.829   1.686  -1.789  0.00  0.00     0.018 C 
ENDBRANCH   1   8
TORSDOF 1
ENDMDL
