MODEL 1
REMARK minimizedAffinity -4.41497231
REMARK minimizedRMSD -1
REMARK  1 active torsions:
REMARK  status: ('A' for Active; 'I' for Inactive)
REMARK    1  A    between atoms: C1_2  and  C2_3 
ROOT
ATOM      1  C2  UNL d   1       0.195  -1.916   1.814  0.00  0.00    -0.081 A 
ATOM      2  C3  UNL d   1       1.549  -2.254   1.705  0.00  0.00     0.006 A 
ATOM      3  C4  UNL d   1       2.354  -1.652   0.735  0.00  0.00     0.002 A 
ATOM      4  C5  UNL d   1       1.821  -0.696  -0.136  0.00  0.00    -0.080 A 
ATOM      5  C6  UNL d   1       2.681  -0.020  -1.162  0.00  0.00     0.076 C 
ATOM      6  C7  UNL d   1       0.464  -0.371  -0.039  0.00  0.00     0.002 A 
ATOM      7  C8  UNL d   1      -0.342  -0.973   0.930  0.00  0.00     0.006 A 
ENDROOT
BRANCH   1   8
ATOM      8  C1  UNL d   1      -0.660  -2.516   2.900  0.00  0.00     0.054 C 
ATOM      9  C   UNL d   1      -1.680  -1.513   3.420  0.00  0.00     0.018 C 
ENDBRANCH   1   8
TORSDOF 1
ENDMDL
