MODEL 1
REMARK minimizedAffinity -5.41151762
REMARK minimizedRMSD -1
REMARK  1 active torsions:
REMARK  status: ('A' for Active; 'I' for Inactive)
REMARK    1  A    between atoms: C1_2  and  C2_3 
ROOT
ATOM      1  C2  UNL d   1      -0.371   0.710  -0.575  0.00  0.00    -0.081 A 
ATOM      2  C3  UNL d   1       1.013   0.578  -0.739  0.00  0.00     0.006 A 
ATOM      3  C4  UNL d   1       1.693  -0.505  -0.176  0.00  0.00     0.002 A 
ATOM      4  C5  UNL d   1       0.999  -1.477   0.553  0.00  0.00    -0.080 A 
ATOM      5  C6  UNL d   1       1.712  -2.661   1.136  0.00  0.00     0.076 C 
ATOM      6  C7  UNL d   1      -0.381  -1.336   0.731  0.00  0.00     0.002 A 
ATOM      7  C8  UNL d   1      -1.061  -0.253   0.169  0.00  0.00     0.006 A 
ENDROOT
BRANCH   1   8
ATOM      8  C1  UNL d   1      -1.116   1.842  -1.235  0.00  0.00     0.054 C 
ATOM      9  C   UNL d   1      -2.208   1.321  -2.159  0.00  0.00     0.018 C 
ENDBRANCH   1   8
TORSDOF 1
ENDMDL
