MODEL 1
REMARK minimizedAffinity -6.00336504
REMARK minimizedRMSD -1
REMARK  1 active torsions:
REMARK  status: ('A' for Active; 'I' for Inactive)
REMARK    1  A    between atoms: C1_2  and  C2_3 
ROOT
ATOM      1  C2  UNL d   1      -0.148   0.534   0.000  0.00  0.00    -0.081 A 
ATOM      2  C3  UNL d   1       1.058  -0.014  -0.453  0.00  0.00     0.006 A 
ATOM      3  C4  UNL d   1       1.544  -1.204   0.093  0.00  0.00     0.002 A 
ATOM      4  C5  UNL d   1       0.830  -1.870   1.094  0.00  0.00    -0.080 A 
ATOM      5  C6  UNL d   1       1.325  -3.164   1.668  0.00  0.00     0.076 C 
ATOM      6  C7  UNL d   1      -0.367  -1.313   1.560  0.00  0.00     0.002 A 
ATOM      7  C8  UNL d   1      -0.853  -0.123   1.015  0.00  0.00     0.006 A 
ENDROOT
BRANCH   1   8
ATOM      8  C1  UNL d   1      -0.708   1.783  -0.632  0.00  0.00     0.054 C 
ATOM      9  C   UNL d   1      -1.508   1.459  -1.885  0.00  0.00     0.018 C 
ENDBRANCH   1   8
TORSDOF 1
ENDMDL
