MODEL 1
REMARK minimizedAffinity -2.03451467
REMARK minimizedRMSD -1
REMARK  1 active torsions:
REMARK  status: ('A' for Active; 'I' for Inactive)
REMARK    1  A    between atoms: C1_2  and  C2_3 
ROOT
ATOM      1  C2  UNL d   1      -0.069  -1.913   2.049  0.00  0.00    -0.081 A 
ATOM      2  C3  UNL d   1       1.324  -1.839   1.927  0.00  0.00     0.006 A 
ATOM      3  C4  UNL d   1       1.909  -0.965   1.008  0.00  0.00     0.002 A 
ATOM      4  C5  UNL d   1       1.112  -0.145   0.201  0.00  0.00    -0.080 A 
ATOM      5  C6  UNL d   1       1.728   0.819  -0.768  0.00  0.00     0.076 C 
ATOM      6  C7  UNL d   1      -0.280  -0.232   0.310  0.00  0.00     0.002 A 
ATOM      7  C8  UNL d   1      -0.866  -1.106   1.229  0.00  0.00     0.006 A 
ENDROOT
BRANCH   1   8
ATOM      8  C1  UNL d   1      -0.702  -2.807   3.084  0.00  0.00     0.054 C 
ATOM      9  C   UNL d   1      -1.985  -2.199   3.631  0.00  0.00     0.018 C 
ENDBRANCH   1   8
TORSDOF 1
ENDMDL
