MODEL 1
REMARK minimizedAffinity -4.17011642
REMARK minimizedRMSD -1
REMARK  1 active torsions:
REMARK  status: ('A' for Active; 'I' for Inactive)
REMARK    1  A    between atoms: C1_2  and  C2_3 
ROOT
ATOM      1  C2  UNL d   1      -0.209   0.839   0.064  0.00  0.00    -0.081 A 
ATOM      2  C3  UNL d   1       1.116   0.477  -0.208  0.00  0.00     0.006 A 
ATOM      3  C4  UNL d   1       1.687  -0.638   0.410  0.00  0.00     0.002 A 
ATOM      4  C5  UNL d   1       0.941  -1.415   1.302  0.00  0.00    -0.080 A 
ATOM      5  C6  UNL d   1       1.532  -2.632   1.949  0.00  0.00     0.076 C 
ATOM      6  C7  UNL d   1      -0.378  -1.044   1.587  0.00  0.00     0.002 A 
ATOM      7  C8  UNL d   1      -0.949   0.072   0.971  0.00  0.00     0.006 A 
ENDROOT
BRANCH   1   8
ATOM      8  C1  UNL d   1      -0.848   2.003  -0.650  0.00  0.00     0.054 C 
ATOM      9  C   UNL d   1      -1.588   1.547  -1.899  0.00  0.00     0.018 C 
ENDBRANCH   1   8
TORSDOF 1
ENDMDL
