MODEL 1
REMARK minimizedAffinity -2.34565783
REMARK minimizedRMSD -1
REMARK  1 active torsions:
REMARK  status: ('A' for Active; 'I' for Inactive)
REMARK    1  A    between atoms: C1_2  and  C2_3 
ROOT
ATOM      1  C2  UNL d   1      -0.847   1.230  -0.580  0.00  0.00    -0.081 A 
ATOM      2  C3  UNL d   1       0.479   0.869  -0.848  0.00  0.00     0.006 A 
ATOM      3  C4  UNL d   1       1.044  -0.254  -0.239  0.00  0.00     0.002 A 
ATOM      4  C5  UNL d   1       0.291  -1.039   0.641  0.00  0.00    -0.080 A 
ATOM      5  C6  UNL d   1       0.875  -2.264   1.278  0.00  0.00     0.076 C 
ATOM      6  C7  UNL d   1      -1.029  -0.668   0.922  0.00  0.00     0.002 A 
ATOM      7  C8  UNL d   1      -1.594   0.455   0.314  0.00  0.00     0.006 A 
ENDROOT
BRANCH   1   8
ATOM      8  C1  UNL d   1      -1.479   2.403  -1.285  0.00  0.00     0.054 C 
ATOM      9  C   UNL d   1      -1.687   2.113  -2.764  0.00  0.00     0.018 C 
ENDBRANCH   1   8
TORSDOF 1
ENDMDL
