MODEL 1
REMARK minimizedAffinity -4.2097106
REMARK minimizedRMSD -1
REMARK  0 active torsions:
REMARK  status: ('A' for Active; 'I' for Inactive)
ROOT
ATOM      1  C1  BNZ d   1      -0.598   3.051   4.373  0.00  0.00     0.000 A 
ATOM      2  C2  BNZ d   1      -1.783   3.633   4.010  0.00  0.00     0.000 A 
ATOM      3  C3  BNZ d   1      -2.625   3.016   3.127  0.00  0.00     0.000 A 
ATOM      4  C4  BNZ d   1      -2.263   1.839   2.579  0.00  0.00     0.000 A 
ATOM      5  C5  BNZ d   1      -1.067   1.243   2.927  0.00  0.00     0.000 A 
ATOM      6  C6  BNZ d   1      -0.240   1.849   3.846  0.00  0.00     0.000 A 
ENDROOT
TORSDOF 0
ENDMDL
