MODEL 1
REMARK minimizedAffinity -4.58331585
REMARK minimizedRMSD -1
REMARK  0 active torsions:
REMARK  status: ('A' for Active; 'I' for Inactive)
ROOT
ATOM      1  C1  BNZ d   1      -0.858  -0.401   0.797  0.00  0.00     0.000 A 
ATOM      2  C2  BNZ d   1       0.038  -0.631   1.807  0.00  0.00     0.000 A 
ATOM      3  C3  BNZ d   1      -0.356  -0.589   3.115  0.00  0.00     0.000 A 
ATOM      4  C4  BNZ d   1      -1.634  -0.279   3.413  0.00  0.00     0.000 A 
ATOM      5  C5  BNZ d   1      -2.547  -0.035   2.407  0.00  0.00     0.000 A 
ATOM      6  C6  BNZ d   1      -2.156  -0.116   1.090  0.00  0.00     0.000 A 
ENDROOT
TORSDOF 0
ENDMDL
