MODEL 1
REMARK minimizedAffinity -4.68415833
REMARK minimizedRMSD -1
REMARK  0 active torsions:
REMARK  status: ('A' for Active; 'I' for Inactive)
ROOT
ATOM      1  C1  BNZ d   1      -0.333  -0.357   2.410  0.00  0.00     0.000 A 
ATOM      2  C2  BNZ d   1      -0.965  -0.455   1.199  0.00  0.00     0.000 A 
ATOM      3  C3  BNZ d   1      -0.264  -0.333   0.032  0.00  0.00     0.000 A 
ATOM      4  C4  BNZ d   1       1.059  -0.073   0.078  0.00  0.00     0.000 A 
ATOM      5  C5  BNZ d   1       1.708   0.037   1.291  0.00  0.00     0.000 A 
ATOM      6  C6  BNZ d   1       1.006  -0.125   2.463  0.00  0.00     0.000 A 
ENDROOT
TORSDOF 0
ENDMDL
