MODEL 1
REMARK minimizedAffinity -3.36428761
REMARK minimizedRMSD -1
REMARK  0 active torsions:
REMARK  status: ('A' for Active; 'I' for Inactive)
ROOT
ATOM      1  C1  BNZ d   1      -0.441  -0.106   2.139  0.00  0.00     0.000 A 
ATOM      2  C2  BNZ d   1       0.039   0.616   1.079  0.00  0.00     0.000 A 
ATOM      3  C3  BNZ d   1       0.230   0.027  -0.140  0.00  0.00     0.000 A 
ATOM      4  C4  BNZ d   1      -0.020  -1.290  -0.286  0.00  0.00     0.000 A 
ATOM      5  C5  BNZ d   1      -0.495  -2.034   0.776  0.00  0.00     0.000 A 
ATOM      6  C6  BNZ d   1      -0.723  -1.429   1.991  0.00  0.00     0.000 A 
ENDROOT
TORSDOF 0
ENDMDL
