MODEL 1
REMARK minimizedAffinity -4.45328093
REMARK minimizedRMSD -1
REMARK  0 active torsions:
REMARK  status: ('A' for Active; 'I' for Inactive)
ROOT
ATOM      1  C1  BNZ d   1      -2.977   0.381  -0.282  0.00  0.00     0.000 A 
ATOM      2  C2  BNZ d   1      -1.918   0.899  -0.978  0.00  0.00     0.000 A 
ATOM      3  C3  BNZ d   1      -0.663   0.377  -0.835  0.00  0.00     0.000 A 
ATOM      4  C4  BNZ d   1      -0.461  -0.635   0.033  0.00  0.00     0.000 A 
ATOM      5  C5  BNZ d   1      -1.517  -1.163   0.749  0.00  0.00     0.000 A 
ATOM      6  C6  BNZ d   1      -2.786  -0.661   0.573  0.00  0.00     0.000 A 
ENDROOT
TORSDOF 0
ENDMDL
