MODEL 1
REMARK minimizedAffinity -1.53006768
REMARK minimizedRMSD -1
REMARK  0 active torsions:
REMARK  status: ('A' for Active; 'I' for Inactive)
ROOT
ATOM      1  C1  BNZ d   1       0.879   0.423   0.808  0.00  0.00     0.000 A 
ATOM      2  C2  BNZ d   1       0.222   0.140   1.976  0.00  0.00     0.000 A 
ATOM      3  C3  BNZ d   1      -1.049  -0.360   1.961  0.00  0.00     0.000 A 
ATOM      4  C4  BNZ d   1      -1.677  -0.540   0.781  0.00  0.00     0.000 A 
ATOM      5  C5  BNZ d   1      -1.032  -0.252  -0.405  0.00  0.00     0.000 A 
ATOM      6  C6  BNZ d   1       0.262   0.216  -0.388  0.00  0.00     0.000 A 
ENDROOT
TORSDOF 0
ENDMDL
