MODEL 1
REMARK minimizedAffinity -4.25626373
REMARK minimizedRMSD -1
REMARK  0 active torsions:
REMARK  status: ('A' for Active; 'I' for Inactive)
ROOT
ATOM      1  C1  BNZ d   1       0.815  -0.775   0.622  0.00  0.00     0.000 A 
ATOM      2  C2  BNZ d   1       0.120  -0.460   1.759  0.00  0.00     0.000 A 
ATOM      3  C3  BNZ d   1      -1.053   0.238   1.692  0.00  0.00     0.000 A 
ATOM      4  C4  BNZ d   1      -1.509   0.655   0.493  0.00  0.00     0.000 A 
ATOM      5  C5  BNZ d   1      -0.815   0.354  -0.662  0.00  0.00     0.000 A 
ATOM      6  C6  BNZ d   1       0.346  -0.383  -0.594  0.00  0.00     0.000 A 
ENDROOT
TORSDOF 0
ENDMDL
