MODEL 1
REMARK minimizedAffinity -5.20804596
REMARK minimizedRMSD -1
REMARK  0 active torsions:
REMARK  status: ('A' for Active; 'I' for Inactive)
ROOT
ATOM      1  C1  BNZ d   1      -1.341  -0.305   1.088  0.00  0.00     0.000 A 
ATOM      2  C2  BNZ d   1      -0.618   0.106  -0.000  0.00  0.00     0.000 A 
ATOM      3  C3  BNZ d   1       0.673   0.532   0.138  0.00  0.00     0.000 A 
ATOM      4  C4  BNZ d   1       1.227   0.585   1.367  0.00  0.00     0.000 A 
ATOM      5  C5  BNZ d   1       0.508   0.183   2.475  0.00  0.00     0.000 A 
ATOM      6  C6  BNZ d   1      -0.779  -0.283   2.327  0.00  0.00     0.000 A 
ENDROOT
TORSDOF 0
ENDMDL
