MODEL 1
REMARK minimizedAffinity -2.26214385
REMARK minimizedRMSD -1
REMARK  0 active torsions:
REMARK  status: ('A' for Active; 'I' for Inactive)
ROOT
ATOM      1  C1  BNZ d   1      -0.547   0.182   2.706  0.00  0.00     0.000 A 
ATOM      2  C2  BNZ d   1      -1.270   0.111   1.545  0.00  0.00     0.000 A 
ATOM      3  C3  BNZ d   1      -0.646  -0.046   0.340  0.00  0.00     0.000 A 
ATOM      4  C4  BNZ d   1       0.701  -0.091   0.292  0.00  0.00     0.000 A 
ATOM      5  C5  BNZ d   1       1.445  -0.011   1.452  0.00  0.00     0.000 A 
ATOM      6  C6  BNZ d   1       0.811   0.108   2.668  0.00  0.00     0.000 A 
ENDROOT
TORSDOF 0
ENDMDL
