MODEL 1
REMARK minimizedAffinity -0.121521913
REMARK minimizedRMSD -1
REMARK  0 active torsions:
REMARK  status: ('A' for Active; 'I' for Inactive)
ROOT
ATOM      1  C1  BNZ d   1      -0.515   0.219  -0.215  0.00  0.00     0.000 A 
ATOM      2  C2  BNZ d   1      -1.041  -0.046   1.021  0.00  0.00     0.000 A 
ATOM      3  C3  BNZ d   1      -0.307   0.167   2.154  0.00  0.00     0.000 A 
ATOM      4  C4  BNZ d   1       0.963   0.606   2.049  0.00  0.00     0.000 A 
ATOM      5  C5  BNZ d   1       1.511   0.870   0.809  0.00  0.00     0.000 A 
ATOM      6  C6  BNZ d   1       0.757   0.691  -0.328  0.00  0.00     0.000 A 
ENDROOT
TORSDOF 0
ENDMDL
