MODEL 1
REMARK minimizedAffinity -4.83344269
REMARK minimizedRMSD -1
REMARK  0 active torsions:
REMARK  status: ('A' for Active; 'I' for Inactive)
ROOT
ATOM      1  C1  BNZ d   1       1.357   0.696   1.017  0.00  0.00     0.000 A 
ATOM      2  C2  BNZ d   1       0.554   0.307  -0.022  0.00  0.00     0.000 A 
ATOM      3  C3  BNZ d   1      -0.642  -0.311   0.211  0.00  0.00     0.000 A 
ATOM      4  C4  BNZ d   1      -1.016  -0.575   1.480  0.00  0.00     0.000 A 
ATOM      5  C5  BNZ d   1      -0.213  -0.198   2.538  0.00  0.00     0.000 A 
ATOM      6  C6  BNZ d   1       0.972   0.459   2.301  0.00  0.00     0.000 A 
ENDROOT
TORSDOF 0
ENDMDL
