MODEL 1
REMARK minimizedAffinity -4.27675772
REMARK minimizedRMSD -1
REMARK  0 active torsions:
REMARK  status: ('A' for Active; 'I' for Inactive)
ROOT
ATOM      1  C1  BNZ d   1      -2.102   0.004   0.462  0.00  0.00     0.000 A 
ATOM      2  C2  BNZ d   1      -1.204  -0.327   1.442  0.00  0.00     0.000 A 
ATOM      3  C3  BNZ d   1       0.122  -0.027   1.306  0.00  0.00     0.000 A 
ATOM      4  C4  BNZ d   1       0.556   0.566   0.176  0.00  0.00     0.000 A 
ATOM      5  C5  BNZ d   1      -0.335   0.898  -0.825  0.00  0.00     0.000 A 
ATOM      6  C6  BNZ d   1      -1.676   0.630  -0.668  0.00  0.00     0.000 A 
ENDROOT
TORSDOF 0
ENDMDL
