MODEL 1
REMARK minimizedAffinity -3.31348658
REMARK minimizedRMSD -1
REMARK  0 active torsions:
REMARK  status: ('A' for Active; 'I' for Inactive)
ROOT
ATOM      1  C1  BNZ d   1      -0.450  -0.173   2.791  0.00  0.00     0.000 A 
ATOM      2  C2  BNZ d   1      -0.984  -0.572   1.595  0.00  0.00     0.000 A 
ATOM      3  C3  BNZ d   1      -0.370  -0.258   0.414  0.00  0.00     0.000 A 
ATOM      4  C4  BNZ d   1       0.753   0.488   0.429  0.00  0.00     0.000 A 
ATOM      5  C5  BNZ d   1       1.298   0.906   1.626  0.00  0.00     0.000 A 
ATOM      6  C6  BNZ d   1       0.699   0.555   2.814  0.00  0.00     0.000 A 
ENDROOT
TORSDOF 0
ENDMDL
