MODEL 1
REMARK minimizedAffinity -4.26399136
REMARK minimizedRMSD -1
REMARK  0 active torsions:
REMARK  status: ('A' for Active; 'I' for Inactive)
ROOT
ATOM      1  C1  BNZ d   1       0.567   0.282   2.705  0.00  0.00     0.000 A 
ATOM      2  C2  BNZ d   1       1.404   0.234   1.622  0.00  0.00     0.000 A 
ATOM      3  C3  BNZ d   1       0.903   0.118   0.356  0.00  0.00     0.000 A 
ATOM      4  C4  BNZ d   1      -0.429   0.008   0.177  0.00  0.00     0.000 A 
ATOM      5  C5  BNZ d   1      -1.285   0.045   1.259  0.00  0.00     0.000 A 
ATOM      6  C6  BNZ d   1      -0.780   0.201   2.530  0.00  0.00     0.000 A 
ENDROOT
TORSDOF 0
ENDMDL
