MODEL 1
REMARK minimizedAffinity -2.50514698
REMARK minimizedRMSD -1
REMARK  1 active torsions:
REMARK  status: ('A' for Active; 'I' for Inactive)
REMARK    1  A    between atoms: C1_2  and  C2_3 
ROOT
ATOM      1  C2  UNL d   1      -5.145   3.887   4.614  0.00  0.00    -0.076 A 
ATOM      2  C3  UNL d   1      -4.689   3.256   3.443  0.00  0.00     0.004 A 
ATOM      3  C4  UNL d   1      -4.629   3.946   2.234  0.00  0.00    -0.003 A 
ATOM      4  C5  UNL d   1      -5.024   5.278   2.175  0.00  0.00     0.000 A 
ATOM      5  C6  UNL d   1      -5.462   5.924   3.331  0.00  0.00     0.000 A 
ATOM      6  C7  UNL d   1      -5.513   5.248   4.562  0.00  0.00    -0.073 A 
ATOM      7  C8  UNL d   1      -5.999   5.992   5.775  0.00  0.00     0.078 C 
ENDROOT
BRANCH   1   8
ATOM      8  C1  UNL d   1      -5.213   3.080   5.891  0.00  0.00     0.053 C 
ATOM      9  C   UNL d   1      -5.962   1.769   5.713  0.00  0.00     0.018 C 
ENDBRANCH   1   8
TORSDOF 1
ENDMDL
