MODEL 1
REMARK minimizedAffinity -1.34949005
REMARK minimizedRMSD -1
REMARK  1 active torsions:
REMARK  status: ('A' for Active; 'I' for Inactive)
REMARK    1  A    between atoms: C1_2  and  C2_3 
ROOT
ATOM      1  C2  UNL d   1      -5.940   4.840   3.542  0.00  0.00    -0.076 A 
ATOM      2  C3  UNL d   1      -5.899   5.394   4.833  0.00  0.00     0.004 A 
ATOM      3  C4  UNL d   1      -5.917   4.579   5.964  0.00  0.00    -0.003 A 
ATOM      4  C5  UNL d   1      -5.976   3.197   5.822  0.00  0.00     0.000 A 
ATOM      5  C6  UNL d   1      -6.000   2.630   4.548  0.00  0.00     0.000 A 
ATOM      6  C7  UNL d   1      -5.966   3.437   3.397  0.00  0.00    -0.073 A 
ATOM      7  C8  UNL d   1      -6.000   2.772   2.049  0.00  0.00     0.078 C 
ENDROOT
BRANCH   1   8
ATOM      8  C1  UNL d   1      -5.946   5.775   2.353  0.00  0.00     0.053 C 
ATOM      9  C   UNL d   1      -4.567   5.937   1.734  0.00  0.00     0.018 C 
ENDBRANCH   1   8
TORSDOF 1
ENDMDL
