MODEL 1
REMARK minimizedAffinity 6.69377851
REMARK minimizedRMSD -1
REMARK  1 active torsions:
REMARK  status: ('A' for Active; 'I' for Inactive)
REMARK    1  A    between atoms: C1_2  and  C2_3 
ROOT
ATOM      1  C2  UNL d   1      -4.767   3.455   2.659  0.00  0.00    -0.076 A 
ATOM      2  C3  UNL d   1      -5.394   3.703   3.893  0.00  0.00     0.004 A 
ATOM      3  C4  UNL d   1      -5.995   4.932   4.159  0.00  0.00    -0.003 A 
ATOM      4  C5  UNL d   1      -5.980   5.934   3.195  0.00  0.00     0.000 A 
ATOM      5  C6  UNL d   1      -5.378   5.700   1.959  0.00  0.00     0.000 A 
ATOM      6  C7  UNL d   1      -4.782   4.460   1.669  0.00  0.00    -0.073 A 
ATOM      7  C8  UNL d   1      -4.142   4.265   0.322  0.00  0.00     0.078 C 
ENDROOT
BRANCH   1   8
ATOM      8  C1  UNL d   1      -4.108   2.113   2.438  0.00  0.00     0.053 C 
ATOM      9  C   UNL d   1      -4.408   1.536   1.063  0.00  0.00     0.018 C 
ENDBRANCH   1   8
TORSDOF 1
ENDMDL
