MODEL 1
REMARK minimizedAffinity -2.22063828
REMARK minimizedRMSD -1
REMARK  1 active torsions:
REMARK  status: ('A' for Active; 'I' for Inactive)
REMARK    1  A    between atoms: C1_2  and  C2_3 
ROOT
ATOM      1  C2  UNL d   1      -4.844   2.948   4.083  0.00  0.00    -0.076 A 
ATOM      2  C3  UNL d   1      -5.475   3.041   2.830  0.00  0.00     0.004 A 
ATOM      3  C4  UNL d   1      -5.599   4.268   2.180  0.00  0.00    -0.003 A 
ATOM      4  C5  UNL d   1      -5.095   5.421   2.771  0.00  0.00     0.000 A 
ATOM      5  C6  UNL d   1      -4.450   5.343   4.005  0.00  0.00     0.000 A 
ATOM      6  C7  UNL d   1      -4.301   4.112   4.667  0.00  0.00    -0.073 A 
ATOM      7  C8  UNL d   1      -3.603   4.088   5.999  0.00  0.00     0.078 C 
ENDROOT
BRANCH   1   8
ATOM      8  C1  UNL d   1      -4.762   1.595   4.753  0.00  0.00     0.053 C 
ATOM      9  C   UNL d   1      -5.727   1.464   5.921  0.00  0.00     0.018 C 
ENDBRANCH   1   8
TORSDOF 1
ENDMDL
