MODEL 1
REMARK minimizedAffinity -0.385129422
REMARK minimizedRMSD -1
REMARK  1 active torsions:
REMARK  status: ('A' for Active; 'I' for Inactive)
REMARK    1  A    between atoms: C1_2  and  C2_3 
ROOT
ATOM      1  C2  UNL d   1      -4.723   3.683   3.853  0.00  0.00    -0.076 A 
ATOM      2  C3  UNL d   1      -4.945   5.029   4.190  0.00  0.00     0.004 A 
ATOM      3  C4  UNL d   1      -5.109   5.998   3.201  0.00  0.00    -0.003 A 
ATOM      4  C5  UNL d   1      -5.053   5.636   1.860  0.00  0.00     0.000 A 
ATOM      5  C6  UNL d   1      -4.850   4.302   1.508  0.00  0.00     0.000 A 
ATOM      6  C7  UNL d   1      -4.700   3.310   2.492  0.00  0.00    -0.073 A 
ATOM      7  C8  UNL d   1      -4.478   1.888   2.056  0.00  0.00     0.078 C 
ENDROOT
BRANCH   1   8
ATOM      8  C1  UNL d   1      -4.525   2.681   4.968  0.00  0.00     0.053 C 
ATOM      9  C   UNL d   1      -5.833   2.057   5.430  0.00  0.00     0.018 C 
ENDBRANCH   1   8
TORSDOF 1
ENDMDL
