MODEL 1
REMARK minimizedAffinity -3.74979186
REMARK minimizedRMSD -1
REMARK  1 active torsions:
REMARK  status: ('A' for Active; 'I' for Inactive)
REMARK    1  A    between atoms: C1_2  and  C2_3 
ROOT
ATOM      1  C2  UNL d   1      -4.725   4.786   3.336  0.00  0.00    -0.076 A 
ATOM      2  C3  UNL d   1      -5.205   5.967   3.929  0.00  0.00     0.004 A 
ATOM      3  C4  UNL d   1      -5.649   5.977   5.250  0.00  0.00    -0.003 A 
ATOM      4  C5  UNL d   1      -5.621   4.806   6.000  0.00  0.00     0.000 A 
ATOM      5  C6  UNL d   1      -5.131   3.630   5.434  0.00  0.00     0.000 A 
ATOM      6  C7  UNL d   1      -4.664   3.606   4.108  0.00  0.00    -0.073 A 
ATOM      7  C8  UNL d   1      -4.153   2.308   3.546  0.00  0.00     0.078 C 
ENDROOT
BRANCH   1   8
ATOM      8  C1  UNL d   1      -4.281   4.829   1.891  0.00  0.00     0.053 C 
ATOM      9  C   UNL d   1      -4.885   5.999   1.131  0.00  0.00     0.018 C 
ENDBRANCH   1   8
TORSDOF 1
ENDMDL
