MODEL 1
REMARK minimizedAffinity -3.00722551
REMARK minimizedRMSD -1
REMARK  1 active torsions:
REMARK  status: ('A' for Active; 'I' for Inactive)
REMARK    1  A    between atoms: C1_2  and  C2_3 
ROOT
ATOM      1  C2  UNL d   1      -5.073   5.377   3.880  0.00  0.00    -0.076 A 
ATOM      2  C3  UNL d   1      -5.999   5.705   2.874  0.00  0.00     0.004 A 
ATOM      3  C4  UNL d   1      -5.642   5.660   1.528  0.00  0.00    -0.003 A 
ATOM      4  C5  UNL d   1      -4.354   5.285   1.164  0.00  0.00     0.000 A 
ATOM      5  C6  UNL d   1      -3.427   4.939   2.147  0.00  0.00     0.000 A 
ATOM      6  C7  UNL d   1      -3.775   4.964   3.509  0.00  0.00    -0.073 A 
ATOM      7  C8  UNL d   1      -2.734   4.587   4.527  0.00  0.00     0.078 C 
ENDROOT
BRANCH   1   8
ATOM      8  C1  UNL d   1      -5.508   5.471   5.324  0.00  0.00     0.053 C 
ATOM      9  C   UNL d   1      -5.999   4.140   5.873  0.00  0.00     0.018 C 
ENDBRANCH   1   8
TORSDOF 1
ENDMDL
