MODEL 1
REMARK minimizedAffinity -2.61373115
REMARK minimizedRMSD -1
REMARK  1 active torsions:
REMARK  status: ('A' for Active; 'I' for Inactive)
REMARK    1  A    between atoms: C1_2  and  C2_3 
ROOT
ATOM      1  C2  UNL d   1      -5.536   4.045   4.394  0.00  0.00    -0.076 A 
ATOM      2  C3  UNL d   1      -5.997   3.664   3.122  0.00  0.00     0.004 A 
ATOM      3  C4  UNL d   1      -5.728   4.443   1.998  0.00  0.00    -0.003 A 
ATOM      4  C5  UNL d   1      -4.992   5.616   2.128  0.00  0.00     0.000 A 
ATOM      5  C6  UNL d   1      -4.512   6.000   3.380  0.00  0.00     0.000 A 
ATOM      6  C7  UNL d   1      -4.760   5.217   4.520  0.00  0.00    -0.073 A 
ATOM      7  C8  UNL d   1      -4.223   5.682   5.846  0.00  0.00     0.078 C 
ENDROOT
BRANCH   1   8
ATOM      8  C1  UNL d   1      -5.882   3.174   5.581  0.00  0.00     0.053 C 
ATOM      9  C   UNL d   1      -4.729   2.275   6.000  0.00  0.00     0.018 C 
ENDBRANCH   1   8
TORSDOF 1
ENDMDL
