MODEL 1
REMARK minimizedAffinity -1.93876314
REMARK minimizedRMSD -1
REMARK  1 active torsions:
REMARK  status: ('A' for Active; 'I' for Inactive)
REMARK    1  A    between atoms: C1_2  and  C2_3 
ROOT
ATOM      1  C2  UNL d   1      -4.877   4.798   2.995  0.00  0.00    -0.076 A 
ATOM      2  C3  UNL d   1      -4.270   3.639   2.481  0.00  0.00     0.004 A 
ATOM      3  C4  UNL d   1      -4.084   2.512   3.280  0.00  0.00    -0.003 A 
ATOM      4  C5  UNL d   1      -4.502   2.526   4.606  0.00  0.00     0.000 A 
ATOM      5  C6  UNL d   1      -5.122   3.661   5.128  0.00  0.00     0.000 A 
ATOM      6  C7  UNL d   1      -5.332   4.800   4.331  0.00  0.00    -0.073 A 
ATOM      7  C8  UNL d   1      -6.000   5.999   4.947  0.00  0.00     0.078 C 
ENDROOT
BRANCH   1   8
ATOM      8  C1  UNL d   1      -5.028   5.999   2.089  0.00  0.00     0.053 C 
ATOM      9  C   UNL d   1      -5.977   5.738   0.929  0.00  0.00     0.018 C 
ENDBRANCH   1   8
TORSDOF 1
ENDMDL
