MODEL 1
REMARK minimizedAffinity -3.57743502
REMARK minimizedRMSD -1
REMARK  1 active torsions:
REMARK  status: ('A' for Active; 'I' for Inactive)
REMARK    1  A    between atoms: C1_2  and  C2_3 
ROOT
ATOM      1  C2  UNL d   1      -5.443   3.644   4.237  0.00  0.00    -0.076 A 
ATOM      2  C3  UNL d   1      -5.016   3.219   2.967  0.00  0.00     0.004 A 
ATOM      3  C4  UNL d   1      -4.738   4.141   1.959  0.00  0.00    -0.003 A 
ATOM      4  C5  UNL d   1      -4.882   5.502   2.205  0.00  0.00     0.000 A 
ATOM      5  C6  UNL d   1      -5.287   5.941   3.465  0.00  0.00     0.000 A 
ATOM      6  C7  UNL d   1      -5.556   5.026   4.497  0.00  0.00    -0.073 A 
ATOM      7  C8  UNL d   1      -5.996   5.555   5.834  0.00  0.00     0.078 C 
ENDROOT
BRANCH   1   8
ATOM      8  C1  UNL d   1      -5.756   2.597   5.283  0.00  0.00     0.053 C 
ATOM      9  C   UNL d   1      -4.504   2.044   5.947  0.00  0.00     0.018 C 
ENDBRANCH   1   8
TORSDOF 1
ENDMDL
