MODEL 1
REMARK minimizedAffinity -2.78730321
REMARK minimizedRMSD -1
REMARK  1 active torsions:
REMARK  status: ('A' for Active; 'I' for Inactive)
REMARK    1  A    between atoms: C1_2  and  C2_3 
ROOT
ATOM      1  C2  UNL d   1      -5.797   3.791   4.656  0.00  0.00    -0.076 A 
ATOM      2  C3  UNL d   1      -5.598   3.125   3.434  0.00  0.00     0.004 A 
ATOM      3  C4  UNL d   1      -5.435   3.837   2.247  0.00  0.00    -0.003 A 
ATOM      4  C5  UNL d   1      -5.468   5.227   2.263  0.00  0.00     0.000 A 
ATOM      5  C6  UNL d   1      -5.647   5.905   3.469  0.00  0.00     0.000 A 
ATOM      6  C7  UNL d   1      -5.796   5.202   4.676  0.00  0.00    -0.073 A 
ATOM      7  C8  UNL d   1      -5.992   5.983   5.947  0.00  0.00     0.078 C 
ENDROOT
BRANCH   1   8
ATOM      8  C1  UNL d   1      -5.994   2.965   5.907  0.00  0.00     0.053 C 
ATOM      9  C   UNL d   1      -5.020   1.800   5.996  0.00  0.00     0.018 C 
ENDBRANCH   1   8
TORSDOF 1
ENDMDL
