MODEL 1
REMARK minimizedAffinity -3.20954156
REMARK minimizedRMSD -1
REMARK  1 active torsions:
REMARK  status: ('A' for Active; 'I' for Inactive)
REMARK    1  A    between atoms: C1_2  and  C2_3 
ROOT
ATOM      1  C2  UNL d   1      -4.949   3.875   4.119  0.00  0.00    -0.076 A 
ATOM      2  C3  UNL d   1      -4.666   3.685   2.756  0.00  0.00     0.004 A 
ATOM      3  C4  UNL d   1      -5.048   4.629   1.805  0.00  0.00    -0.003 A 
ATOM      4  C5  UNL d   1      -5.720   5.780   2.203  0.00  0.00     0.000 A 
ATOM      5  C6  UNL d   1      -5.994   5.993   3.553  0.00  0.00     0.000 A 
ATOM      6  C7  UNL d   1      -5.600   5.059   4.527  0.00  0.00    -0.073 A 
ATOM      7  C8  UNL d   1      -5.927   5.337   5.968  0.00  0.00     0.078 C 
ENDROOT
BRANCH   1   8
ATOM      8  C1  UNL d   1      -4.534   2.803   5.102  0.00  0.00     0.053 C 
ATOM      9  C   UNL d   1      -5.715   1.997   5.619  0.00  0.00     0.018 C 
ENDBRANCH   1   8
TORSDOF 1
ENDMDL
