MODEL 1
REMARK minimizedAffinity -0.722105145
REMARK minimizedRMSD -1
REMARK  1 active torsions:
REMARK  status: ('A' for Active; 'I' for Inactive)
REMARK    1  A    between atoms: C1_2  and  C2_3 
ROOT
ATOM      1  C2  UNL d   1      -4.555   4.700   4.383  0.00  0.00    -0.076 A 
ATOM      2  C3  UNL d   1      -4.151   5.748   3.538  0.00  0.00     0.004 A 
ATOM      3  C4  UNL d   1      -4.655   5.862   2.244  0.00  0.00    -0.003 A 
ATOM      4  C5  UNL d   1      -5.572   4.929   1.773  0.00  0.00     0.000 A 
ATOM      5  C6  UNL d   1      -5.997   3.892   2.603  0.00  0.00     0.000 A 
ATOM      6  C7  UNL d   1      -5.511   3.773   3.916  0.00  0.00    -0.073 A 
ATOM      7  C8  UNL d   1      -6.000   2.631   4.766  0.00  0.00     0.078 C 
ENDROOT
BRANCH   1   8
ATOM      8  C1  UNL d   1      -3.954   4.612   5.767  0.00  0.00     0.053 C 
ATOM      9  C   UNL d   1      -3.122   3.354   5.963  0.00  0.00     0.018 C 
ENDBRANCH   1   8
TORSDOF 1
ENDMDL
