MODEL 1
REMARK minimizedAffinity 3.58292007
REMARK minimizedRMSD -1
REMARK  0 active torsions:
REMARK  status: ('A' for Active; 'I' for Inactive)
ROOT
ATOM      1  C   UNL d   1       0.127  -1.127   3.141  0.00  0.00    -0.002 A 
ATOM      2  C1  UNL d   1      -0.944  -0.334   2.756  0.00  0.00     0.010 A 
ATOM      3  C2  UNL d   1      -1.065   0.105   1.436  0.00  0.00     0.041 A 
ATOM      4  C3  UNL d   1      -0.083  -0.272   0.500  0.00  0.00    -0.075 A 
ATOM      5  S   UNL d   1      -0.025   0.147  -1.172  0.00  0.00     0.015 SA
ATOM      6  C4  UNL d   1       1.424  -0.718  -1.415  0.00  0.00     0.022 A 
ATOM      7  C5  UNL d   1       1.866  -1.318  -0.259  0.00  0.00     0.026 A 
ATOM      8  C6  UNL d   1       1.005  -1.071   0.863  0.00  0.00    -0.082 A 
ATOM      9  C7  UNL d   1       1.100  -1.499   2.209  0.00  0.00     0.045 A 
ENDROOT
TORSDOF 0
ENDMDL
