MODEL 1
REMARK minimizedAffinity -3.0376029
REMARK minimizedRMSD -1
REMARK  0 active torsions:
REMARK  status: ('A' for Active; 'I' for Inactive)
ROOT
ATOM      1  C   UNL d   1      -1.393   1.114  -0.589  0.00  0.00    -0.002 A 
ATOM      2  C1  UNL d   1      -0.674   0.622  -1.670  0.00  0.00     0.010 A 
ATOM      3  C2  UNL d   1       0.481  -0.135  -1.468  0.00  0.00     0.041 A 
ATOM      4  C3  UNL d   1       0.906  -0.394  -0.150  0.00  0.00    -0.075 A 
ATOM      5  S   UNL d   1       2.291  -1.298   0.337  0.00  0.00     0.015 SA
ATOM      6  C4  UNL d   1       1.960  -1.054   1.991  0.00  0.00     0.022 A 
ATOM      7  C5  UNL d   1       0.825  -0.302   2.185  0.00  0.00     0.026 A 
ATOM      8  C6  UNL d   1       0.199   0.090   0.954  0.00  0.00    -0.082 A 
ATOM      9  C7  UNL d   1      -0.969   0.855   0.717  0.00  0.00     0.045 A 
ENDROOT
TORSDOF 0
ENDMDL
