MODEL 1
REMARK minimizedAffinity 2.01763773
REMARK minimizedRMSD -1
REMARK  0 active torsions:
REMARK  status: ('A' for Active; 'I' for Inactive)
ROOT
ATOM      1  C   UNL d   1      -0.219   3.213  -3.409  0.00  0.00    -0.002 A 
ATOM      2  C1  UNL d   1      -1.580   2.970  -3.296  0.00  0.00     0.010 A 
ATOM      3  C2  UNL d   1      -2.054   1.965  -2.449  0.00  0.00     0.041 A 
ATOM      4  C3  UNL d   1      -1.128   1.204  -1.710  0.00  0.00    -0.075 A 
ATOM      5  S   UNL d   1      -1.478  -0.077  -0.610  0.00  0.00     0.015 SA
ATOM      6  C4  UNL d   1       0.172  -0.330  -0.264  0.00  0.00     0.022 A 
ATOM      7  C5  UNL d   1       0.984   0.532  -0.962  0.00  0.00     0.026 A 
ATOM      8  C6  UNL d   1       0.248   1.431  -1.807  0.00  0.00    -0.082 A 
ATOM      9  C7  UNL d   1       0.697   2.456  -2.674  0.00  0.00     0.045 A 
ENDROOT
TORSDOF 0
ENDMDL
