MODEL 1
REMARK minimizedAffinity -2.56745481
REMARK minimizedRMSD -1
REMARK  0 active torsions:
REMARK  status: ('A' for Active; 'I' for Inactive)
ROOT
ATOM      1  C   UNL d   1       0.032  -1.315   2.704  0.00  0.00    -0.002 A 
ATOM      2  C1  UNL d   1      -1.042  -0.452   2.538  0.00  0.00     0.010 A 
ATOM      3  C2  UNL d   1      -1.254   0.192   1.317  0.00  0.00     0.041 A 
ATOM      4  C3  UNL d   1      -0.361  -0.050   0.255  0.00  0.00    -0.075 A 
ATOM      5  S   UNL d   1      -0.423   0.626  -1.330  0.00  0.00     0.015 SA
ATOM      6  C4  UNL d   1       0.974  -0.216  -1.824  0.00  0.00     0.022 A 
ATOM      7  C5  UNL d   1       1.489  -0.998  -0.817  0.00  0.00     0.026 A 
ATOM      8  C6  UNL d   1       0.727  -0.916   0.397  0.00  0.00    -0.082 A 
ATOM      9  C7  UNL d   1       0.916  -1.553   1.648  0.00  0.00     0.045 A 
ENDROOT
TORSDOF 0
ENDMDL
