MODEL 1
REMARK minimizedAffinity -1.04234076
REMARK minimizedRMSD -1
REMARK  0 active torsions:
REMARK  status: ('A' for Active; 'I' for Inactive)
ROOT
ATOM      1  C   UNL d   1      -0.404   0.553   2.564  0.00  0.00    -0.002 A 
ATOM      2  C1  UNL d   1      -0.254  -0.792   2.255  0.00  0.00     0.010 A 
ATOM      3  C2  UNL d   1      -0.177  -1.211   0.925  0.00  0.00     0.041 A 
ATOM      4  C3  UNL d   1      -0.252  -0.246  -0.099  0.00  0.00    -0.075 A 
ATOM      5  S   UNL d   1      -0.179  -0.526  -1.798  0.00  0.00     0.015 SA
ATOM      6  C4  UNL d   1      -0.344   1.133  -2.154  0.00  0.00     0.022 A 
ATOM      7  C5  UNL d   1      -0.453   1.896  -1.016  0.00  0.00     0.026 A 
ATOM      8  C6  UNL d   1      -0.401   1.114   0.187  0.00  0.00    -0.082 A 
ATOM      9  C7  UNL d   1      -0.477   1.507   1.545  0.00  0.00     0.045 A 
ENDROOT
TORSDOF 0
ENDMDL
