MODEL 1
REMARK minimizedAffinity -0.784313083
REMARK minimizedRMSD -1
REMARK  0 active torsions:
REMARK  status: ('A' for Active; 'I' for Inactive)
ROOT
ATOM      1  C   UNL d   1      -0.033  -2.179   2.039  0.00  0.00     0.077 C 
ATOM      2  C1  UNL d   1       0.125  -1.028   1.091  0.00  0.00    -0.074 A 
ATOM      3  C2  UNL d   1      -0.747  -0.862   0.010  0.00  0.00    -0.005 A 
ATOM      4  C3  UNL d   1      -0.593   0.219  -0.858  0.00  0.00     0.006 A 
ATOM      5  C4  UNL d   1       0.432   1.143  -0.655  0.00  0.00    -0.005 A 
ATOM      6  C5  UNL d   1       1.313   0.994   0.421  0.00  0.00    -0.074 A 
ATOM      7  C6  UNL d   1       2.415   1.984   0.659  0.00  0.00     0.077 C 
ATOM      8  C7  UNL d   1       1.148  -0.091   1.293  0.00  0.00    -0.001 A 
ENDROOT
TORSDOF 0
ENDMDL
