MODEL 1
REMARK minimizedAffinity -1.26337397
REMARK minimizedRMSD -1
REMARK  0 active torsions:
REMARK  status: ('A' for Active; 'I' for Inactive)
ROOT
ATOM      1  C   UNL d   1      -1.837  -0.127  -2.081  0.00  0.00     0.077 C 
ATOM      2  C1  UNL d   1      -0.849  -0.440  -0.998  0.00  0.00    -0.074 A 
ATOM      3  C2  UNL d   1       0.358   0.261  -0.901  0.00  0.00    -0.005 A 
ATOM      4  C3  UNL d   1       1.263  -0.035   0.118  0.00  0.00     0.006 A 
ATOM      5  C4  UNL d   1       0.972  -1.033   1.049  0.00  0.00    -0.005 A 
ATOM      6  C5  UNL d   1      -0.230  -1.744   0.968  0.00  0.00    -0.074 A 
ATOM      7  C6  UNL d   1      -0.563  -2.813   1.967  0.00  0.00     0.077 C 
ATOM      8  C7  UNL d   1      -1.138  -1.436  -0.054  0.00  0.00    -0.001 A 
ENDROOT
TORSDOF 0
ENDMDL
