MODEL 1
REMARK minimizedAffinity -4.46926165
REMARK minimizedRMSD -1
REMARK  0 active torsions:
REMARK  status: ('A' for Active; 'I' for Inactive)
ROOT
ATOM      1  C   UNL d   1      -1.700   0.737  -0.923  0.00  0.00     0.077 C 
ATOM      2  C1  UNL d   1      -0.304   0.842  -0.384  0.00  0.00    -0.074 A 
ATOM      3  C2  UNL d   1       0.572  -0.247  -0.442  0.00  0.00    -0.005 A 
ATOM      4  C3  UNL d   1       1.870  -0.132   0.055  0.00  0.00     0.006 A 
ATOM      5  C4  UNL d   1       2.305   1.070   0.614  0.00  0.00    -0.005 A 
ATOM      6  C5  UNL d   1       1.443   2.170   0.680  0.00  0.00    -0.074 A 
ATOM      7  C6  UNL d   1       1.897   3.472   1.268  0.00  0.00     0.077 C 
ATOM      8  C7  UNL d   1       0.142   2.049   0.172  0.00  0.00    -0.001 A 
ENDROOT
TORSDOF 0
ENDMDL
