MODEL 1
REMARK minimizedAffinity -1.09454536
REMARK minimizedRMSD -1
REMARK  0 active torsions:
REMARK  status: ('A' for Active; 'I' for Inactive)
ROOT
ATOM      1  C   UNL d   1       0.679  -2.428   2.636  0.00  0.00     0.077 C 
ATOM      2  C1  UNL d   1       0.576  -1.112   1.924  0.00  0.00    -0.074 A 
ATOM      3  C2  UNL d   1       0.966   0.077   2.549  0.00  0.00    -0.005 A 
ATOM      4  C3  UNL d   1       0.873   1.292   1.871  0.00  0.00     0.006 A 
ATOM      5  C4  UNL d   1       0.391   1.331   0.562  0.00  0.00    -0.005 A 
ATOM      6  C5  UNL d   1      -0.003   0.153  -0.080  0.00  0.00    -0.074 A 
ATOM      7  C6  UNL d   1      -0.515   0.176  -1.489  0.00  0.00     0.077 C 
ATOM      8  C7  UNL d   1       0.099  -1.065   0.606  0.00  0.00    -0.001 A 
ENDROOT
TORSDOF 0
ENDMDL
