MODEL 1
REMARK minimizedAffinity -2.21298957
REMARK minimizedRMSD -1
REMARK  0 active torsions:
REMARK  status: ('A' for Active; 'I' for Inactive)
ROOT
ATOM      1  C   UNL d   1       0.488   0.672   2.173  0.00  0.00     0.077 C 
ATOM      2  C1  UNL d   1       0.391   0.451   0.692  0.00  0.00    -0.074 A 
ATOM      3  C2  UNL d   1       1.534   0.466  -0.113  0.00  0.00    -0.005 A 
ATOM      4  C3  UNL d   1       1.430   0.250  -1.487  0.00  0.00     0.006 A 
ATOM      5  C4  UNL d   1       0.183   0.017  -2.069  0.00  0.00    -0.005 A 
ATOM      6  C5  UNL d   1      -0.971  -0.002  -1.279  0.00  0.00    -0.074 A 
ATOM      7  C6  UNL d   1      -2.318  -0.260  -1.887  0.00  0.00     0.077 C 
ATOM      8  C7  UNL d   1      -0.857   0.209   0.102  0.00  0.00    -0.001 A 
ENDROOT
TORSDOF 0
ENDMDL
