MODEL 1
REMARK minimizedAffinity 0.309035778
REMARK minimizedRMSD -1
REMARK  0 active torsions:
REMARK  status: ('A' for Active; 'I' for Inactive)
ROOT
ATOM      1  C   UNL d   1       2.010   1.005   0.327  0.00  0.00     0.077 C 
ATOM      2  C1  UNL d   1       0.705   0.312   0.066  0.00  0.00    -0.074 A 
ATOM      3  C2  UNL d   1       0.274  -0.739   0.880  0.00  0.00    -0.005 A 
ATOM      4  C3  UNL d   1      -0.946  -1.368   0.630  0.00  0.00     0.006 A 
ATOM      5  C4  UNL d   1      -1.746  -0.952  -0.435  0.00  0.00    -0.005 A 
ATOM      6  C5  UNL d   1      -1.331   0.099  -1.260  0.00  0.00    -0.074 A 
ATOM      7  C6  UNL d   1      -2.182   0.565  -2.404  0.00  0.00     0.077 C 
ATOM      8  C7  UNL d   1      -0.107   0.730  -0.998  0.00  0.00    -0.001 A 
ENDROOT
TORSDOF 0
ENDMDL
