MODEL 1
REMARK minimizedAffinity -3.29556322
REMARK minimizedRMSD -1
REMARK  0 active torsions:
REMARK  status: ('A' for Active; 'I' for Inactive)
ROOT
ATOM      1  C   UNL d   1       2.745   2.907  -0.033  0.00  0.00     0.077 C 
ATOM      2  C1  UNL d   1       1.990   1.612   0.003  0.00  0.00    -0.074 A 
ATOM      3  C2  UNL d   1       2.415   0.554   0.813  0.00  0.00    -0.005 A 
ATOM      4  C3  UNL d   1       1.697  -0.642   0.843  0.00  0.00     0.006 A 
ATOM      5  C4  UNL d   1       0.549  -0.792   0.065  0.00  0.00    -0.005 A 
ATOM      6  C5  UNL d   1       0.108   0.255  -0.751  0.00  0.00    -0.074 A 
ATOM      7  C6  UNL d   1      -1.130   0.114  -1.586  0.00  0.00     0.077 C 
ATOM      8  C7  UNL d   1       0.831   1.456  -0.770  0.00  0.00    -0.001 A 
ENDROOT
TORSDOF 0
ENDMDL
