MODEL 1
REMARK minimizedAffinity -2.25241399
REMARK minimizedRMSD -1
REMARK  0 active torsions:
REMARK  status: ('A' for Active; 'I' for Inactive)
ROOT
ATOM      1  C   UNL d   1      -1.779   0.482  -0.775  0.00  0.00     0.077 C 
ATOM      2  C1  UNL d   1      -0.391   0.589  -0.217  0.00  0.00    -0.074 A 
ATOM      3  C2  UNL d   1       0.538  -0.441  -0.398  0.00  0.00    -0.005 A 
ATOM      4  C3  UNL d   1       1.828  -0.323   0.119  0.00  0.00     0.006 A 
ATOM      5  C4  UNL d   1       2.202   0.824   0.821  0.00  0.00    -0.005 A 
ATOM      6  C5  UNL d   1       1.286   1.864   1.012  0.00  0.00    -0.074 A 
ATOM      7  C6  UNL d   1       1.674   3.107   1.755  0.00  0.00     0.077 C 
ATOM      8  C7  UNL d   1      -0.006   1.741   0.483  0.00  0.00    -0.001 A 
ENDROOT
TORSDOF 0
ENDMDL
