MODEL 1
REMARK minimizedAffinity -1.94520259
REMARK minimizedRMSD -1
REMARK  0 active torsions:
REMARK  status: ('A' for Active; 'I' for Inactive)
ROOT
ATOM      1  C   UNL d   1       1.085  -1.898   1.926  0.00  0.00     0.077 C 
ATOM      2  C1  UNL d   1       0.545  -1.144   0.748  0.00  0.00    -0.074 A 
ATOM      3  C2  UNL d   1       1.290  -0.127   0.142  0.00  0.00    -0.005 A 
ATOM      4  C3  UNL d   1       0.779   0.559  -0.959  0.00  0.00     0.006 A 
ATOM      5  C4  UNL d   1      -0.481   0.236  -1.465  0.00  0.00    -0.005 A 
ATOM      6  C5  UNL d   1      -1.240  -0.778  -0.873  0.00  0.00    -0.074 A 
ATOM      7  C6  UNL d   1      -2.592  -1.144  -1.410  0.00  0.00     0.077 C 
ATOM      8  C7  UNL d   1      -0.716  -1.468   0.229  0.00  0.00    -0.001 A 
ENDROOT
TORSDOF 0
ENDMDL
