MODEL 1
REMARK minimizedAffinity -1.7260139
REMARK minimizedRMSD -1
REMARK  0 active torsions:
REMARK  status: ('A' for Active; 'I' for Inactive)
ROOT
ATOM      1  C   UNL d   1       3.371   4.004  -0.824  0.00  0.00     0.077 C 
ATOM      2  C1  UNL d   1       2.763   3.102   0.208  0.00  0.00    -0.074 A 
ATOM      3  C2  UNL d   1       2.645   3.511   1.541  0.00  0.00    -0.005 A 
ATOM      4  C3  UNL d   1       2.069   2.665   2.488  0.00  0.00     0.006 A 
ATOM      5  C4  UNL d   1       1.605   1.403   2.113  0.00  0.00    -0.005 A 
ATOM      6  C5  UNL d   1       1.713   0.978   0.785  0.00  0.00    -0.074 A 
ATOM      7  C6  UNL d   1       1.210  -0.371   0.364  0.00  0.00     0.077 C 
ATOM      8  C7  UNL d   1       2.287   1.836  -0.162  0.00  0.00    -0.001 A 
ENDROOT
TORSDOF 0
ENDMDL
