MODEL 1
REMARK minimizedAffinity 0.74273026
REMARK minimizedRMSD -1
REMARK  0 active torsions:
REMARK  status: ('A' for Active; 'I' for Inactive)
ROOT
ATOM      1  C   UNL d   1      -3.630  -2.719  -0.393  0.00  0.00     0.077 C 
ATOM      2  C1  UNL d   1      -2.285  -2.055  -0.430  0.00  0.00    -0.074 A 
ATOM      3  C2  UNL d   1      -1.977  -1.109  -1.413  0.00  0.00    -0.005 A 
ATOM      4  C3  UNL d   1      -0.725  -0.494  -1.429  0.00  0.00     0.006 A 
ATOM      5  C4  UNL d   1       0.229  -0.818  -0.464  0.00  0.00    -0.005 A 
ATOM      6  C5  UNL d   1      -0.061  -1.761   0.527  0.00  0.00    -0.074 A 
ATOM      7  C6  UNL d   1       0.950  -2.113   1.578  0.00  0.00     0.077 C 
ATOM      8  C7  UNL d   1      -1.324  -2.370   0.541  0.00  0.00    -0.001 A 
ENDROOT
TORSDOF 0
ENDMDL
