MODEL 1
REMARK minimizedAffinity 1.17032611
REMARK minimizedRMSD -1
REMARK  0 active torsions:
REMARK  status: ('A' for Active; 'I' for Inactive)
ROOT
ATOM      1  C   UNL d   1      -1.829   0.230   1.925  0.00  0.00     0.077 C 
ATOM      2  C1  UNL d   1      -1.573   0.379   0.455  0.00  0.00    -0.074 A 
ATOM      3  C2  UNL d   1      -0.721   1.377  -0.029  0.00  0.00    -0.005 A 
ATOM      4  C3  UNL d   1      -0.486   1.497  -1.398  0.00  0.00     0.006 A 
ATOM      5  C4  UNL d   1      -1.098   0.622  -2.296  0.00  0.00    -0.005 A 
ATOM      6  C5  UNL d   1      -1.952  -0.383  -1.831  0.00  0.00    -0.074 A 
ATOM      7  C6  UNL d   1      -2.611  -1.337  -2.782  0.00  0.00     0.077 C 
ATOM      8  C7  UNL d   1      -2.179  -0.502  -0.453  0.00  0.00    -0.001 A 
ENDROOT
TORSDOF 0
ENDMDL
