MODEL 1
REMARK minimizedAffinity -1.83863103
REMARK minimizedRMSD -1
REMARK  0 active torsions:
REMARK  status: ('A' for Active; 'I' for Inactive)
ROOT
ATOM      1  C   UNL d   1      -3.027  -1.882  -0.751  0.00  0.00     0.077 C 
ATOM      2  C1  UNL d   1      -1.913  -0.890  -0.909  0.00  0.00    -0.074 A 
ATOM      3  C2  UNL d   1      -1.972   0.107  -1.888  0.00  0.00    -0.005 A 
ATOM      4  C3  UNL d   1      -0.933   1.028  -2.017  0.00  0.00     0.006 A 
ATOM      5  C4  UNL d   1       0.174   0.962  -1.170  0.00  0.00    -0.005 A 
ATOM      6  C5  UNL d   1       0.250  -0.027  -0.185  0.00  0.00    -0.074 A 
ATOM      7  C6  UNL d   1       1.428  -0.106   0.740  0.00  0.00     0.077 C 
ATOM      8  C7  UNL d   1      -0.801  -0.945  -0.057  0.00  0.00    -0.001 A 
ENDROOT
TORSDOF 0
ENDMDL
