MODEL 1
REMARK minimizedAffinity -2.72950768
REMARK minimizedRMSD -1
REMARK  0 active torsions:
REMARK  status: ('A' for Active; 'I' for Inactive)
ROOT
ATOM      1  C   UNL d   1      -1.767   0.386  -1.352  0.00  0.00     0.077 C 
ATOM      2  C1  UNL d   1      -0.515   0.557  -0.543  0.00  0.00    -0.074 A 
ATOM      3  C2  UNL d   1       0.083  -0.535   0.095  0.00  0.00    -0.005 A 
ATOM      4  C3  UNL d   1       1.252  -0.362   0.835  0.00  0.00     0.006 A 
ATOM      5  C4  UNL d   1       1.835   0.901   0.945  0.00  0.00    -0.005 A 
ATOM      6  C5  UNL d   1       1.251   2.004   0.313  0.00  0.00    -0.074 A 
ATOM      7  C6  UNL d   1       1.870   3.367   0.412  0.00  0.00     0.077 C 
ATOM      8  C7  UNL d   1       0.080   1.821  -0.435  0.00  0.00    -0.001 A 
ENDROOT
TORSDOF 0
ENDMDL
