MODEL 1
REMARK minimizedAffinity -0.861720264
REMARK minimizedRMSD -1
REMARK  0 active torsions:
REMARK  status: ('A' for Active; 'I' for Inactive)
ROOT
ATOM      1  C   UNL d   1      -1.412   0.212  -1.710  0.00  0.00     0.077 C 
ATOM      2  C1  UNL d   1      -0.358   0.060  -0.655  0.00  0.00    -0.074 A 
ATOM      3  C2  UNL d   1      -0.553  -0.790   0.439  0.00  0.00    -0.005 A 
ATOM      4  C3  UNL d   1       0.441  -0.929   1.408  0.00  0.00     0.006 A 
ATOM      5  C4  UNL d   1       1.638  -0.221   1.293  0.00  0.00    -0.005 A 
ATOM      6  C5  UNL d   1       1.851   0.633   0.206  0.00  0.00    -0.074 A 
ATOM      7  C6  UNL d   1       3.136   1.394   0.062  0.00  0.00     0.077 C 
ATOM      8  C7  UNL d   1       0.851   0.762  -0.767  0.00  0.00    -0.001 A 
ENDROOT
TORSDOF 0
ENDMDL
