MODEL 1
REMARK minimizedAffinity 1.14064634
REMARK minimizedRMSD -1
REMARK  0 active torsions:
REMARK  status: ('A' for Active; 'I' for Inactive)
ROOT
ATOM      1  C   UNL d   1      -1.309   0.493   0.526  0.00  0.00     0.020 A 
ATOM      2  C1  UNL d   1      -0.609   0.553  -0.678  0.00  0.00     0.020 A 
ATOM      3  C2  UNL d   1       0.623  -0.091  -0.803  0.00  0.00     0.034 A 
ATOM      4  C3  UNL d   1       1.160  -0.799   0.279  0.00  0.00     0.017 A 
ATOM      5  C4  UNL d   1       0.456  -0.859   1.488  0.00  0.00     0.017 A 
ATOM      6  C5  UNL d   1      -0.778  -0.211   1.607  0.00  0.00     0.034 A 
ATOM      7 Cl   UNL d   1       1.054  -1.712   2.867  0.00  0.00    -0.070 Cl
ATOM      8 Cl1  UNL d   1       2.688  -1.572   0.055  0.00  0.00    -0.070 Cl
ENDROOT
TORSDOF 0
ENDMDL
