MODEL 1
REMARK minimizedAffinity -1.76930356
REMARK minimizedRMSD -1
REMARK  0 active torsions:
REMARK  status: ('A' for Active; 'I' for Inactive)
ROOT
ATOM      1  C   UNL d   1       2.262  -1.123  -1.135  0.00  0.00     0.020 A 
ATOM      2  C1  UNL d   1       1.049  -0.691  -1.669  0.00  0.00     0.020 A 
ATOM      3  C2  UNL d   1       0.124  -0.031  -0.857  0.00  0.00     0.034 A 
ATOM      4  C3  UNL d   1       0.410   0.198   0.493  0.00  0.00     0.017 A 
ATOM      5  C4  UNL d   1       1.628  -0.236   1.029  0.00  0.00     0.017 A 
ATOM      6  C5  UNL d   1       2.551  -0.896   0.211  0.00  0.00     0.034 A 
ATOM      7 Cl   UNL d   1       2.053   0.011   2.686  0.00  0.00    -0.070 Cl
ATOM      8 Cl1  UNL d   1      -0.780   1.020   1.438  0.00  0.00    -0.070 Cl
ENDROOT
TORSDOF 0
ENDMDL
