MODEL 1
REMARK minimizedAffinity -0.747588933
REMARK minimizedRMSD -1
REMARK  0 active torsions:
REMARK  status: ('A' for Active; 'I' for Inactive)
ROOT
ATOM      1  C   UNL d   1      -0.219   3.747  -2.953  0.00  0.00     0.020 A 
ATOM      2  C1  UNL d   1      -0.205   2.466  -3.503  0.00  0.00     0.020 A 
ATOM      3  C2  UNL d   1      -0.183   1.347  -2.667  0.00  0.00     0.034 A 
ATOM      4  C3  UNL d   1      -0.176   1.508  -1.277  0.00  0.00     0.017 A 
ATOM      5  C4  UNL d   1      -0.191   2.794  -0.725  0.00  0.00     0.017 A 
ATOM      6  C5  UNL d   1      -0.213   3.910  -1.567  0.00  0.00     0.034 A 
ATOM      7 Cl   UNL d   1      -0.184   3.071   0.981  0.00  0.00    -0.070 Cl
ATOM      8 Cl1  UNL d   1      -0.149   0.080  -0.304  0.00  0.00    -0.070 Cl
ENDROOT
TORSDOF 0
ENDMDL
