MODEL 1
REMARK minimizedAffinity 4.48282576
REMARK minimizedRMSD -1
REMARK  0 active torsions:
REMARK  status: ('A' for Active; 'I' for Inactive)
ROOT
ATOM      1  C   UNL d   1       1.985  -1.192  -0.778  0.00  0.00     0.020 A 
ATOM      2  C1  UNL d   1       2.168  -0.862   0.564  0.00  0.00     0.020 A 
ATOM      3  C2  UNL d   1       1.318   0.061   1.178  0.00  0.00     0.034 A 
ATOM      4  C3  UNL d   1       0.281   0.656   0.451  0.00  0.00     0.017 A 
ATOM      5  C4  UNL d   1       0.098   0.324  -0.897  0.00  0.00     0.017 A 
ATOM      6  C5  UNL d   1       0.952  -0.600  -1.507  0.00  0.00     0.034 A 
ATOM      7 Cl   UNL d   1      -1.159   1.017  -1.859  0.00  0.00    -0.070 Cl
ATOM      8 Cl1  UNL d   1      -0.732   1.788   1.274  0.00  0.00    -0.070 Cl
ENDROOT
TORSDOF 0
ENDMDL
