MODEL 1
REMARK minimizedAffinity -0.386246264
REMARK minimizedRMSD -1
REMARK  0 active torsions:
REMARK  status: ('A' for Active; 'I' for Inactive)
ROOT
ATOM      1  C   UNL d   1       1.763  -1.004  -0.234  0.00  0.00     0.020 A 
ATOM      2  C1  UNL d   1       2.157   0.079   0.551  0.00  0.00     0.020 A 
ATOM      3  C2  UNL d   1       1.217   1.034   0.945  0.00  0.00     0.034 A 
ATOM      4  C3  UNL d   1      -0.120   0.909   0.553  0.00  0.00     0.017 A 
ATOM      5  C4  UNL d   1      -0.514  -0.178  -0.236  0.00  0.00     0.017 A 
ATOM      6  C5  UNL d   1       0.431  -1.132  -0.627  0.00  0.00     0.034 A 
ATOM      7 Cl   UNL d   1      -2.147  -0.401  -0.758  0.00  0.00    -0.070 Cl
ATOM      8 Cl1  UNL d   1      -1.229   2.127   1.076  0.00  0.00    -0.070 Cl
ENDROOT
TORSDOF 0
ENDMDL
