MODEL 1
REMARK minimizedAffinity 1.91888189
REMARK minimizedRMSD -1
REMARK  0 active torsions:
REMARK  status: ('A' for Active; 'I' for Inactive)
ROOT
ATOM      1  C   UNL d   1       2.175  -1.006  -1.100  0.00  0.00     0.020 A 
ATOM      2  C1  UNL d   1       1.057  -0.414  -1.686  0.00  0.00     0.020 A 
ATOM      3  C2  UNL d   1      -0.054  -0.093  -0.902  0.00  0.00     0.034 A 
ATOM      4  C3  UNL d   1      -0.049  -0.365   0.471  0.00  0.00     0.017 A 
ATOM      5  C4  UNL d   1       1.074  -0.960   1.057  0.00  0.00     0.017 A 
ATOM      6  C5  UNL d   1       2.183  -1.279   0.268  0.00  0.00     0.034 A 
ATOM      7 Cl   UNL d   1       1.154  -1.326   2.744  0.00  0.00    -0.070 Cl
ATOM      8 Cl1  UNL d   1      -1.457   0.058   1.378  0.00  0.00    -0.070 Cl
ENDROOT
TORSDOF 0
ENDMDL
