MODEL 1
REMARK minimizedAffinity -1.27680671
REMARK minimizedRMSD -1
REMARK  0 active torsions:
REMARK  status: ('A' for Active; 'I' for Inactive)
ROOT
ATOM      1  C   UNL d   1      -0.543   4.290  -3.055  0.00  0.00     0.020 A 
ATOM      2  C1  UNL d   1      -0.792   3.689  -1.822  0.00  0.00     0.020 A 
ATOM      3  C2  UNL d   1      -0.509   2.334  -1.636  0.00  0.00     0.034 A 
ATOM      4  C3  UNL d   1       0.026   1.577  -2.685  0.00  0.00     0.017 A 
ATOM      5  C4  UNL d   1       0.276   2.181  -3.922  0.00  0.00     0.017 A 
ATOM      6  C5  UNL d   1      -0.010   3.538  -4.103  0.00  0.00     0.034 A 
ATOM      7 Cl   UNL d   1       0.935   1.311  -5.262  0.00  0.00    -0.070 Cl
ATOM      8 Cl1  UNL d   1       0.352  -0.093  -2.384  0.00  0.00    -0.070 Cl
ENDROOT
TORSDOF 0
ENDMDL
