MODEL 1
REMARK minimizedAffinity -0.391830713
REMARK minimizedRMSD -1
REMARK  0 active torsions:
REMARK  status: ('A' for Active; 'I' for Inactive)
ROOT
ATOM      1  C   UNL d   1       0.787  -1.074   2.356  0.00  0.00     0.020 A 
ATOM      2  C1  UNL d   1       1.782  -0.330   1.725  0.00  0.00     0.020 A 
ATOM      3  C2  UNL d   1       1.490   0.375   0.555  0.00  0.00     0.034 A 
ATOM      4  C3  UNL d   1       0.200   0.337   0.013  0.00  0.00     0.017 A 
ATOM      5  C4  UNL d   1      -0.798  -0.410   0.648  0.00  0.00     0.017 A 
ATOM      6  C5  UNL d   1      -0.500  -1.114   1.819  0.00  0.00     0.034 A 
ATOM      7 Cl   UNL d   1      -2.413  -0.505   0.040  0.00  0.00    -0.070 Cl
ATOM      8 Cl1  UNL d   1      -0.090   1.233  -1.435  0.00  0.00    -0.070 Cl
ENDROOT
TORSDOF 0
ENDMDL
