MODEL 1
REMARK minimizedAffinity 7.119627
REMARK minimizedRMSD -1
REMARK  1 active torsions:
REMARK  status: ('A' for Active; 'I' for Inactive)
REMARK    1  A    between atoms: C1_2  and  C2_3 
ROOT
ATOM      1  C2  UNL d   1       0.202   1.623   4.751  0.00  0.00    -0.081 A 
ATOM      2  C3  UNL d   1       0.828   0.372   4.686  0.00  0.00     0.006 A 
ATOM      3  C4  UNL d   1       0.774  -0.387   3.515  0.00  0.00     0.002 A 
ATOM      4  C5  UNL d   1       0.101   0.095   2.387  0.00  0.00    -0.080 A 
ATOM      5  C6  UNL d   1       0.062  -0.697   1.114  0.00  0.00     0.076 C 
ATOM      6  C7  UNL d   1      -0.539   1.337   2.457  0.00  0.00     0.002 A 
ATOM      7  C8  UNL d   1      -0.486   2.096   3.628  0.00  0.00     0.006 A 
ENDROOT
BRANCH   1   8
ATOM      8  C1  UNL d   1       0.313   2.472   5.991  0.00  0.00     0.054 C 
ATOM      9  C   UNL d   1       1.608   3.272   6.000  0.00  0.00     0.018 C 
ENDBRANCH   1   8
TORSDOF 1
ENDMDL
