MODEL 1
REMARK minimizedAffinity 8.87521362
REMARK minimizedRMSD -1
REMARK  1 active torsions:
REMARK  status: ('A' for Active; 'I' for Inactive)
REMARK    1  A    between atoms: C1_2  and  C2_3 
ROOT
ATOM      1  C2  UNL d   1       4.888   3.783   3.131  0.00  0.00    -0.081 A 
ATOM      2  C3  UNL d   1       5.014   5.177   3.128  0.00  0.00     0.006 A 
ATOM      3  C4  UNL d   1       4.892   5.897   1.936  0.00  0.00     0.002 A 
ATOM      4  C5  UNL d   1       4.635   5.235   0.731  0.00  0.00    -0.080 A 
ATOM      5  C6  UNL d   1       4.471   5.998  -0.550  0.00  0.00     0.076 C 
ATOM      6  C7  UNL d   1       4.526   3.840   0.731  0.00  0.00     0.002 A 
ATOM      7  C8  UNL d   1       4.649   3.121   1.922  0.00  0.00     0.006 A 
ENDROOT
BRANCH   1   8
ATOM      8  C1  UNL d   1       4.955   3.010   4.423  0.00  0.00     0.054 C 
ATOM      9  C   UNL d   1       5.962   1.872   4.336  0.00  0.00     0.018 C 
ENDBRANCH   1   8
TORSDOF 1
ENDMDL
