MODEL 1
REMARK minimizedAffinity 22.8501396
REMARK minimizedRMSD -1
REMARK  1 active torsions:
REMARK  status: ('A' for Active; 'I' for Inactive)
REMARK    1  A    between atoms: C1_2  and  C2_3 
ROOT
ATOM      1  C2  UNL d   1       0.137   2.220   4.762  0.00  0.00    -0.081 A 
ATOM      2  C3  UNL d   1      -0.751   2.388   3.692  0.00  0.00     0.006 A 
ATOM      3  C4  UNL d   1      -0.696   1.535   2.587  0.00  0.00     0.002 A 
ATOM      4  C5  UNL d   1       0.240   0.496   2.537  0.00  0.00    -0.080 A 
ATOM      5  C6  UNL d   1       0.289  -0.445   1.371  0.00  0.00     0.076 C 
ATOM      6  C7  UNL d   1       1.138   0.340   3.599  0.00  0.00     0.002 A 
ATOM      7  C8  UNL d   1       1.084   1.193   4.703  0.00  0.00     0.006 A 
ENDROOT
BRANCH   1   8
ATOM      8  C1  UNL d   1       0.038   3.098   5.984  0.00  0.00     0.054 C 
ATOM      9  C   UNL d   1       1.131   4.157   5.994  0.00  0.00     0.018 C 
ENDBRANCH   1   8
TORSDOF 1
ENDMDL
