MODEL 1
REMARK minimizedAffinity 21.5537834
REMARK minimizedRMSD -1
REMARK  1 active torsions:
REMARK  status: ('A' for Active; 'I' for Inactive)
REMARK    1  A    between atoms: C1_2  and  C2_3 
ROOT
ATOM      1  C2  UNL d   1       0.646  -2.009  -4.882  0.00  0.00    -0.081 A 
ATOM      2  C3  UNL d   1      -0.214  -2.826  -5.626  0.00  0.00     0.006 A 
ATOM      3  C4  UNL d   1       0.179  -4.113  -6.000  0.00  0.00     0.002 A 
ATOM      4  C5  UNL d   1       1.433  -4.608  -5.629  0.00  0.00    -0.080 A 
ATOM      5  C6  UNL d   1       1.855  -6.000  -5.998  0.00  0.00     0.076 C 
ATOM      6  C7  UNL d   1       2.300  -3.786  -4.901  0.00  0.00     0.002 A 
ATOM      7  C8  UNL d   1       1.908  -2.499  -4.527  0.00  0.00     0.006 A 
ENDROOT
BRANCH   1   8
ATOM      8  C1  UNL d   1       0.201  -0.645  -4.422  0.00  0.00     0.054 C 
ATOM      9  C   UNL d   1      -0.710  -0.740  -3.207  0.00  0.00     0.018 C 
ENDBRANCH   1   8
TORSDOF 1
ENDMDL
