MODEL 1
REMARK minimizedAffinity 20.9541149
REMARK minimizedRMSD -1
REMARK  1 active torsions:
REMARK  status: ('A' for Active; 'I' for Inactive)
REMARK    1  A    between atoms: C1_2  and  C2_3 
ROOT
ATOM      1  C2  UNL d   1       2.526  -1.343   4.292  0.00  0.00    -0.081 A 
ATOM      2  C3  UNL d   1       2.089  -0.171   3.663  0.00  0.00     0.006 A 
ATOM      3  C4  UNL d   1       2.778   1.031   3.846  0.00  0.00     0.002 A 
ATOM      4  C5  UNL d   1       3.919   1.078   4.654  0.00  0.00    -0.080 A 
ATOM      5  C6  UNL d   1       4.685   2.355   4.835  0.00  0.00     0.076 C 
ATOM      6  C7  UNL d   1       4.346  -0.089   5.296  0.00  0.00     0.002 A 
ATOM      7  C8  UNL d   1       3.657  -1.290   5.114  0.00  0.00     0.006 A 
ENDROOT
BRANCH   1   8
ATOM      8  C1  UNL d   1       1.824  -2.653   4.044  0.00  0.00     0.054 C 
ATOM      9  C   UNL d   1       1.648  -3.440   5.336  0.00  0.00     0.018 C 
ENDBRANCH   1   8
TORSDOF 1
ENDMDL
