MODEL 1
REMARK minimizedAffinity 2.53050804
REMARK minimizedRMSD -1
REMARK  1 active torsions:
REMARK  status: ('A' for Active; 'I' for Inactive)
REMARK    1  A    between atoms: C1_2  and  C2_3 
ROOT
ATOM      1  C2  UNL d   1       2.075  -1.300   4.963  0.00  0.00    -0.081 A 
ATOM      2  C3  UNL d   1       1.119  -1.712   4.026  0.00  0.00     0.006 A 
ATOM      3  C4  UNL d   1       0.680  -0.836   3.031  0.00  0.00     0.002 A 
ATOM      4  C5  UNL d   1       1.196   0.462   2.949  0.00  0.00    -0.080 A 
ATOM      5  C6  UNL d   1       0.756   1.403   1.867  0.00  0.00     0.076 C 
ATOM      6  C7  UNL d   1       2.139   0.879   3.896  0.00  0.00     0.002 A 
ATOM      7  C8  UNL d   1       2.577   0.004   4.892  0.00  0.00     0.006 A 
ENDROOT
BRANCH   1   8
ATOM      8  C1  UNL d   1       2.598  -2.263   5.998  0.00  0.00     0.054 C 
ATOM      9  C   UNL d   1       4.119  -2.304   5.998  0.00  0.00     0.018 C 
ENDBRANCH   1   8
TORSDOF 1
ENDMDL
