MODEL 1
REMARK minimizedAffinity 14.4235735
REMARK minimizedRMSD -1
REMARK  1 active torsions:
REMARK  status: ('A' for Active; 'I' for Inactive)
REMARK    1  A    between atoms: C1_2  and  C2_3 
ROOT
ATOM      1  C2  UNL d   1      -0.575  -1.520  -3.504  0.00  0.00    -0.081 A 
ATOM      2  C3  UNL d   1      -0.402  -1.632  -2.119  0.00  0.00     0.006 A 
ATOM      3  C4  UNL d   1      -1.216  -2.485  -1.370  0.00  0.00     0.002 A 
ATOM      4  C5  UNL d   1      -2.210  -3.246  -1.994  0.00  0.00    -0.080 A 
ATOM      5  C6  UNL d   1      -3.071  -4.188  -1.206  0.00  0.00     0.076 C 
ATOM      6  C7  UNL d   1      -2.394  -3.122  -3.375  0.00  0.00     0.002 A 
ATOM      7  C8  UNL d   1      -1.581  -2.268  -4.124  0.00  0.00     0.006 A 
ENDROOT
BRANCH   1   8
ATOM      8  C1  UNL d   1       0.344  -0.650  -4.323  0.00  0.00     0.054 C 
ATOM      9  C   UNL d   1       1.377  -1.483  -5.068  0.00  0.00     0.018 C 
ENDBRANCH   1   8
TORSDOF 1
ENDMDL
