MODEL 1
REMARK minimizedAffinity 17.7470856
REMARK minimizedRMSD -1
REMARK  1 active torsions:
REMARK  status: ('A' for Active; 'I' for Inactive)
REMARK    1  A    between atoms: C1_2  and  C2_3 
ROOT
ATOM      1  C2  UNL d   1      -1.439  -2.650  -4.699  0.00  0.00    -0.081 A 
ATOM      2  C3  UNL d   1      -0.375  -2.796  -5.597  0.00  0.00     0.006 A 
ATOM      3  C4  UNL d   1       0.725  -1.938  -5.537  0.00  0.00     0.002 A 
ATOM      4  C5  UNL d   1       0.784  -0.926  -4.574  0.00  0.00    -0.080 A 
ATOM      5  C6  UNL d   1       1.974  -0.017  -4.479  0.00  0.00     0.076 C 
ATOM      6  C7  UNL d   1      -0.287  -0.768  -3.687  0.00  0.00     0.002 A 
ATOM      7  C8  UNL d   1      -1.388  -1.625  -3.747  0.00  0.00     0.006 A 
ENDROOT
BRANCH   1   8
ATOM      8  C1  UNL d   1      -2.598  -3.614  -4.719  0.00  0.00     0.054 C 
ATOM      9  C   UNL d   1      -2.611  -4.436  -6.000  0.00  0.00     0.018 C 
ENDBRANCH   1   8
TORSDOF 1
ENDMDL
