MODEL 1
REMARK minimizedAffinity 19.8442535
REMARK minimizedRMSD -1
REMARK  1 active torsions:
REMARK  status: ('A' for Active; 'I' for Inactive)
REMARK    1  A    between atoms: C1_2  and  C2_3 
ROOT
ATOM      1  C2  UNL d   1      -0.615  -1.471   0.225  0.00  0.00    -0.081 A 
ATOM      2  C3  UNL d   1       0.681  -1.883   0.557  0.00  0.00     0.006 A 
ATOM      3  C4  UNL d   1       1.410  -1.208   1.539  0.00  0.00     0.002 A 
ATOM      4  C5  UNL d   1       0.852  -0.116   2.211  0.00  0.00    -0.080 A 
ATOM      5  C6  UNL d   1       1.611   0.599   3.289  0.00  0.00     0.076 C 
ATOM      6  C7  UNL d   1      -0.437   0.307   1.868  0.00  0.00     0.002 A 
ATOM      7  C8  UNL d   1      -1.165  -0.367   0.885  0.00  0.00     0.006 A 
ENDROOT
BRANCH   1   8
ATOM      8  C1  UNL d   1      -1.427  -2.236  -0.788  0.00  0.00     0.054 C 
ATOM      9  C   UNL d   1      -1.092  -1.803  -2.208  0.00  0.00     0.018 C 
ENDBRANCH   1   8
TORSDOF 1
ENDMDL
