MODEL 1
REMARK minimizedAffinity 2.65046859
REMARK minimizedRMSD -1
REMARK  1 active torsions:
REMARK  status: ('A' for Active; 'I' for Inactive)
REMARK    1  A    between atoms: C1_2  and  C2_3 
ROOT
ATOM      1  C2  UNL d   1      -1.724  -1.139  -2.355  0.00  0.00    -0.077 A 
ATOM      2  C3  UNL d   1      -1.274  -1.378  -3.661  0.00  0.00     0.002 A 
ATOM      3  C4  UNL d   1       0.089  -1.324  -3.960  0.00  0.00     0.002 A 
ATOM      4  C5  UNL d   1       1.013  -1.037  -2.958  0.00  0.00    -0.004 A 
ATOM      5  C6  UNL d   1       0.575  -0.797  -1.656  0.00  0.00     0.002 A 
ATOM      6  C7  UNL d   1      -0.786  -0.848  -1.355  0.00  0.00     0.002 A 
ENDROOT
BRANCH   1   7
ATOM      7  C1  UNL d   1      -3.189  -1.245  -2.020  0.00  0.00     0.055 C 
ATOM      8  C   UNL d   1      -3.540  -0.405  -0.801  0.00  0.00     0.019 C 
ENDBRANCH   1   7
TORSDOF 1
ENDMDL
