MODEL 1
REMARK minimizedAffinity 10.4539213
REMARK minimizedRMSD -1
REMARK  1 active torsions:
REMARK  status: ('A' for Active; 'I' for Inactive)
REMARK    1  A    between atoms: C1_2  and  C2_3 
ROOT
ATOM      1  C2  UNL d   1       3.778  -2.677   0.061  0.00  0.00    -0.077 A 
ATOM      2  C3  UNL d   1       4.137  -4.030   0.137  0.00  0.00     0.002 A 
ATOM      3  C4  UNL d   1       5.237  -4.510  -0.577  0.00  0.00     0.002 A 
ATOM      4  C5  UNL d   1       5.988  -3.643  -1.368  0.00  0.00    -0.004 A 
ATOM      5  C6  UNL d   1       5.638  -2.296  -1.452  0.00  0.00     0.002 A 
ATOM      6  C7  UNL d   1       4.539  -1.815  -0.739  0.00  0.00     0.002 A 
ENDROOT
BRANCH   1   7
ATOM      7  C1  UNL d   1       2.622  -2.148   0.869  0.00  0.00     0.055 C 
ATOM      8  C   UNL d   1       2.248  -3.104   1.993  0.00  0.00     0.019 C 
ENDBRANCH   1   7
TORSDOF 1
ENDMDL
