MODEL 1
REMARK minimizedAffinity 10.5893288
REMARK minimizedRMSD -1
REMARK  1 active torsions:
REMARK  status: ('A' for Active; 'I' for Inactive)
REMARK    1  A    between atoms: C1_2  and  C2_3 
ROOT
ATOM      1  C2  UNL d   1       0.209   3.361   0.871  0.00  0.00    -0.077 A 
ATOM      2  C3  UNL d   1       0.477   4.669   0.443  0.00  0.00     0.002 A 
ATOM      3  C4  UNL d   1       0.058   5.101  -0.816  0.00  0.00     0.002 A 
ATOM      4  C5  UNL d   1      -0.636   4.233  -1.657  0.00  0.00    -0.004 A 
ATOM      5  C6  UNL d   1      -0.906   2.930  -1.242  0.00  0.00     0.002 A 
ATOM      6  C7  UNL d   1      -0.487   2.496   0.016  0.00  0.00     0.002 A 
ENDROOT
BRANCH   1   7
ATOM      7  C1  UNL d   1       0.617   2.909   2.248  0.00  0.00     0.055 C 
ATOM      8  C   UNL d   1      -0.505   2.144   2.935  0.00  0.00     0.019 C 
ENDBRANCH   1   7
TORSDOF 1
ENDMDL
