MODEL 1
REMARK minimizedAffinity -4.14122248
REMARK minimizedRMSD -1
REMARK  1 active torsions:
REMARK  status: ('A' for Active; 'I' for Inactive)
REMARK    1  A    between atoms: C3_4  and  O_7 
ROOT
ATOM      1  C   UNL d   1       0.159   1.880  -2.707  0.00  0.00    -0.033 A 
ATOM      2  C1  UNL d   1       0.062   3.257  -2.496  0.00  0.00     0.039 A 
ATOM      3  C2  UNL d   1      -1.187   3.848  -2.297  0.00  0.00    -0.080 A 
ATOM      4  C3  UNL d   1      -2.330   3.052  -2.310  0.00  0.00     0.150 A 
ATOM      5  C4  UNL d   1      -2.240   1.680  -2.515  0.00  0.00    -0.007 A 
ATOM      6  C5  UNL d   1      -0.992   1.091  -2.715  0.00  0.00     0.039 A 
ENDROOT
BRANCH   4   7
ATOM      7  O   UNL d   1      -3.571   3.585  -2.124  0.00  0.00    -0.526 OA
ATOM      8  H5  UNL d   1      -3.481   4.547  -2.023  0.00  0.00     0.418 HD
ENDBRANCH   4   7
TORSDOF 1
ENDMDL
