MODEL 1
REMARK minimizedAffinity -4.01482868
REMARK minimizedRMSD -1
REMARK  1 active torsions:
REMARK  status: ('A' for Active; 'I' for Inactive)
REMARK    1  A    between atoms: C3_4  and  O_7 
ROOT
ATOM      1  C   UNL d   1      -0.478  -0.124   0.144  0.00  0.00    -0.033 A 
ATOM      2  C1  UNL d   1      -0.546  -1.161   1.076  0.00  0.00     0.039 A 
ATOM      3  C2  UNL d   1       0.335  -1.188   2.158  0.00  0.00    -0.080 A 
ATOM      4  C3  UNL d   1       1.277  -0.173   2.298  0.00  0.00     0.150 A 
ATOM      5  C4  UNL d   1       1.348   0.866   1.375  0.00  0.00    -0.007 A 
ATOM      6  C5  UNL d   1       0.468   0.891   0.294  0.00  0.00     0.039 A 
ENDROOT
BRANCH   4   7
ATOM      7  O   UNL d   1       2.161  -0.159   3.335  0.00  0.00    -0.526 OA
ATOM      8  H5  UNL d   1       2.014  -0.953   3.876  0.00  0.00     0.418 HD
ENDBRANCH   4   7
TORSDOF 1
ENDMDL
