MODEL 1
REMARK minimizedAffinity -4.51386642
REMARK minimizedRMSD -1
REMARK  1 active torsions:
REMARK  status: ('A' for Active; 'I' for Inactive)
REMARK    1  A    between atoms: C3_4  and  O_7 
ROOT
ATOM      1  C   UNL d   1      -0.808   0.049  -0.798  0.00  0.00    -0.033 A 
ATOM      2  C1  UNL d   1       0.569  -0.170  -0.739  0.00  0.00     0.039 A 
ATOM      3  C2  UNL d   1       1.195  -0.361   0.495  0.00  0.00    -0.080 A 
ATOM      4  C3  UNL d   1       0.433  -0.332   1.659  0.00  0.00     0.150 A 
ATOM      5  C4  UNL d   1      -0.941  -0.119   1.607  0.00  0.00    -0.007 A 
ATOM      6  C5  UNL d   1      -1.564   0.073   0.374  0.00  0.00     0.039 A 
ENDROOT
BRANCH   4   7
ATOM      7  O   UNL d   1       0.999  -0.509   2.886  0.00  0.00    -0.526 OA
ATOM      8  H5  UNL d   1       1.958  -0.617   2.770  0.00  0.00     0.418 HD
ENDBRANCH   4   7
TORSDOF 1
ENDMDL
