MODEL 1
REMARK minimizedAffinity -4.67844534
REMARK minimizedRMSD -1
REMARK  1 active torsions:
REMARK  status: ('A' for Active; 'I' for Inactive)
REMARK    1  A    between atoms: C3_4  and  O_7 
ROOT
ATOM      1  C   UNL d   1      -0.129  -0.555   2.725  0.00  0.00    -0.033 A 
ATOM      2  C1  UNL d   1       1.095  -0.641   2.059  0.00  0.00     0.039 A 
ATOM      3  C2  UNL d   1       1.171  -0.353   0.695  0.00  0.00    -0.080 A 
ATOM      4  C3  UNL d   1       0.018   0.021   0.010  0.00  0.00     0.150 A 
ATOM      5  C4  UNL d   1      -1.204   0.112   0.668  0.00  0.00    -0.007 A 
ATOM      6  C5  UNL d   1      -1.278  -0.177   2.030  0.00  0.00     0.039 A 
ENDROOT
BRANCH   4   7
ATOM      7  O   UNL d   1       0.043   0.307  -1.323  0.00  0.00    -0.526 OA
ATOM      8  H5  UNL d   1       0.948   0.174  -1.649  0.00  0.00     0.418 HD
ENDBRANCH   4   7
TORSDOF 1
ENDMDL
