MODEL 1
REMARK minimizedAffinity -4.20458889
REMARK minimizedRMSD -1
REMARK  1 active torsions:
REMARK  status: ('A' for Active; 'I' for Inactive)
REMARK    1  A    between atoms: C3_4  and  O_7 
ROOT
ATOM      1  C   UNL d   1       1.251  -1.158   2.342  0.00  0.00    -0.033 A 
ATOM      2  C1  UNL d   1      -0.037  -0.626   2.430  0.00  0.00     0.039 A 
ATOM      3  C2  UNL d   1      -0.648  -0.082   1.298  0.00  0.00    -0.080 A 
ATOM      4  C3  UNL d   1       0.038  -0.076   0.087  0.00  0.00     0.150 A 
ATOM      5  C4  UNL d   1       1.320  -0.607  -0.008  0.00  0.00    -0.007 A 
ATOM      6  C5  UNL d   1       1.929  -1.150   1.122  0.00  0.00     0.039 A 
ENDROOT
BRANCH   4   7
ATOM      7  O   UNL d   1      -0.516   0.449  -1.043  0.00  0.00    -0.526 OA
ATOM      8  H5  UNL d   1      -1.392   0.805  -0.820  0.00  0.00     0.418 HD
ENDBRANCH   4   7
TORSDOF 1
ENDMDL
