MODEL 1
REMARK minimizedAffinity -4.72692299
REMARK minimizedRMSD -1
REMARK  1 active torsions:
REMARK  status: ('A' for Active; 'I' for Inactive)
REMARK    1  A    between atoms: C3_4  and  O_7 
ROOT
ATOM      1  C   UNL d   1       0.064  -0.061  -0.431  0.00  0.00    -0.033 A 
ATOM      2  C1  UNL d   1       1.375  -0.478  -0.195  0.00  0.00     0.039 A 
ATOM      3  C2  UNL d   1       1.808  -0.720   1.110  0.00  0.00    -0.080 A 
ATOM      4  C3  UNL d   1       0.921  -0.542   2.168  0.00  0.00     0.150 A 
ATOM      5  C4  UNL d   1      -0.387  -0.130   1.940  0.00  0.00    -0.007 A 
ATOM      6  C5  UNL d   1      -0.818   0.112   0.636  0.00  0.00     0.039 A 
ENDROOT
BRANCH   4   7
ATOM      7  O   UNL d   1       1.300  -0.760   3.460  0.00  0.00    -0.526 OA
ATOM      8  H5  UNL d   1       2.238  -1.012   3.467  0.00  0.00     0.418 HD
ENDBRANCH   4   7
TORSDOF 1
ENDMDL
