MODEL 1
REMARK minimizedAffinity -4.16457939
REMARK minimizedRMSD -1
REMARK  1 active torsions:
REMARK  status: ('A' for Active; 'I' for Inactive)
REMARK    1  A    between atoms: C3_4  and  O_7 
ROOT
ATOM      1  C   UNL d   1      -1.287   0.161   1.839  0.00  0.00    -0.033 A 
ATOM      2  C1  UNL d   1      -1.340   0.021   0.451  0.00  0.00     0.039 A 
ATOM      3  C2  UNL d   1      -0.242  -0.491  -0.243  0.00  0.00    -0.080 A 
ATOM      4  C3  UNL d   1       0.900  -0.861   0.462  0.00  0.00     0.150 A 
ATOM      5  C4  UNL d   1       0.958  -0.729   1.846  0.00  0.00    -0.007 A 
ATOM      6  C5  UNL d   1      -0.139  -0.216   2.537  0.00  0.00     0.039 A 
ENDROOT
BRANCH   4   7
ATOM      7  O   UNL d   1       1.998  -1.362  -0.172  0.00  0.00    -0.526 OA
ATOM      8  H5  UNL d   1       1.824  -1.370  -1.128  0.00  0.00     0.418 HD
ENDBRANCH   4   7
TORSDOF 1
ENDMDL
