MODEL 1
REMARK minimizedAffinity -3.38898492
REMARK minimizedRMSD -1
REMARK  1 active torsions:
REMARK  status: ('A' for Active; 'I' for Inactive)
REMARK    1  A    between atoms: C3_4  and  O_7 
ROOT
ATOM      1  C   UNL d   1       2.826  -1.994   0.689  0.00  0.00    -0.033 A 
ATOM      2  C1  UNL d   1       1.650  -1.487   0.135  0.00  0.00     0.039 A 
ATOM      3  C2  UNL d   1       0.699  -0.873   0.952  0.00  0.00    -0.080 A 
ATOM      4  C3  UNL d   1       0.937  -0.772   2.320  0.00  0.00     0.150 A 
ATOM      5  C4  UNL d   1       2.109  -1.271   2.878  0.00  0.00    -0.007 A 
ATOM      6  C5  UNL d   1       3.057  -1.885   2.061  0.00  0.00     0.039 A 
ENDROOT
BRANCH   4   7
ATOM      7  O   UNL d   1       0.036  -0.185   3.158  0.00  0.00    -0.526 OA
ATOM      8  H5  UNL d   1      -0.738   0.087   2.637  0.00  0.00     0.418 HD
ENDBRANCH   4   7
TORSDOF 1
ENDMDL
