MODEL 1
REMARK minimizedAffinity -2.49980998
REMARK minimizedRMSD -1
REMARK  1 active torsions:
REMARK  status: ('A' for Active; 'I' for Inactive)
REMARK    1  A    between atoms: C3_4  and  O_7 
ROOT
ATOM      1  C   UNL d   1      -0.007   0.381  -0.323  0.00  0.00    -0.033 A 
ATOM      2  C1  UNL d   1      -0.470   1.204   0.706  0.00  0.00     0.039 A 
ATOM      3  C2  UNL d   1      -0.131   0.925   2.031  0.00  0.00    -0.080 A 
ATOM      4  C3  UNL d   1       0.671  -0.178   2.314  0.00  0.00     0.150 A 
ATOM      5  C4  UNL d   1       1.139  -0.999   1.293  0.00  0.00    -0.007 A 
ATOM      6  C5  UNL d   1       0.799  -0.719  -0.029  0.00  0.00     0.039 A 
ENDROOT
BRANCH   4   7
ATOM      7  O   UNL d   1       1.024  -0.493   3.592  0.00  0.00    -0.526 OA
ATOM      8  H5  UNL d   1       0.604   0.145   4.194  0.00  0.00     0.418 HD
ENDBRANCH   4   7
TORSDOF 1
ENDMDL
