MODEL 1
REMARK minimizedAffinity 0.207622066
REMARK minimizedRMSD -1
REMARK  0 active torsions:
REMARK  status: ('A' for Active; 'I' for Inactive)
ROOT
ATOM      1  C   UNL d   1       1.865  -1.892   3.362  0.00  0.00     0.078 C 
ATOM      2  C1  UNL d   1       2.264  -0.460   3.168  0.00  0.00    -0.077 A 
ATOM      3  C2  UNL d   1       2.262   0.441   4.240  0.00  0.00    -0.001 A 
ATOM      4  C3  UNL d   1       2.626   1.774   4.043  0.00  0.00     0.003 A 
ATOM      5  C4  UNL d   1       2.994   2.219   2.775  0.00  0.00    -0.005 A 
ATOM      6  C5  UNL d   1       2.997   1.330   1.702  0.00  0.00     0.003 A 
ATOM      7  C6  UNL d   1       2.633  -0.003   1.897  0.00  0.00    -0.001 A 
ENDROOT
TORSDOF 0
ENDMDL
