MODEL 1
REMARK minimizedAffinity 1.35323894
REMARK minimizedRMSD -1
REMARK  0 active torsions:
REMARK  status: ('A' for Active; 'I' for Inactive)
ROOT
ATOM      1  C   UNL d   1      -5.104   2.704  -0.475  0.00  0.00     0.078 C 
ATOM      2  C1  UNL d   1      -5.101   2.628  -1.972  0.00  0.00    -0.077 A 
ATOM      3  C2  UNL d   1      -4.202   1.796  -2.650  0.00  0.00    -0.001 A 
ATOM      4  C3  UNL d   1      -4.204   1.742  -4.045  0.00  0.00     0.003 A 
ATOM      5  C4  UNL d   1      -5.102   2.519  -4.774  0.00  0.00    -0.005 A 
ATOM      6  C5  UNL d   1      -5.999   3.351  -4.108  0.00  0.00     0.003 A 
ATOM      7  C6  UNL d   1      -5.999   3.407  -2.714  0.00  0.00    -0.001 A 
ENDROOT
TORSDOF 0
ENDMDL
