MODEL 1
REMARK minimizedAffinity -1.44153368
REMARK minimizedRMSD -1
REMARK  0 active torsions:
REMARK  status: ('A' for Active; 'I' for Inactive)
ROOT
ATOM      1  C   UNL d   1       1.256  -2.165   1.998  0.00  0.00     0.078 C 
ATOM      2  C1  UNL d   1       0.524  -2.008   0.698  0.00  0.00    -0.077 A 
ATOM      3  C2  UNL d   1      -0.608  -1.191   0.603  0.00  0.00    -0.001 A 
ATOM      4  C3  UNL d   1      -1.285  -1.061  -0.611  0.00  0.00     0.003 A 
ATOM      5  C4  UNL d   1      -0.839  -1.748  -1.738  0.00  0.00    -0.005 A 
ATOM      6  C5  UNL d   1       0.286  -2.566  -1.652  0.00  0.00     0.003 A 
ATOM      7  C6  UNL d   1       0.965  -2.696  -0.439  0.00  0.00    -0.001 A 
ENDROOT
TORSDOF 0
ENDMDL
