MODEL 1
REMARK minimizedAffinity 1.95665431
REMARK minimizedRMSD -1
REMARK  0 active torsions:
REMARK  status: ('A' for Active; 'I' for Inactive)
ROOT
ATOM      1  C   UNL d   1       2.864   1.069   0.994  0.00  0.00     0.078 C 
ATOM      2  C1  UNL d   1       2.719  -0.122   1.892  0.00  0.00    -0.077 A 
ATOM      3  C2  UNL d   1       1.460  -0.539   2.341  0.00  0.00    -0.001 A 
ATOM      4  C3  UNL d   1       1.341  -1.644   3.185  0.00  0.00     0.003 A 
ATOM      5  C4  UNL d   1       2.478  -2.342   3.588  0.00  0.00    -0.005 A 
ATOM      6  C5  UNL d   1       3.736  -1.934   3.148  0.00  0.00     0.003 A 
ATOM      7  C6  UNL d   1       3.856  -0.829   2.304  0.00  0.00    -0.001 A 
ENDROOT
TORSDOF 0
ENDMDL
