MODEL 1
REMARK minimizedAffinity 4.59188509
REMARK minimizedRMSD -1
REMARK  0 active torsions:
REMARK  status: ('A' for Active; 'I' for Inactive)
ROOT
ATOM      1  C   UNL d   1       2.880   1.508   1.415  0.00  0.00     0.078 C 
ATOM      2  C1  UNL d   1       2.440   0.198   1.999  0.00  0.00    -0.077 A 
ATOM      3  C2  UNL d   1       1.237  -0.399   1.605  0.00  0.00    -0.001 A 
ATOM      4  C3  UNL d   1       0.835  -1.613   2.164  0.00  0.00     0.003 A 
ATOM      5  C4  UNL d   1       1.630  -2.240   3.121  0.00  0.00    -0.005 A 
ATOM      6  C5  UNL d   1       2.828  -1.652   3.521  0.00  0.00     0.003 A 
ATOM      7  C6  UNL d   1       3.232  -0.438   2.963  0.00  0.00    -0.001 A 
ENDROOT
TORSDOF 0
ENDMDL
