MODEL 1
REMARK minimizedAffinity 3.64741898
REMARK minimizedRMSD -1
REMARK  0 active torsions:
REMARK  status: ('A' for Active; 'I' for Inactive)
ROOT
ATOM      1  C   UNL d   1      -5.999   3.107  -0.404  0.00  0.00     0.078 C 
ATOM      2  C1  UNL d   1      -5.580   2.848  -1.820  0.00  0.00    -0.077 A 
ATOM      3  C2  UNL d   1      -4.770   1.752  -2.143  0.00  0.00    -0.001 A 
ATOM      4  C3  UNL d   1      -4.380   1.528  -3.464  0.00  0.00     0.003 A 
ATOM      5  C4  UNL d   1      -4.793   2.396  -4.473  0.00  0.00    -0.005 A 
ATOM      6  C5  UNL d   1      -5.598   3.490  -4.161  0.00  0.00     0.003 A 
ATOM      7  C6  UNL d   1      -5.989   3.716  -2.840  0.00  0.00    -0.001 A 
ENDROOT
TORSDOF 0
ENDMDL
