MODEL 1
REMARK minimizedAffinity 6.77799225
REMARK minimizedRMSD -1
REMARK  0 active torsions:
REMARK  status: ('A' for Active; 'I' for Inactive)
ROOT
ATOM      1  C   UNL d   1       2.600   0.944   0.989  0.00  0.00     0.078 C 
ATOM      2  C1  UNL d   1       2.888  -0.109   2.017  0.00  0.00    -0.077 A 
ATOM      3  C2  UNL d   1       4.154  -0.700   2.110  0.00  0.00    -0.001 A 
ATOM      4  C3  UNL d   1       4.405  -1.686   3.065  0.00  0.00     0.003 A 
ATOM      5  C4  UNL d   1       3.394  -2.092   3.934  0.00  0.00    -0.005 A 
ATOM      6  C5  UNL d   1       2.130  -1.512   3.848  0.00  0.00     0.003 A 
ATOM      7  C6  UNL d   1       1.877  -0.525   2.893  0.00  0.00    -0.001 A 
ENDROOT
TORSDOF 0
ENDMDL
