MODEL 1
REMARK minimizedAffinity 1.70247853
REMARK minimizedRMSD -1
REMARK  0 active torsions:
REMARK  status: ('A' for Active; 'I' for Inactive)
ROOT
ATOM      1  C   UNL d   1       2.331  -1.172   3.104  0.00  0.00     0.078 C 
ATOM      2  C1  UNL d   1       2.335  -0.040   2.120  0.00  0.00    -0.077 A 
ATOM      3  C2  UNL d   1       2.661  -0.255   0.775  0.00  0.00    -0.001 A 
ATOM      4  C3  UNL d   1       2.671   0.809  -0.128  0.00  0.00     0.003 A 
ATOM      5  C4  UNL d   1       2.356   2.096   0.304  0.00  0.00    -0.005 A 
ATOM      6  C5  UNL d   1       2.033   2.320   1.640  0.00  0.00     0.003 A 
ATOM      7  C6  UNL d   1       2.023   1.257   2.545  0.00  0.00    -0.001 A 
ENDROOT
TORSDOF 0
ENDMDL
