MODEL 1
REMARK minimizedAffinity 3.81315851
REMARK minimizedRMSD -1
REMARK  0 active torsions:
REMARK  status: ('A' for Active; 'I' for Inactive)
ROOT
ATOM      1  C   UNL d   1       1.707  -1.131   2.469  0.00  0.00     0.078 C 
ATOM      2  C1  UNL d   1       1.763   0.211   1.803  0.00  0.00    -0.077 A 
ATOM      3  C2  UNL d   1       2.856   0.577   1.008  0.00  0.00    -0.001 A 
ATOM      4  C3  UNL d   1       2.899   1.834   0.402  0.00  0.00     0.003 A 
ATOM      5  C4  UNL d   1       1.852   2.736   0.587  0.00  0.00    -0.005 A 
ATOM      6  C5  UNL d   1       0.762   2.381   1.378  0.00  0.00     0.003 A 
ATOM      7  C6  UNL d   1       0.717   1.125   1.985  0.00  0.00    -0.001 A 
ENDROOT
TORSDOF 0
ENDMDL
