MODEL 1
REMARK minimizedAffinity 4.94161606
REMARK minimizedRMSD -1
REMARK  0 active torsions:
REMARK  status: ('A' for Active; 'I' for Inactive)
ROOT
ATOM      1  C   UNL d   1       2.909   0.818   0.994  0.00  0.00     0.078 C 
ATOM      2  C1  UNL d   1       2.860  -0.364   1.915  0.00  0.00    -0.077 A 
ATOM      3  C2  UNL d   1       1.651  -0.790   2.477  0.00  0.00    -0.001 A 
ATOM      4  C3  UNL d   1       1.621  -1.886   3.341  0.00  0.00     0.003 A 
ATOM      5  C4  UNL d   1       2.798  -2.566   3.650  0.00  0.00    -0.005 A 
ATOM      6  C5  UNL d   1       4.006  -2.148   3.096  0.00  0.00     0.003 A 
ATOM      7  C6  UNL d   1       4.038  -1.052   2.233  0.00  0.00    -0.001 A 
ENDROOT
TORSDOF 0
ENDMDL
