MODEL 1
REMARK minimizedAffinity 5.98300409
REMARK minimizedRMSD -1
REMARK  0 active torsions:
REMARK  status: ('A' for Active; 'I' for Inactive)
ROOT
ATOM      1  C   UNL d   1      -4.807  -3.454  -1.859  0.00  0.00     0.078 C 
ATOM      2  C1  UNL d   1      -3.354  -3.177  -1.611  0.00  0.00    -0.077 A 
ATOM      3  C2  UNL d   1      -2.734  -3.585  -0.424  0.00  0.00    -0.001 A 
ATOM      4  C3  UNL d   1      -1.383  -3.311  -0.203  0.00  0.00     0.003 A 
ATOM      5  C4  UNL d   1      -0.641  -2.627  -1.164  0.00  0.00    -0.005 A 
ATOM      6  C5  UNL d   1      -1.250  -2.215  -2.348  0.00  0.00     0.003 A 
ATOM      7  C6  UNL d   1      -2.601  -2.488  -2.571  0.00  0.00    -0.001 A 
ENDROOT
TORSDOF 0
ENDMDL
