MODEL 1
REMARK minimizedAffinity 1.07790518
REMARK minimizedRMSD -1
REMARK  0 active torsions:
REMARK  status: ('A' for Active; 'I' for Inactive)
ROOT
ATOM      1  C   UNL d   1       1.503   2.647   1.097  0.00  0.00     0.078 C 
ATOM      2  C1  UNL d   1       1.595   1.252   1.638  0.00  0.00    -0.077 A 
ATOM      3  C2  UNL d   1       0.615   0.297   1.341  0.00  0.00    -0.001 A 
ATOM      4  C3  UNL d   1       0.709  -0.996   1.860  0.00  0.00     0.003 A 
ATOM      5  C4  UNL d   1       1.781  -1.344   2.680  0.00  0.00    -0.005 A 
ATOM      6  C5  UNL d   1       2.759  -0.400   2.983  0.00  0.00     0.003 A 
ATOM      7  C6  UNL d   1       2.667   0.893   2.465  0.00  0.00    -0.001 A 
ENDROOT
TORSDOF 0
ENDMDL
