MODEL 1
REMARK minimizedAffinity -5.16131639
REMARK minimizedRMSD -1
REMARK  2 active torsions:
REMARK  status: ('A' for Active; 'I' for Inactive)
REMARK    1  A    between atoms: C1_2  and  C2_3 
REMARK    2  A    between atoms: C2_3  and  C3_4 
ROOT
ATOM      1  C3  UNL d   1      -0.013  -0.493   0.576  0.00  0.00    -0.075 A 
ATOM      2  C4  UNL d   1       0.877  -0.847   1.600  0.00  0.00     0.002 A 
ATOM      3  C5  UNL d   1       0.455  -0.870   2.929  0.00  0.00     0.002 A 
ATOM      4  C6  UNL d   1      -0.857  -0.530   3.253  0.00  0.00    -0.004 A 
ATOM      5  C7  UNL d   1      -1.746  -0.160   2.245  0.00  0.00     0.002 A 
ATOM      6  C8  UNL d   1      -1.327  -0.141   0.914  0.00  0.00     0.002 A 
ENDROOT
BRANCH   1   7
ATOM      7  C2  UNL d   1       0.429  -0.495  -0.868  0.00  0.00     0.056 C 
BRANCH   7   8
ATOM      8  C1  UNL d   1       0.193  -1.825  -1.591  0.00  0.00     0.007 C 
ATOM      9  C   UNL d   1       1.144  -2.051  -2.759  0.00  0.00     0.009 C 
ENDBRANCH   7   8
ENDBRANCH   1   7
TORSDOF 2
ENDMDL
