MODEL 1
REMARK minimizedAffinity -3.89872813
REMARK minimizedRMSD -1
REMARK  2 active torsions:
REMARK  status: ('A' for Active; 'I' for Inactive)
REMARK    1  A    between atoms: C1_2  and  C2_3 
REMARK    2  A    between atoms: C2_3  and  C3_4 
ROOT
ATOM      1  C3  UNL d   1      -0.605   0.237   0.707  0.00  0.00    -0.075 A 
ATOM      2  C4  UNL d   1      -0.421   1.115   1.785  0.00  0.00     0.002 A 
ATOM      3  C5  UNL d   1      -0.732   0.716   3.085  0.00  0.00     0.002 A 
ATOM      4  C6  UNL d   1      -1.239  -0.560   3.323  0.00  0.00    -0.004 A 
ATOM      5  C7  UNL d   1      -1.442  -1.435   2.257  0.00  0.00     0.002 A 
ATOM      6  C8  UNL d   1      -1.127  -1.039   0.956  0.00  0.00     0.002 A 
ENDROOT
BRANCH   1   7
ATOM      7  C2  UNL d   1      -0.243   0.653  -0.699  0.00  0.00     0.056 C 
BRANCH   7   8
ATOM      8  C1  UNL d   1       0.973  -0.082  -1.273  0.00  0.00     0.007 C 
ATOM      9  C   UNL d   1       0.605  -1.133  -2.311  0.00  0.00     0.009 C 
ENDBRANCH   7   8
ENDBRANCH   1   7
TORSDOF 2
ENDMDL
