MODEL 1
REMARK minimizedAffinity -5.30690527
REMARK minimizedRMSD -1
REMARK  2 active torsions:
REMARK  status: ('A' for Active; 'I' for Inactive)
REMARK    1  A    between atoms: C1_2  and  C2_3 
REMARK    2  A    between atoms: C2_3  and  C3_4 
ROOT
ATOM      1  C3  UNL d   1       0.213  -0.308  -0.102  0.00  0.00    -0.075 A 
ATOM      2  C4  UNL d   1       1.317  -0.102   0.737  0.00  0.00     0.002 A 
ATOM      3  C5  UNL d   1       1.162  -0.100   2.124  0.00  0.00     0.002 A 
ATOM      4  C6  UNL d   1      -0.097  -0.294   2.687  0.00  0.00    -0.004 A 
ATOM      5  C7  UNL d   1      -1.204  -0.483   1.862  0.00  0.00     0.002 A 
ATOM      6  C8  UNL d   1      -1.051  -0.490   0.475  0.00  0.00     0.002 A 
ENDROOT
BRANCH   1   7
ATOM      7  C2  UNL d   1       0.378  -0.341  -1.603  0.00  0.00     0.056 C 
BRANCH   7   8
ATOM      8  C1  UNL d   1       0.581  -1.747  -2.178  0.00  0.00     0.007 C 
ATOM      9  C   UNL d   1       1.499  -1.772  -3.393  0.00  0.00     0.009 C 
ENDBRANCH   7   8
ENDBRANCH   1   7
TORSDOF 2
ENDMDL
