MODEL 1
REMARK minimizedAffinity -5.41267776
REMARK minimizedRMSD -1
REMARK  2 active torsions:
REMARK  status: ('A' for Active; 'I' for Inactive)
REMARK    1  A    between atoms: C1_2  and  C2_3 
REMARK    2  A    between atoms: C2_3  and  C3_4 
ROOT
ATOM      1  C3  UNL d   1      -0.029   0.302   0.634  0.00  0.00    -0.075 A 
ATOM      2  C4  UNL d   1      -1.421   0.157   0.541  0.00  0.00     0.002 A 
ATOM      3  C5  UNL d   1      -2.180  -0.124   1.677  0.00  0.00     0.002 A 
ATOM      4  C6  UNL d   1      -1.559  -0.273   2.915  0.00  0.00    -0.004 A 
ATOM      5  C7  UNL d   1      -0.175  -0.148   3.016  0.00  0.00     0.002 A 
ATOM      6  C8  UNL d   1       0.587   0.137   1.882  0.00  0.00     0.002 A 
ENDROOT
BRANCH   1   7
ATOM      7  C2  UNL d   1       0.796   0.634  -0.587  0.00  0.00     0.056 C 
BRANCH   7   8
ATOM      8  C1  UNL d   1       0.250   0.040  -1.889  0.00  0.00     0.007 C 
ATOM      9  C   UNL d   1       1.322  -0.630  -2.739  0.00  0.00     0.009 C 
ENDBRANCH   7   8
ENDBRANCH   1   7
TORSDOF 2
ENDMDL
