MODEL 1
REMARK minimizedAffinity -4.99199152
REMARK minimizedRMSD -1
REMARK  2 active torsions:
REMARK  status: ('A' for Active; 'I' for Inactive)
REMARK    1  A    between atoms: C1_2  and  C2_3 
REMARK    2  A    between atoms: C2_3  and  C3_4 
ROOT
ATOM      1  C3  UNL d   1      -0.172  -0.063   0.222  0.00  0.00    -0.075 A 
ATOM      2  C4  UNL d   1       0.482  -0.630   1.325  0.00  0.00     0.002 A 
ATOM      3  C5  UNL d   1      -0.161  -0.721   2.560  0.00  0.00     0.002 A 
ATOM      4  C6  UNL d   1      -1.458  -0.236   2.710  0.00  0.00    -0.004 A 
ATOM      5  C7  UNL d   1      -2.111   0.345   1.626  0.00  0.00     0.002 A 
ATOM      6  C8  UNL d   1      -1.473   0.432   0.388  0.00  0.00     0.002 A 
ENDROOT
BRANCH   1   7
ATOM      7  C2  UNL d   1       0.507   0.011  -1.125  0.00  0.00     0.056 C 
BRANCH   7   8
ATOM      8  C1  UNL d   1       0.209  -1.181  -2.040  0.00  0.00     0.007 C 
ATOM      9  C   UNL d   1       1.283  -1.412  -3.094  0.00  0.00     0.009 C 
ENDBRANCH   7   8
ENDBRANCH   1   7
TORSDOF 2
ENDMDL
