MODEL 1
REMARK minimizedAffinity -6.01099062
REMARK minimizedRMSD -1
REMARK  2 active torsions:
REMARK  status: ('A' for Active; 'I' for Inactive)
REMARK    1  A    between atoms: C1_2  and  C2_3 
REMARK    2  A    between atoms: C2_3  and  C3_4 
ROOT
ATOM      1  C3  UNL d   1       0.064   0.073  -0.233  0.00  0.00    -0.075 A 
ATOM      2  C4  UNL d   1       1.318   0.233   0.375  0.00  0.00     0.002 A 
ATOM      3  C5  UNL d   1       1.448   0.149   1.762  0.00  0.00     0.002 A 
ATOM      4  C6  UNL d   1       0.329  -0.086   2.557  0.00  0.00    -0.004 A 
ATOM      5  C7  UNL d   1      -0.924  -0.231   1.964  0.00  0.00     0.002 A 
ATOM      6  C8  UNL d   1      -1.057  -0.151   0.577  0.00  0.00     0.002 A 
ENDROOT
BRANCH   1   7
ATOM      7  C2  UNL d   1      -0.079   0.134  -1.735  0.00  0.00     0.056 C 
BRANCH   7   8
ATOM      8  C1  UNL d   1       0.988  -0.659  -2.496  0.00  0.00     0.007 C 
ATOM      9  C   UNL d   1       0.425  -1.454  -3.667  0.00  0.00     0.009 C 
ENDBRANCH   7   8
ENDBRANCH   1   7
TORSDOF 2
ENDMDL
