MODEL 1
REMARK minimizedAffinity -5.02419043
REMARK minimizedRMSD -1
REMARK  2 active torsions:
REMARK  status: ('A' for Active; 'I' for Inactive)
REMARK    1  A    between atoms: C1_2  and  C2_3 
REMARK    2  A    between atoms: C2_3  and  C3_4 
ROOT
ATOM      1  C3  UNL d   1      -0.040   0.174   1.229  0.00  0.00    -0.075 A 
ATOM      2  C4  UNL d   1       0.307   0.051   2.583  0.00  0.00     0.002 A 
ATOM      3  C5  UNL d   1      -0.605  -0.468   3.503  0.00  0.00     0.002 A 
ATOM      4  C6  UNL d   1      -1.874  -0.860   3.085  0.00  0.00    -0.004 A 
ATOM      5  C7  UNL d   1      -2.235  -0.727   1.745  0.00  0.00     0.002 A 
ATOM      6  C8  UNL d   1      -1.324  -0.212   0.822  0.00  0.00     0.002 A 
ENDROOT
BRANCH   1   7
ATOM      7  C2  UNL d   1       0.952   0.707   0.223  0.00  0.00     0.056 C 
BRANCH   7   8
ATOM      8  C1  UNL d   1       0.390   0.843  -1.196  0.00  0.00     0.007 C 
ATOM      9  C   UNL d   1       0.730  -0.341  -2.092  0.00  0.00     0.009 C 
ENDBRANCH   7   8
ENDBRANCH   1   7
TORSDOF 2
ENDMDL
