MODEL 1
REMARK minimizedAffinity -4.1100359
REMARK minimizedRMSD -1
REMARK  2 active torsions:
REMARK  status: ('A' for Active; 'I' for Inactive)
REMARK    1  A    between atoms: C1_2  and  C2_3 
REMARK    2  A    between atoms: C2_3  and  C3_4 
ROOT
ATOM      1  C3  UNL d   1      -1.010  -0.491   1.233  0.00  0.00    -0.075 A 
ATOM      2  C4  UNL d   1      -2.227  -0.208   0.595  0.00  0.00     0.002 A 
ATOM      3  C5  UNL d   1      -2.266   0.640  -0.512  0.00  0.00     0.002 A 
ATOM      4  C6  UNL d   1      -1.094   1.223  -0.988  0.00  0.00    -0.004 A 
ATOM      5  C7  UNL d   1       0.118   0.962  -0.352  0.00  0.00     0.002 A 
ATOM      6  C8  UNL d   1       0.161   0.110   0.753  0.00  0.00     0.002 A 
ENDROOT
BRANCH   1   7
ATOM      7  C2  UNL d   1      -0.957  -1.432   2.413  0.00  0.00     0.056 C 
BRANCH   7   8
ATOM      8  C1  UNL d   1      -0.745  -0.732   3.759  0.00  0.00     0.007 C 
ATOM      9  C   UNL d   1      -0.149   0.663   3.624  0.00  0.00     0.009 C 
ENDBRANCH   7   8
ENDBRANCH   1   7
TORSDOF 2
ENDMDL
