MODEL 1
REMARK minimizedAffinity 4.61896563
REMARK minimizedRMSD -1
REMARK  2 active torsions:
REMARK  status: ('A' for Active; 'I' for Inactive)
REMARK    1  A    between atoms: C1_2  and  C2_3 
REMARK    2  A    between atoms: C2_3  and  C3_4 
ROOT
ATOM      1  C3  UNL d   1       0.161   0.880   2.503  0.00  0.00    -0.075 A 
ATOM      2  C4  UNL d   1       1.328   1.656   2.445  0.00  0.00     0.002 A 
ATOM      3  C5  UNL d   1       2.111   1.672   1.291  0.00  0.00     0.002 A 
ATOM      4  C6  UNL d   1       1.745   0.907   0.186  0.00  0.00    -0.004 A 
ATOM      5  C7  UNL d   1       0.596   0.120   0.238  0.00  0.00     0.002 A 
ATOM      6  C8  UNL d   1      -0.192   0.105   1.391  0.00  0.00     0.002 A 
ENDROOT
BRANCH   1   7
ATOM      7  C2  UNL d   1      -0.707   0.881   3.739  0.00  0.00     0.056 C 
BRANCH   7   8
ATOM      8  C1  UNL d   1      -1.293  -0.490   4.090  0.00  0.00     0.007 C 
ATOM      9  C   UNL d   1      -2.363  -0.426   5.172  0.00  0.00     0.009 C 
ENDBRANCH   7   8
ENDBRANCH   1   7
TORSDOF 2
ENDMDL
