MODEL 1
REMARK minimizedAffinity -3.71038461
REMARK minimizedRMSD -1
REMARK  2 active torsions:
REMARK  status: ('A' for Active; 'I' for Inactive)
REMARK    1  A    between atoms: C1_2  and  C2_3 
REMARK    2  A    between atoms: C2_3  and  C3_4 
ROOT
ATOM      1  C3  UNL d   1       0.214  -0.023   0.018  0.00  0.00    -0.075 A 
ATOM      2  C4  UNL d   1      -0.360  -1.248   0.389  0.00  0.00     0.002 A 
ATOM      3  C5  UNL d   1      -0.625  -1.529   1.729  0.00  0.00     0.002 A 
ATOM      4  C6  UNL d   1      -0.311  -0.597   2.715  0.00  0.00    -0.004 A 
ATOM      5  C7  UNL d   1       0.275   0.616   2.360  0.00  0.00     0.002 A 
ATOM      6  C8  UNL d   1       0.537   0.902   1.019  0.00  0.00     0.002 A 
ENDROOT
BRANCH   1   7
ATOM      7  C2  UNL d   1       0.476   0.299  -1.434  0.00  0.00     0.056 C 
BRANCH   7   8
ATOM      8  C1  UNL d   1       0.412  -0.916  -2.364  0.00  0.00     0.007 C 
ATOM      9  C   UNL d   1       1.493  -0.909  -3.437  0.00  0.00     0.009 C 
ENDBRANCH   7   8
ENDBRANCH   1   7
TORSDOF 2
ENDMDL
