MODEL 1
REMARK minimizedAffinity -4.1852808
REMARK minimizedRMSD -1
REMARK  2 active torsions:
REMARK  status: ('A' for Active; 'I' for Inactive)
REMARK    1  A    between atoms: C1_2  and  C2_3 
REMARK    2  A    between atoms: C2_3  and  C3_4 
ROOT
ATOM      1  C3  UNL d   1      -0.873  -0.468   0.902  0.00  0.00    -0.075 A 
ATOM      2  C4  UNL d   1       0.351  -0.291   0.240  0.00  0.00     0.002 A 
ATOM      3  C5  UNL d   1       0.416   0.447  -0.942  0.00  0.00     0.002 A 
ATOM      4  C6  UNL d   1      -0.740   1.007  -1.482  0.00  0.00    -0.004 A 
ATOM      5  C7  UNL d   1      -1.963   0.823  -0.842  0.00  0.00     0.002 A 
ATOM      6  C8  UNL d   1      -2.031   0.090   0.344  0.00  0.00     0.002 A 
ENDROOT
BRANCH   1   7
ATOM      7  C2  UNL d   1      -0.946  -1.240   2.198  0.00  0.00     0.056 C 
BRANCH   7   8
ATOM      8  C1  UNL d   1      -1.064  -0.356   3.445  0.00  0.00     0.007 C 
ATOM      9  C   UNL d   1      -0.294   0.952   3.329  0.00  0.00     0.009 C 
ENDBRANCH   7   8
ENDBRANCH   1   7
TORSDOF 2
ENDMDL
