MODEL 1
REMARK minimizedAffinity 3.17275453
REMARK minimizedRMSD -1
REMARK  2 active torsions:
REMARK  status: ('A' for Active; 'I' for Inactive)
REMARK    1  A    between atoms: C1_2  and  C2_3 
REMARK    2  A    between atoms: C2_3  and  C3_4 
ROOT
ATOM      1  C3  UNL d   1       0.492  -0.453  -1.408  0.00  0.00    -0.075 A 
ATOM      2  C4  UNL d   1      -0.411   0.588  -1.148  0.00  0.00     0.002 A 
ATOM      3  C5  UNL d   1      -1.339   0.479  -0.112  0.00  0.00     0.002 A 
ATOM      4  C6  UNL d   1      -1.384  -0.674   0.669  0.00  0.00    -0.004 A 
ATOM      5  C7  UNL d   1      -0.503  -1.722   0.409  0.00  0.00     0.002 A 
ATOM      6  C8  UNL d   1       0.430  -1.613  -0.624  0.00  0.00     0.002 A 
ENDROOT
BRANCH   1   7
ATOM      7  C2  UNL d   1       1.519  -0.329  -2.508  0.00  0.00     0.056 C 
BRANCH   7   8
ATOM      8  C1  UNL d   1       1.885  -1.661  -3.172  0.00  0.00     0.007 C 
ATOM      9  C   UNL d   1       0.992  -2.007  -4.356  0.00  0.00     0.009 C 
ENDBRANCH   7   8
ENDBRANCH   1   7
TORSDOF 2
ENDMDL
