MODEL 1
REMARK minimizedAffinity -3.744596
REMARK minimizedRMSD -1
REMARK  2 active torsions:
REMARK  status: ('A' for Active; 'I' for Inactive)
REMARK    1  A    between atoms: C1_2  and  C2_3 
REMARK    2  A    between atoms: C2_3  and  C3_4 
ROOT
ATOM      1  C3  UNL d   1      -0.248  -0.200  -1.043  0.00  0.00    -0.075 A 
ATOM      2  C4  UNL d   1      -0.032  -1.120  -0.008  0.00  0.00     0.002 A 
ATOM      3  C5  UNL d   1      -0.978  -1.281   1.006  0.00  0.00     0.002 A 
ATOM      4  C6  UNL d   1      -2.143  -0.518   1.003  0.00  0.00    -0.004 A 
ATOM      5  C7  UNL d   1      -2.360   0.412  -0.012  0.00  0.00     0.002 A 
ATOM      6  C8  UNL d   1      -1.418   0.571  -1.030  0.00  0.00     0.002 A 
ENDROOT
BRANCH   1   7
ATOM      7  C2  UNL d   1       0.757  -0.042  -2.159  0.00  0.00     0.056 C 
BRANCH   7   8
ATOM      8  C1  UNL d   1       1.335  -1.366  -2.669  0.00  0.00     0.007 C 
ATOM      9  C   UNL d   1       0.348  -2.169  -3.506  0.00  0.00     0.009 C 
ENDBRANCH   7   8
ENDBRANCH   1   7
TORSDOF 2
ENDMDL
