MODEL 1
REMARK minimizedAffinity -4.37589073
REMARK minimizedRMSD -1
REMARK  2 active torsions:
REMARK  status: ('A' for Active; 'I' for Inactive)
REMARK    1  A    between atoms: C1_2  and  C2_3 
REMARK    2  A    between atoms: C2_3  and  C3_4 
ROOT
ATOM      1  C3  UNL d   1      -0.105   0.031   0.013  0.00  0.00    -0.075 A 
ATOM      2  C4  UNL d   1      -1.081  -0.570   0.821  0.00  0.00     0.002 A 
ATOM      3  C5  UNL d   1      -0.913  -0.636   2.204  0.00  0.00     0.002 A 
ATOM      4  C6  UNL d   1       0.235  -0.114   2.795  0.00  0.00    -0.004 A 
ATOM      5  C7  UNL d   1       1.219   0.470   2.001  0.00  0.00     0.002 A 
ATOM      6  C8  UNL d   1       1.052   0.542   0.617  0.00  0.00     0.002 A 
ENDROOT
BRANCH   1   7
ATOM      7  C2  UNL d   1      -0.294   0.132  -1.482  0.00  0.00     0.056 C 
BRANCH   7   8
ATOM      8  C1  UNL d   1       0.900  -0.374  -2.298  0.00  0.00     0.007 C 
ATOM      9  C   UNL d   1       0.561  -1.566  -3.183  0.00  0.00     0.009 C 
ENDBRANCH   7   8
ENDBRANCH   1   7
TORSDOF 2
ENDMDL
