MODEL 1
REMARK minimizedAffinity 9.05840683
REMARK minimizedRMSD -1
REMARK  0 active torsions:
REMARK  status: ('A' for Active; 'I' for Inactive)
ROOT
ATOM      1  C4' PXY d   1      -2.240   1.055  -0.672  0.00  0.00     0.077 C 
ATOM      2  C1' PXY d   1      -4.435   1.521  -5.999  0.00  0.00     0.077 C 
ATOM      3  C1  PXY d   1      -3.859   1.386  -4.603  0.00  0.00    -0.082 A 
ATOM      4  C2  PXY d   1      -4.067   2.343  -3.714  0.00  0.00     0.003 A 
ATOM      5  C3  PXY d   1      -3.527   2.252  -2.457  0.00  0.00     0.003 A 
ATOM      6  C4  PXY d   1      -2.810   1.145  -2.090  0.00  0.00    -0.082 A 
ATOM      7  C5  PXY d   1      -2.602   0.159  -2.988  0.00  0.00     0.003 A 
ATOM      8  C6  PXY d   1      -3.125   0.289  -4.271  0.00  0.00     0.003 A 
ENDROOT
TORSDOF 0
ENDMDL
