MODEL 1
REMARK minimizedAffinity 11.5037918
REMARK minimizedRMSD -1
REMARK  0 active torsions:
REMARK  status: ('A' for Active; 'I' for Inactive)
ROOT
ATOM      1  C4' PXY d   1      -1.552   0.635   0.238  0.00  0.00     0.077 C 
ATOM      2  C1' PXY d   1      -4.161   1.440  -4.858  0.00  0.00     0.077 C 
ATOM      3  C1  PXY d   1      -3.481   1.216  -3.521  0.00  0.00    -0.082 A 
ATOM      4  C2  PXY d   1      -3.253   2.247  -2.723  0.00  0.00     0.003 A 
ATOM      5  C3  PXY d   1      -2.611   2.067  -1.525  0.00  0.00     0.003 A 
ATOM      6  C4  PXY d   1      -2.245   0.812  -1.117  0.00  0.00    -0.082 A 
ATOM      7  C5  PXY d   1      -2.483  -0.245  -1.921  0.00  0.00     0.003 A 
ATOM      8  C6  PXY d   1      -3.099  -0.036  -3.151  0.00  0.00     0.003 A 
ENDROOT
TORSDOF 0
ENDMDL
