MODEL 1
REMARK minimizedAffinity 3.89152288
REMARK minimizedRMSD -1
REMARK  0 active torsions:
REMARK  status: ('A' for Active; 'I' for Inactive)
ROOT
ATOM      1  C4' PXY d   1       5.401  -5.962  -5.987  0.00  0.00     0.077 C 
ATOM      2  C1' PXY d   1       1.354  -6.000  -1.860  0.00  0.00     0.077 C 
ATOM      3  C1  PXY d   1       2.407  -5.995  -2.951  0.00  0.00    -0.082 A 
ATOM      4  C2  PXY d   1       3.688  -5.989  -2.623  0.00  0.00     0.003 A 
ATOM      5  C3  PXY d   1       4.653  -5.953  -3.596  0.00  0.00     0.003 A 
ATOM      6  C4  PXY d   1       4.303  -5.977  -4.920  0.00  0.00    -0.082 A 
ATOM      7  C5  PXY d   1       2.998  -5.994  -5.262  0.00  0.00     0.003 A 
ATOM      8  C6  PXY d   1       2.033  -5.989  -4.259  0.00  0.00     0.003 A 
ENDROOT
TORSDOF 0
ENDMDL
