MODEL 1
REMARK minimizedAffinity 4.03788662
REMARK minimizedRMSD -1
REMARK  0 active torsions:
REMARK  status: ('A' for Active; 'I' for Inactive)
ROOT
ATOM      1  C4' PXY d   1       1.445  -2.845   5.962  0.00  0.00     0.077 C 
ATOM      2  C1' PXY d   1       3.063  -0.735   0.830  0.00  0.00     0.077 C 
ATOM      3  C1  PXY d   1       2.646  -1.299   2.174  0.00  0.00    -0.082 A 
ATOM      4  C2  PXY d   1       1.503  -0.914   2.718  0.00  0.00     0.003 A 
ATOM      5  C3  PXY d   1       1.126  -1.389   3.948  0.00  0.00     0.003 A 
ATOM      6  C4  PXY d   1       1.901  -2.309   4.603  0.00  0.00    -0.082 A 
ATOM      7  C5  PXY d   1       3.064  -2.714   4.048  0.00  0.00     0.003 A 
ATOM      8  C6  PXY d   1       3.448  -2.189   2.818  0.00  0.00     0.003 A 
ENDROOT
TORSDOF 0
ENDMDL
