MODEL 1
REMARK minimizedAffinity 8.59895706
REMARK minimizedRMSD -1
REMARK  0 active torsions:
REMARK  status: ('A' for Active; 'I' for Inactive)
ROOT
ATOM      1  C4' PXY d   1       5.499  -5.723  -4.624  0.00  0.00     0.077 C 
ATOM      2  C1' PXY d   1       1.796  -5.582  -0.187  0.00  0.00     0.077 C 
ATOM      3  C1  PXY d   1       2.777  -5.617  -1.343  0.00  0.00    -0.082 A 
ATOM      4  C2  PXY d   1       2.355  -5.349  -2.568  0.00  0.00     0.003 A 
ATOM      5  C3  PXY d   1       3.222  -5.407  -3.628  0.00  0.00     0.003 A 
ATOM      6  C4  PXY d   1       4.546  -5.690  -3.426  0.00  0.00    -0.082 A 
ATOM      7  C5  PXY d   1       4.987  -5.954  -2.178  0.00  0.00     0.003 A 
ATOM      8  C6  PXY d   1       4.082  -5.930  -1.120  0.00  0.00     0.003 A 
ENDROOT
TORSDOF 0
ENDMDL
