MODEL 1
REMARK minimizedAffinity -4.25423813
REMARK minimizedRMSD -1
REMARK  0 active torsions:
REMARK  status: ('A' for Active; 'I' for Inactive)
ROOT
ATOM      1  C4' PXY d   1       4.514  -5.792  -5.578  0.00  0.00     0.077 C 
ATOM      2  C1' PXY d   1       1.890  -6.000  -0.431  0.00  0.00     0.077 C 
ATOM      3  C1  PXY d   1       2.589  -5.940  -1.775  0.00  0.00    -0.082 A 
ATOM      4  C2  PXY d   1       1.870  -5.935  -2.886  0.00  0.00     0.003 A 
ATOM      5  C3  PXY d   1       2.487  -5.913  -4.111  0.00  0.00     0.003 A 
ATOM      6  C4  PXY d   1       3.851  -5.842  -4.198  0.00  0.00    -0.082 A 
ATOM      7  C5  PXY d   1       4.591  -5.836  -3.069  0.00  0.00     0.003 A 
ATOM      8  C6  PXY d   1       3.948  -5.900  -1.837  0.00  0.00     0.003 A 
ENDROOT
TORSDOF 0
ENDMDL
