MODEL 1
REMARK minimizedAffinity 4.20583105
REMARK minimizedRMSD -1
REMARK  0 active torsions:
REMARK  status: ('A' for Active; 'I' for Inactive)
ROOT
ATOM      1  C4' PXY d   1       1.916  -5.993   1.308  0.00  0.00     0.077 C 
ATOM      2  C1' PXY d   1       2.099  -5.986  -4.469  0.00  0.00     0.077 C 
ATOM      3  C1  PXY d   1       2.063  -5.993  -2.954  0.00  0.00    -0.082 A 
ATOM      4  C2  PXY d   1       0.897  -6.000  -2.327  0.00  0.00     0.003 A 
ATOM      5  C3  PXY d   1       0.846  -5.974  -0.957  0.00  0.00     0.003 A 
ATOM      6  C4  PXY d   1       2.000  -5.996  -0.220  0.00  0.00    -0.082 A 
ATOM      7  C5  PXY d   1       3.193  -6.000  -0.852  0.00  0.00     0.003 A 
ATOM      8  C6  PXY d   1       3.223  -5.984  -2.244  0.00  0.00     0.003 A 
ENDROOT
TORSDOF 0
ENDMDL
