MODEL 1
REMARK minimizedAffinity 4.93344545
REMARK minimizedRMSD -1
REMARK  0 active torsions:
REMARK  status: ('A' for Active; 'I' for Inactive)
ROOT
ATOM      1  C4' PXY d   1       5.344  -2.252   3.882  0.00  0.00     0.077 C 
ATOM      2  C1' PXY d   1      -0.231  -3.245   5.042  0.00  0.00     0.077 C 
ATOM      3  C1  PXY d   1       1.228  -2.974   4.730  0.00  0.00    -0.082 A 
ATOM      4  C2  PXY d   1       2.108  -3.959   4.812  0.00  0.00     0.003 A 
ATOM      5  C3  PXY d   1       3.436  -3.724   4.565  0.00  0.00     0.003 A 
ATOM      6  C4  PXY d   1       3.860  -2.481   4.178  0.00  0.00    -0.082 A 
ATOM      7  C5  PXY d   1       2.966  -1.474   4.082  0.00  0.00     0.003 A 
ATOM      8  C6  PXY d   1       1.629  -1.723   4.377  0.00  0.00     0.003 A 
ENDROOT
TORSDOF 0
ENDMDL
