MODEL 1
REMARK minimizedAffinity 5.32481623
REMARK minimizedRMSD -1
REMARK  0 active torsions:
REMARK  status: ('A' for Active; 'I' for Inactive)
ROOT
ATOM      1  C4' PXY d   1       2.627   3.514   3.146  0.00  0.00     0.077 C 
ATOM      2  C1' PXY d   1       0.046   0.194  -0.820  0.00  0.00     0.077 C 
ATOM      3  C1  PXY d   1       0.714   1.074   0.219  0.00  0.00    -0.082 A 
ATOM      4  C2  PXY d   1       2.005   0.927   0.467  0.00  0.00     0.003 A 
ATOM      5  C3  PXY d   1       2.618   1.693   1.426  0.00  0.00     0.003 A 
ATOM      6  C4  PXY d   1       1.914   2.654   2.100  0.00  0.00    -0.082 A 
ATOM      7  C5  PXY d   1       0.598   2.817   1.844  0.00  0.00     0.003 A 
ATOM      8  C6  PXY d   1      -0.014   2.002   0.896  0.00  0.00     0.003 A 
ENDROOT
TORSDOF 0
ENDMDL
