MODEL 1
REMARK minimizedAffinity -4.97188902
REMARK minimizedRMSD -1
REMARK  1 active torsions:
REMARK  status: ('A' for Active; 'I' for Inactive)
REMARK    1  A    between atoms: C1_2  and  C2_3 
ROOT
ATOM      1  C2  UNL d   1      -0.502   0.588  -0.560  0.00  0.00    -0.076 A 
ATOM      2  C3  UNL d   1      -0.690   1.390  -1.699  0.00  0.00     0.004 A 
ATOM      3  C4  UNL d   1      -1.945   1.511  -2.292  0.00  0.00    -0.003 A 
ATOM      4  C5  UNL d   1      -3.034   0.833  -1.755  0.00  0.00     0.000 A 
ATOM      5  C6  UNL d   1      -2.870   0.048  -0.614  0.00  0.00     0.000 A 
ATOM      6  C7  UNL d   1      -1.614  -0.072   0.005  0.00  0.00    -0.073 A 
ATOM      7  C8  UNL d   1      -1.493  -0.937   1.230  0.00  0.00     0.078 C 
ENDROOT
BRANCH   1   8
ATOM      8  C1  UNL d   1       0.888   0.473   0.024  0.00  0.00     0.053 C 
ATOM      9  C   UNL d   1       1.761  -0.509  -0.741  0.00  0.00     0.018 C 
ENDBRANCH   1   8
TORSDOF 1
ENDMDL
