MODEL 1
REMARK minimizedAffinity -6.3346138
REMARK minimizedRMSD -1
REMARK  1 active torsions:
REMARK  status: ('A' for Active; 'I' for Inactive)
REMARK    1  A    between atoms: C1_2  and  C2_3 
ROOT
ATOM      1  C2  UNL d   1      -0.624   0.057   0.242  0.00  0.00    -0.076 A 
ATOM      2  C3  UNL d   1       0.499   0.366  -0.546  0.00  0.00     0.004 A 
ATOM      3  C4  UNL d   1       1.645  -0.427  -0.503  0.00  0.00    -0.003 A 
ATOM      4  C5  UNL d   1       1.686  -1.541   0.327  0.00  0.00     0.000 A 
ATOM      5  C6  UNL d   1       0.576  -1.873   1.102  0.00  0.00     0.000 A 
ATOM      6  C7  UNL d   1      -0.593  -1.094   1.059  0.00  0.00    -0.073 A 
ATOM      7  C8  UNL d   1      -1.760  -1.494   1.921  0.00  0.00     0.078 C 
ENDROOT
BRANCH   1   8
ATOM      8  C1  UNL d   1      -1.828   0.968   0.175  0.00  0.00     0.053 C 
ATOM      9  C   UNL d   1      -2.710   0.681  -1.031  0.00  0.00     0.018 C 
ENDBRANCH   1   8
TORSDOF 1
ENDMDL
