MODEL 1
REMARK minimizedAffinity -4.3867507
REMARK minimizedRMSD -1
REMARK  1 active torsions:
REMARK  status: ('A' for Active; 'I' for Inactive)
REMARK    1  A    between atoms: C1_2  and  C2_3 
ROOT
ATOM      1  C2  UNL d   1      -0.017   0.525   0.241  0.00  0.00    -0.076 A 
ATOM      2  C3  UNL d   1       1.101   0.537  -0.611  0.00  0.00     0.004 A 
ATOM      3  C4  UNL d   1       2.181  -0.315  -0.390  0.00  0.00    -0.003 A 
ATOM      4  C5  UNL d   1       2.162  -1.193   0.688  0.00  0.00     0.000 A 
ATOM      5  C6  UNL d   1       1.054  -1.231   1.534  0.00  0.00     0.000 A 
ATOM      6  C7  UNL d   1      -0.051  -0.391   1.315  0.00  0.00    -0.073 A 
ATOM      7  C8  UNL d   1      -1.217  -0.470   2.262  0.00  0.00     0.078 C 
ENDROOT
BRANCH   1   8
ATOM      8  C1  UNL d   1      -1.148   1.490  -0.033  0.00  0.00     0.053 C 
ATOM      9  C   UNL d   1      -1.267   1.844  -1.507  0.00  0.00     0.018 C 
ENDBRANCH   1   8
TORSDOF 1
ENDMDL
