MODEL 1
REMARK minimizedAffinity -1.34034252
REMARK minimizedRMSD -1
REMARK  1 active torsions:
REMARK  status: ('A' for Active; 'I' for Inactive)
REMARK    1  A    between atoms: C1_2  and  C2_3 
ROOT
ATOM      1  C2  UNL d   1      -0.266   1.014  -0.738  0.00  0.00    -0.076 A 
ATOM      2  C3  UNL d   1      -0.427   1.846  -1.860  0.00  0.00     0.004 A 
ATOM      3  C4  UNL d   1      -1.615   1.845  -2.589  0.00  0.00    -0.003 A 
ATOM      4  C5  UNL d   1      -2.661   1.013  -2.208  0.00  0.00     0.000 A 
ATOM      5  C6  UNL d   1      -2.526   0.194  -1.087  0.00  0.00     0.000 A 
ATOM      6  C7  UNL d   1      -1.341   0.195  -0.331  0.00  0.00    -0.073 A 
ATOM      7  C8  UNL d   1      -1.247  -0.712   0.865  0.00  0.00     0.078 C 
ENDROOT
BRANCH   1   8
ATOM      8  C1  UNL d   1       1.055   1.038  -0.002  0.00  0.00     0.053 C 
ATOM      9  C   UNL d   1       1.939  -0.149  -0.353  0.00  0.00     0.018 C 
ENDBRANCH   1   8
TORSDOF 1
ENDMDL
