MODEL 1
REMARK minimizedAffinity 0.595000863
REMARK minimizedRMSD -1
REMARK  1 active torsions:
REMARK  status: ('A' for Active; 'I' for Inactive)
REMARK    1  A    between atoms: C1_2  and  C2_3 
ROOT
ATOM      1  C2  UNL d   1       0.106   0.277  -0.123  0.00  0.00    -0.076 A 
ATOM      2  C3  UNL d   1       0.298  -0.014   1.239  0.00  0.00     0.004 A 
ATOM      3  C4  UNL d   1      -0.761  -0.442   2.038  0.00  0.00    -0.003 A 
ATOM      4  C5  UNL d   1      -2.030  -0.586   1.488  0.00  0.00     0.000 A 
ATOM      5  C6  UNL d   1      -2.235  -0.319   0.135  0.00  0.00     0.000 A 
ATOM      6  C7  UNL d   1      -1.175   0.097  -0.688  0.00  0.00    -0.073 A 
ATOM      7  C8  UNL d   1      -1.454   0.377  -2.140  0.00  0.00     0.078 C 
ENDROOT
BRANCH   1   8
ATOM      8  C1  UNL d   1       1.286   0.763  -0.933  0.00  0.00     0.053 C 
ATOM      9  C   UNL d   1       2.185  -0.374  -1.393  0.00  0.00     0.018 C 
ENDBRANCH   1   8
TORSDOF 1
ENDMDL
