MODEL 1
REMARK minimizedAffinity 2.83810139
REMARK minimizedRMSD -1
REMARK  1 active torsions:
REMARK  status: ('A' for Active; 'I' for Inactive)
REMARK    1  A    between atoms: C1_2  and  C2_3 
ROOT
ATOM      1  C2  UNL d   1       1.313  -0.124  -0.387  0.00  0.00    -0.076 A 
ATOM      2  C3  UNL d   1       0.161  -0.851  -0.734  0.00  0.00     0.004 A 
ATOM      3  C4  UNL d   1      -0.859  -0.267  -1.483  0.00  0.00    -0.003 A 
ATOM      4  C5  UNL d   1      -0.743   1.056  -1.898  0.00  0.00     0.000 A 
ATOM      5  C6  UNL d   1       0.400   1.787  -1.577  0.00  0.00     0.000 A 
ATOM      6  C7  UNL d   1       1.444   1.208  -0.837  0.00  0.00    -0.073 A 
ATOM      7  C8  UNL d   1       2.652   2.045  -0.514  0.00  0.00     0.078 C 
ENDROOT
BRANCH   1   8
ATOM      8  C1  UNL d   1       2.373  -0.802   0.450  0.00  0.00     0.053 C 
ATOM      9  C   UNL d   1       1.894  -1.111   1.860  0.00  0.00     0.018 C 
ENDBRANCH   1   8
TORSDOF 1
ENDMDL
