MODEL 1
REMARK minimizedAffinity -0.595299184
REMARK minimizedRMSD -1
REMARK  1 active torsions:
REMARK  status: ('A' for Active; 'I' for Inactive)
REMARK    1  A    between atoms: C1_2  and  C2_3 
ROOT
ATOM      1  C2  UNL d   1       0.379  -0.827   1.704  0.00  0.00    -0.076 A 
ATOM      2  C3  UNL d   1       1.135  -0.374   0.609  0.00  0.00     0.004 A 
ATOM      3  C4  UNL d   1       0.525   0.265  -0.469  0.00  0.00    -0.003 A 
ATOM      4  C5  UNL d   1      -0.851   0.461  -0.470  0.00  0.00     0.000 A 
ATOM      5  C6  UNL d   1      -1.615   0.034   0.616  0.00  0.00     0.000 A 
ATOM      6  C7  UNL d   1      -1.013  -0.597   1.719  0.00  0.00    -0.073 A 
ATOM      7  C8  UNL d   1      -1.886  -1.043   2.860  0.00  0.00     0.078 C 
ENDROOT
BRANCH   1   8
ATOM      8  C1  UNL d   1       1.092  -1.537   2.832  0.00  0.00     0.053 C 
ATOM      9  C   UNL d   1       2.468  -2.042   2.426  0.00  0.00     0.018 C 
ENDBRANCH   1   8
TORSDOF 1
ENDMDL
