MODEL 1
REMARK minimizedAffinity -2.58094096
REMARK minimizedRMSD -1
REMARK  1 active torsions:
REMARK  status: ('A' for Active; 'I' for Inactive)
REMARK    1  A    between atoms: C1_2  and  C2_3 
ROOT
ATOM      1  C2  UNL d   1      -2.069  -0.001  -0.186  0.00  0.00    -0.076 A 
ATOM      2  C3  UNL d   1      -3.230   0.042  -0.977  0.00  0.00     0.004 A 
ATOM      3  C4  UNL d   1      -3.287   0.828  -2.126  0.00  0.00    -0.003 A 
ATOM      4  C5  UNL d   1      -2.183   1.585  -2.503  0.00  0.00     0.000 A 
ATOM      5  C6  UNL d   1      -1.016   1.541  -1.740  0.00  0.00     0.000 A 
ATOM      6  C7  UNL d   1      -0.937   0.740  -0.587  0.00  0.00    -0.073 A 
ATOM      7  C8  UNL d   1       0.343   0.735   0.202  0.00  0.00     0.078 C 
ENDROOT
BRANCH   1   8
ATOM      8  C1  UNL d   1      -2.076  -0.851   1.065  0.00  0.00     0.053 C 
ATOM      9  C   UNL d   1      -2.193  -0.021   2.333  0.00  0.00     0.018 C 
ENDBRANCH   1   8
TORSDOF 1
ENDMDL
