MODEL 1
REMARK minimizedAffinity -5.50333548
REMARK minimizedRMSD -1
REMARK  1 active torsions:
REMARK  status: ('A' for Active; 'I' for Inactive)
REMARK    1  A    between atoms: C1_2  and  C2_3 
ROOT
ATOM      1  C2  UNL d   1       0.425  -1.259   1.015  0.00  0.00    -0.076 A 
ATOM      2  C3  UNL d   1       0.906  -0.422  -0.006  0.00  0.00     0.004 A 
ATOM      3  C4  UNL d   1       0.191   0.706  -0.406  0.00  0.00    -0.003 A 
ATOM      4  C5  UNL d   1      -1.017   1.014   0.210  0.00  0.00     0.000 A 
ATOM      5  C6  UNL d   1      -1.501   0.204   1.237  0.00  0.00     0.000 A 
ATOM      6  C7  UNL d   1      -0.784  -0.927   1.663  0.00  0.00    -0.073 A 
ATOM      7  C8  UNL d   1      -1.355  -1.768   2.771  0.00  0.00     0.078 C 
ENDROOT
BRANCH   1   8
ATOM      8  C1  UNL d   1       1.231  -2.483   1.388  0.00  0.00     0.053 C 
ATOM      9  C   UNL d   1       2.212  -2.213   2.518  0.00  0.00     0.018 C 
ENDBRANCH   1   8
TORSDOF 1
ENDMDL
