MODEL 1
REMARK minimizedAffinity -6.38086414
REMARK minimizedRMSD -1
REMARK  0 active torsions:
REMARK  status: ('A' for Active; 'I' for Inactive)
ROOT
ATOM      1  N1  IND d   1       0.021   0.507  -1.027  0.00  0.00    -0.196 N 
ATOM      2  C2  IND d   1      -0.623   1.008   0.071  0.00  0.00     0.054 A 
ATOM      3  C3  IND d   1      -1.078   0.001   0.849  0.00  0.00    -0.031 A 
ATOM      4  C4  IND d   1      -0.791  -2.542   0.568  0.00  0.00     0.051 A 
ATOM      5  C5  IND d   1      -0.308  -3.482  -0.299  0.00  0.00    -0.031 A 
ATOM      6  C6  IND d   1       0.325  -3.133  -1.474  0.00  0.00     0.015 A 
ATOM      7  C7  IND d   1       0.509  -1.825  -1.824  0.00  0.00    -0.016 A 
ATOM      8  C8  IND d   1       0.013  -0.868  -0.950  0.00  0.00    -0.047 A 
ATOM      9  C9  IND d   1      -0.668  -1.216   0.224  0.00  0.00    -0.096 A 
ATOM     10  HN1 IND d   1       0.371   0.973  -1.659  0.00  0.00     0.298 HD
ENDROOT
TORSDOF 0
ENDMDL
