MODEL 1
REMARK minimizedAffinity -2.117553
REMARK minimizedRMSD -1
REMARK  0 active torsions:
REMARK  status: ('A' for Active; 'I' for Inactive)
ROOT
ATOM      1  N1  IND d   1       0.143   0.556  -0.491  0.00  0.00    -0.196 N 
ATOM      2  C2  IND d   1      -0.296   0.932   0.748  0.00  0.00     0.054 A 
ATOM      3  C3  IND d   1      -0.750  -0.143   1.432  0.00  0.00    -0.031 A 
ATOM      4  C4  IND d   1      -0.772  -2.625   0.751  0.00  0.00     0.051 A 
ATOM      5  C5  IND d   1      -0.508  -3.456  -0.302  0.00  0.00    -0.031 A 
ATOM      6  C6  IND d   1      -0.000  -2.982  -1.494  0.00  0.00     0.015 A 
ATOM      7  C7  IND d   1       0.274  -1.656  -1.675  0.00  0.00    -0.016 A 
ATOM      8  C8  IND d   1      -0.000  -0.809  -0.611  0.00  0.00    -0.047 A 
ATOM      9  C9  IND d   1      -0.555  -1.278   0.587  0.00  0.00    -0.096 A 
ATOM     10  HN1 IND d   1       0.456   1.083  -1.093  0.00  0.00     0.298 HD
ENDROOT
TORSDOF 0
ENDMDL
