MODEL 1
REMARK minimizedAffinity -3.65171838
REMARK minimizedRMSD -1
REMARK  0 active torsions:
REMARK  status: ('A' for Active; 'I' for Inactive)
ROOT
ATOM      1  N1  IND d   1      -0.388   1.126  -1.261  0.00  0.00    -0.196 N 
ATOM      2  C2  IND d   1      -0.909   1.277  -0.007  0.00  0.00     0.054 A 
ATOM      3  C3  IND d   1      -0.775   0.132   0.699  0.00  0.00    -0.031 A 
ATOM      4  C4  IND d   1       0.360  -2.079   0.028  0.00  0.00     0.051 A 
ATOM      5  C5  IND d   1       0.951  -2.709  -1.031  0.00  0.00    -0.031 A 
ATOM      6  C6  IND d   1       1.131  -2.078  -2.246  0.00  0.00     0.015 A 
ATOM      7  C7  IND d   1       0.737  -0.785  -2.443  0.00  0.00    -0.016 A 
ATOM      8  C8  IND d   1       0.130  -0.145  -1.371  0.00  0.00    -0.047 A 
ATOM      9  C9  IND d   1      -0.094  -0.794  -0.150  0.00  0.00    -0.096 A 
ATOM     10  HN1 IND d   1      -0.384   1.725  -1.878  0.00  0.00     0.298 HD
ENDROOT
TORSDOF 0
ENDMDL
