MODEL 1
REMARK minimizedAffinity -4.45072269
REMARK minimizedRMSD -1
REMARK  0 active torsions:
REMARK  status: ('A' for Active; 'I' for Inactive)
ROOT
ATOM      1  N1  IND d   1       0.554   5.809   2.999  0.00  0.00    -0.196 N 
ATOM      2  C2  IND d   1      -0.750   6.000   2.634  0.00  0.00     0.054 A 
ATOM      3  C3  IND d   1      -1.065   5.208   1.585  0.00  0.00    -0.031 A 
ATOM      4  C4  IND d   1       0.372   3.448   0.374  0.00  0.00     0.051 A 
ATOM      5  C5  IND d   1       1.640   2.941   0.326  0.00  0.00    -0.031 A 
ATOM      6  C6  IND d   1       2.630   3.371   1.186  0.00  0.00     0.015 A 
ATOM      7  C7  IND d   1       2.385   4.320   2.137  0.00  0.00    -0.016 A 
ATOM      8  C8  IND d   1       1.100   4.842   2.185  0.00  0.00    -0.047 A 
ATOM      9  C9  IND d   1       0.102   4.441   1.287  0.00  0.00    -0.096 A 
ATOM     10  HN1 IND d   1       0.963   6.224   3.632  0.00  0.00     0.298 HD
ENDROOT
TORSDOF 0
ENDMDL
