MODEL 1
REMARK minimizedAffinity -5.10026169
REMARK minimizedRMSD -1
REMARK  0 active torsions:
REMARK  status: ('A' for Active; 'I' for Inactive)
ROOT
ATOM      1  N1  IND d   1      -1.251   0.709   0.563  0.00  0.00    -0.196 N 
ATOM      2  C2  IND d   1      -0.589   1.526  -0.311  0.00  0.00     0.054 A 
ATOM      3  C3  IND d   1       0.425   0.857  -0.904  0.00  0.00    -0.031 A 
ATOM      4  C4  IND d   1       1.115  -1.612  -0.669  0.00  0.00     0.051 A 
ATOM      5  C5  IND d   1       0.832  -2.746   0.039  0.00  0.00    -0.031 A 
ATOM      6  C6  IND d   1      -0.182  -2.789   0.974  0.00  0.00     0.015 A 
ATOM      7  C7  IND d   1      -0.962  -1.696   1.230  0.00  0.00    -0.016 A 
ATOM      8  C8  IND d   1      -0.673  -0.540   0.518  0.00  0.00    -0.047 A 
ATOM      9  C9  IND d   1       0.382  -0.479  -0.401  0.00  0.00    -0.096 A 
ATOM     10  HN1 IND d   1      -1.916   0.937   1.057  0.00  0.00     0.298 HD
ENDROOT
TORSDOF 0
ENDMDL
