MODEL 1
REMARK minimizedAffinity -4.33434725
REMARK minimizedRMSD -1
REMARK  0 active torsions:
REMARK  status: ('A' for Active; 'I' for Inactive)
ROOT
ATOM      1  N1  IND d   1       0.554   0.608  -0.665  0.00  0.00    -0.196 N 
ATOM      2  C2  IND d   1      -0.351   1.401  -0.016  0.00  0.00     0.054 A 
ATOM      3  C3  IND d   1      -1.156   0.651   0.769  0.00  0.00    -0.031 A 
ATOM      4  C4  IND d   1      -1.103  -1.883   1.219  0.00  0.00     0.051 A 
ATOM      5  C5  IND d   1      -0.478  -3.034   0.828  0.00  0.00    -0.031 A 
ATOM      6  C6  IND d   1       0.546  -3.029  -0.098  0.00  0.00     0.015 A 
ATOM      7  C7  IND d   1       0.992  -1.867  -0.661  0.00  0.00    -0.016 A 
ATOM      8  C8  IND d   1       0.355  -0.697  -0.271  0.00  0.00    -0.047 A 
ATOM      9  C9  IND d   1      -0.713  -0.701   0.636  0.00  0.00    -0.096 A 
ATOM     10  HN1 IND d   1       1.148   0.878  -1.225  0.00  0.00     0.298 HD
ENDROOT
TORSDOF 0
ENDMDL
