MODEL 1
REMARK minimizedAffinity -4.43267345
REMARK minimizedRMSD -1
REMARK  0 active torsions:
REMARK  status: ('A' for Active; 'I' for Inactive)
ROOT
ATOM      1  N1  IND d   1       0.356  -2.551  -0.944  0.00  0.00    -0.196 N 
ATOM      2  C2  IND d   1      -0.284  -3.300   0.005  0.00  0.00     0.054 A 
ATOM      3  C3  IND d   1      -0.811  -2.500   0.959  0.00  0.00    -0.031 A 
ATOM      4  C4  IND d   1      -0.832   0.070   1.110  0.00  0.00     0.051 A 
ATOM      5  C5  IND d   1      -0.345   1.190   0.495  0.00  0.00    -0.031 A 
ATOM      6  C6  IND d   1       0.415   1.118  -0.655  0.00  0.00     0.015 A 
ATOM      7  C7  IND d   1       0.706  -0.081  -1.242  0.00  0.00    -0.016 A 
ATOM      8  C8  IND d   1       0.218  -1.220  -0.617  0.00  0.00    -0.047 A 
ATOM      9  C9  IND d   1      -0.517  -1.156   0.573  0.00  0.00    -0.096 A 
ATOM     10  HN1 IND d   1       0.774  -2.860  -1.629  0.00  0.00     0.298 HD
ENDROOT
TORSDOF 0
ENDMDL
