MODEL 1
REMARK minimizedAffinity -2.70312786
REMARK minimizedRMSD -1
REMARK  0 active torsions:
REMARK  status: ('A' for Active; 'I' for Inactive)
ROOT
ATOM      1  N1  IND d   1       0.262   0.847  -1.220  0.00  0.00    -0.196 N 
ATOM      2  C2  IND d   1      -0.248   1.525  -0.148  0.00  0.00     0.054 A 
ATOM      3  C3  IND d   1      -0.668   0.657   0.800  0.00  0.00    -0.031 A 
ATOM      4  C4  IND d   1      -0.524  -1.912   0.846  0.00  0.00     0.051 A 
ATOM      5  C5  IND d   1      -0.170  -2.985   0.076  0.00  0.00    -0.031 A 
ATOM      6  C6  IND d   1       0.359  -2.833  -1.189  0.00  0.00     0.015 A 
ATOM      7  C7  IND d   1       0.566  -1.595  -1.730  0.00  0.00    -0.016 A 
ATOM      8  C8  IND d   1       0.201  -0.504  -0.955  0.00  0.00    -0.047 A 
ATOM      9  C9  IND d   1      -0.376  -0.653   0.313  0.00  0.00    -0.096 A 
ATOM     10  HN1 IND d   1       0.570   1.204  -1.940  0.00  0.00     0.298 HD
ENDROOT
TORSDOF 0
ENDMDL
