MODEL 1
REMARK minimizedAffinity -4.15905762
REMARK minimizedRMSD -1
REMARK  0 active torsions:
REMARK  status: ('A' for Active; 'I' for Inactive)
ROOT
ATOM      1  N1  IND d   1       1.265  -0.177  -0.860  0.00  0.00    -0.196 N 
ATOM      2  C2  IND d   1       0.884   1.132  -0.755  0.00  0.00     0.054 A 
ATOM      3  C3  IND d   1      -0.161   1.251   0.095  0.00  0.00    -0.031 A 
ATOM      4  C4  IND d   1      -1.340  -0.555   1.500  0.00  0.00     0.051 A 
ATOM      5  C5  IND d   1      -1.370  -1.905   1.714  0.00  0.00    -0.031 A 
ATOM      6  C6  IND d   1      -0.504  -2.764   1.070  0.00  0.00     0.015 A 
ATOM      7  C7  IND d   1       0.436  -2.303   0.192  0.00  0.00    -0.016 A 
ATOM      8  C8  IND d   1       0.465  -0.934  -0.033  0.00  0.00    -0.047 A 
ATOM      9  C9  IND d   1      -0.439  -0.061   0.586  0.00  0.00    -0.096 A 
ATOM     10  HN1 IND d   1       1.897  -0.477  -1.360  0.00  0.00     0.298 HD
ENDROOT
TORSDOF 0
ENDMDL
