MODEL 1
REMARK minimizedAffinity -4.43319225
REMARK minimizedRMSD -1
REMARK  0 active torsions:
REMARK  status: ('A' for Active; 'I' for Inactive)
ROOT
ATOM      1  N1  IND d   1       0.513  -2.199  -0.654  0.00  0.00    -0.196 N 
ATOM      2  C2  IND d   1       0.038  -3.205   0.141  0.00  0.00     0.054 A 
ATOM      3  C3  IND d   1      -0.714  -2.698   1.143  0.00  0.00    -0.031 A 
ATOM      4  C4  IND d   1      -1.382  -0.257   1.612  0.00  0.00     0.051 A 
ATOM      5  C5  IND d   1      -1.161   1.022   1.183  0.00  0.00    -0.031 A 
ATOM      6  C6  IND d   1      -0.357   1.298   0.096  0.00  0.00     0.015 A 
ATOM      7  C7  IND d   1       0.250   0.299  -0.613  0.00  0.00    -0.016 A 
ATOM      8  C8  IND d   1       0.034  -1.000  -0.175  0.00  0.00    -0.047 A 
ATOM      9  C9  IND d   1      -0.747  -1.283   0.953  0.00  0.00    -0.096 A 
ATOM     10  HN1 IND d   1       1.025  -2.299  -1.337  0.00  0.00     0.298 HD
ENDROOT
TORSDOF 0
ENDMDL
