MODEL 1
REMARK minimizedAffinity -2.23723674
REMARK minimizedRMSD -1
REMARK  0 active torsions:
REMARK  status: ('A' for Active; 'I' for Inactive)
ROOT
ATOM      1  N1  IND d   1       0.929   0.175   0.789  0.00  0.00    -0.196 N 
ATOM      2  C2  IND d   1      -0.385   0.034   0.439  0.00  0.00     0.054 A 
ATOM      3  C3  IND d   1      -0.922   1.237   0.134  0.00  0.00    -0.031 A 
ATOM      4  C4  IND d   1       0.200   3.553   0.044  0.00  0.00     0.051 A 
ATOM      5  C5  IND d   1       1.378   4.191   0.315  0.00  0.00    -0.031 A 
ATOM      6  C6  IND d   1       2.490   3.508   0.764  0.00  0.00     0.015 A 
ATOM      7  C7  IND d   1       2.468   2.155   0.949  0.00  0.00    -0.016 A 
ATOM      8  C8  IND d   1       1.272   1.505   0.682  0.00  0.00    -0.047 A 
ATOM      9  C9  IND d   1       0.127   2.198   0.266  0.00  0.00    -0.096 A 
ATOM     10  HN1 IND d   1       1.454  -0.461   1.034  0.00  0.00     0.298 HD
ENDROOT
TORSDOF 0
ENDMDL
