MODEL 1
REMARK minimizedAffinity -4.17410135
REMARK minimizedRMSD -1
REMARK  0 active torsions:
REMARK  status: ('A' for Active; 'I' for Inactive)
ROOT
ATOM      1  N1  IND d   1       0.089   0.161  -0.701  0.00  0.00    -0.196 N 
ATOM      2  C2  IND d   1      -0.323   0.588   0.531  0.00  0.00     0.054 A 
ATOM      3  C3  IND d   1      -0.680  -0.467   1.298  0.00  0.00    -0.031 A 
ATOM      4  C4  IND d   1      -0.572  -2.984   0.771  0.00  0.00     0.051 A 
ATOM      5  C5  IND d   1      -0.298  -3.863  -0.239  0.00  0.00    -0.031 A 
ATOM      6  C6  IND d   1       0.131  -3.436  -1.480  0.00  0.00     0.015 A 
ATOM      7  C7  IND d   1       0.313  -2.110  -1.753  0.00  0.00    -0.016 A 
ATOM      8  C8  IND d   1       0.028  -1.215  -0.732  0.00  0.00    -0.047 A 
ATOM      9  C9  IND d   1      -0.448  -1.639   0.516  0.00  0.00    -0.096 A 
ATOM     10  HN1 IND d   1       0.344   0.667  -1.348  0.00  0.00     0.298 HD
ENDROOT
TORSDOF 0
ENDMDL
