MODEL 1
REMARK minimizedAffinity -6.17177629
REMARK minimizedRMSD -1
REMARK  0 active torsions:
REMARK  status: ('A' for Active; 'I' for Inactive)
ROOT
ATOM      1  N1  IND d   1      -0.156   0.823  -1.358  0.00  0.00    -0.196 N 
ATOM      2  C2  IND d   1      -0.369   1.215  -0.066  0.00  0.00     0.054 A 
ATOM      3  C3  IND d   1      -0.467   0.137   0.743  0.00  0.00    -0.031 A 
ATOM      4  C4  IND d   1      -0.206  -2.361   0.178  0.00  0.00     0.051 A 
ATOM      5  C5  IND d   1      -0.039  -3.215  -0.876  0.00  0.00    -0.031 A 
ATOM      6  C6  IND d   1       0.103  -2.758  -2.170  0.00  0.00     0.015 A 
ATOM      7  C7  IND d   1       0.095  -1.422  -2.458  0.00  0.00    -0.016 A 
ATOM      8  C8  IND d   1      -0.081  -0.552  -1.392  0.00  0.00    -0.047 A 
ATOM      9  C9  IND d   1      -0.269  -1.012  -0.082  0.00  0.00    -0.096 A 
ATOM     10  HN1 IND d   1      -0.080   1.347  -2.035  0.00  0.00     0.298 HD
ENDROOT
TORSDOF 0
ENDMDL
