MODEL 1
REMARK minimizedAffinity -2.5970118
REMARK minimizedRMSD -1
REMARK  0 active torsions:
REMARK  status: ('A' for Active; 'I' for Inactive)
ROOT
ATOM      1  N1  IND d   1       1.088   0.529  -0.512  0.00  0.00    -0.196 N 
ATOM      2  C2  IND d   1       0.323   1.546  -0.012  0.00  0.00     0.054 A 
ATOM      3  C3  IND d   1      -0.764   1.049   0.621  0.00  0.00    -0.031 A 
ATOM      4  C4  IND d   1      -1.432  -1.400   1.046  0.00  0.00     0.051 A 
ATOM      5  C5  IND d   1      -1.067  -2.683   0.749  0.00  0.00    -0.031 A 
ATOM      6  C6  IND d   1       0.059  -2.967   0.005  0.00  0.00     0.015 A 
ATOM      7  C7  IND d   1       0.872  -1.974  -0.464  0.00  0.00    -0.016 A 
ATOM      8  C8  IND d   1       0.501  -0.670  -0.171  0.00  0.00    -0.047 A 
ATOM      9  C9  IND d   1      -0.665  -0.374   0.548  0.00  0.00    -0.096 A 
ATOM     10  HN1 IND d   1       1.813   0.622  -0.964  0.00  0.00     0.298 HD
ENDROOT
TORSDOF 0
ENDMDL
