MODEL 1
REMARK minimizedAffinity -3.91145873
REMARK minimizedRMSD -1
REMARK  0 active torsions:
REMARK  status: ('A' for Active; 'I' for Inactive)
ROOT
ATOM      1  N1  IND d   1      -0.691  -2.632   1.241  0.00  0.00    -0.196 N 
ATOM      2  C2  IND d   1      -0.017  -3.453   0.381  0.00  0.00     0.054 A 
ATOM      3  C3  IND d   1       0.511  -2.736  -0.637  0.00  0.00    -0.031 A 
ATOM      4  C4  IND d   1       0.479  -0.193  -1.035  0.00  0.00     0.051 A 
ATOM      5  C5  IND d   1      -0.045   0.968  -0.540  0.00  0.00    -0.031 A 
ATOM      6  C6  IND d   1      -0.825   0.990   0.598  0.00  0.00     0.015 A 
ATOM      7  C7  IND d   1      -1.101  -0.153   1.293  0.00  0.00    -0.016 A 
ATOM      8  C8  IND d   1      -0.577  -1.335   0.790  0.00  0.00    -0.047 A 
ATOM      9  C9  IND d   1       0.180  -1.369  -0.388  0.00  0.00    -0.096 A 
ATOM     10  HN1 IND d   1      -1.116  -2.883   1.945  0.00  0.00     0.298 HD
ENDROOT
TORSDOF 0
ENDMDL
