MODEL 1
REMARK minimizedAffinity -3.5941925
REMARK minimizedRMSD -1
REMARK  0 active torsions:
REMARK  status: ('A' for Active; 'I' for Inactive)
ROOT
ATOM      1  N1  IND d   1      -0.447  -1.106   1.586  0.00  0.00    -0.196 N 
ATOM      2  C2  IND d   1      -0.212  -2.441   1.412  0.00  0.00     0.054 A 
ATOM      3  C3  IND d   1       0.105  -2.699   0.123  0.00  0.00    -0.031 A 
ATOM      4  C4  IND d   1       0.394  -1.069  -1.848  0.00  0.00     0.051 A 
ATOM      5  C5  IND d   1       0.250   0.247  -2.187  0.00  0.00    -0.031 A 
ATOM      6  C6  IND d   1      -0.140   1.199  -1.267  0.00  0.00     0.015 A 
ATOM      7  C7  IND d   1      -0.389   0.871   0.035  0.00  0.00    -0.016 A 
ATOM      8  C8  IND d   1      -0.250  -0.466   0.382  0.00  0.00    -0.047 A 
ATOM      9  C9  IND d   1       0.103  -1.443  -0.557  0.00  0.00    -0.096 A 
ATOM     10  HN1 IND d   1      -0.679  -0.729   2.323  0.00  0.00     0.298 HD
ENDROOT
TORSDOF 0
ENDMDL
