MODEL 1
REMARK minimizedAffinity -4.6360631
REMARK minimizedRMSD -1
REMARK  0 active torsions:
REMARK  status: ('A' for Active; 'I' for Inactive)
ROOT
ATOM      1  N1  IND d   1       0.073   0.467  -1.499  0.00  0.00    -0.196 N 
ATOM      2  C2  IND d   1      -0.394   1.289  -0.513  0.00  0.00     0.054 A 
ATOM      3  C3  IND d   1      -0.669   0.576   0.603  0.00  0.00    -0.031 A 
ATOM      4  C4  IND d   1      -0.332  -1.934   1.064  0.00  0.00     0.051 A 
ATOM      5  C5  IND d   1       0.035  -3.101   0.456  0.00  0.00    -0.031 A 
ATOM      6  C6  IND d   1       0.445  -3.139  -0.861  0.00  0.00     0.015 A 
ATOM      7  C7  IND d   1       0.513  -2.005  -1.619  0.00  0.00    -0.016 A 
ATOM      8  C8  IND d   1       0.135  -0.818  -1.007  0.00  0.00    -0.047 A 
ATOM      9  C9  IND d   1      -0.322  -0.780   0.317  0.00  0.00    -0.096 A 
ATOM     10  HN1 IND d   1       0.292   0.711  -2.294  0.00  0.00     0.298 HD
ENDROOT
TORSDOF 0
ENDMDL
