MODEL 1
REMARK minimizedAffinity 3.83410716
REMARK minimizedRMSD -1
REMARK  1 active torsions:
REMARK  status: ('A' for Active; 'I' for Inactive)
REMARK    1  A    between atoms: C3_4  and  O_7 
ROOT
ATOM      1  C   UNL d   1      -2.630  -0.012   2.532  0.00  0.00    -0.033 A 
ATOM      2  C1  UNL d   1      -2.817  -1.343   2.909  0.00  0.00     0.039 A 
ATOM      3  C2  UNL d   1      -1.741  -2.091   3.391  0.00  0.00    -0.080 A 
ATOM      4  C3  UNL d   1      -0.486  -1.497   3.492  0.00  0.00     0.150 A 
ATOM      5  C4  UNL d   1      -0.294  -0.170   3.122  0.00  0.00    -0.007 A 
ATOM      6  C5  UNL d   1      -1.369   0.575   2.640  0.00  0.00     0.039 A 
ENDROOT
BRANCH   4   7
ATOM      7  O   UNL d   1       0.595  -2.188   3.953  0.00  0.00    -0.526 OA
ATOM      8  H5  UNL d   1       0.319  -3.100   4.143  0.00  0.00     0.418 HD
ENDBRANCH   4   7
TORSDOF 1
ENDMDL
