MODEL 1
REMARK minimizedAffinity 0.683872581
REMARK minimizedRMSD -1
REMARK  1 active torsions:
REMARK  status: ('A' for Active; 'I' for Inactive)
REMARK    1  A    between atoms: C3_4  and  O_7 
ROOT
ATOM      1  C   UNL d   1       4.173   2.171   3.435  0.00  0.00    -0.033 A 
ATOM      2  C1  UNL d   1       4.100   2.057   2.045  0.00  0.00     0.039 A 
ATOM      3  C2  UNL d   1       4.062   3.203   1.250  0.00  0.00    -0.080 A 
ATOM      4  C3  UNL d   1       4.100   4.457   1.855  0.00  0.00     0.150 A 
ATOM      5  C4  UNL d   1       4.177   4.578   3.238  0.00  0.00    -0.007 A 
ATOM      6  C5  UNL d   1       4.214   3.432   4.031  0.00  0.00     0.039 A 
ENDROOT
BRANCH   4   7
ATOM      7  O   UNL d   1       4.061   5.604   1.120  0.00  0.00    -0.526 OA
ATOM      8  H5  UNL d   1       3.979   5.366   0.181  0.00  0.00     0.418 HD
ENDBRANCH   4   7
TORSDOF 1
ENDMDL
