MODEL 1
REMARK minimizedAffinity 10.7994785
REMARK minimizedRMSD -1
REMARK  1 active torsions:
REMARK  status: ('A' for Active; 'I' for Inactive)
REMARK    1  A    between atoms: C3_4  and  O_7 
ROOT
ATOM      1  C   UNL d   1       0.001  -0.569   2.759  0.00  0.00    -0.033 A 
ATOM      2  C1  UNL d   1      -0.033   0.223   3.908  0.00  0.00     0.039 A 
ATOM      3  C2  UNL d   1       1.121   0.882   4.338  0.00  0.00    -0.080 A 
ATOM      4  C3  UNL d   1       2.299   0.741   3.611  0.00  0.00     0.150 A 
ATOM      5  C4  UNL d   1       2.339  -0.043   2.463  0.00  0.00    -0.007 A 
ATOM      6  C5  UNL d   1       1.187  -0.701   2.035  0.00  0.00     0.039 A 
ENDROOT
BRANCH   4   7
ATOM      7  O   UNL d   1       3.452   1.361   3.994  0.00  0.00    -0.526 OA
ATOM      8  H5  UNL d   1       3.281   1.845   4.819  0.00  0.00     0.418 HD
ENDBRANCH   4   7
TORSDOF 1
ENDMDL
