MODEL 1
REMARK minimizedAffinity 5.65045166
REMARK minimizedRMSD -1
REMARK  1 active torsions:
REMARK  status: ('A' for Active; 'I' for Inactive)
REMARK    1  A    between atoms: C3_4  and  O_7 
ROOT
ATOM      1  C   UNL d   1       0.051   0.437   1.712  0.00  0.00    -0.033 A 
ATOM      2  C1  UNL d   1       1.257   0.450   2.415  0.00  0.00     0.039 A 
ATOM      3  C2  UNL d   1       1.634  -0.657   3.177  0.00  0.00    -0.080 A 
ATOM      4  C3  UNL d   1       0.799  -1.770   3.226  0.00  0.00     0.150 A 
ATOM      5  C4  UNL d   1      -0.402  -1.791   2.524  0.00  0.00    -0.007 A 
ATOM      6  C5  UNL d   1      -0.778  -0.684   1.765  0.00  0.00     0.039 A 
ENDROOT
BRANCH   4   7
ATOM      7  O   UNL d   1       1.123  -2.873   3.959  0.00  0.00    -0.526 OA
ATOM      8  H5  UNL d   1       1.966  -2.704   4.413  0.00  0.00     0.418 HD
ENDBRANCH   4   7
TORSDOF 1
ENDMDL
