MODEL 1
REMARK minimizedAffinity 5.10955572
REMARK minimizedRMSD -1
REMARK  1 active torsions:
REMARK  status: ('A' for Active; 'I' for Inactive)
REMARK    1  A    between atoms: C3_4  and  O_7 
ROOT
ATOM      1  C   UNL d   1       5.905   1.928   4.559  0.00  0.00    -0.033 A 
ATOM      2  C1  UNL d   1       4.806   1.166   4.959  0.00  0.00     0.039 A 
ATOM      3  C2  UNL d   1       3.659   1.795   5.446  0.00  0.00    -0.080 A 
ATOM      4  C3  UNL d   1       3.623   3.184   5.526  0.00  0.00     0.150 A 
ATOM      5  C4  UNL d   1       4.712   3.950   5.125  0.00  0.00    -0.007 A 
ATOM      6  C5  UNL d   1       5.858   3.320   4.640  0.00  0.00     0.039 A 
ENDROOT
BRANCH   4   7
ATOM      7  O   UNL d   1       2.526   3.842   5.999  0.00  0.00    -0.526 OA
ATOM      8  H5  UNL d   1       1.863   3.184   6.265  0.00  0.00     0.418 HD
ENDBRANCH   4   7
TORSDOF 1
ENDMDL
