MODEL 1
REMARK minimizedAffinity 5.10762405
REMARK minimizedRMSD -1
REMARK  1 active torsions:
REMARK  status: ('A' for Active; 'I' for Inactive)
REMARK    1  A    between atoms: C3_4  and  O_7 
ROOT
ATOM      1  C   UNL d   1       0.823   0.065   2.380  0.00  0.00    -0.033 A 
ATOM      2  C1  UNL d   1      -0.492  -0.404   2.401  0.00  0.00     0.039 A 
ATOM      3  C2  UNL d   1      -0.801  -1.592   3.067  0.00  0.00    -0.080 A 
ATOM      4  C3  UNL d   1       0.212  -2.299   3.709  0.00  0.00     0.150 A 
ATOM      5  C4  UNL d   1       1.524  -1.835   3.696  0.00  0.00    -0.007 A 
ATOM      6  C5  UNL d   1       1.830  -0.649   3.029  0.00  0.00     0.039 A 
ENDROOT
BRANCH   4   7
ATOM      7  O   UNL d   1      -0.040  -3.465   4.368  0.00  0.00    -0.526 OA
ATOM      8  H5  UNL d   1      -0.983  -3.677   4.268  0.00  0.00     0.418 HD
ENDBRANCH   4   7
TORSDOF 1
ENDMDL
