MODEL 1
REMARK minimizedAffinity 11.5184603
REMARK minimizedRMSD -1
REMARK  1 active torsions:
REMARK  status: ('A' for Active; 'I' for Inactive)
REMARK    1  A    between atoms: C3_4  and  O_7 
ROOT
ATOM      1  C   UNL d   1      -0.300   0.316   2.794  0.00  0.00    -0.033 A 
ATOM      2  C1  UNL d   1      -0.782  -0.967   2.530  0.00  0.00     0.039 A 
ATOM      3  C2  UNL d   1      -0.039  -2.086   2.910  0.00  0.00    -0.080 A 
ATOM      4  C3  UNL d   1       1.183  -1.908   3.554  0.00  0.00     0.150 A 
ATOM      5  C4  UNL d   1       1.667  -0.633   3.823  0.00  0.00    -0.007 A 
ATOM      6  C5  UNL d   1       0.924   0.483   3.442  0.00  0.00     0.039 A 
ENDROOT
BRANCH   4   7
ATOM      7  O   UNL d   1       1.947  -2.970   3.939  0.00  0.00    -0.526 OA
ATOM      8  H5  UNL d   1       1.500  -3.787   3.662  0.00  0.00     0.418 HD
ENDBRANCH   4   7
TORSDOF 1
ENDMDL
