MODEL 1
REMARK minimizedAffinity 2.67680979
REMARK minimizedRMSD -1
REMARK  1 active torsions:
REMARK  status: ('A' for Active; 'I' for Inactive)
REMARK    1  A    between atoms: C3_4  and  O_7 
ROOT
ATOM      1  C   UNL d   1       0.355   0.689   2.876  0.00  0.00    -0.033 A 
ATOM      2  C1  UNL d   1      -0.627  -0.288   2.699  0.00  0.00     0.039 A 
ATOM      3  C2  UNL d   1      -0.387  -1.602   3.104  0.00  0.00    -0.080 A 
ATOM      4  C3  UNL d   1       0.836  -1.926   3.685  0.00  0.00     0.150 A 
ATOM      5  C4  UNL d   1       1.817  -0.957   3.867  0.00  0.00    -0.007 A 
ATOM      6  C5  UNL d   1       1.577   0.355   3.462  0.00  0.00     0.039 A 
ENDROOT
BRANCH   4   7
ATOM      7  O   UNL d   1       1.118  -3.197   4.091  0.00  0.00    -0.526 OA
ATOM      8  H5  UNL d   1       0.359  -3.764   3.876  0.00  0.00     0.418 HD
ENDBRANCH   4   7
TORSDOF 1
ENDMDL
