MODEL 1
REMARK minimizedAffinity 19.0128841
REMARK minimizedRMSD -1
REMARK  0 active torsions:
REMARK  status: ('A' for Active; 'I' for Inactive)
ROOT
ATOM      1  C   UNL d   1       2.767   1.164  -0.280  0.00  0.00     0.124 A 
ATOM      2  C1  UNL d   1       1.750   1.936   0.263  0.00  0.00     0.062 A 
ATOM      3  C2  UNL d   1       1.202   1.604   1.498  0.00  0.00     0.162 A 
ATOM      4  C3  UNL d   1       1.671   0.494   2.201  0.00  0.00    -0.034 A 
ATOM      5  C4  UNL d   1       2.695  -0.278   1.649  0.00  0.00     0.162 A 
ATOM      6  C5  UNL d   1       3.239   0.058   0.413  0.00  0.00     0.062 A 
ATOM      7  F   UNL d   1       4.222  -0.689  -0.109  0.00  0.00    -0.097 F 
ATOM      8  F1  UNL d   1       3.170  -1.352   2.297  0.00  0.00    -0.096 F 
ATOM      9  I   UNL d   1       0.855  -0.006   4.049  0.00  0.00    -0.060 I 
ATOM     10  F2  UNL d   1       0.219   2.368   1.999  0.00  0.00    -0.096 F 
ATOM     11  F3  UNL d   1       1.292   3.005  -0.405  0.00  0.00    -0.097 F 
ATOM     12  F4  UNL d   1       3.292   1.485  -1.469  0.00  0.00    -0.092 F 
ENDROOT
TORSDOF 0
ENDMDL
