MODEL 1
REMARK minimizedAffinity 18.571085
REMARK minimizedRMSD -1
REMARK  0 active torsions:
REMARK  status: ('A' for Active; 'I' for Inactive)
ROOT
ATOM      1  C   UNL d   1       2.847   2.119  -0.425  0.00  0.00     0.124 A 
ATOM      2  C1  UNL d   1       2.004   2.542   0.593  0.00  0.00     0.062 A 
ATOM      3  C2  UNL d   1       1.118   1.647   1.185  0.00  0.00     0.162 A 
ATOM      4  C3  UNL d   1       1.072   0.319   0.762  0.00  0.00    -0.034 A 
ATOM      5  C4  UNL d   1       1.922  -0.099  -0.263  0.00  0.00     0.162 A 
ATOM      6  C5  UNL d   1       2.806   0.799  -0.852  0.00  0.00     0.062 A 
ATOM      7  F   UNL d   1       3.620   0.389  -1.836  0.00  0.00    -0.097 F 
ATOM      8  F1  UNL d   1       1.903  -1.369  -0.694  0.00  0.00    -0.096 F 
ATOM      9  I   UNL d   1      -0.252  -1.023   1.645  0.00  0.00    -0.060 I 
ATOM     10  F2  UNL d   1       0.315   2.084   2.167  0.00  0.00    -0.096 F 
ATOM     11  F3  UNL d   1       2.042   3.817   1.006  0.00  0.00    -0.097 F 
ATOM     12  F4  UNL d   1       3.698   2.983  -0.994  0.00  0.00    -0.092 F 
ENDROOT
TORSDOF 0
ENDMDL
