MODEL 1
REMARK minimizedAffinity 33.0931664
REMARK minimizedRMSD -1
REMARK  0 active torsions:
REMARK  status: ('A' for Active; 'I' for Inactive)
ROOT
ATOM      1  C   UNL d   1      -3.336  -2.691  -2.608  0.00  0.00     0.124 A 
ATOM      2  C1  UNL d   1      -2.988  -4.018  -2.395  0.00  0.00     0.062 A 
ATOM      3  C2  UNL d   1      -2.272  -4.717  -3.362  0.00  0.00     0.162 A 
ATOM      4  C3  UNL d   1      -1.899  -4.091  -4.551  0.00  0.00    -0.034 A 
ATOM      5  C4  UNL d   1      -2.253  -2.757  -4.759  0.00  0.00     0.162 A 
ATOM      6  C5  UNL d   1      -2.968  -2.062  -3.789  0.00  0.00     0.062 A 
ATOM      7  F   UNL d   1      -3.304  -0.780  -3.997  0.00  0.00    -0.097 F 
ATOM      8  F1  UNL d   1      -1.910  -2.125  -5.891  0.00  0.00    -0.096 F 
ATOM      9  I   UNL d   1      -0.828  -5.134  -6.000  0.00  0.00    -0.060 I 
ATOM     10  F2  UNL d   1      -1.949  -5.998  -3.130  0.00  0.00    -0.096 F 
ATOM     11  F3  UNL d   1      -3.343  -4.628  -1.255  0.00  0.00    -0.097 F 
ATOM     12  F4  UNL d   1      -4.025  -2.020  -1.676  0.00  0.00    -0.092 F 
ENDROOT
TORSDOF 0
ENDMDL
