MODEL 1
REMARK minimizedAffinity 32.4677544
REMARK minimizedRMSD -1
REMARK  0 active torsions:
REMARK  status: ('A' for Active; 'I' for Inactive)
ROOT
ATOM      1  C   UNL d   1      -1.877  -2.722  -0.150  0.00  0.00     0.124 A 
ATOM      2  C1  UNL d   1      -2.003  -3.899   0.575  0.00  0.00     0.062 A 
ATOM      3  C2  UNL d   1      -2.971  -4.836   0.227  0.00  0.00     0.162 A 
ATOM      4  C3  UNL d   1      -3.821  -4.601  -0.854  0.00  0.00    -0.034 A 
ATOM      5  C4  UNL d   1      -3.689  -3.415  -1.579  0.00  0.00     0.162 A 
ATOM      6  C5  UNL d   1      -2.720  -2.481  -1.226  0.00  0.00     0.062 A 
ATOM      7  F   UNL d   1      -2.599  -1.345  -1.929  0.00  0.00    -0.097 F 
ATOM      8  F1  UNL d   1      -4.489  -3.157  -2.624  0.00  0.00    -0.096 F 
ATOM      9  I   UNL d   1      -5.270  -5.999  -1.379  0.00  0.00    -0.060 I 
ATOM     10  F2  UNL d   1      -3.071  -5.964   0.946  0.00  0.00    -0.096 F 
ATOM     11  F3  UNL d   1      -1.191  -4.133   1.616  0.00  0.00    -0.097 F 
ATOM     12  F4  UNL d   1      -0.945  -1.822   0.188  0.00  0.00    -0.092 F 
ENDROOT
TORSDOF 0
ENDMDL
