MODEL 1
REMARK minimizedAffinity 21.7125454
REMARK minimizedRMSD -1
REMARK  0 active torsions:
REMARK  status: ('A' for Active; 'I' for Inactive)
ROOT
ATOM      1  C   UNL d   1      -2.268  -1.534   2.260  0.00  0.00     0.124 A 
ATOM      2  C1  UNL d   1      -3.464  -1.451   1.561  0.00  0.00     0.062 A 
ATOM      3  C2  UNL d   1      -3.555  -1.954   0.266  0.00  0.00     0.162 A 
ATOM      4  C3  UNL d   1      -2.445  -2.545  -0.338  0.00  0.00    -0.034 A 
ATOM      5  C4  UNL d   1      -1.245  -2.624   0.371  0.00  0.00     0.162 A 
ATOM      6  C5  UNL d   1      -1.160  -2.120   1.665  0.00  0.00     0.062 A 
ATOM      7  F   UNL d   1      -0.003  -2.201   2.338  0.00  0.00    -0.097 F 
ATOM      8  F1  UNL d   1      -0.159  -3.186  -0.180  0.00  0.00    -0.096 F 
ATOM      9  I   UNL d   1      -2.577  -3.298  -2.274  0.00  0.00    -0.060 I 
ATOM     10  F2  UNL d   1      -4.723  -1.860  -0.385  0.00  0.00    -0.096 F 
ATOM     11  F3  UNL d   1      -4.536  -0.884   2.134  0.00  0.00    -0.097 F 
ATOM     12  F4  UNL d   1      -2.183  -1.048   3.505  0.00  0.00    -0.092 F 
ENDROOT
TORSDOF 0
ENDMDL
