MODEL 1
REMARK minimizedAffinity 23.1214275
REMARK minimizedRMSD -1
REMARK  0 active torsions:
REMARK  status: ('A' for Active; 'I' for Inactive)
ROOT
ATOM      1  C   UNL d   1      -1.400  -2.720   0.361  0.00  0.00     0.124 A 
ATOM      2  C1  UNL d   1      -2.084  -2.457  -0.818  0.00  0.00     0.062 A 
ATOM      3  C2  UNL d   1      -2.986  -3.387  -1.326  0.00  0.00     0.162 A 
ATOM      4  C3  UNL d   1      -3.210  -4.590  -0.655  0.00  0.00    -0.034 A 
ATOM      5  C4  UNL d   1      -2.518  -4.848   0.529  0.00  0.00     0.162 A 
ATOM      6  C5  UNL d   1      -1.618  -3.915   1.033  0.00  0.00     0.062 A 
ATOM      7  F   UNL d   1      -0.958  -4.171   2.172  0.00  0.00    -0.097 F 
ATOM      8  F1  UNL d   1      -2.710  -5.993   1.200  0.00  0.00    -0.096 F 
ATOM      9  I   UNL d   1      -4.558  -5.983  -1.412  0.00  0.00    -0.060 I 
ATOM     10  F2  UNL d   1      -3.633  -3.107  -2.467  0.00  0.00    -0.096 F 
ATOM     11  F3  UNL d   1      -1.875  -1.304  -1.469  0.00  0.00    -0.097 F 
ATOM     12  F4  UNL d   1      -0.532  -1.824   0.848  0.00  0.00    -0.092 F 
ENDROOT
TORSDOF 0
ENDMDL
