MODEL 1
REMARK minimizedAffinity 28.6751766
REMARK minimizedRMSD -1
REMARK  0 active torsions:
REMARK  status: ('A' for Active; 'I' for Inactive)
ROOT
ATOM      1  C   UNL d   1       1.445  -0.534   0.498  0.00  0.00     0.124 A 
ATOM      2  C1  UNL d   1       1.212   0.590   1.279  0.00  0.00     0.062 A 
ATOM      3  C2  UNL d   1      -0.029   0.780   1.879  0.00  0.00     0.162 A 
ATOM      4  C3  UNL d   1      -1.048  -0.156   1.701  0.00  0.00    -0.034 A 
ATOM      5  C4  UNL d   1      -0.806  -1.283   0.913  0.00  0.00     0.162 A 
ATOM      6  C5  UNL d   1       0.436  -1.468   0.316  0.00  0.00     0.062 A 
ATOM      7  F   UNL d   1       0.659  -2.554  -0.439  0.00  0.00    -0.097 F 
ATOM      8  F1  UNL d   1      -1.764  -2.202   0.721  0.00  0.00    -0.096 F 
ATOM      9  I   UNL d   1      -2.906   0.125   2.596  0.00  0.00    -0.060 I 
ATOM     10  F2  UNL d   1      -0.226   1.875   2.629  0.00  0.00    -0.096 F 
ATOM     11  F3  UNL d   1       2.185   1.495   1.457  0.00  0.00    -0.097 F 
ATOM     12  F4  UNL d   1       2.640  -0.714  -0.078  0.00  0.00    -0.092 F 
ENDROOT
TORSDOF 0
ENDMDL
