MODEL 1
REMARK minimizedAffinity 33.312233
REMARK minimizedRMSD -1
REMARK  0 active torsions:
REMARK  status: ('A' for Active; 'I' for Inactive)
ROOT
ATOM      1  C   UNL d   1       1.219   1.158   0.679  0.00  0.00     0.124 A 
ATOM      2  C1  UNL d   1       1.623   0.041  -0.038  0.00  0.00     0.062 A 
ATOM      3  C2  UNL d   1       2.358   0.191  -1.211  0.00  0.00     0.162 A 
ATOM      4  C3  UNL d   1       2.694   1.463  -1.673  0.00  0.00    -0.034 A 
ATOM      5  C4  UNL d   1       2.283   2.582  -0.947  0.00  0.00     0.162 A 
ATOM      6  C5  UNL d   1       1.549   2.427   0.225  0.00  0.00     0.062 A 
ATOM      7  F   UNL d   1       1.159   3.508   0.917  0.00  0.00    -0.097 F 
ATOM      8  F1  UNL d   1       2.589   3.820  -1.362  0.00  0.00    -0.096 F 
ATOM      9  I   UNL d   1       3.793   1.691  -3.426  0.00  0.00    -0.060 I 
ATOM     10  F2  UNL d   1       2.735  -0.906  -1.884  0.00  0.00    -0.096 F 
ATOM     11  F3  UNL d   1       1.305  -1.186   0.398  0.00  0.00    -0.097 F 
ATOM     12  F4  UNL d   1       0.511   1.012   1.807  0.00  0.00    -0.092 F 
ENDROOT
TORSDOF 0
ENDMDL
