MODEL 1
REMARK minimizedAffinity 32.6543427
REMARK minimizedRMSD -1
REMARK  0 active torsions:
REMARK  status: ('A' for Active; 'I' for Inactive)
ROOT
ATOM      1  C   UNL d   1      -3.125  -3.781  -1.439  0.00  0.00     0.124 A 
ATOM      2  C1  UNL d   1      -3.210  -2.429  -1.739  0.00  0.00     0.062 A 
ATOM      3  C2  UNL d   1      -2.979  -1.984  -3.038  0.00  0.00     0.162 A 
ATOM      4  C3  UNL d   1      -2.662  -2.894  -4.047  0.00  0.00    -0.034 A 
ATOM      5  C4  UNL d   1      -2.577  -4.252  -3.737  0.00  0.00     0.162 A 
ATOM      6  C5  UNL d   1      -2.808  -4.691  -2.438  0.00  0.00     0.062 A 
ATOM      7  F   UNL d   1      -2.726  -5.998  -2.150  0.00  0.00    -0.097 F 
ATOM      8  F1  UNL d   1      -2.274  -5.153  -4.683  0.00  0.00    -0.096 F 
ATOM      9  I   UNL d   1      -2.316  -2.233  -5.990  0.00  0.00    -0.060 I 
ATOM     10  F2  UNL d   1      -3.068  -0.672  -3.300  0.00  0.00    -0.096 F 
ATOM     11  F3  UNL d   1      -3.514  -1.548  -0.776  0.00  0.00    -0.097 F 
ATOM     12  F4  UNL d   1      -3.346  -4.206  -0.189  0.00  0.00    -0.092 F 
ENDROOT
TORSDOF 0
ENDMDL
