MODEL 1
REMARK minimizedAffinity 25.9309216
REMARK minimizedRMSD -1
REMARK  0 active torsions:
REMARK  status: ('A' for Active; 'I' for Inactive)
ROOT
ATOM      1  C   UNL d   1      -4.040  -3.452  -2.253  0.00  0.00     0.124 A 
ATOM      2  C1  UNL d   1      -4.431  -4.562  -1.516  0.00  0.00     0.062 A 
ATOM      3  C2  UNL d   1      -3.732  -4.922  -0.368  0.00  0.00     0.162 A 
ATOM      4  C3  UNL d   1      -2.635  -4.170   0.052  0.00  0.00    -0.034 A 
ATOM      5  C4  UNL d   1      -2.247  -3.056  -0.694  0.00  0.00     0.162 A 
ATOM      6  C5  UNL d   1      -2.949  -2.700  -1.841  0.00  0.00     0.062 A 
ATOM      7  F   UNL d   1      -2.570  -1.628  -2.551  0.00  0.00    -0.097 F 
ATOM      8  F1  UNL d   1      -1.196  -2.311  -0.318  0.00  0.00    -0.096 F 
ATOM      9  I   UNL d   1      -1.586  -4.705   1.769  0.00  0.00    -0.060 I 
ATOM     10  F2  UNL d   1      -4.132  -5.999   0.324  0.00  0.00    -0.096 F 
ATOM     11  F3  UNL d   1      -5.485  -5.290  -1.913  0.00  0.00    -0.097 F 
ATOM     12  F4  UNL d   1      -4.715  -3.108  -3.358  0.00  0.00    -0.092 F 
ENDROOT
TORSDOF 0
ENDMDL
