MODEL 1
REMARK minimizedAffinity 23.365881
REMARK minimizedRMSD -1
REMARK  0 active torsions:
REMARK  status: ('A' for Active; 'I' for Inactive)
ROOT
ATOM      1  C   UNL d   1       2.888   0.978   0.141  0.00  0.00     0.124 A 
ATOM      2  C1  UNL d   1       3.541   0.221   1.104  0.00  0.00     0.062 A 
ATOM      3  C2  UNL d   1       3.020   0.124   2.391  0.00  0.00     0.162 A 
ATOM      4  C3  UNL d   1       1.837   0.785   2.722  0.00  0.00    -0.034 A 
ATOM      5  C4  UNL d   1       1.186   1.545   1.749  0.00  0.00     0.162 A 
ATOM      6  C5  UNL d   1       1.711   1.639   0.464  0.00  0.00     0.062 A 
ATOM      7  F   UNL d   1       1.078   2.370  -0.464  0.00  0.00    -0.097 F 
ATOM      8  F1  UNL d   1       0.047   2.193   2.034  0.00  0.00    -0.096 F 
ATOM      9  I   UNL d   1       1.054   0.642   4.646  0.00  0.00    -0.060 I 
ATOM     10  F2  UNL d   1       3.673  -0.614   3.301  0.00  0.00    -0.096 F 
ATOM     11  F3  UNL d   1       4.679  -0.417   0.794  0.00  0.00    -0.097 F 
ATOM     12  F4  UNL d   1       3.392   1.070  -1.096  0.00  0.00    -0.092 F 
ENDROOT
TORSDOF 0
ENDMDL
