MODEL 1
REMARK minimizedAffinity 20.9279385
REMARK minimizedRMSD -1
REMARK  0 active torsions:
REMARK  status: ('A' for Active; 'I' for Inactive)
ROOT
ATOM      1  C   UNL d   1      -1.422  -3.772   2.596  0.00  0.00     0.124 A 
ATOM      2  C1  UNL d   1      -2.344  -4.554   1.914  0.00  0.00     0.062 A 
ATOM      3  C2  UNL d   1      -2.775  -4.182   0.644  0.00  0.00     0.162 A 
ATOM      4  C3  UNL d   1      -2.284  -3.021   0.046  0.00  0.00    -0.034 A 
ATOM      5  C4  UNL d   1      -1.357  -2.239   0.738  0.00  0.00     0.162 A 
ATOM      6  C5  UNL d   1      -0.930  -2.615   2.007  0.00  0.00     0.062 A 
ATOM      7  F   UNL d   1      -0.039  -1.858   2.664  0.00  0.00    -0.097 F 
ATOM      8  F1  UNL d   1      -0.864  -1.117   0.193  0.00  0.00    -0.096 F 
ATOM      9  I   UNL d   1      -2.926  -2.461  -1.853  0.00  0.00    -0.060 I 
ATOM     10  F2  UNL d   1      -3.667  -4.957   0.009  0.00  0.00    -0.096 F 
ATOM     11  F3  UNL d   1      -2.822  -5.671   2.481  0.00  0.00    -0.097 F 
ATOM     12  F4  UNL d   1      -1.010  -4.132   3.818  0.00  0.00    -0.092 F 
ENDROOT
TORSDOF 0
ENDMDL
