MODEL 1
REMARK minimizedAffinity 24.8043938
REMARK minimizedRMSD -1
REMARK  0 active torsions:
REMARK  status: ('A' for Active; 'I' for Inactive)
ROOT
ATOM      1  C   UNL d   1       3.311  -0.391   0.956  0.00  0.00     0.124 A 
ATOM      2  C1  UNL d   1       2.455   0.393   0.194  0.00  0.00     0.062 A 
ATOM      3  C2  UNL d   1       1.402   1.071   0.800  0.00  0.00     0.162 A 
ATOM      4  C3  UNL d   1       1.199   0.970   2.177  0.00  0.00    -0.034 A 
ATOM      5  C4  UNL d   1       2.063   0.179   2.936  0.00  0.00     0.162 A 
ATOM      6  C5  UNL d   1       3.114  -0.497   2.325  0.00  0.00     0.062 A 
ATOM      7  F   UNL d   1       3.940  -1.253   3.063  0.00  0.00    -0.097 F 
ATOM      8  F1  UNL d   1       1.896   0.060   4.261  0.00  0.00    -0.096 F 
ATOM      9  I   UNL d   1      -0.376   1.982   3.086  0.00  0.00    -0.060 I 
ATOM     10  F2  UNL d   1       0.590   1.821   0.040  0.00  0.00    -0.096 F 
ATOM     11  F3  UNL d   1       2.643   0.496  -1.129  0.00  0.00    -0.097 F 
ATOM     12  F4  UNL d   1       4.324  -1.043   0.370  0.00  0.00    -0.092 F 
ENDROOT
TORSDOF 0
ENDMDL
