MODEL 1
REMARK minimizedAffinity 26.7077789
REMARK minimizedRMSD -1
REMARK  0 active torsions:
REMARK  status: ('A' for Active; 'I' for Inactive)
ROOT
ATOM      1  C   UNL d   1      -1.392  -2.475   1.054  0.00  0.00     0.124 A 
ATOM      2  C1  UNL d   1      -1.504  -3.702   1.691  0.00  0.00     0.062 A 
ATOM      3  C2  UNL d   1      -2.287  -4.710   1.136  0.00  0.00     0.162 A 
ATOM      4  C3  UNL d   1      -2.964  -4.495  -0.065  0.00  0.00    -0.034 A 
ATOM      5  C4  UNL d   1      -2.847  -3.257  -0.699  0.00  0.00     0.162 A 
ATOM      6  C5  UNL d   1      -2.063  -2.253  -0.140  0.00  0.00     0.062 A 
ATOM      7  F   UNL d   1      -1.955  -1.067  -0.757  0.00  0.00    -0.097 F 
ATOM      8  F1  UNL d   1      -3.484  -3.016  -1.855  0.00  0.00    -0.096 F 
ATOM      9  I   UNL d   1      -4.136  -5.999  -0.899  0.00  0.00    -0.060 I 
ATOM     10  F2  UNL d   1      -2.378  -5.887   1.773  0.00  0.00    -0.096 F 
ATOM     11  F3  UNL d   1      -0.858  -3.919   2.846  0.00  0.00    -0.097 F 
ATOM     12  F4  UNL d   1      -0.638  -1.506   1.591  0.00  0.00    -0.092 F 
ENDROOT
TORSDOF 0
ENDMDL
