MODEL 1
REMARK minimizedAffinity 24.3839493
REMARK minimizedRMSD -1
REMARK  0 active torsions:
REMARK  status: ('A' for Active; 'I' for Inactive)
ROOT
ATOM      1  C   UNL d   1       0.884   0.520   1.859  0.00  0.00     0.124 A 
ATOM      2  C1  UNL d   1      -0.047  -0.146   2.643  0.00  0.00     0.062 A 
ATOM      3  C2  UNL d   1      -1.067   0.562   3.272  0.00  0.00     0.162 A 
ATOM      4  C3  UNL d   1      -1.162   1.946   3.118  0.00  0.00    -0.034 A 
ATOM      5  C4  UNL d   1      -0.221   2.609   2.329  0.00  0.00     0.162 A 
ATOM      6  C5  UNL d   1       0.797   1.896   1.703  0.00  0.00     0.062 A 
ATOM      7  F   UNL d   1       1.696   2.542   0.946  0.00  0.00    -0.097 F 
ATOM      8  F1  UNL d   1      -0.282   3.938   2.160  0.00  0.00    -0.096 F 
ATOM      9  I   UNL d   1      -2.686   3.008   4.057  0.00  0.00    -0.060 I 
ATOM     10  F2  UNL d   1      -1.954  -0.107   4.023  0.00  0.00    -0.096 F 
ATOM     11  F3  UNL d   1       0.036  -1.475   2.796  0.00  0.00    -0.097 F 
ATOM     12  F4  UNL d   1       1.865  -0.163   1.256  0.00  0.00    -0.092 F 
ENDROOT
TORSDOF 0
ENDMDL
