MODEL 1
REMARK minimizedAffinity 23.1221123
REMARK minimizedRMSD -1
REMARK  0 active torsions:
REMARK  status: ('A' for Active; 'I' for Inactive)
ROOT
ATOM      1  C   UNL d   1       4.344   0.975  -2.119  0.00  0.00     0.124 A 
ATOM      2  C1  UNL d   1       4.648   0.230  -0.987  0.00  0.00     0.062 A 
ATOM      3  C2  UNL d   1       3.697   0.060   0.014  0.00  0.00     0.162 A 
ATOM      4  C3  UNL d   1       2.432   0.633  -0.111  0.00  0.00    -0.034 A 
ATOM      5  C4  UNL d   1       2.134   1.381  -1.251  0.00  0.00     0.162 A 
ATOM      6  C5  UNL d   1       3.088   1.549  -2.250  0.00  0.00     0.062 A 
ATOM      7  F   UNL d   1       2.792   2.269  -3.342  0.00  0.00    -0.097 F 
ATOM      8  F1  UNL d   1       0.927   1.947  -1.404  0.00  0.00    -0.096 F 
ATOM      9  I   UNL d   1       1.007   0.380   1.385  0.00  0.00    -0.060 I 
ATOM     10  F2  UNL d   1       4.018  -0.665   1.097  0.00  0.00    -0.096 F 
ATOM     11  F3  UNL d   1       5.861  -0.325  -0.858  0.00  0.00    -0.097 F 
ATOM     12  F4  UNL d   1       5.261   1.138  -3.081  0.00  0.00    -0.092 F 
ENDROOT
TORSDOF 0
ENDMDL
