MODEL 1
REMARK minimizedAffinity 29.8427677
REMARK minimizedRMSD -1
REMARK  0 active torsions:
REMARK  status: ('A' for Active; 'I' for Inactive)
ROOT
ATOM      1  C   UNL d   1       0.751   0.439   1.362  0.00  0.00     0.124 A 
ATOM      2  C1  UNL d   1      -0.187  -0.154   2.196  0.00  0.00     0.062 A 
ATOM      3  C2  UNL d   1      -1.073   0.634   2.925  0.00  0.00     0.162 A 
ATOM      4  C3  UNL d   1      -1.025   2.024   2.823  0.00  0.00    -0.034 A 
ATOM      5  C4  UNL d   1      -0.078   2.614   1.984  0.00  0.00     0.162 A 
ATOM      6  C5  UNL d   1       0.805   1.822   1.257  0.00  0.00     0.062 A 
ATOM      7  F   UNL d   1       1.711   2.396   0.452  0.00  0.00    -0.097 F 
ATOM      8  F1  UNL d   1      -0.005   3.947   1.863  0.00  0.00    -0.096 F 
ATOM      9  I   UNL d   1      -2.348   3.206   3.912  0.00  0.00    -0.060 I 
ATOM     10  F2  UNL d   1      -1.969   0.034   3.722  0.00  0.00    -0.096 F 
ATOM     11  F3  UNL d   1      -0.240  -1.490   2.300  0.00  0.00    -0.097 F 
ATOM     12  F4  UNL d   1       1.603  -0.322   0.663  0.00  0.00    -0.092 F 
ENDROOT
TORSDOF 0
ENDMDL
