MODEL 1
REMARK minimizedAffinity 6.27809572
REMARK minimizedRMSD -1
REMARK  0 active torsions:
REMARK  status: ('A' for Active; 'I' for Inactive)
ROOT
ATOM      1  C   UNL d   1       4.153  -0.106  -1.081  0.00  0.00     0.078 C 
ATOM      2  C1  UNL d   1       3.074  -1.147  -1.121  0.00  0.00    -0.077 A 
ATOM      3  C2  UNL d   1       2.224  -1.346  -0.027  0.00  0.00    -0.001 A 
ATOM      4  C3  UNL d   1       1.230  -2.326  -0.075  0.00  0.00     0.003 A 
ATOM      5  C4  UNL d   1       1.078  -3.113  -1.214  0.00  0.00    -0.005 A 
ATOM      6  C5  UNL d   1       1.922  -2.923  -2.307  0.00  0.00     0.003 A 
ATOM      7  C6  UNL d   1       2.916  -1.945  -2.261  0.00  0.00    -0.001 A 
ENDROOT
TORSDOF 0
ENDMDL
