MODEL 1
REMARK minimizedAffinity -1.26100874
REMARK minimizedRMSD -1
REMARK  0 active torsions:
REMARK  status: ('A' for Active; 'I' for Inactive)
ROOT
ATOM      1  C   UNL d   1       3.769   0.383  -0.985  0.00  0.00     0.078 C 
ATOM      2  C1  UNL d   1       2.462  -0.330  -0.803  0.00  0.00    -0.077 A 
ATOM      3  C2  UNL d   1       2.383  -1.725  -0.897  0.00  0.00    -0.001 A 
ATOM      4  C3  UNL d   1       1.159  -2.375  -0.735  0.00  0.00     0.003 A 
ATOM      5  C4  UNL d   1       0.004  -1.639  -0.478  0.00  0.00    -0.005 A 
ATOM      6  C5  UNL d   1       0.073  -0.250  -0.384  0.00  0.00     0.003 A 
ATOM      7  C6  UNL d   1       1.296   0.402  -0.546  0.00  0.00    -0.001 A 
ENDROOT
TORSDOF 0
ENDMDL
