MODEL 1
REMARK minimizedAffinity -1.37809157
REMARK minimizedRMSD -1
REMARK  0 active torsions:
REMARK  status: ('A' for Active; 'I' for Inactive)
ROOT
ATOM      1  C   UNL d   1      -1.433  -2.095  -3.230  0.00  0.00     0.078 C 
ATOM      2  C1  UNL d   1      -0.845  -1.321  -2.088  0.00  0.00    -0.077 A 
ATOM      3  C2  UNL d   1      -1.133   0.038  -1.914  0.00  0.00    -0.001 A 
ATOM      4  C3  UNL d   1      -0.571   0.748  -0.852  0.00  0.00     0.003 A 
ATOM      5  C4  UNL d   1       0.284   0.108   0.043  0.00  0.00    -0.005 A 
ATOM      6  C5  UNL d   1       0.578  -1.244  -0.123  0.00  0.00     0.003 A 
ATOM      7  C6  UNL d   1       0.017  -1.955  -1.185  0.00  0.00    -0.001 A 
ENDROOT
TORSDOF 0
ENDMDL
