MODEL 1
REMARK minimizedAffinity 0.0233120583
REMARK minimizedRMSD -1
REMARK  0 active torsions:
REMARK  status: ('A' for Active; 'I' for Inactive)
ROOT
ATOM      1  C   UNL d   1       5.583   0.945  -1.395  0.00  0.00     0.078 C 
ATOM      2  C1  UNL d   1       4.736  -0.219  -1.816  0.00  0.00    -0.077 A 
ATOM      3  C2  UNL d   1       3.623  -0.611  -1.063  0.00  0.00    -0.001 A 
ATOM      4  C3  UNL d   1       2.849  -1.702  -1.462  0.00  0.00     0.003 A 
ATOM      5  C4  UNL d   1       3.182  -2.412  -2.614  0.00  0.00    -0.005 A 
ATOM      6  C5  UNL d   1       4.289  -2.031  -3.369  0.00  0.00     0.003 A 
ATOM      7  C6  UNL d   1       5.064  -0.940  -2.972  0.00  0.00    -0.001 A 
ENDROOT
TORSDOF 0
ENDMDL
