MODEL 1
REMARK minimizedAffinity -4.4967618
REMARK minimizedRMSD -1
REMARK  0 active torsions:
REMARK  status: ('A' for Active; 'I' for Inactive)
ROOT
ATOM      1  C   UNL d   1       3.702   0.211  -1.173  0.00  0.00     0.078 C 
ATOM      2  C1  UNL d   1       2.480  -0.657  -1.225  0.00  0.00    -0.077 A 
ATOM      3  C2  UNL d   1       2.584  -2.040  -1.414  0.00  0.00    -0.001 A 
ATOM      4  C3  UNL d   1       1.437  -2.834  -1.470  0.00  0.00     0.003 A 
ATOM      5  C4  UNL d   1       0.178  -2.253  -1.338  0.00  0.00    -0.005 A 
ATOM      6  C5  UNL d   1       0.063  -0.877  -1.152  0.00  0.00     0.003 A 
ATOM      7  C6  UNL d   1       1.209  -0.081  -1.096  0.00  0.00    -0.001 A 
ENDROOT
TORSDOF 0
ENDMDL
