MODEL 1
REMARK minimizedAffinity -0.975148916
REMARK minimizedRMSD -1
REMARK  0 active torsions:
REMARK  status: ('A' for Active; 'I' for Inactive)
ROOT
ATOM      1  C   UNL d   1      -0.408   5.621   2.650  0.00  0.00     0.078 C 
ATOM      2  C1  UNL d   1      -1.519   4.614   2.630  0.00  0.00    -0.077 A 
ATOM      3  C2  UNL d   1      -1.446   3.444   3.396  0.00  0.00    -0.001 A 
ATOM      4  C3  UNL d   1      -2.484   2.511   3.360  0.00  0.00     0.003 A 
ATOM      5  C4  UNL d   1      -3.602   2.739   2.561  0.00  0.00    -0.005 A 
ATOM      6  C5  UNL d   1      -3.683   3.899   1.794  0.00  0.00     0.003 A 
ATOM      7  C6  UNL d   1      -2.646   4.833   1.828  0.00  0.00    -0.001 A 
ENDROOT
TORSDOF 0
ENDMDL
