MODEL 1
REMARK minimizedAffinity 0.0237731785
REMARK minimizedRMSD -1
REMARK  0 active torsions:
REMARK  status: ('A' for Active; 'I' for Inactive)
ROOT
ATOM      1  C   UNL d   1       4.324   0.328  -1.759  0.00  0.00     0.078 C 
ATOM      2  C1  UNL d   1       3.011  -0.273  -1.353  0.00  0.00    -0.077 A 
ATOM      3  C2  UNL d   1       2.789  -1.652  -1.447  0.00  0.00    -0.001 A 
ATOM      4  C3  UNL d   1       1.559  -2.196  -1.075  0.00  0.00     0.003 A 
ATOM      5  C4  UNL d   1       0.540  -1.368  -0.608  0.00  0.00    -0.005 A 
ATOM      6  C5  UNL d   1       0.751   0.006  -0.513  0.00  0.00     0.003 A 
ATOM      7  C6  UNL d   1       1.981   0.552  -0.884  0.00  0.00    -0.001 A 
ENDROOT
TORSDOF 0
ENDMDL
