MODEL 1
REMARK minimizedAffinity -3.52877617
REMARK minimizedRMSD -1
REMARK  0 active torsions:
REMARK  status: ('A' for Active; 'I' for Inactive)
ROOT
ATOM      1  C   UNL d   1       1.079  -1.924  -0.189  0.00  0.00     0.078 C 
ATOM      2  C1  UNL d   1       0.412  -0.586  -0.087  0.00  0.00    -0.077 A 
ATOM      3  C2  UNL d   1      -0.773  -0.315  -0.783  0.00  0.00    -0.001 A 
ATOM      4  C3  UNL d   1      -1.378   0.939  -0.685  0.00  0.00     0.003 A 
ATOM      5  C4  UNL d   1      -0.805   1.933   0.106  0.00  0.00    -0.005 A 
ATOM      6  C5  UNL d   1       0.375   1.674   0.800  0.00  0.00     0.003 A 
ATOM      7  C6  UNL d   1       0.981   0.420   0.705  0.00  0.00    -0.001 A 
ENDROOT
TORSDOF 0
ENDMDL
