MODEL 1
REMARK minimizedAffinity -4.42851162
REMARK minimizedRMSD -1
REMARK  1 active torsions:
REMARK  status: ('A' for Active; 'I' for Inactive)
REMARK    1  A    between atoms: C1_2  and  C2_3 
ROOT
ATOM      1  C2  UNL d   1      -1.122  -1.491  -0.380  0.00  0.00    -0.081 A 
ATOM      2  C3  UNL d   1       0.167  -1.027  -0.088  0.00  0.00     0.006 A 
ATOM      3  C4  UNL d   1       0.352   0.044   0.789  0.00  0.00     0.002 A 
ATOM      4  C5  UNL d   1      -0.746   0.664   1.394  0.00  0.00    -0.080 A 
ATOM      5  C6  UNL d   1      -0.559   1.795   2.361  0.00  0.00     0.076 C 
ATOM      6  C7  UNL d   1      -2.035   0.212   1.089  0.00  0.00     0.002 A 
ATOM      7  C8  UNL d   1      -2.221  -0.859   0.212  0.00  0.00     0.006 A 
ENDROOT
BRANCH   1   8
ATOM      8  C1  UNL d   1      -1.321  -2.687  -1.276  0.00  0.00     0.054 C 
ATOM      9  C   UNL d   1      -2.564  -3.472  -0.881  0.00  0.00     0.018 C 
ENDBRANCH   1   8
TORSDOF 1
ENDMDL
