MODEL 1
REMARK minimizedAffinity 2.30923986
REMARK minimizedRMSD -1
REMARK  1 active torsions:
REMARK  status: ('A' for Active; 'I' for Inactive)
REMARK    1  A    between atoms: C1_2  and  C2_3 
ROOT
ATOM      1  C2  UNL d   1       1.093   0.019  -1.981  0.00  0.00    -0.081 A 
ATOM      2  C3  UNL d   1       0.222   1.059  -1.634  0.00  0.00     0.006 A 
ATOM      3  C4  UNL d   1      -0.078   1.313  -0.294  0.00  0.00     0.002 A 
ATOM      4  C5  UNL d   1       0.493   0.538   0.721  0.00  0.00    -0.080 A 
ATOM      5  C6  UNL d   1       0.202   0.820   2.165  0.00  0.00     0.076 C 
ATOM      6  C7  UNL d   1       1.349  -0.512   0.373  0.00  0.00     0.002 A 
ATOM      7  C8  UNL d   1       1.649  -0.768  -0.966  0.00  0.00     0.006 A 
ENDROOT
BRANCH   1   8
ATOM      8  C1  UNL d   1       1.469  -0.217  -3.422  0.00  0.00     0.054 C 
ATOM      9  C   UNL d   1       1.143   0.993  -4.285  0.00  0.00     0.018 C 
ENDBRANCH   1   8
TORSDOF 1
ENDMDL
