MODEL 1
REMARK minimizedAffinity 3.90586972
REMARK minimizedRMSD -1
REMARK  1 active torsions:
REMARK  status: ('A' for Active; 'I' for Inactive)
REMARK    1  A    between atoms: C1_2  and  C2_3 
ROOT
ATOM      1  C2  UNL d   1       0.935  -0.031   1.516  0.00  0.00    -0.081 A 
ATOM      2  C3  UNL d   1       0.052   0.294   2.553  0.00  0.00     0.006 A 
ATOM      3  C4  UNL d   1      -1.307   0.485   2.292  0.00  0.00     0.002 A 
ATOM      4  C5  UNL d   1      -1.806   0.347   0.992  0.00  0.00    -0.080 A 
ATOM      5  C6  UNL d   1      -3.268   0.520   0.704  0.00  0.00     0.076 C 
ATOM      6  C7  UNL d   1      -0.921   0.040  -0.046  0.00  0.00     0.002 A 
ATOM      7  C8  UNL d   1       0.437  -0.151   0.214  0.00  0.00     0.006 A 
ENDROOT
BRANCH   1   8
ATOM      8  C1  UNL d   1       2.390  -0.302   1.804  0.00  0.00     0.054 C 
ATOM      9  C   UNL d   1       2.730  -0.004   3.257  0.00  0.00     0.018 C 
ENDBRANCH   1   8
TORSDOF 1
ENDMDL
