MODEL 1
REMARK minimizedAffinity -2.94401789
REMARK minimizedRMSD -1
REMARK  1 active torsions:
REMARK  status: ('A' for Active; 'I' for Inactive)
REMARK    1  A    between atoms: C1_2  and  C2_3 
ROOT
ATOM      1  C2  UNL d   1      -1.153  -1.217  -0.204  0.00  0.00    -0.081 A 
ATOM      2  C3  UNL d   1       0.183  -0.882   0.048  0.00  0.00     0.006 A 
ATOM      3  C4  UNL d   1       0.501   0.115   0.974  0.00  0.00     0.002 A 
ATOM      4  C5  UNL d   1      -0.511   0.786   1.669  0.00  0.00    -0.080 A 
ATOM      5  C6  UNL d   1      -0.182   1.836   2.688  0.00  0.00     0.076 C 
ATOM      6  C7  UNL d   1      -1.846   0.463   1.406  0.00  0.00     0.002 A 
ATOM      7  C8  UNL d   1      -2.164  -0.533   0.479  0.00  0.00     0.006 A 
ENDROOT
BRANCH   1   8
ATOM      8  C1  UNL d   1      -1.496  -2.336  -1.154  0.00  0.00     0.054 C 
ATOM      9  C   UNL d   1      -2.773  -3.048  -0.732  0.00  0.00     0.018 C 
ENDBRANCH   1   8
TORSDOF 1
ENDMDL
