MODEL 1
REMARK minimizedAffinity 1.84361863
REMARK minimizedRMSD -1
REMARK  0 active torsions:
REMARK  status: ('A' for Active; 'I' for Inactive)
ROOT
ATOM      1  N1  IND d   1       2.135  -4.622  -0.044  0.00  0.00    -0.196 N 
ATOM      2  C2  IND d   1       3.414  -4.210  -0.295  0.00  0.00     0.054 A 
ATOM      3  C3  IND d   1       3.529  -2.880  -0.082  0.00  0.00    -0.031 A 
ATOM      4  C4  IND d   1       1.776  -1.203   0.781  0.00  0.00     0.051 A 
ATOM      5  C5  IND d   1       0.455  -1.103   1.114  0.00  0.00    -0.031 A 
ATOM      6  C6  IND d   1      -0.391  -2.193   1.081  0.00  0.00     0.015 A 
ATOM      7  C7  IND d   1       0.059  -3.432   0.722  0.00  0.00    -0.016 A 
ATOM      8  C8  IND d   1       1.398  -3.537   0.376  0.00  0.00    -0.047 A 
ATOM      9  C9  IND d   1       2.251  -2.425   0.367  0.00  0.00    -0.096 A 
ATOM     10  HN1 IND d   1       1.840  -5.425  -0.132  0.00  0.00     0.298 HD
ENDROOT
TORSDOF 0
ENDMDL
