MODEL 1
REMARK minimizedAffinity -3.15783906
REMARK minimizedRMSD -1
REMARK  0 active torsions:
REMARK  status: ('A' for Active; 'I' for Inactive)
ROOT
ATOM      1  N1  IND d   1      -0.379  -3.398   0.795  0.00  0.00    -0.196 N 
ATOM      2  C2  IND d   1      -1.458  -2.582   0.991  0.00  0.00     0.054 A 
ATOM      3  C3  IND d   1      -1.091  -1.285   0.887  0.00  0.00    -0.031 A 
ATOM      4  C4  IND d   1       1.203  -0.276   0.300  0.00  0.00     0.051 A 
ATOM      5  C5  IND d   1       2.505  -0.622   0.070  0.00  0.00    -0.031 A 
ATOM      6  C6  IND d   1       2.920  -1.938   0.068  0.00  0.00     0.015 A 
ATOM      7  C7  IND d   1       2.042  -2.962   0.285  0.00  0.00    -0.016 A 
ATOM      8  C8  IND d   1       0.721  -2.614   0.525  0.00  0.00    -0.047 A 
ATOM      9  C9  IND d   1       0.302  -1.278   0.571  0.00  0.00    -0.096 A 
ATOM     10  HN1 IND d   1      -0.386  -4.257   0.834  0.00  0.00     0.298 HD
ENDROOT
TORSDOF 0
ENDMDL
