MODEL 1
REMARK minimizedAffinity -0.725533545
REMARK minimizedRMSD -1
REMARK  0 active torsions:
REMARK  status: ('A' for Active; 'I' for Inactive)
ROOT
ATOM      1  N1  IND d   1       2.208  -4.409   0.036  0.00  0.00    -0.196 N 
ATOM      2  C2  IND d   1       3.490  -3.951  -0.092  0.00  0.00     0.054 A 
ATOM      3  C3  IND d   1       3.530  -2.611   0.082  0.00  0.00    -0.031 A 
ATOM      4  C4  IND d   1       1.629  -0.983   0.684  0.00  0.00     0.051 A 
ATOM      5  C5  IND d   1       0.276  -0.927   0.869  0.00  0.00    -0.031 A 
ATOM      6  C6  IND d   1      -0.518  -2.053   0.786  0.00  0.00     0.015 A 
ATOM      7  C7  IND d   1       0.016  -3.284   0.526  0.00  0.00    -0.016 A 
ATOM      8  C8  IND d   1       1.389  -3.342   0.331  0.00  0.00    -0.047 A 
ATOM      9  C9  IND d   1       2.194  -2.197   0.372  0.00  0.00    -0.096 A 
ATOM     10  HN1 IND d   1       1.957  -5.227  -0.053  0.00  0.00     0.298 HD
ENDROOT
TORSDOF 0
ENDMDL
