MODEL 1
REMARK minimizedAffinity 2.34585929
REMARK minimizedRMSD -1
REMARK  0 active torsions:
REMARK  status: ('A' for Active; 'I' for Inactive)
ROOT
ATOM      1  N1  IND d   1       0.531  -1.416   1.088  0.00  0.00    -0.196 N 
ATOM      2  C2  IND d   1      -0.384  -2.400   0.836  0.00  0.00     0.054 A 
ATOM      3  C3  IND d   1       0.210  -3.448   0.222  0.00  0.00    -0.031 A 
ATOM      4  C4  IND d   1       2.689  -3.806  -0.371  0.00  0.00     0.051 A 
ATOM      5  C5  IND d   1       3.899  -3.172  -0.369  0.00  0.00    -0.031 A 
ATOM      6  C6  IND d   1       4.053  -1.896   0.131  0.00  0.00     0.015 A 
ATOM      7  C7  IND d   1       2.999  -1.207   0.661  0.00  0.00    -0.016 A 
ATOM      8  C8  IND d   1       1.767  -1.845   0.654  0.00  0.00    -0.047 A 
ATOM      9  C9  IND d   1       1.596  -3.124   0.109  0.00  0.00    -0.096 A 
ATOM     10  HN1 IND d   1       0.364  -0.657   1.456  0.00  0.00     0.298 HD
ENDROOT
TORSDOF 0
ENDMDL
