MODEL 1
REMARK minimizedAffinity 1.49700236
REMARK minimizedRMSD -1
REMARK  0 active torsions:
REMARK  status: ('A' for Active; 'I' for Inactive)
ROOT
ATOM      1  N1  IND d   1       2.706  -2.813   0.648  0.00  0.00    -0.196 N 
ATOM      2  C2  IND d   1       2.204  -4.033   0.290  0.00  0.00     0.054 A 
ATOM      3  C3  IND d   1       0.861  -3.966   0.148  0.00  0.00    -0.031 A 
ATOM      4  C4  IND d   1      -0.706  -1.934   0.355  0.00  0.00     0.051 A 
ATOM      5  C5  IND d   1      -0.716  -0.612   0.700  0.00  0.00    -0.031 A 
ATOM      6  C6  IND d   1       0.439   0.058   1.050  0.00  0.00     0.015 A 
ATOM      7  C7  IND d   1       1.652  -0.569   1.057  0.00  0.00    -0.016 A 
ATOM      8  C8  IND d   1       1.665  -1.913   0.714  0.00  0.00    -0.047 A 
ATOM      9  C9  IND d   1       0.491  -2.610   0.398  0.00  0.00    -0.096 A 
ATOM     10  HN1 IND d   1       3.532  -2.638   0.805  0.00  0.00     0.298 HD
ENDROOT
TORSDOF 0
ENDMDL
