MODEL 1
REMARK minimizedAffinity 0.377942413
REMARK minimizedRMSD -1
REMARK  0 active torsions:
REMARK  status: ('A' for Active; 'I' for Inactive)
ROOT
ATOM      1  N1  IND d   1       2.222  -3.165   0.654  0.00  0.00    -0.196 N 
ATOM      2  C2  IND d   1       1.360  -4.175   0.331  0.00  0.00     0.054 A 
ATOM      3  C3  IND d   1       0.088  -3.719   0.306  0.00  0.00    -0.031 A 
ATOM      4  C4  IND d   1      -0.799  -1.329   0.665  0.00  0.00     0.051 A 
ATOM      5  C5  IND d   1      -0.395  -0.072   1.021  0.00  0.00    -0.031 A 
ATOM      6  C6  IND d   1       0.928   0.224   1.276  0.00  0.00     0.015 A 
ATOM      7  C7  IND d   1       1.904  -0.727   1.172  0.00  0.00    -0.016 A 
ATOM      8  C8  IND d   1       1.497  -2.005   0.817  0.00  0.00    -0.047 A 
ATOM      9  C9  IND d   1       0.150  -2.322   0.599  0.00  0.00    -0.096 A 
ATOM     10  HN1 IND d   1       3.074  -3.241   0.741  0.00  0.00     0.298 HD
ENDROOT
TORSDOF 0
ENDMDL
