MODEL 1
REMARK minimizedAffinity -4.23661852
REMARK minimizedRMSD -1
REMARK  0 active torsions:
REMARK  status: ('A' for Active; 'I' for Inactive)
ROOT
ATOM      1  N1  IND d   1       1.334  -3.792   0.054  0.00  0.00    -0.196 N 
ATOM      2  C2  IND d   1       2.566  -3.473  -0.443  0.00  0.00     0.054 A 
ATOM      3  C3  IND d   1       2.809  -2.153  -0.287  0.00  0.00    -0.031 A 
ATOM      4  C4  IND d   1       1.367  -0.348   0.850  0.00  0.00     0.051 A 
ATOM      5  C5  IND d   1       0.142  -0.151   1.423  0.00  0.00    -0.031 A 
ATOM      6  C6  IND d   1      -0.765  -1.179   1.575  0.00  0.00     0.015 A 
ATOM      7  C7  IND d   1      -0.476  -2.451   1.167  0.00  0.00    -0.016 A 
ATOM      8  C8  IND d   1       0.764  -2.653   0.578  0.00  0.00    -0.047 A 
ATOM      9  C9  IND d   1       1.672  -1.605   0.383  0.00  0.00    -0.096 A 
ATOM     10  HN1 IND d   1       0.974  -4.573   0.041  0.00  0.00     0.298 HD
ENDROOT
TORSDOF 0
ENDMDL
