MODEL 1
REMARK minimizedAffinity -0.692302406
REMARK minimizedRMSD -1
REMARK  0 active torsions:
REMARK  status: ('A' for Active; 'I' for Inactive)
ROOT
ATOM      1  N1  IND d   1      -0.190  -3.455   0.737  0.00  0.00    -0.196 N 
ATOM      2  C2  IND d   1      -0.701  -2.272   1.192  0.00  0.00     0.054 A 
ATOM      3  C3  IND d   1       0.258  -1.318   1.201  0.00  0.00    -0.031 A 
ATOM      4  C4  IND d   1       2.705  -1.453   0.415  0.00  0.00     0.051 A 
ATOM      5  C5  IND d   1       3.642  -2.335  -0.046  0.00  0.00    -0.031 A 
ATOM      6  C6  IND d   1       3.342  -3.662  -0.278  0.00  0.00     0.015 A 
ATOM      7  C7  IND d   1       2.086  -4.155  -0.066  0.00  0.00    -0.016 A 
ATOM      8  C8  IND d   1       1.134  -3.264   0.409  0.00  0.00    -0.047 A 
ATOM      9  C9  IND d   1       1.443  -1.926   0.687  0.00  0.00    -0.096 A 
ATOM     10  HN1 IND d   1      -0.624  -4.195   0.666  0.00  0.00     0.298 HD
ENDROOT
TORSDOF 0
ENDMDL
