MODEL 1
REMARK minimizedAffinity -1.85670638
REMARK minimizedRMSD -1
REMARK  0 active torsions:
REMARK  status: ('A' for Active; 'I' for Inactive)
ROOT
ATOM      1  N1  IND d   1       2.104  -3.828  -0.135  0.00  0.00    -0.196 N 
ATOM      2  C2  IND d   1       3.378  -3.357  -0.287  0.00  0.00     0.054 A 
ATOM      3  C3  IND d   1       3.410  -2.018  -0.100  0.00  0.00    -0.031 A 
ATOM      4  C4  IND d   1       1.509  -0.414   0.563  0.00  0.00     0.051 A 
ATOM      5  C5  IND d   1       0.160  -0.373   0.778  0.00  0.00    -0.031 A 
ATOM      6  C6  IND d   1      -0.625  -1.505   0.701  0.00  0.00     0.015 A 
ATOM      7  C7  IND d   1      -0.087  -2.728   0.416  0.00  0.00    -0.016 A 
ATOM      8  C8  IND d   1       1.282  -2.772   0.190  0.00  0.00    -0.047 A 
ATOM      9  C9  IND d   1       2.077  -1.619   0.225  0.00  0.00    -0.096 A 
ATOM     10  HN1 IND d   1       1.858  -4.647  -0.227  0.00  0.00     0.298 HD
ENDROOT
TORSDOF 0
ENDMDL
