MODEL 1
REMARK minimizedAffinity 4.34262609
REMARK minimizedRMSD -1
REMARK  0 active torsions:
REMARK  status: ('A' for Active; 'I' for Inactive)
ROOT
ATOM      1  N1  IND d   1       0.813  -1.564   1.596  0.00  0.00    -0.196 N 
ATOM      2  C2  IND d   1       0.590  -2.564   0.691  0.00  0.00     0.054 A 
ATOM      3  C3  IND d   1      -0.667  -2.482   0.199  0.00  0.00    -0.031 A 
ATOM      4  C4  IND d   1      -2.493  -0.727   0.662  0.00  0.00     0.051 A 
ATOM      5  C5  IND d   1      -2.769   0.359   1.443  0.00  0.00    -0.031 A 
ATOM      6  C6  IND d   1      -1.846   0.872   2.332  0.00  0.00     0.015 A 
ATOM      7  C7  IND d   1      -0.603   0.322   2.464  0.00  0.00    -0.016 A 
ATOM      8  C8  IND d   1      -0.321  -0.785   1.677  0.00  0.00    -0.047 A 
ATOM      9  C9  IND d   1      -1.268  -1.336   0.804  0.00  0.00    -0.096 A 
ATOM     10  HN1 IND d   1       1.539  -1.441   2.039  0.00  0.00     0.298 HD
ENDROOT
TORSDOF 0
ENDMDL
