MODEL 1
REMARK minimizedAffinity -3.64504838
REMARK minimizedRMSD -1
REMARK  0 active torsions:
REMARK  status: ('A' for Active; 'I' for Inactive)
ROOT
ATOM      1  N1  IND d   1       3.301  -2.396   0.628  0.00  0.00    -0.196 N 
ATOM      2  C2  IND d   1       3.212  -3.675   0.155  0.00  0.00     0.054 A 
ATOM      3  C3  IND d   1       1.920  -4.008  -0.063  0.00  0.00    -0.031 A 
ATOM      4  C4  IND d   1      -0.203  -2.575   0.193  0.00  0.00     0.051 A 
ATOM      5  C5  IND d   1      -0.632  -1.354   0.631  0.00  0.00    -0.031 A 
ATOM      6  C6  IND d   1       0.246  -0.397   1.097  0.00  0.00     0.015 A 
ATOM      7  C7  IND d   1       1.593  -0.623   1.132  0.00  0.00    -0.016 A 
ATOM      8  C8  IND d   1       2.031  -1.865   0.695  0.00  0.00    -0.047 A 
ATOM      9  C9  IND d   1       1.141  -2.855   0.261  0.00  0.00    -0.096 A 
ATOM     10  HN1 IND d   1       4.027  -1.992   0.848  0.00  0.00     0.298 HD
ENDROOT
TORSDOF 0
ENDMDL
