MODEL 1
REMARK minimizedAffinity -2.56506157
REMARK minimizedRMSD -1
REMARK  0 active torsions:
REMARK  status: ('A' for Active; 'I' for Inactive)
ROOT
ATOM      1  N1  IND d   1       1.564  -3.638  -0.289  0.00  0.00    -0.196 N 
ATOM      2  C2  IND d   1       2.908  -3.389  -0.285  0.00  0.00     0.054 A 
ATOM      3  C3  IND d   1       3.160  -2.170   0.242  0.00  0.00    -0.031 A 
ATOM      4  C4  IND d   1       1.526  -0.457   1.255  0.00  0.00     0.051 A 
ATOM      5  C5  IND d   1       0.193  -0.221   1.443  0.00  0.00    -0.031 A 
ATOM      6  C6  IND d   1      -0.770  -1.131   1.059  0.00  0.00     0.015 A 
ATOM      7  C7  IND d   1      -0.434  -2.322   0.479  0.00  0.00    -0.016 A 
ATOM      8  C8  IND d   1       0.918  -2.562   0.279  0.00  0.00    -0.047 A 
ATOM      9  C9  IND d   1       1.897  -1.624   0.629  0.00  0.00    -0.096 A 
ATOM     10  HN1 IND d   1       1.186  -4.346  -0.595  0.00  0.00     0.298 HD
ENDROOT
TORSDOF 0
ENDMDL
