MODEL 1
REMARK minimizedAffinity -2.29888797
REMARK minimizedRMSD -1
REMARK  0 active torsions:
REMARK  status: ('A' for Active; 'I' for Inactive)
ROOT
ATOM      1  N1  IND d   1       3.384  -2.339   0.228  0.00  0.00    -0.196 N 
ATOM      2  C2  IND d   1       3.289  -3.691   0.048  0.00  0.00     0.054 A 
ATOM      3  C3  IND d   1       2.006  -4.095   0.187  0.00  0.00    -0.031 A 
ATOM      4  C4  IND d   1      -0.112  -2.695   0.609  0.00  0.00     0.051 A 
ATOM      5  C5  IND d   1      -0.525  -1.420   0.879  0.00  0.00    -0.031 A 
ATOM      6  C6  IND d   1       0.362  -0.365   0.944  0.00  0.00     0.015 A 
ATOM      7  C7  IND d   1       1.699  -0.544   0.729  0.00  0.00    -0.016 A 
ATOM      8  C8  IND d   1       2.123  -1.838   0.462  0.00  0.00    -0.047 A 
ATOM      9  C9  IND d   1       1.233  -2.920   0.437  0.00  0.00    -0.096 A 
ATOM     10  HN1 IND d   1       4.110  -1.879   0.200  0.00  0.00     0.298 HD
ENDROOT
TORSDOF 0
ENDMDL
