MODEL 1
REMARK minimizedAffinity 1.66663587
REMARK minimizedRMSD -1
REMARK  0 active torsions:
REMARK  status: ('A' for Active; 'I' for Inactive)
ROOT
ATOM      1  N1  IND d   1      -0.637  -3.107   0.054  0.00  0.00    -0.196 N 
ATOM      2  C2  IND d   1      -1.609  -2.799   0.964  0.00  0.00     0.054 A 
ATOM      3  C3  IND d   1      -1.210  -1.773   1.749  0.00  0.00    -0.031 A 
ATOM      4  C4  IND d   1       0.953  -0.382   1.649  0.00  0.00     0.051 A 
ATOM      5  C5  IND d   1       2.159  -0.309   1.009  0.00  0.00    -0.031 A 
ATOM      6  C6  IND d   1       2.500  -1.182  -0.005  0.00  0.00     0.015 A 
ATOM      7  C7  IND d   1       1.640  -2.156  -0.425  0.00  0.00    -0.016 A 
ATOM      8  C8  IND d   1       0.417  -2.237   0.227  0.00  0.00    -0.047 A 
ATOM      9  C9  IND d   1       0.083  -1.381   1.285  0.00  0.00    -0.096 A 
ATOM     10  HN1 IND d   1      -0.677  -3.737  -0.530  0.00  0.00     0.298 HD
ENDROOT
TORSDOF 0
ENDMDL
