MODEL 1
REMARK minimizedAffinity -1.7454313
REMARK minimizedRMSD -1
REMARK  0 active torsions:
REMARK  status: ('A' for Active; 'I' for Inactive)
ROOT
ATOM      1  N1  IND d   1      -0.593  -1.562   1.053  0.00  0.00    -0.196 N 
ATOM      2  C2  IND d   1      -0.288  -0.242   1.236  0.00  0.00     0.054 A 
ATOM      3  C3  IND d   1       0.993  -0.001   0.877  0.00  0.00    -0.031 A 
ATOM      4  C4  IND d   1       2.738  -1.603  -0.130  0.00  0.00     0.051 A 
ATOM      5  C5  IND d   1       2.937  -2.917  -0.449  0.00  0.00    -0.031 A 
ATOM      6  C6  IND d   1       1.949  -3.866  -0.282  0.00  0.00     0.015 A 
ATOM      7  C7  IND d   1       0.715  -3.531   0.201  0.00  0.00    -0.016 A 
ATOM      8  C8  IND d   1       0.512  -2.199   0.532  0.00  0.00    -0.047 A 
ATOM      9  C9  IND d   1       1.525  -1.240   0.405  0.00  0.00    -0.096 A 
ATOM     10  HN1 IND d   1      -1.348  -1.932   1.234  0.00  0.00     0.298 HD
ENDROOT
TORSDOF 0
ENDMDL
