MODEL 1
REMARK minimizedAffinity -3.34588456
REMARK minimizedRMSD -1
REMARK  2 active torsions:
REMARK  status: ('A' for Active; 'I' for Inactive)
REMARK    1  A    between atoms: C1_2  and  C2_3 
REMARK    2  A    between atoms: C2_3  and  C3_4 
ROOT
ATOM      1  C3  UNL d   1      -0.240   1.644   0.110  0.00  0.00    -0.075 A 
ATOM      2  C4  UNL d   1      -0.183   1.750   1.507  0.00  0.00     0.002 A 
ATOM      3  C5  UNL d   1      -1.092   2.554   2.195  0.00  0.00     0.002 A 
ATOM      4  C6  UNL d   1      -2.063   3.269   1.495  0.00  0.00    -0.004 A 
ATOM      5  C7  UNL d   1      -2.119   3.184   0.106  0.00  0.00     0.002 A 
ATOM      6  C8  UNL d   1      -1.213   2.377  -0.584  0.00  0.00     0.002 A 
ENDROOT
BRANCH   1   7
ATOM      7  C2  UNL d   1       0.722   0.753  -0.638  0.00  0.00     0.056 C 
BRANCH   7   8
ATOM      8  C1  UNL d   1       0.851  -0.657  -0.052  0.00  0.00     0.007 C 
ATOM      9  C   UNL d   1      -0.464  -1.426  -0.045  0.00  0.00     0.009 C 
ENDBRANCH   7   8
ENDBRANCH   1   7
TORSDOF 2
ENDMDL
