MODEL 1
REMARK minimizedAffinity 3.02245569
REMARK minimizedRMSD -1
REMARK  2 active torsions:
REMARK  status: ('A' for Active; 'I' for Inactive)
REMARK    1  A    between atoms: C1_2  and  C2_3 
REMARK    2  A    between atoms: C2_3  and  C3_4 
ROOT
ATOM      1  C3  UNL d   1      -0.972   2.556   1.006  0.00  0.00    -0.075 A 
ATOM      2  C4  UNL d   1       0.202   2.363   0.264  0.00  0.00     0.002 A 
ATOM      3  C5  UNL d   1       0.158   1.739  -0.982  0.00  0.00     0.002 A 
ATOM      4  C6  UNL d   1      -1.057   1.292  -1.498  0.00  0.00    -0.004 A 
ATOM      5  C7  UNL d   1      -2.227   1.464  -0.762  0.00  0.00     0.002 A 
ATOM      6  C8  UNL d   1      -2.186   2.092   0.484  0.00  0.00     0.002 A 
ENDROOT
BRANCH   1   7
ATOM      7  C2  UNL d   1      -0.934   3.257   2.343  0.00  0.00     0.056 C 
BRANCH   7   8
ATOM      8  C1  UNL d   1       0.314   2.946   3.176  0.00  0.00     0.007 C 
ATOM      9  C   UNL d   1       0.876   4.166   3.894  0.00  0.00     0.009 C 
ENDBRANCH   7   8
ENDBRANCH   1   7
TORSDOF 2
ENDMDL
