MODEL 1
REMARK minimizedAffinity -0.161558196
REMARK minimizedRMSD -1
REMARK  2 active torsions:
REMARK  status: ('A' for Active; 'I' for Inactive)
REMARK    1  A    between atoms: C1_2  and  C2_3 
REMARK    2  A    between atoms: C2_3  and  C3_4 
ROOT
ATOM      1  C3  UNL d   1       0.058  -0.034   1.939  0.00  0.00    -0.075 A 
ATOM      2  C4  UNL d   1      -0.524  -0.066   0.663  0.00  0.00     0.002 A 
ATOM      3  C5  UNL d   1      -1.366   0.963   0.243  0.00  0.00     0.002 A 
ATOM      4  C6  UNL d   1      -1.645   2.030   1.094  0.00  0.00    -0.004 A 
ATOM      5  C7  UNL d   1      -1.086   2.064   2.370  0.00  0.00     0.002 A 
ATOM      6  C8  UNL d   1      -0.239   1.037   2.791  0.00  0.00     0.002 A 
ENDROOT
BRANCH   1   7
ATOM      7  C2  UNL d   1       0.995  -1.131   2.388  0.00  0.00     0.056 C 
BRANCH   7   8
ATOM      8  C1  UNL d   1       0.527  -1.874   3.644  0.00  0.00     0.007 C 
ATOM      9  C   UNL d   1       1.661  -2.564   4.391  0.00  0.00     0.009 C 
ENDBRANCH   7   8
ENDBRANCH   1   7
TORSDOF 2
ENDMDL
