MODEL 1
REMARK minimizedAffinity -4.53767681
REMARK minimizedRMSD -1
REMARK  2 active torsions:
REMARK  status: ('A' for Active; 'I' for Inactive)
REMARK    1  A    between atoms: C1_2  and  C2_3 
REMARK    2  A    between atoms: C2_3  and  C3_4 
ROOT
ATOM      1  C3  UNL d   1       0.232  -1.939  -1.020  0.00  0.00    -0.075 A 
ATOM      2  C4  UNL d   1      -0.984  -1.770  -0.342  0.00  0.00     0.002 A 
ATOM      3  C5  UNL d   1      -1.336  -0.526   0.182  0.00  0.00     0.002 A 
ATOM      4  C6  UNL d   1      -0.475   0.560   0.044  0.00  0.00    -0.004 A 
ATOM      5  C7  UNL d   1       0.743   0.400  -0.613  0.00  0.00     0.002 A 
ATOM      6  C8  UNL d   1       1.096  -0.843  -1.142  0.00  0.00     0.002 A 
ENDROOT
BRANCH   1   7
ATOM      7  C2  UNL d   1       0.605  -3.276  -1.615  0.00  0.00     0.056 C 
BRANCH   7   8
ATOM      8  C1  UNL d   1       1.981  -3.790  -1.178  0.00  0.00     0.007 C 
ATOM      9  C   UNL d   1       1.952  -5.227  -0.674  0.00  0.00     0.009 C 
ENDBRANCH   7   8
ENDBRANCH   1   7
TORSDOF 2
ENDMDL
