MODEL 1
REMARK minimizedAffinity -4.54517174
REMARK minimizedRMSD -1
REMARK  2 active torsions:
REMARK  status: ('A' for Active; 'I' for Inactive)
REMARK    1  A    between atoms: C1_2  and  C2_3 
REMARK    2  A    between atoms: C2_3  and  C3_4 
ROOT
ATOM      1  C3  UNL d   1       0.126  -0.108  -0.004  0.00  0.00    -0.075 A 
ATOM      2  C4  UNL d   1      -0.200  -0.295   1.347  0.00  0.00     0.002 A 
ATOM      3  C5  UNL d   1      -1.038   0.606   2.005  0.00  0.00     0.002 A 
ATOM      4  C6  UNL d   1      -1.551   1.709   1.325  0.00  0.00    -0.004 A 
ATOM      5  C7  UNL d   1      -1.220   1.913  -0.013  0.00  0.00     0.002 A 
ATOM      6  C8  UNL d   1      -0.385   1.011  -0.674  0.00  0.00     0.002 A 
ENDROOT
BRANCH   1   7
ATOM      7  C2  UNL d   1       1.008  -1.096  -0.729  0.00  0.00     0.056 C 
BRANCH   7   8
ATOM      8  C1  UNL d   1       0.291  -1.879  -1.833  0.00  0.00     0.007 C 
ATOM      9  C   UNL d   1       0.809  -3.303  -1.993  0.00  0.00     0.009 C 
ENDBRANCH   7   8
ENDBRANCH   1   7
TORSDOF 2
ENDMDL
