MODEL 1
REMARK minimizedAffinity -3.31143594
REMARK minimizedRMSD -1
REMARK  2 active torsions:
REMARK  status: ('A' for Active; 'I' for Inactive)
REMARK    1  A    between atoms: C1_2  and  C2_3 
REMARK    2  A    between atoms: C2_3  and  C3_4 
ROOT
ATOM      1  C3  UNL d   1      -0.170  -0.088   0.447  0.00  0.00    -0.075 A 
ATOM      2  C4  UNL d   1      -0.782   0.904  -0.333  0.00  0.00     0.002 A 
ATOM      3  C5  UNL d   1      -1.464   1.960   0.271  0.00  0.00     0.002 A 
ATOM      4  C6  UNL d   1      -1.552   2.033   1.659  0.00  0.00    -0.004 A 
ATOM      5  C7  UNL d   1      -0.962   1.045   2.444  0.00  0.00     0.002 A 
ATOM      6  C8  UNL d   1      -0.275  -0.011   1.842  0.00  0.00     0.002 A 
ENDROOT
BRANCH   1   7
ATOM      7  C2  UNL d   1       0.595  -1.217  -0.200  0.00  0.00     0.056 C 
BRANCH   7   8
ATOM      8  C1  UNL d   1       0.068  -1.617  -1.582  0.00  0.00     0.007 C 
ATOM      9  C   UNL d   1       0.414  -3.049  -1.966  0.00  0.00     0.009 C 
ENDBRANCH   7   8
ENDBRANCH   1   7
TORSDOF 2
ENDMDL
