MODEL 1
REMARK minimizedAffinity -4.38897514
REMARK minimizedRMSD -1
REMARK  2 active torsions:
REMARK  status: ('A' for Active; 'I' for Inactive)
REMARK    1  A    between atoms: C1_2  and  C2_3 
REMARK    2  A    between atoms: C2_3  and  C3_4 
ROOT
ATOM      1  C3  UNL d   1       0.655  -0.621  -0.567  0.00  0.00    -0.075 A 
ATOM      2  C4  UNL d   1      -0.251  -0.536   0.501  0.00  0.00     0.002 A 
ATOM      3  C5  UNL d   1      -0.969   0.638   0.728  0.00  0.00     0.002 A 
ATOM      4  C6  UNL d   1      -0.784   1.743  -0.099  0.00  0.00    -0.004 A 
ATOM      5  C7  UNL d   1       0.125   1.675  -1.152  0.00  0.00     0.002 A 
ATOM      6  C8  UNL d   1       0.842   0.500  -1.386  0.00  0.00     0.002 A 
ENDROOT
BRANCH   1   7
ATOM      7  C2  UNL d   1       1.413  -1.899  -0.837  0.00  0.00     0.056 C 
BRANCH   7   8
ATOM      8  C1  UNL d   1       0.999  -2.609  -2.130  0.00  0.00     0.007 C 
ATOM      9  C   UNL d   1       0.499  -4.029  -1.901  0.00  0.00     0.009 C 
ENDBRANCH   7   8
ENDBRANCH   1   7
TORSDOF 2
ENDMDL
