MODEL 1
REMARK minimizedAffinity -4.84049034
REMARK minimizedRMSD -1
REMARK  2 active torsions:
REMARK  status: ('A' for Active; 'I' for Inactive)
REMARK    1  A    between atoms: C1_2  and  C2_3 
REMARK    2  A    between atoms: C2_3  and  C3_4 
ROOT
ATOM      1  C3  UNL d   1      -0.768  -0.033   0.998  0.00  0.00    -0.075 A 
ATOM      2  C4  UNL d   1      -0.122  -0.773   1.999  0.00  0.00     0.002 A 
ATOM      3  C5  UNL d   1       1.001  -1.544   1.697  0.00  0.00     0.002 A 
ATOM      4  C6  UNL d   1       1.486  -1.592   0.392  0.00  0.00    -0.004 A 
ATOM      5  C7  UNL d   1       0.842  -0.874  -0.614  0.00  0.00     0.002 A 
ATOM      6  C8  UNL d   1      -0.279  -0.099  -0.314  0.00  0.00     0.002 A 
ENDROOT
BRANCH   1   7
ATOM      7  C2  UNL d   1      -1.966   0.827   1.324  0.00  0.00     0.056 C 
BRANCH   7   8
ATOM      8  C1  UNL d   1      -1.609   2.240   1.798  0.00  0.00     0.007 C 
ATOM      9  C   UNL d   1      -0.655   2.252   2.985  0.00  0.00     0.009 C 
ENDBRANCH   7   8
ENDBRANCH   1   7
TORSDOF 2
ENDMDL
