MODEL 1
REMARK minimizedAffinity -4.22810078
REMARK minimizedRMSD -1
REMARK  2 active torsions:
REMARK  status: ('A' for Active; 'I' for Inactive)
REMARK    1  A    between atoms: C1_2  and  C2_3 
REMARK    2  A    between atoms: C2_3  and  C3_4 
ROOT
ATOM      1  C3  UNL d   1       0.188  -0.268   0.068  0.00  0.00    -0.075 A 
ATOM      2  C4  UNL d   1       0.227  -0.468   1.455  0.00  0.00     0.002 A 
ATOM      3  C5  UNL d   1      -0.463   0.389   2.314  0.00  0.00     0.002 A 
ATOM      4  C6  UNL d   1      -1.190   1.460   1.798  0.00  0.00    -0.004 A 
ATOM      5  C7  UNL d   1      -1.221   1.678   0.423  0.00  0.00     0.002 A 
ATOM      6  C8  UNL d   1      -0.536   0.820  -0.439  0.00  0.00     0.002 A 
ENDROOT
BRANCH   1   7
ATOM      7  C2  UNL d   1       0.908  -1.209  -0.869  0.00  0.00     0.056 C 
BRANCH   7   8
ATOM      8  C1  UNL d   1      -0.001  -2.255  -1.522  0.00  0.00     0.007 C 
ATOM      9  C   UNL d   1       0.721  -3.124  -2.544  0.00  0.00     0.009 C 
ENDBRANCH   7   8
ENDBRANCH   1   7
TORSDOF 2
ENDMDL
