MODEL 1
REMARK minimizedAffinity -6.23588467
REMARK minimizedRMSD -1
REMARK  2 active torsions:
REMARK  status: ('A' for Active; 'I' for Inactive)
REMARK    1  A    between atoms: C1_2  and  C2_3 
REMARK    2  A    between atoms: C2_3  and  C3_4 
ROOT
ATOM      1  C3  UNL d   1       0.298  -0.278  -0.114  0.00  0.00    -0.075 A 
ATOM      2  C4  UNL d   1       0.294  -0.825   1.178  0.00  0.00     0.002 A 
ATOM      3  C5  UNL d   1      -0.514  -0.280   2.176  0.00  0.00     0.002 A 
ATOM      4  C6  UNL d   1      -1.320   0.823   1.899  0.00  0.00    -0.004 A 
ATOM      5  C7  UNL d   1      -1.312   1.384   0.624  0.00  0.00     0.002 A 
ATOM      6  C8  UNL d   1      -0.507   0.838  -0.378  0.00  0.00     0.002 A 
ENDROOT
BRANCH   1   7
ATOM      7  C2  UNL d   1       1.149  -0.881  -1.206  0.00  0.00     0.056 C 
BRANCH   7   8
ATOM      8  C1  UNL d   1       0.911  -2.379  -1.426  0.00  0.00     0.007 C 
ATOM      9  C   UNL d   1       0.243  -2.691  -2.758  0.00  0.00     0.009 C 
ENDBRANCH   7   8
ENDBRANCH   1   7
TORSDOF 2
ENDMDL
