MODEL 1
REMARK minimizedAffinity -6.25517797
REMARK minimizedRMSD -1
REMARK  2 active torsions:
REMARK  status: ('A' for Active; 'I' for Inactive)
REMARK    1  A    between atoms: C1_2  and  C2_3 
REMARK    2  A    between atoms: C2_3  and  C3_4 
ROOT
ATOM      1  C3  UNL d   1       0.132   0.256  -0.098  0.00  0.00    -0.075 A 
ATOM      2  C4  UNL d   1      -0.046  -0.279   1.186  0.00  0.00     0.002 A 
ATOM      3  C5  UNL d   1      -0.964   0.288   2.069  0.00  0.00     0.002 A 
ATOM      4  C6  UNL d   1      -1.708   1.402   1.685  0.00  0.00    -0.004 A 
ATOM      5  C7  UNL d   1      -1.528   1.952   0.418  0.00  0.00     0.002 A 
ATOM      6  C8  UNL d   1      -0.613   1.383  -0.470  0.00  0.00     0.002 A 
ENDROOT
BRANCH   1   7
ATOM      7  C2  UNL d   1       1.103  -0.372  -1.070  0.00  0.00     0.056 C 
BRANCH   7   8
ATOM      8  C1  UNL d   1       0.920  -1.883  -1.245  0.00  0.00     0.007 C 
ATOM      9  C   UNL d   1       0.492  -2.276  -2.653  0.00  0.00     0.009 C 
ENDBRANCH   7   8
ENDBRANCH   1   7
TORSDOF 2
ENDMDL
