MODEL 1
REMARK minimizedAffinity -6.44533539
REMARK minimizedRMSD -1
REMARK  2 active torsions:
REMARK  status: ('A' for Active; 'I' for Inactive)
REMARK    1  A    between atoms: C1_2  and  C2_3 
REMARK    2  A    between atoms: C2_3  and  C3_4 
ROOT
ATOM      1  C3  UNL d   1      -0.019  -0.461   0.041  0.00  0.00    -0.075 A 
ATOM      2  C4  UNL d   1      -0.344  -0.609   1.397  0.00  0.00     0.002 A 
ATOM      3  C5  UNL d   1      -1.146   0.334   2.041  0.00  0.00     0.002 A 
ATOM      4  C6  UNL d   1      -1.625   1.439   1.341  0.00  0.00    -0.004 A 
ATOM      5  C7  UNL d   1      -1.295   1.605  -0.002  0.00  0.00     0.002 A 
ATOM      6  C8  UNL d   1      -0.496   0.661  -0.650  0.00  0.00     0.002 A 
ENDROOT
BRANCH   1   7
ATOM      7  C2  UNL d   1       0.824  -1.493  -0.669  0.00  0.00     0.056 C 
BRANCH   7   8
ATOM      8  C1  UNL d   1       0.143  -2.124  -1.887  0.00  0.00     0.007 C 
ATOM      9  C   UNL d   1      -0.190  -3.597  -1.693  0.00  0.00     0.009 C 
ENDBRANCH   7   8
ENDBRANCH   1   7
TORSDOF 2
ENDMDL
