MODEL 1
REMARK minimizedAffinity -1.74845254
REMARK minimizedRMSD -1
REMARK  2 active torsions:
REMARK  status: ('A' for Active; 'I' for Inactive)
REMARK    1  A    between atoms: C1_2  and  C2_3 
REMARK    2  A    between atoms: C2_3  and  C3_4 
ROOT
ATOM      1  C3  UNL d   1       1.051  -1.953  -1.086  0.00  0.00    -0.075 A 
ATOM      2  C4  UNL d   1       0.422  -1.972  -2.339  0.00  0.00     0.002 A 
ATOM      3  C5  UNL d   1       0.245  -3.174  -3.025  0.00  0.00     0.002 A 
ATOM      4  C6  UNL d   1       0.703  -4.369  -2.473  0.00  0.00    -0.004 A 
ATOM      5  C7  UNL d   1       1.344  -4.360  -1.236  0.00  0.00     0.002 A 
ATOM      6  C8  UNL d   1       1.518  -3.159  -0.545  0.00  0.00     0.002 A 
ENDROOT
BRANCH   1   7
ATOM      7  C2  UNL d   1       1.218  -0.660  -0.325  0.00  0.00     0.056 C 
BRANCH   7   8
ATOM      8  C1  UNL d   1       0.184   0.413  -0.683  0.00  0.00     0.007 C 
ATOM      9  C   UNL d   1       0.750   1.523  -1.558  0.00  0.00     0.009 C 
ENDBRANCH   7   8
ENDBRANCH   1   7
TORSDOF 2
ENDMDL
