MODEL 1
REMARK minimizedAffinity -3.00535774
REMARK minimizedRMSD -1
REMARK  0 active torsions:
REMARK  status: ('A' for Active; 'I' for Inactive)
ROOT
ATOM      1  C   UNL d   1      -1.708   3.187  -1.625  0.00  0.00     0.020 A 
ATOM      2  C1  UNL d   1      -0.975   4.138  -2.334  0.00  0.00     0.020 A 
ATOM      3  C2  UNL d   1       0.039   3.732  -3.205  0.00  0.00     0.034 A 
ATOM      4  C3  UNL d   1       0.321   2.371  -3.370  0.00  0.00     0.017 A 
ATOM      5  C4  UNL d   1      -0.415   1.417  -2.658  0.00  0.00     0.017 A 
ATOM      6  C5  UNL d   1      -1.429   1.829  -1.788  0.00  0.00     0.034 A 
ATOM      7 Cl   UNL d   1      -0.125  -0.280  -2.810  0.00  0.00    -0.070 Cl
ATOM      8 Cl1  UNL d   1       1.588   1.940  -4.464  0.00  0.00    -0.070 Cl
ENDROOT
TORSDOF 0
ENDMDL
