MODEL 1
REMARK minimizedAffinity -4.10340405
REMARK minimizedRMSD -1
REMARK  0 active torsions:
REMARK  status: ('A' for Active; 'I' for Inactive)
ROOT
ATOM      1  C   UNL d   1      -0.918   0.113  -0.981  0.00  0.00     0.020 A 
ATOM      2  C1  UNL d   1      -1.647   0.215   0.203  0.00  0.00     0.020 A 
ATOM      3  C2  UNL d   1      -1.019  -0.009   1.430  0.00  0.00     0.034 A 
ATOM      4  C3  UNL d   1       0.341  -0.337   1.476  0.00  0.00     0.017 A 
ATOM      5  C4  UNL d   1       1.071  -0.439   0.287  0.00  0.00     0.017 A 
ATOM      6  C5  UNL d   1       0.438  -0.213  -0.939  0.00  0.00     0.034 A 
ATOM      7 Cl   UNL d   1       2.753  -0.839   0.264  0.00  0.00    -0.070 Cl
ATOM      8 Cl1  UNL d   1       1.051  -0.600   3.029  0.00  0.00    -0.070 Cl
ENDROOT
TORSDOF 0
ENDMDL
