MODEL 1
REMARK minimizedAffinity -2.42953563
REMARK minimizedRMSD -1
REMARK  0 active torsions:
REMARK  status: ('A' for Active; 'I' for Inactive)
ROOT
ATOM      1  C   UNL d   1       0.931  -0.246   2.739  0.00  0.00     0.020 A 
ATOM      2  C1  UNL d   1      -0.262   0.398   2.415  0.00  0.00     0.020 A 
ATOM      3  C2  UNL d   1      -0.669   0.484   1.082  0.00  0.00     0.034 A 
ATOM      4  C3  UNL d   1       0.119  -0.073   0.068  0.00  0.00     0.017 A 
ATOM      5  C4  UNL d   1       1.317  -0.719   0.395  0.00  0.00     0.017 A 
ATOM      6  C5  UNL d   1       1.719  -0.803   1.731  0.00  0.00     0.034 A 
ATOM      7 Cl   UNL d   1       2.342  -1.431  -0.801  0.00  0.00    -0.070 Cl
ATOM      8 Cl1  UNL d   1      -0.445   0.071  -1.559  0.00  0.00    -0.070 Cl
ENDROOT
TORSDOF 0
ENDMDL
