MODEL 1
REMARK minimizedAffinity -3.64851189
REMARK minimizedRMSD -1
REMARK  0 active torsions:
REMARK  status: ('A' for Active; 'I' for Inactive)
ROOT
ATOM      1  C   UNL d   1       1.115  -0.753   2.625  0.00  0.00     0.020 A 
ATOM      2  C1  UNL d   1       1.839  -0.588   1.445  0.00  0.00     0.020 A 
ATOM      3  C2  UNL d   1       1.181  -0.229   0.267  0.00  0.00     0.034 A 
ATOM      4  C3  UNL d   1      -0.204  -0.032   0.266  0.00  0.00     0.017 A 
ATOM      5  C4  UNL d   1      -0.930  -0.198   1.451  0.00  0.00     0.017 A 
ATOM      6  C5  UNL d   1      -0.266  -0.558   2.628  0.00  0.00     0.034 A 
ATOM      7 Cl   UNL d   1      -2.642   0.027   1.529  0.00  0.00    -0.070 Cl
ATOM      8 Cl1  UNL d   1      -0.952   0.412  -1.227  0.00  0.00    -0.070 Cl
ENDROOT
TORSDOF 0
ENDMDL
