MODEL 1
REMARK minimizedAffinity -2.48095155
REMARK minimizedRMSD -1
REMARK  0 active torsions:
REMARK  status: ('A' for Active; 'I' for Inactive)
ROOT
ATOM      1  C   UNL d   1       1.148  -0.918   2.371  0.00  0.00     0.020 A 
ATOM      2  C1  UNL d   1       1.853  -0.647   1.199  0.00  0.00     0.020 A 
ATOM      3  C2  UNL d   1       1.182  -0.152   0.078  0.00  0.00     0.034 A 
ATOM      4  C3  UNL d   1      -0.199   0.073   0.127  0.00  0.00     0.017 A 
ATOM      5  C4  UNL d   1      -0.906  -0.200   1.304  0.00  0.00     0.017 A 
ATOM      6  C5  UNL d   1      -0.229  -0.695   2.423  0.00  0.00     0.034 A 
ATOM      7 Cl   UNL d   1      -2.610   0.052   1.441  0.00  0.00    -0.070 Cl
ATOM      8 Cl1  UNL d   1      -0.964   0.686  -1.295  0.00  0.00    -0.070 Cl
ENDROOT
TORSDOF 0
ENDMDL
