MODEL 1
REMARK minimizedAffinity 2.32795954
REMARK minimizedRMSD -1
REMARK  0 active torsions:
REMARK  status: ('A' for Active; 'I' for Inactive)
ROOT
ATOM      1  C   UNL d   1      -4.471  -1.766  -3.703  0.00  0.00     0.020 A 
ATOM      2  C1  UNL d   1      -5.052  -0.613  -4.230  0.00  0.00     0.020 A 
ATOM      3  C2  UNL d   1      -4.436   0.627  -4.043  0.00  0.00     0.034 A 
ATOM      4  C3  UNL d   1      -3.236   0.716  -3.329  0.00  0.00     0.017 A 
ATOM      5  C4  UNL d   1      -2.654  -0.442  -2.800  0.00  0.00     0.017 A 
ATOM      6  C5  UNL d   1      -3.275  -1.680  -2.990  0.00  0.00     0.034 A 
ATOM      7 Cl   UNL d   1      -1.175  -0.411  -1.907  0.00  0.00    -0.070 Cl
ATOM      8 Cl1  UNL d   1      -2.530   2.281  -3.137  0.00  0.00    -0.070 Cl
ENDROOT
TORSDOF 0
ENDMDL
