MODEL 1
REMARK minimizedAffinity 2.80122638
REMARK minimizedRMSD -1
REMARK  0 active torsions:
REMARK  status: ('A' for Active; 'I' for Inactive)
ROOT
ATOM      1  C   UNL d   1       2.068  -0.351   2.515  0.00  0.00     0.020 A 
ATOM      2  C1  UNL d   1       0.937  -0.513   3.314  0.00  0.00     0.020 A 
ATOM      3  C2  UNL d   1      -0.289  -0.837   2.730  0.00  0.00     0.034 A 
ATOM      4  C3  UNL d   1      -0.388  -0.999   1.343  0.00  0.00     0.017 A 
ATOM      5  C4  UNL d   1       0.748  -0.837   0.542  0.00  0.00     0.017 A 
ATOM      6  C5  UNL d   1       1.974  -0.513   1.132  0.00  0.00     0.034 A 
ATOM      7 Cl   UNL d   1       0.705  -1.021  -1.176  0.00  0.00    -0.070 Cl
ATOM      8 Cl1  UNL d   1      -1.936  -1.399   0.689  0.00  0.00    -0.070 Cl
ENDROOT
TORSDOF 0
ENDMDL
