MODEL 1
REMARK minimizedAffinity -2.19741464
REMARK minimizedRMSD -1
REMARK  0 active torsions:
REMARK  status: ('A' for Active; 'I' for Inactive)
ROOT
ATOM      1  C   UNL d   1       0.915  -0.882   2.992  0.00  0.00     0.020 A 
ATOM      2  C1  UNL d   1       1.808  -0.850   1.921  0.00  0.00     0.020 A 
ATOM      3  C2  UNL d   1       1.390  -0.371   0.678  0.00  0.00     0.034 A 
ATOM      4  C3  UNL d   1       0.076   0.078   0.501  0.00  0.00     0.017 A 
ATOM      5  C4  UNL d   1      -0.819   0.046   1.577  0.00  0.00     0.017 A 
ATOM      6  C5  UNL d   1      -0.395  -0.435   2.820  0.00  0.00     0.034 A 
ATOM      7 Cl   UNL d   1      -2.456   0.583   1.437  0.00  0.00    -0.070 Cl
ATOM      8 Cl1  UNL d   1      -0.372   0.658  -1.063  0.00  0.00    -0.070 Cl
ENDROOT
TORSDOF 0
ENDMDL
