MODEL 1
REMARK minimizedAffinity -5.11027193
REMARK minimizedRMSD -1
REMARK  0 active torsions:
REMARK  status: ('A' for Active; 'I' for Inactive)
ROOT
ATOM      1  C   UNL d   1      -0.564   0.067  -1.113  0.00  0.00     0.020 A 
ATOM      2  C1  UNL d   1      -1.308   0.298   0.043  0.00  0.00     0.020 A 
ATOM      3  C2  UNL d   1      -0.740   0.065   1.297  0.00  0.00     0.034 A 
ATOM      4  C3  UNL d   1       0.576  -0.401   1.398  0.00  0.00     0.017 A 
ATOM      5  C4  UNL d   1       1.322  -0.633   0.237  0.00  0.00     0.017 A 
ATOM      6  C5  UNL d   1       0.748  -0.398  -1.016  0.00  0.00     0.034 A 
ATOM      7 Cl   UNL d   1       2.951  -1.208   0.281  0.00  0.00    -0.070 Cl
ATOM      8 Cl1  UNL d   1       1.215  -0.668   2.981  0.00  0.00    -0.070 Cl
ENDROOT
TORSDOF 0
ENDMDL
