MODEL 1
REMARK minimizedAffinity -0.730298758
REMARK minimizedRMSD -1
REMARK  0 active torsions:
REMARK  status: ('A' for Active; 'I' for Inactive)
ROOT
ATOM      1  C   UNL d   1       0.889  -1.088   2.578  0.00  0.00     0.020 A 
ATOM      2  C1  UNL d   1       1.809  -0.656   1.624  0.00  0.00     0.020 A 
ATOM      3  C2  UNL d   1       1.362  -0.160   0.397  0.00  0.00     0.034 A 
ATOM      4  C3  UNL d   1      -0.009  -0.096   0.122  0.00  0.00     0.017 A 
ATOM      5  C4  UNL d   1      -0.932  -0.529   1.081  0.00  0.00     0.017 A 
ATOM      6  C5  UNL d   1      -0.478  -1.025   2.307  0.00  0.00     0.034 A 
ATOM      7 Cl   UNL d   1      -2.638  -0.480   0.814  0.00  0.00    -0.070 Cl
ATOM      8 Cl1  UNL d   1      -0.491   0.529  -1.415  0.00  0.00    -0.070 Cl
ENDROOT
TORSDOF 0
ENDMDL
