MODEL 1
REMARK minimizedAffinity -2.41595197
REMARK minimizedRMSD -1
REMARK  0 active torsions:
REMARK  status: ('A' for Active; 'I' for Inactive)
ROOT
ATOM      1  C   UNL d   1       3.474  -2.216   0.996  0.00  0.00     0.020 A 
ATOM      2  C1  UNL d   1       3.254  -2.023   2.360  0.00  0.00     0.020 A 
ATOM      3  C2  UNL d   1       2.077  -1.412   2.797  0.00  0.00     0.034 A 
ATOM      4  C3  UNL d   1       1.115  -0.992   1.871  0.00  0.00     0.017 A 
ATOM      5  C4  UNL d   1       1.337  -1.186   0.503  0.00  0.00     0.017 A 
ATOM      6  C5  UNL d   1       2.517  -1.798   0.070  0.00  0.00     0.034 A 
ATOM      7 Cl   UNL d   1       0.197  -0.694  -0.700  0.00  0.00    -0.070 Cl
ATOM      8 Cl1  UNL d   1      -0.317  -0.243   2.483  0.00  0.00    -0.070 Cl
ENDROOT
TORSDOF 0
ENDMDL
