MODEL 1
REMARK minimizedAffinity -2.66215634
REMARK minimizedRMSD -1
REMARK  0 active torsions:
REMARK  status: ('A' for Active; 'I' for Inactive)
ROOT
ATOM      1  C   UNL d   1       0.379  -0.542   2.740  0.00  0.00     0.020 A 
ATOM      2  C1  UNL d   1      -0.764   0.229   2.531  0.00  0.00     0.020 A 
ATOM      3  C2  UNL d   1      -1.085   0.667   1.244  0.00  0.00     0.034 A 
ATOM      4  C3  UNL d   1      -0.262   0.335   0.162  0.00  0.00     0.017 A 
ATOM      5  C4  UNL d   1       0.885  -0.439   0.373  0.00  0.00     0.017 A 
ATOM      6  C5  UNL d   1       1.202  -0.875   1.663  0.00  0.00     0.034 A 
ATOM      7 Cl   UNL d   1       1.950  -0.889  -0.912  0.00  0.00    -0.070 Cl
ATOM      8 Cl1  UNL d   1      -0.719   0.911  -1.402  0.00  0.00    -0.070 Cl
ENDROOT
TORSDOF 0
ENDMDL
