MODEL 1
REMARK minimizedAffinity -2.03114104
REMARK minimizedRMSD -1
REMARK  0 active torsions:
REMARK  status: ('A' for Active; 'I' for Inactive)
ROOT
ATOM      1  C   UNL d   1      -0.004   0.819   2.064  0.00  0.00     0.020 A 
ATOM      2  C1  UNL d   1       0.344  -0.521   1.899  0.00  0.00     0.020 A 
ATOM      3  C2  UNL d   1       0.478  -1.055   0.616  0.00  0.00     0.034 A 
ATOM      4  C3  UNL d   1       0.264  -0.249  -0.508  0.00  0.00     0.017 A 
ATOM      5  C4  UNL d   1      -0.085   1.096  -0.341  0.00  0.00     0.017 A 
ATOM      6  C5  UNL d   1      -0.218   1.625   0.946  0.00  0.00     0.034 A 
ATOM      7 Cl   UNL d   1      -0.366   2.153  -1.680  0.00  0.00    -0.070 Cl
ATOM      8 Cl1  UNL d   1       0.448  -0.976  -2.065  0.00  0.00    -0.070 Cl
ENDROOT
TORSDOF 0
ENDMDL
