MODEL 1
REMARK minimizedAffinity 1.43918777
REMARK minimizedRMSD -1
REMARK  0 active torsions:
REMARK  status: ('A' for Active; 'I' for Inactive)
ROOT
ATOM      1  C   UNL d   1       3.156   1.316   0.103  0.00  0.00    -0.002 A 
ATOM      2  C1  UNL d   1       2.121   1.349  -0.820  0.00  0.00     0.010 A 
ATOM      3  C2  UNL d   1       0.792   1.422  -0.396  0.00  0.00     0.041 A 
ATOM      4  C3  UNL d   1       0.520   1.464   0.986  0.00  0.00    -0.075 A 
ATOM      5  S   UNL d   1      -1.029   1.555   1.737  0.00  0.00     0.015 SA
ATOM      6  C4  UNL d   1      -0.353   1.553   3.302  0.00  0.00     0.022 A 
ATOM      7  C5  UNL d   1       1.020   1.484   3.270  0.00  0.00     0.026 A 
ATOM      8  C6  UNL d   1       1.545   1.432   1.935  0.00  0.00    -0.082 A 
ATOM      9  C7  UNL d   1       2.881   1.357   1.473  0.00  0.00     0.045 A 
ENDROOT
TORSDOF 0
ENDMDL
