MODEL 1
REMARK minimizedAffinity 2.33986855
REMARK minimizedRMSD -1
REMARK  0 active torsions:
REMARK  status: ('A' for Active; 'I' for Inactive)
ROOT
ATOM      1  C   UNL d   1       5.084   1.464  -1.389  0.00  0.00    -0.002 A 
ATOM      2  C1  UNL d   1       4.699   2.648  -0.776  0.00  0.00     0.010 A 
ATOM      3  C2  UNL d   1       3.431   2.772  -0.205  0.00  0.00     0.041 A 
ATOM      4  C3  UNL d   1       2.549   1.675  -0.259  0.00  0.00    -0.075 A 
ATOM      5  S   UNL d   1       0.947   1.597   0.375  0.00  0.00     0.015 SA
ATOM      6  C4  UNL d   1       0.738  -0.011  -0.152  0.00  0.00     0.022 A 
ATOM      7  C5  UNL d   1       1.852  -0.492  -0.797  0.00  0.00     0.026 A 
ATOM      8  C6  UNL d   1       2.915   0.472  -0.869  0.00  0.00    -0.082 A 
ATOM      9  C7  UNL d   1       4.207   0.378  -1.440  0.00  0.00     0.045 A 
ENDROOT
TORSDOF 0
ENDMDL
