MODEL 1
REMARK minimizedAffinity 4.7835269
REMARK minimizedRMSD -1
REMARK  0 active torsions:
REMARK  status: ('A' for Active; 'I' for Inactive)
ROOT
ATOM      1  C   UNL d   1       1.351  -1.559  -0.649  0.00  0.00    -0.002 A 
ATOM      2  C1  UNL d   1       0.465  -0.504  -0.484  0.00  0.00     0.010 A 
ATOM      3  C2  UNL d   1       0.933   0.809  -0.396  0.00  0.00     0.041 A 
ATOM      4  C3  UNL d   1       2.319   1.045  -0.479  0.00  0.00    -0.075 A 
ATOM      5  S   UNL d   1       3.121   2.569  -0.397  0.00  0.00     0.015 SA
ATOM      6  C4  UNL d   1       4.658   1.855  -0.581  0.00  0.00     0.022 A 
ATOM      7  C5  UNL d   1       4.580   0.488  -0.703  0.00  0.00     0.026 A 
ATOM      8  C6  UNL d   1       3.231  -0.001  -0.647  0.00  0.00    -0.082 A 
ATOM      9  C7  UNL d   1       2.725  -1.321  -0.732  0.00  0.00     0.045 A 
ENDROOT
TORSDOF 0
ENDMDL
