MODEL 1
REMARK minimizedAffinity 4.62224722
REMARK minimizedRMSD -1
REMARK  0 active torsions:
REMARK  status: ('A' for Active; 'I' for Inactive)
ROOT
ATOM      1  C   UNL d   1       3.439   2.013  -0.082  0.00  0.00    -0.002 A 
ATOM      2  C1  UNL d   1       2.191   2.496   0.286  0.00  0.00     0.010 A 
ATOM      3  C2  UNL d   1       1.075   1.657   0.280  0.00  0.00     0.041 A 
ATOM      4  C3  UNL d   1       1.236   0.311  -0.103  0.00  0.00    -0.075 A 
ATOM      5  S   UNL d   1       0.011  -0.900  -0.185  0.00  0.00     0.015 SA
ATOM      6  C4  UNL d   1       1.115  -2.087  -0.709  0.00  0.00     0.022 A 
ATOM      7  C5  UNL d   1       2.392  -1.589  -0.825  0.00  0.00     0.026 A 
ATOM      8  C6  UNL d   1       2.482  -0.199  -0.477  0.00  0.00    -0.082 A 
ATOM      9  C7  UNL d   1       3.594   0.677  -0.462  0.00  0.00     0.045 A 
ENDROOT
TORSDOF 0
ENDMDL
