MODEL 1
REMARK minimizedAffinity 6.94360399
REMARK minimizedRMSD -1
REMARK  0 active torsions:
REMARK  status: ('A' for Active; 'I' for Inactive)
ROOT
ATOM      1  C   UNL d   1       5.118   1.072  -2.267  0.00  0.00    -0.002 A 
ATOM      2  C1  UNL d   1       4.330   1.436  -1.184  0.00  0.00     0.010 A 
ATOM      3  C2  UNL d   1       3.294   0.607  -0.749  0.00  0.00     0.041 A 
ATOM      4  C3  UNL d   1       3.064  -0.607  -1.426  0.00  0.00    -0.075 A 
ATOM      5  S   UNL d   1       1.853  -1.782  -1.069  0.00  0.00     0.015 SA
ATOM      6  C4  UNL d   1       2.355  -2.795  -2.345  0.00  0.00     0.022 A 
ATOM      7  C5  UNL d   1       3.419  -2.266  -3.036  0.00  0.00     0.026 A 
ATOM      8  C6  UNL d   1       3.845  -0.996  -2.517  0.00  0.00    -0.082 A 
ATOM      9  C7  UNL d   1       4.887  -0.133  -2.935  0.00  0.00     0.045 A 
ENDROOT
TORSDOF 0
ENDMDL
