MODEL 1
REMARK minimizedAffinity 9.040308
REMARK minimizedRMSD -1
REMARK  0 active torsions:
REMARK  status: ('A' for Active; 'I' for Inactive)
ROOT
ATOM      1  C   UNL d   1       1.331  -2.115  -0.911  0.00  0.00    -0.002 A 
ATOM      2  C1  UNL d   1       0.458  -1.098  -0.550  0.00  0.00     0.010 A 
ATOM      3  C2  UNL d   1       0.904   0.222  -0.463  0.00  0.00     0.041 A 
ATOM      4  C3  UNL d   1       2.253   0.507  -0.749  0.00  0.00    -0.075 A 
ATOM      5  S   UNL d   1       3.022   2.050  -0.709  0.00  0.00     0.015 SA
ATOM      6  C4  UNL d   1       4.526   1.396  -1.171  0.00  0.00     0.022 A 
ATOM      7  C5  UNL d   1       4.462   0.035  -1.356  0.00  0.00     0.026 A 
ATOM      8  C6  UNL d   1       3.151  -0.500  -1.117  0.00  0.00    -0.082 A 
ATOM      9  C7  UNL d   1       2.669  -1.829  -1.195  0.00  0.00     0.045 A 
ENDROOT
TORSDOF 0
ENDMDL
