MODEL 1
REMARK minimizedAffinity 5.32770252
REMARK minimizedRMSD -1
REMARK  0 active torsions:
REMARK  status: ('A' for Active; 'I' for Inactive)
ROOT
ATOM      1  C   UNL d   1      -0.817  -3.156  -1.089  0.00  0.00    -0.002 A 
ATOM      2  C1  UNL d   1       0.401  -3.306  -0.442  0.00  0.00     0.010 A 
ATOM      3  C2  UNL d   1       1.224  -2.203  -0.211  0.00  0.00     0.041 A 
ATOM      4  C3  UNL d   1       0.798  -0.932  -0.644  0.00  0.00    -0.075 A 
ATOM      5  S   UNL d   1       1.639   0.563  -0.469  0.00  0.00     0.015 SA
ATOM      6  C4  UNL d   1       0.401   1.437  -1.248  0.00  0.00     0.022 A 
ATOM      7  C5  UNL d   1      -0.637   0.624  -1.640  0.00  0.00     0.026 A 
ATOM      8  C6  UNL d   1      -0.425  -0.754  -1.297  0.00  0.00    -0.082 A 
ATOM      9  C7  UNL d   1      -1.237  -1.893  -1.517  0.00  0.00     0.045 A 
ENDROOT
TORSDOF 0
ENDMDL
