MODEL 1
REMARK minimizedAffinity -1.95556808
REMARK minimizedRMSD -1
REMARK  0 active torsions:
REMARK  status: ('A' for Active; 'I' for Inactive)
ROOT
ATOM      1  O1  BZF d   1      -1.595  -0.961   1.565  0.00  0.00    -0.204 OA
ATOM      2  C2  BZF d   1      -1.170  -2.240   1.870  0.00  0.00     0.174 A 
ATOM      3  C3  BZF d   1       0.001  -2.513   1.261  0.00  0.00    -0.012 A 
ATOM      4  C3A BZF d   1       0.376  -1.299   0.604  0.00  0.00    -0.107 A 
ATOM      5  C4  BZF d   1       1.452  -0.935  -0.155  0.00  0.00     0.055 A 
ATOM      6  C5  BZF d   1       1.480   0.306  -0.709  0.00  0.00    -0.016 A 
ATOM      7  C6  BZF d   1       0.449   1.204  -0.530  0.00  0.00     0.022 A 
ATOM      8  C7  BZF d   1      -0.637   0.891   0.219  0.00  0.00     0.029 A 
ATOM      9  C7A BZF d   1      -0.653  -0.350   0.808  0.00  0.00     0.058 A 
ENDROOT
TORSDOF 0
ENDMDL
