MODEL 1
REMARK minimizedAffinity -6.34306812
REMARK minimizedRMSD -1
REMARK  0 active torsions:
REMARK  status: ('A' for Active; 'I' for Inactive)
ROOT
ATOM      1  O1  BZF d   1      -0.337   0.983   0.410  0.00  0.00    -0.204 OA
ATOM      2  C2  BZF d   1       0.821   0.421  -0.091  0.00  0.00     0.174 A 
ATOM      3  C3  BZF d   1       0.848  -0.907   0.143  0.00  0.00    -0.012 A 
ATOM      4  C3A BZF d   1      -0.412  -1.208   0.751  0.00  0.00    -0.107 A 
ATOM      5  C4  BZF d   1      -0.986  -2.363   1.201  0.00  0.00     0.055 A 
ATOM      6  C5  BZF d   1      -2.199  -2.304   1.810  0.00  0.00    -0.016 A 
ATOM      7  C6  BZF d   1      -2.863  -1.108   1.992  0.00  0.00     0.022 A 
ATOM      8  C7  BZF d   1      -2.336   0.063   1.559  0.00  0.00     0.029 A 
ATOM      9  C7A BZF d   1      -1.125   0.002   0.913  0.00  0.00     0.058 A 
ENDROOT
TORSDOF 0
ENDMDL
