MODEL 1
REMARK minimizedAffinity -2.99578786
REMARK minimizedRMSD -1
REMARK  0 active torsions:
REMARK  status: ('A' for Active; 'I' for Inactive)
ROOT
ATOM      1  O1  BZF d   1      -0.526  -2.808   0.970  0.00  0.00    -0.204 OA
ATOM      2  C2  BZF d   1      -1.873  -2.506   0.902  0.00  0.00     0.174 A 
ATOM      3  C3  BZF d   1      -2.057  -1.234   0.493  0.00  0.00    -0.012 A 
ATOM      4  C3A BZF d   1      -0.746  -0.738   0.204  0.00  0.00    -0.107 A 
ATOM      5  C4  BZF d   1      -0.276   0.459  -0.257  0.00  0.00     0.055 A 
ATOM      6  C5  BZF d   1       1.066   0.645  -0.360  0.00  0.00    -0.016 A 
ATOM      7  C6  BZF d   1       1.965  -0.340  -0.008  0.00  0.00     0.022 A 
ATOM      8  C7  BZF d   1       1.546  -1.545   0.450  0.00  0.00     0.029 A 
ATOM      9  C7A BZF d   1       0.190  -1.748   0.524  0.00  0.00     0.058 A 
ENDROOT
TORSDOF 0
ENDMDL
