MODEL 1
REMARK minimizedAffinity -0.143148348
REMARK minimizedRMSD -1
REMARK  0 active torsions:
REMARK  status: ('A' for Active; 'I' for Inactive)
ROOT
ATOM      1  O1  BZF d   1      -0.464  -3.176   1.189  0.00  0.00    -0.204 OA
ATOM      2  C2  BZF d   1      -1.844  -3.178   1.253  0.00  0.00     0.174 A 
ATOM      3  C3  BZF d   1      -2.334  -1.938   1.055  0.00  0.00    -0.012 A 
ATOM      4  C3A BZF d   1      -1.193  -1.125   0.763  0.00  0.00    -0.107 A 
ATOM      5  C4  BZF d   1      -1.035   0.198   0.462  0.00  0.00     0.055 A 
ATOM      6  C5  BZF d   1       0.220   0.694   0.303  0.00  0.00    -0.016 A 
ATOM      7  C6  BZF d   1       1.339  -0.102   0.444  0.00  0.00     0.022 A 
ATOM      8  C7  BZF d   1       1.232  -1.421   0.738  0.00  0.00     0.029 A 
ATOM      9  C7A BZF d   1      -0.036  -1.932   0.866  0.00  0.00     0.058 A 
ENDROOT
TORSDOF 0
ENDMDL
