MODEL 1
REMARK minimizedAffinity -1.73268843
REMARK minimizedRMSD -1
REMARK  0 active torsions:
REMARK  status: ('A' for Active; 'I' for Inactive)
ROOT
ATOM      1  O1  BZF d   1      -0.537  -2.769   1.471  0.00  0.00    -0.204 OA
ATOM      2  C2  BZF d   1      -1.858  -2.504   1.775  0.00  0.00     0.174 A 
ATOM      3  C3  BZF d   1      -2.170  -1.226   1.482  0.00  0.00    -0.012 A 
ATOM      4  C3A BZF d   1      -0.993  -0.681   0.876  0.00  0.00    -0.107 A 
ATOM      5  C4  BZF d   1      -0.686   0.544   0.356  0.00  0.00     0.055 A 
ATOM      6  C5  BZF d   1       0.576   0.773  -0.092  0.00  0.00    -0.016 A 
ATOM      7  C6  BZF d   1       1.556  -0.196  -0.031  0.00  0.00     0.022 A 
ATOM      8  C7  BZF d   1       1.297  -1.428   0.471  0.00  0.00     0.029 A 
ATOM      9  C7A BZF d   1       0.014  -1.673   0.895  0.00  0.00     0.058 A 
ENDROOT
TORSDOF 0
ENDMDL
