MODEL 1
REMARK minimizedAffinity -5.2863822
REMARK minimizedRMSD -1
REMARK  0 active torsions:
REMARK  status: ('A' for Active; 'I' for Inactive)
ROOT
ATOM      1  O1  BZF d   1      -0.405  -2.940   0.920  0.00  0.00    -0.204 OA
ATOM      2  C2  BZF d   1      -1.743  -2.643   1.096  0.00  0.00     0.174 A 
ATOM      3  C3  BZF d   1      -1.971  -1.329   0.897  0.00  0.00    -0.012 A 
ATOM      4  C3A BZF d   1      -0.713  -0.786   0.486  0.00  0.00    -0.107 A 
ATOM      5  C4  BZF d   1      -0.302   0.466   0.129  0.00  0.00     0.055 A 
ATOM      6  C5  BZF d   1       1.011   0.677  -0.148  0.00  0.00    -0.016 A 
ATOM      7  C6  BZF d   1       1.941  -0.339  -0.072  0.00  0.00     0.022 A 
ATOM      8  C7  BZF d   1       1.581  -1.599   0.274  0.00  0.00     0.029 A 
ATOM      9  C7A BZF d   1       0.249  -1.823   0.522  0.00  0.00     0.058 A 
ENDROOT
TORSDOF 0
ENDMDL
