MODEL 1
REMARK minimizedAffinity -2.05766463
REMARK minimizedRMSD -1
REMARK  0 active torsions:
REMARK  status: ('A' for Active; 'I' for Inactive)
ROOT
ATOM      1  O1  BZF d   1      -2.604  -0.544   2.608  0.00  0.00    -0.204 OA
ATOM      2  C2  BZF d   1      -2.844   0.718   2.101  0.00  0.00     0.174 A 
ATOM      3  C3  BZF d   1      -1.894   1.064   1.208  0.00  0.00    -0.012 A 
ATOM      4  C3A BZF d   1      -1.056  -0.090   1.085  0.00  0.00    -0.107 A 
ATOM      5  C4  BZF d   1       0.051  -0.370   0.336  0.00  0.00     0.055 A 
ATOM      6  C5  BZF d   1       0.677  -1.565   0.504  0.00  0.00    -0.016 A 
ATOM      7  C6  BZF d   1       0.226  -2.499   1.414  0.00  0.00     0.022 A 
ATOM      8  C7  BZF d   1      -0.871  -2.268   2.175  0.00  0.00     0.029 A 
ATOM      9  C7A BZF d   1      -1.524  -1.075   1.984  0.00  0.00     0.058 A 
ENDROOT
TORSDOF 0
ENDMDL
