MODEL 1
REMARK minimizedAffinity -4.66508102
REMARK minimizedRMSD -1
REMARK  0 active torsions:
REMARK  status: ('A' for Active; 'I' for Inactive)
ROOT
ATOM      1  O1  BZF d   1       0.522   1.175   0.611  0.00  0.00    -0.204 OA
ATOM      2  C2  BZF d   1      -0.711   1.796   0.677  0.00  0.00     0.174 A 
ATOM      3  C3  BZF d   1      -1.707   0.888   0.637  0.00  0.00    -0.012 A 
ATOM      4  C3A BZF d   1      -1.055  -0.386   0.632  0.00  0.00    -0.107 A 
ATOM      5  C4  BZF d   1      -1.510  -1.673   0.615  0.00  0.00     0.055 A 
ATOM      6  C5  BZF d   1      -0.611  -2.690   0.541  0.00  0.00    -0.016 A 
ATOM      7  C6  BZF d   1       0.747  -2.456   0.479  0.00  0.00     0.022 A 
ATOM      8  C7  BZF d   1       1.246  -1.196   0.499  0.00  0.00     0.029 A 
ATOM      9  C7A BZF d   1       0.342  -0.168   0.606  0.00  0.00     0.058 A 
ENDROOT
TORSDOF 0
ENDMDL
