MODEL 1
REMARK minimizedAffinity -6.04691267
REMARK minimizedRMSD -1
REMARK  0 active torsions:
REMARK  status: ('A' for Active; 'I' for Inactive)
ROOT
ATOM      1  O1  BZF d   1      -0.648   0.673   0.240  0.00  0.00    -0.204 OA
ATOM      2  C2  BZF d   1       0.481   0.004  -0.191  0.00  0.00     0.174 A 
ATOM      3  C3  BZF d   1       0.451  -1.286   0.200  0.00  0.00    -0.012 A 
ATOM      4  C3A BZF d   1      -0.816  -1.455   0.842  0.00  0.00    -0.107 A 
ATOM      5  C4  BZF d   1      -1.438  -2.522   1.427  0.00  0.00     0.055 A 
ATOM      6  C5  BZF d   1      -2.643  -2.336   2.026  0.00  0.00    -0.016 A 
ATOM      7  C6  BZF d   1      -3.252  -1.099   2.064  0.00  0.00     0.022 A 
ATOM      8  C7  BZF d   1      -2.677  -0.013   1.493  0.00  0.00     0.029 A 
ATOM      9  C7A BZF d   1      -1.475  -0.204   0.858  0.00  0.00     0.058 A 
ENDROOT
TORSDOF 0
ENDMDL
