MODEL 1
REMARK minimizedAffinity -1.67486727
REMARK minimizedRMSD -1
REMARK  0 active torsions:
REMARK  status: ('A' for Active; 'I' for Inactive)
ROOT
ATOM      1  O1  BZF d   1       1.403   0.785  -0.239  0.00  0.00    -0.204 OA
ATOM      2  C2  BZF d   1       0.557   1.853  -0.462  0.00  0.00     0.174 A 
ATOM      3  C3  BZF d   1      -0.730   1.490  -0.283  0.00  0.00    -0.012 A 
ATOM      4  C3A BZF d   1      -0.678   0.132   0.163  0.00  0.00    -0.107 A 
ATOM      5  C4  BZF d   1      -1.634  -0.775   0.522  0.00  0.00     0.055 A 
ATOM      6  C5  BZF d   1      -1.257  -2.042   0.839  0.00  0.00    -0.016 A 
ATOM      7  C6  BZF d   1       0.064  -2.436   0.803  0.00  0.00     0.022 A 
ATOM      8  C7  BZF d   1       1.049  -1.571   0.458  0.00  0.00     0.029 A 
ATOM      9  C7A BZF d   1       0.674  -0.281   0.169  0.00  0.00     0.058 A 
ENDROOT
TORSDOF 0
ENDMDL
