MODEL 1
REMARK minimizedAffinity -2.21622443
REMARK minimizedRMSD -1
REMARK  0 active torsions:
REMARK  status: ('A' for Active; 'I' for Inactive)
ROOT
ATOM      1  O1  BZF d   1       1.442   1.335  -0.846  0.00  0.00    -0.204 OA
ATOM      2  C2  BZF d   1       0.412   2.189  -1.192  0.00  0.00     0.174 A 
ATOM      3  C3  BZF d   1      -0.782   1.653  -0.867  0.00  0.00    -0.012 A 
ATOM      4  C3A BZF d   1      -0.475   0.427  -0.197  0.00  0.00    -0.107 A 
ATOM      5  C4  BZF d   1      -1.242  -0.547   0.377  0.00  0.00     0.055 A 
ATOM      6  C5  BZF d   1      -0.635  -1.653   0.882  0.00  0.00    -0.016 A 
ATOM      7  C6  BZF d   1       0.733  -1.820   0.825  0.00  0.00     0.022 A 
ATOM      8  C7  BZF d   1       1.536  -0.879   0.270  0.00  0.00     0.029 A 
ATOM      9  C7A BZF d   1       0.928   0.255  -0.211  0.00  0.00     0.058 A 
ENDROOT
TORSDOF 0
ENDMDL
