MODEL 1
REMARK minimizedAffinity -4.31232405
REMARK minimizedRMSD -1
REMARK  0 active torsions:
REMARK  status: ('A' for Active; 'I' for Inactive)
ROOT
ATOM      1  O1  BZF d   1      -0.204   0.495  -0.248  0.00  0.00    -0.204 OA
ATOM      2  C2  BZF d   1       1.128   0.182  -0.438  0.00  0.00     0.174 A 
ATOM      3  C3  BZF d   1       1.409  -1.038   0.063  0.00  0.00    -0.012 A 
ATOM      4  C3A BZF d   1       0.155  -1.556   0.517  0.00  0.00    -0.107 A 
ATOM      5  C4  BZF d   1      -0.218  -2.735   1.097  0.00  0.00     0.055 A 
ATOM      6  C5  BZF d   1      -1.510  -2.899   1.486  0.00  0.00    -0.016 A 
ATOM      7  C6  BZF d   1      -2.452  -1.905   1.315  0.00  0.00     0.022 A 
ATOM      8  C7  BZF d   1      -2.129  -0.721   0.739  0.00  0.00     0.029 A 
ATOM      9  C7A BZF d   1      -0.832  -0.565   0.315  0.00  0.00     0.058 A 
ENDROOT
TORSDOF 0
ENDMDL
