MODEL 1
REMARK minimizedAffinity 0.352383286
REMARK minimizedRMSD -1
REMARK  0 active torsions:
REMARK  status: ('A' for Active; 'I' for Inactive)
ROOT
ATOM      1  O1  BZF d   1       0.560   0.859  -0.271  0.00  0.00    -0.204 OA
ATOM      2  C2  BZF d   1      -0.630   1.531  -0.068  0.00  0.00     0.174 A 
ATOM      3  C3  BZF d   1      -1.568   0.701   0.433  0.00  0.00    -0.012 A 
ATOM      4  C3A BZF d   1      -0.898  -0.546   0.637  0.00  0.00    -0.107 A 
ATOM      5  C4  BZF d   1      -1.295  -1.757   1.128  0.00  0.00     0.055 A 
ATOM      6  C5  BZF d   1      -0.415  -2.792   1.126  0.00  0.00    -0.016 A 
ATOM      7  C6  BZF d   1       0.868  -2.653   0.637  0.00  0.00     0.022 A 
ATOM      8  C7  BZF d   1       1.309  -1.470   0.145  0.00  0.00     0.029 A 
ATOM      9  C7A BZF d   1       0.433  -0.414   0.175  0.00  0.00     0.058 A 
ENDROOT
TORSDOF 0
ENDMDL
