MODEL 1
REMARK minimizedAffinity -6.30147696
REMARK minimizedRMSD -1
REMARK  0 active torsions:
REMARK  status: ('A' for Active; 'I' for Inactive)
ROOT
ATOM      1  O1  BZF d   1       1.512  -0.326   0.468  0.00  0.00    -0.204 OA
ATOM      2  C2  BZF d   1       1.168   0.967   0.123  0.00  0.00     0.174 A 
ATOM      3  C3  BZF d   1      -0.162   1.072  -0.073  0.00  0.00    -0.012 A 
ATOM      4  C3A BZF d   1      -0.693  -0.215   0.254  0.00  0.00    -0.107 A 
ATOM      5  C4  BZF d   1      -1.957  -0.732   0.271  0.00  0.00     0.055 A 
ATOM      6  C5  BZF d   1      -2.129  -2.048   0.567  0.00  0.00    -0.016 A 
ATOM      7  C6  BZF d   1      -1.060  -2.875   0.845  0.00  0.00     0.022 A 
ATOM      8  C7  BZF d   1       0.212  -2.406   0.845  0.00  0.00     0.029 A 
ATOM      9  C7A BZF d   1       0.385  -1.070   0.579  0.00  0.00     0.058 A 
ENDROOT
TORSDOF 0
ENDMDL
