MODEL 1
REMARK minimizedAffinity -4.68262529
REMARK minimizedRMSD -1
REMARK  0 active torsions:
REMARK  status: ('A' for Active; 'I' for Inactive)
ROOT
ATOM      1  O1  BZF d   1      -0.997  -3.046   1.245  0.00  0.00    -0.204 OA
ATOM      2  C2  BZF d   1      -2.268  -2.673   0.852  0.00  0.00     0.174 A 
ATOM      3  C3  BZF d   1      -2.249  -1.460   0.262  0.00  0.00    -0.012 A 
ATOM      4  C3A BZF d   1      -0.868  -1.091   0.205  0.00  0.00    -0.107 A 
ATOM      5  C4  BZF d   1      -0.207  -0.001  -0.285  0.00  0.00     0.055 A 
ATOM      6  C5  BZF d   1       1.138   0.086  -0.118  0.00  0.00    -0.016 A 
ATOM      7  C6  BZF d   1       1.854  -0.896   0.537  0.00  0.00     0.022 A 
ATOM      8  C7  BZF d   1       1.243  -1.998   1.035  0.00  0.00     0.029 A 
ATOM      9  C7A BZF d   1      -0.113  -2.104   0.839  0.00  0.00     0.058 A 
ENDROOT
TORSDOF 0
ENDMDL
