MODEL 1
REMARK minimizedAffinity -5.16820765
REMARK minimizedRMSD -1
REMARK  0 active torsions:
REMARK  status: ('A' for Active; 'I' for Inactive)
ROOT
ATOM      1  O1  BZF d   1       1.183  -0.163   0.045  0.00  0.00    -0.204 OA
ATOM      2  C2  BZF d   1       0.688   1.064  -0.353  0.00  0.00     0.174 A 
ATOM      3  C3  BZF d   1      -0.660   1.054  -0.369  0.00  0.00    -0.012 A 
ATOM      4  C3A BZF d   1      -1.033  -0.233   0.133  0.00  0.00    -0.107 A 
ATOM      5  C4  BZF d   1      -2.235  -0.836   0.369  0.00  0.00     0.055 A 
ATOM      6  C5  BZF d   1      -2.254  -2.127   0.792  0.00  0.00    -0.016 A 
ATOM      7  C6  BZF d   1      -1.092  -2.845   0.986  0.00  0.00     0.022 A 
ATOM      8  C7  BZF d   1       0.124  -2.288   0.770  0.00  0.00     0.029 A 
ATOM      9  C7A BZF d   1       0.147  -0.973   0.373  0.00  0.00     0.058 A 
ENDROOT
TORSDOF 0
ENDMDL
