MODEL 1
REMARK minimizedAffinity 1.9405576
REMARK minimizedRMSD -1
REMARK  0 active torsions:
REMARK  status: ('A' for Active; 'I' for Inactive)
ROOT
ATOM      1  C   UNL d   1       2.072  -2.492  -3.817  0.00  0.00     0.077 C 
ATOM      2  C1  UNL d   1       2.453  -1.518  -2.742  0.00  0.00    -0.074 A 
ATOM      3  C2  UNL d   1       3.710  -1.574  -2.132  0.00  0.00    -0.005 A 
ATOM      4  C3  UNL d   1       4.052  -0.656  -1.141  0.00  0.00     0.006 A 
ATOM      5  C4  UNL d   1       3.143   0.328  -0.750  0.00  0.00    -0.005 A 
ATOM      6  C5  UNL d   1       1.882   0.401  -1.349  0.00  0.00    -0.074 A 
ATOM      7  C6  UNL d   1       0.896   1.458  -0.947  0.00  0.00     0.077 C 
ATOM      8  C7  UNL d   1       1.547  -0.522  -2.350  0.00  0.00    -0.001 A 
ENDROOT
TORSDOF 0
ENDMDL
