MODEL 1
REMARK minimizedAffinity -2.15038276
REMARK minimizedRMSD -1
REMARK  0 active torsions:
REMARK  status: ('A' for Active; 'I' for Inactive)
ROOT
ATOM      1  C   UNL d   1      -0.927   0.751   2.574  0.00  0.00     0.077 C 
ATOM      2  C1  UNL d   1      -0.434   0.588   1.167  0.00  0.00    -0.074 A 
ATOM      3  C2  UNL d   1      -0.766   1.517   0.176  0.00  0.00    -0.005 A 
ATOM      4  C3  UNL d   1      -0.292   1.356  -1.126  0.00  0.00     0.006 A 
ATOM      5  C4  UNL d   1       0.518   0.267  -1.449  0.00  0.00    -0.005 A 
ATOM      6  C5  UNL d   1       0.861  -0.672  -0.471  0.00  0.00    -0.074 A 
ATOM      7  C6  UNL d   1       1.738  -1.844  -0.800  0.00  0.00     0.077 C 
ATOM      8  C7  UNL d   1       0.386  -0.500   0.836  0.00  0.00    -0.001 A 
ENDROOT
TORSDOF 0
ENDMDL
