MODEL 1
REMARK minimizedAffinity 4.78497696
REMARK minimizedRMSD -1
REMARK  0 active torsions:
REMARK  status: ('A' for Active; 'I' for Inactive)
ROOT
ATOM      1  C   UNL d   1      -0.727   2.222  -0.802  0.00  0.00     0.077 C 
ATOM      2  C1  UNL d   1       0.553   1.820  -1.472  0.00  0.00    -0.074 A 
ATOM      3  C2  UNL d   1       1.060   2.552  -2.551  0.00  0.00    -0.005 A 
ATOM      4  C3  UNL d   1       2.256   2.171  -3.158  0.00  0.00     0.006 A 
ATOM      5  C4  UNL d   1       2.957   1.057  -2.694  0.00  0.00    -0.005 A 
ATOM      6  C5  UNL d   1       2.465   0.314  -1.616  0.00  0.00    -0.074 A 
ATOM      7  C6  UNL d   1       3.211  -0.880  -1.098  0.00  0.00     0.077 C 
ATOM      8  C7  UNL d   1       1.266   0.707  -1.006  0.00  0.00    -0.001 A 
ENDROOT
TORSDOF 0
ENDMDL
