MODEL 1
REMARK minimizedAffinity -1.23233759
REMARK minimizedRMSD -1
REMARK  0 active torsions:
REMARK  status: ('A' for Active; 'I' for Inactive)
ROOT
ATOM      1  C   UNL d   1      -3.398  -2.780  -1.248  0.00  0.00     0.077 C 
ATOM      2  C1  UNL d   1      -2.203  -1.877  -1.166  0.00  0.00    -0.074 A 
ATOM      3  C2  UNL d   1      -2.342  -0.531  -0.816  0.00  0.00    -0.005 A 
ATOM      4  C3  UNL d   1      -1.221   0.294  -0.734  0.00  0.00     0.006 A 
ATOM      5  C4  UNL d   1       0.049  -0.218  -1.001  0.00  0.00    -0.005 A 
ATOM      6  C5  UNL d   1       0.208  -1.563  -1.352  0.00  0.00    -0.074 A 
ATOM      7  C6  UNL d   1       1.567  -2.132  -1.632  0.00  0.00     0.077 C 
ATOM      8  C7  UNL d   1      -0.923  -2.387  -1.425  0.00  0.00    -0.001 A 
ENDROOT
TORSDOF 0
ENDMDL
