MODEL 1
REMARK minimizedAffinity 4.39764833
REMARK minimizedRMSD -1
REMARK  0 active torsions:
REMARK  status: ('A' for Active; 'I' for Inactive)
ROOT
ATOM      1  C   UNL d   1       0.888   3.628  -3.408  0.00  0.00     0.077 C 
ATOM      2  C1  UNL d   1       0.933   2.346  -2.631  0.00  0.00    -0.074 A 
ATOM      3  C2  UNL d   1       2.043   1.498  -2.706  0.00  0.00    -0.005 A 
ATOM      4  C3  UNL d   1       2.074   0.314  -1.971  0.00  0.00     0.006 A 
ATOM      5  C4  UNL d   1       0.998  -0.035  -1.154  0.00  0.00    -0.005 A 
ATOM      6  C5  UNL d   1      -0.120   0.800  -1.066  0.00  0.00    -0.074 A 
ATOM      7  C6  UNL d   1      -1.281   0.445  -0.185  0.00  0.00     0.077 C 
ATOM      8  C7  UNL d   1      -0.141   1.992  -1.802  0.00  0.00    -0.001 A 
ENDROOT
TORSDOF 0
ENDMDL
