MODEL 1
REMARK minimizedAffinity -1.06279802
REMARK minimizedRMSD -1
REMARK  0 active torsions:
REMARK  status: ('A' for Active; 'I' for Inactive)
ROOT
ATOM      1  C   UNL d   1      -1.456  -2.978  -0.807  0.00  0.00     0.077 C 
ATOM      2  C1  UNL d   1      -0.073  -2.890  -1.382  0.00  0.00    -0.074 A 
ATOM      3  C2  UNL d   1       0.350  -3.777  -2.377  0.00  0.00    -0.005 A 
ATOM      4  C3  UNL d   1       1.636  -3.677  -2.909  0.00  0.00     0.006 A 
ATOM      5  C4  UNL d   1       2.510  -2.691  -2.451  0.00  0.00    -0.005 A 
ATOM      6  C5  UNL d   1       2.105  -1.795  -1.456  0.00  0.00    -0.074 A 
ATOM      7  C6  UNL d   1       3.029  -0.723  -0.960  0.00  0.00     0.077 C 
ATOM      8  C7  UNL d   1       0.809  -1.897  -0.932  0.00  0.00    -0.001 A 
ENDROOT
TORSDOF 0
ENDMDL
