MODEL 1
REMARK minimizedAffinity 4.85756063
REMARK minimizedRMSD -1
REMARK  0 active torsions:
REMARK  status: ('A' for Active; 'I' for Inactive)
ROOT
ATOM      1  C   UNL d   1      -2.550  -2.832  -0.475  0.00  0.00     0.077 C 
ATOM      2  C1  UNL d   1      -1.820  -1.529  -0.344  0.00  0.00    -0.074 A 
ATOM      3  C2  UNL d   1      -2.421  -0.427   0.274  0.00  0.00    -0.005 A 
ATOM      4  C3  UNL d   1      -1.727   0.776   0.397  0.00  0.00     0.006 A 
ATOM      5  C4  UNL d   1      -0.426   0.890  -0.096  0.00  0.00    -0.005 A 
ATOM      6  C5  UNL d   1       0.192  -0.201  -0.716  0.00  0.00    -0.074 A 
ATOM      7  C6  UNL d   1       1.592  -0.099  -1.242  0.00  0.00     0.077 C 
ATOM      8  C7  UNL d   1      -0.511  -1.409  -0.829  0.00  0.00    -0.001 A 
ENDROOT
TORSDOF 0
ENDMDL
