MODEL 1
REMARK minimizedAffinity 10.4500322
REMARK minimizedRMSD -1
REMARK  0 active torsions:
REMARK  status: ('A' for Active; 'I' for Inactive)
ROOT
ATOM      1  C   UNL d   1      -1.178   1.029  -0.245  0.00  0.00     0.077 C 
ATOM      2  C1  UNL d   1       0.127   1.015  -0.983  0.00  0.00    -0.074 A 
ATOM      3  C2  UNL d   1       1.011  -0.061  -0.859  0.00  0.00    -0.005 A 
ATOM      4  C3  UNL d   1       2.217  -0.065  -1.560  0.00  0.00     0.006 A 
ATOM      5  C4  UNL d   1       2.551   1.006  -2.390  0.00  0.00    -0.005 A 
ATOM      6  C5  UNL d   1       1.679   2.090  -2.527  0.00  0.00    -0.074 A 
ATOM      7  C6  UNL d   1       2.018   3.245  -3.423  0.00  0.00     0.077 C 
ATOM      8  C7  UNL d   1       0.466   2.083  -1.825  0.00  0.00    -0.001 A 
ENDROOT
TORSDOF 0
ENDMDL
