MODEL 1
REMARK minimizedAffinity 4.40296984
REMARK minimizedRMSD -1
REMARK  0 active torsions:
REMARK  status: ('A' for Active; 'I' for Inactive)
ROOT
ATOM      1  C   UNL d   1      -0.663   1.391  -0.472  0.00  0.00     0.077 C 
ATOM      2  C1  UNL d   1       0.541   1.302  -1.362  0.00  0.00    -0.074 A 
ATOM      3  C2  UNL d   1       1.367   0.174  -1.342  0.00  0.00    -0.005 A 
ATOM      4  C3  UNL d   1       2.478   0.101  -2.182  0.00  0.00     0.006 A 
ATOM      5  C4  UNL d   1       2.774   1.153  -3.049  0.00  0.00    -0.005 A 
ATOM      6  C5  UNL d   1       1.959   2.289  -3.084  0.00  0.00    -0.074 A 
ATOM      7  C6  UNL d   1       2.256   3.425  -4.017  0.00  0.00     0.077 C 
ATOM      8  C7  UNL d   1       0.840   2.352  -2.241  0.00  0.00    -0.001 A 
ENDROOT
TORSDOF 0
ENDMDL
