MODEL 1
REMARK minimizedAffinity 0.385727525
REMARK minimizedRMSD -1
REMARK  0 active torsions:
REMARK  status: ('A' for Active; 'I' for Inactive)
ROOT
ATOM      1  C   UNL d   1       1.859   2.820  -3.595  0.00  0.00     0.077 C 
ATOM      2  C1  UNL d   1       1.693   1.765  -2.541  0.00  0.00    -0.074 A 
ATOM      3  C2  UNL d   1       2.596   0.701  -2.441  0.00  0.00    -0.005 A 
ATOM      4  C3  UNL d   1       2.434  -0.268  -1.450  0.00  0.00     0.006 A 
ATOM      5  C4  UNL d   1       1.370  -0.182  -0.551  0.00  0.00    -0.005 A 
ATOM      6  C5  UNL d   1       0.458   0.875  -0.636  0.00  0.00    -0.074 A 
ATOM      7  C6  UNL d   1      -0.685   0.987   0.329  0.00  0.00     0.077 C 
ATOM      8  C7  UNL d   1       0.632   1.848  -1.630  0.00  0.00    -0.001 A 
ENDROOT
TORSDOF 0
ENDMDL
