MODEL 1
REMARK minimizedAffinity 4.77352667
REMARK minimizedRMSD -1
REMARK  0 active torsions:
REMARK  status: ('A' for Active; 'I' for Inactive)
ROOT
ATOM      1  C   UNL d   1      -2.560  -3.181  -0.853  0.00  0.00     0.077 C 
ATOM      2  C1  UNL d   1      -1.705  -1.951  -0.786  0.00  0.00    -0.074 A 
ATOM      3  C2  UNL d   1      -2.233  -0.732  -0.347  0.00  0.00    -0.005 A 
ATOM      4  C3  UNL d   1      -1.423   0.402  -0.281  0.00  0.00     0.006 A 
ATOM      5  C4  UNL d   1      -0.080   0.329  -0.653  0.00  0.00    -0.005 A 
ATOM      6  C5  UNL d   1       0.465  -0.881  -1.094  0.00  0.00    -0.074 A 
ATOM      7  C6  UNL d   1       1.909  -0.979  -1.488  0.00  0.00     0.077 C 
ATOM      8  C7  UNL d   1      -0.353  -2.018  -1.151  0.00  0.00    -0.001 A 
ENDROOT
TORSDOF 0
ENDMDL
