MODEL 1
REMARK minimizedAffinity 10.625741
REMARK minimizedRMSD -1
REMARK  0 active torsions:
REMARK  status: ('A' for Active; 'I' for Inactive)
ROOT
ATOM      1  C   UNL d   1      -2.292  -0.334  -0.452  0.00  0.00     0.077 C 
ATOM      2  C1  UNL d   1      -1.069   0.466  -0.114  0.00  0.00    -0.074 A 
ATOM      3  C2  UNL d   1      -1.046   1.307   1.003  0.00  0.00    -0.005 A 
ATOM      4  C3  UNL d   1       0.102   2.038   1.310  0.00  0.00     0.006 A 
ATOM      5  C4  UNL d   1       1.237   1.935   0.504  0.00  0.00    -0.005 A 
ATOM      6  C5  UNL d   1       1.233   1.098  -0.617  0.00  0.00    -0.074 A 
ATOM      7  C6  UNL d   1       2.447   0.969  -1.488  0.00  0.00     0.077 C 
ATOM      8  C7  UNL d   1       0.078   0.362  -0.914  0.00  0.00    -0.001 A 
ENDROOT
TORSDOF 0
ENDMDL
