MODEL 1
REMARK minimizedAffinity 4.06504822
REMARK minimizedRMSD -1
REMARK  0 active torsions:
REMARK  status: ('A' for Active; 'I' for Inactive)
ROOT
ATOM      1  C   UNL d   1      -1.720  -2.218  -0.659  0.00  0.00     0.077 C 
ATOM      2  C1  UNL d   1      -0.316  -2.302  -1.182  0.00  0.00    -0.074 A 
ATOM      3  C2  UNL d   1       0.059  -3.313  -2.073  0.00  0.00    -0.005 A 
ATOM      4  C3  UNL d   1       1.365  -3.373  -2.558  0.00  0.00     0.006 A 
ATOM      5  C4  UNL d   1       2.308  -2.425  -2.158  0.00  0.00    -0.005 A 
ATOM      6  C5  UNL d   1       1.951  -1.407  -1.268  0.00  0.00    -0.074 A 
ATOM      7  C6  UNL d   1       2.949  -0.375  -0.836  0.00  0.00     0.077 C 
ATOM      8  C7  UNL d   1       0.634  -1.349  -0.791  0.00  0.00    -0.001 A 
ENDROOT
TORSDOF 0
ENDMDL
