MODEL 1
REMARK minimizedAffinity 9.20885181
REMARK minimizedRMSD -1
REMARK  0 active torsions:
REMARK  status: ('A' for Active; 'I' for Inactive)
ROOT
ATOM      1  C   UNL d   1       3.988   6.000  -2.849  0.00  0.00     0.077 C 
ATOM      2  C1  UNL d   1       2.944   4.935  -3.010  0.00  0.00    -0.074 A 
ATOM      3  C2  UNL d   1       1.639   5.259  -3.395  0.00  0.00    -0.005 A 
ATOM      4  C3  UNL d   1       0.682   4.257  -3.549  0.00  0.00     0.006 A 
ATOM      5  C4  UNL d   1       1.019   2.922  -3.321  0.00  0.00    -0.005 A 
ATOM      6  C5  UNL d   1       2.319   2.578  -2.936  0.00  0.00    -0.074 A 
ATOM      7  C6  UNL d   1       2.700   1.148  -2.696  0.00  0.00     0.077 C 
ATOM      8  C7  UNL d   1       3.277   3.591  -2.790  0.00  0.00    -0.001 A 
ENDROOT
TORSDOF 0
ENDMDL
