MODEL 1
REMARK minimizedAffinity 4.29125977
REMARK minimizedRMSD -1
REMARK  0 active torsions:
REMARK  status: ('A' for Active; 'I' for Inactive)
ROOT
ATOM      1  C   UNL d   1      -1.682   1.274  -0.257  0.00  0.00     0.077 C 
ATOM      2  C1  UNL d   1      -0.211   1.331   0.027  0.00  0.00    -0.074 A 
ATOM      3  C2  UNL d   1       0.263   1.559   1.323  0.00  0.00    -0.005 A 
ATOM      4  C3  UNL d   1       1.634   1.600   1.574  0.00  0.00     0.006 A 
ATOM      5  C4  UNL d   1       2.545   1.414   0.534  0.00  0.00    -0.005 A 
ATOM      6  C5  UNL d   1       2.090   1.184  -0.769  0.00  0.00    -0.074 A 
ATOM      7  C6  UNL d   1       3.055   0.973  -1.897  0.00  0.00     0.077 C 
ATOM      8  C7  UNL d   1       0.711   1.138  -1.012  0.00  0.00    -0.001 A 
ENDROOT
TORSDOF 0
ENDMDL
