MODEL 1
REMARK minimizedAffinity -4.54646587
REMARK minimizedRMSD -1
REMARK  0 active torsions:
REMARK  status: ('A' for Active; 'I' for Inactive)
ROOT
ATOM      1  C   UNL d   1       2.839   0.120  -0.058  0.00  0.00     0.077 C 
ATOM      2  C1  UNL d   1       1.365   0.312  -0.260  0.00  0.00    -0.074 A 
ATOM      3  C2  UNL d   1       0.458  -0.705   0.053  0.00  0.00    -0.005 A 
ATOM      4  C3  UNL d   1      -0.910  -0.508  -0.131  0.00  0.00     0.006 A 
ATOM      5  C4  UNL d   1      -1.385   0.706  -0.629  0.00  0.00    -0.005 A 
ATOM      6  C5  UNL d   1      -0.493   1.735  -0.947  0.00  0.00    -0.074 A 
ATOM      7  C6  UNL d   1      -0.986   3.049  -1.475  0.00  0.00     0.077 C 
ATOM      8  C7  UNL d   1       0.880   1.532  -0.753  0.00  0.00    -0.001 A 
ENDROOT
TORSDOF 0
ENDMDL
