MODEL 1
REMARK minimizedAffinity 3.20061135
REMARK minimizedRMSD -1
REMARK  0 active torsions:
REMARK  status: ('A' for Active; 'I' for Inactive)
ROOT
ATOM      1  C   UNL d   1      -0.782  -0.004  -0.381  0.00  0.00     0.077 C 
ATOM      2  C1  UNL d   1       0.540  -0.115  -1.082  0.00  0.00    -0.074 A 
ATOM      3  C2  UNL d   1       1.438  -1.139  -0.765  0.00  0.00    -0.005 A 
ATOM      4  C3  UNL d   1       2.659  -1.234  -1.432  0.00  0.00     0.006 A 
ATOM      5  C4  UNL d   1       2.994  -0.308  -2.420  0.00  0.00    -0.005 A 
ATOM      6  C5  UNL d   1       2.108   0.722  -2.751  0.00  0.00    -0.074 A 
ATOM      7  C6  UNL d   1       2.449   1.720  -3.818  0.00  0.00     0.077 C 
ATOM      8  C7  UNL d   1       0.880   0.807  -2.082  0.00  0.00    -0.001 A 
ENDROOT
TORSDOF 0
ENDMDL
