MODEL 1
REMARK minimizedAffinity 3.93819189
REMARK minimizedRMSD -1
REMARK  0 active torsions:
REMARK  status: ('A' for Active; 'I' for Inactive)
ROOT
ATOM      1  C   UNL d   1       1.227  -4.272   1.417  0.00  0.00     0.077 C 
ATOM      2  C1  UNL d   1       1.243  -3.129   0.446  0.00  0.00    -0.074 A 
ATOM      3  C2  UNL d   1       0.070  -2.710  -0.190  0.00  0.00    -0.005 A 
ATOM      4  C3  UNL d   1       0.098  -1.639  -1.083  0.00  0.00     0.006 A 
ATOM      5  C4  UNL d   1       1.298  -0.977  -1.349  0.00  0.00    -0.005 A 
ATOM      6  C5  UNL d   1       2.481  -1.382  -0.721  0.00  0.00    -0.074 A 
ATOM      7  C6  UNL d   1       3.776  -0.675  -0.988  0.00  0.00     0.077 C 
ATOM      8  C7  UNL d   1       2.443  -2.454   0.180  0.00  0.00    -0.001 A 
ENDROOT
TORSDOF 0
ENDMDL
