MODEL 1
REMARK minimizedAffinity 2.68950939
REMARK minimizedRMSD -1
REMARK  0 active torsions:
REMARK  status: ('A' for Active; 'I' for Inactive)
ROOT
ATOM      1  C   UNL d   1      -1.002   1.924  -0.719  0.00  0.00     0.077 C 
ATOM      2  C1  UNL d   1       0.258   1.573  -1.452  0.00  0.00    -0.074 A 
ATOM      3  C2  UNL d   1       0.783   2.426  -2.429  0.00  0.00    -0.005 A 
ATOM      4  C3  UNL d   1       1.962   2.091  -3.095  0.00  0.00     0.006 A 
ATOM      5  C4  UNL d   1       2.626   0.902  -2.793  0.00  0.00    -0.005 A 
ATOM      6  C5  UNL d   1       2.117   0.037  -1.819  0.00  0.00    -0.074 A 
ATOM      7  C6  UNL d   1       2.824  -1.240  -1.475  0.00  0.00     0.077 C 
ATOM      8  C7  UNL d   1       0.936   0.384  -1.149  0.00  0.00    -0.001 A 
ENDROOT
TORSDOF 0
ENDMDL
