MODEL 1
REMARK minimizedAffinity -0.487494707
REMARK minimizedRMSD -1
REMARK  1 active torsions:
REMARK  status: ('A' for Active; 'I' for Inactive)
REMARK    1  A    between atoms: C3_4  and  O_7 
ROOT
ATOM      1  C   UNL d   1       1.475  -0.739  -0.051  0.00  0.00    -0.033 A 
ATOM      2  C1  UNL d   1       1.750   0.471   0.589  0.00  0.00     0.039 A 
ATOM      3  C2  UNL d   1       2.678   1.358   0.038  0.00  0.00    -0.080 A 
ATOM      4  C3  UNL d   1       3.321   1.024  -1.150  0.00  0.00     0.150 A 
ATOM      5  C4  UNL d   1       3.049  -0.179  -1.794  0.00  0.00    -0.007 A 
ATOM      6  C5  UNL d   1       2.123  -1.063  -1.243  0.00  0.00     0.039 A 
ENDROOT
BRANCH   4   7
ATOM      7  O   UNL d   1       4.238   1.855  -1.722  0.00  0.00    -0.526 OA
ATOM      8  H5  UNL d   1       4.345   2.634  -1.152  0.00  0.00     0.418 HD
ENDBRANCH   4   7
TORSDOF 1
ENDMDL
