MODEL 1
REMARK minimizedAffinity -4.75476313
REMARK minimizedRMSD -1
REMARK  1 active torsions:
REMARK  status: ('A' for Active; 'I' for Inactive)
REMARK    1  A    between atoms: C3_4  and  O_7 
ROOT
ATOM      1  C   UNL d   1       1.235  -0.024   0.105  0.00  0.00    -0.033 A 
ATOM      2  C1  UNL d   1       1.759  -1.003  -0.742  0.00  0.00     0.039 A 
ATOM      3  C2  UNL d   1       2.770  -0.676  -1.648  0.00  0.00    -0.080 A 
ATOM      4  C3  UNL d   1       3.248   0.631  -1.697  0.00  0.00     0.150 A 
ATOM      5  C4  UNL d   1       2.733   1.610  -0.854  0.00  0.00    -0.007 A 
ATOM      6  C5  UNL d   1       1.723   1.282   0.050  0.00  0.00     0.039 A 
ENDROOT
BRANCH   4   7
ATOM      7  O   UNL d   1       4.230   0.998  -2.568  0.00  0.00    -0.526 OA
ATOM      8  H5  UNL d   1       4.469   0.226  -3.107  0.00  0.00     0.418 HD
ENDBRANCH   4   7
TORSDOF 1
ENDMDL
