MODEL 1
REMARK minimizedAffinity -0.431403726
REMARK minimizedRMSD -1
REMARK  1 active torsions:
REMARK  status: ('A' for Active; 'I' for Inactive)
REMARK    1  A    between atoms: C3_4  and  O_7 
ROOT
ATOM      1  C   UNL d   1       1.367  -0.666  -0.471  0.00  0.00    -0.033 A 
ATOM      2  C1  UNL d   1       2.695  -0.884  -0.843  0.00  0.00     0.039 A 
ATOM      3  C2  UNL d   1       3.578   0.193  -0.949  0.00  0.00    -0.080 A 
ATOM      4  C3  UNL d   1       3.121   1.480  -0.679  0.00  0.00     0.150 A 
ATOM      5  C4  UNL d   1       1.800   1.704  -0.304  0.00  0.00    -0.007 A 
ATOM      6  C5  UNL d   1       0.920   0.627  -0.200  0.00  0.00     0.039 A 
ENDROOT
BRANCH   4   7
ATOM      7  O   UNL d   1       3.944   2.563  -0.774  0.00  0.00    -0.526 OA
ATOM      8  H5  UNL d   1       4.818   2.260  -1.070  0.00  0.00     0.418 HD
ENDBRANCH   4   7
TORSDOF 1
ENDMDL
