MODEL 1
REMARK minimizedAffinity 2.9188416
REMARK minimizedRMSD -1
REMARK  1 active torsions:
REMARK  status: ('A' for Active; 'I' for Inactive)
REMARK    1  A    between atoms: C3_4  and  O_7 
ROOT
ATOM      1  C   UNL d   1       5.607   1.965  -1.262  0.00  0.00    -0.033 A 
ATOM      2  C1  UNL d   1       4.509   2.155  -2.103  0.00  0.00     0.039 A 
ATOM      3  C2  UNL d   1       3.331   1.436  -1.890  0.00  0.00    -0.080 A 
ATOM      4  C3  UNL d   1       3.265   0.531  -0.834  0.00  0.00     0.150 A 
ATOM      5  C4  UNL d   1       4.353   0.339   0.010  0.00  0.00    -0.007 A 
ATOM      6  C5  UNL d   1       5.529   1.058  -0.205  0.00  0.00     0.039 A 
ENDROOT
BRANCH   4   7
ATOM      7  O   UNL d   1       2.138  -0.197  -0.590  0.00  0.00    -0.526 OA
ATOM      8  H5  UNL d   1       1.479   0.019  -1.270  0.00  0.00     0.418 HD
ENDBRANCH   4   7
TORSDOF 1
ENDMDL
