MODEL 1
REMARK minimizedAffinity 3.21400499
REMARK minimizedRMSD -1
REMARK  1 active torsions:
REMARK  status: ('A' for Active; 'I' for Inactive)
REMARK    1  A    between atoms: C3_4  and  O_7 
ROOT
ATOM      1  C   UNL d   1       3.806   2.971  -0.306  0.00  0.00    -0.033 A 
ATOM      2  C1  UNL d   1       4.609   1.985  -0.884  0.00  0.00     0.039 A 
ATOM      3  C2  UNL d   1       4.123   0.685  -1.032  0.00  0.00    -0.080 A 
ATOM      4  C3  UNL d   1       2.834   0.383  -0.600  0.00  0.00     0.150 A 
ATOM      5  C4  UNL d   1       2.028   1.361  -0.027  0.00  0.00    -0.007 A 
ATOM      6  C5  UNL d   1       2.515   2.659   0.121  0.00  0.00     0.039 A 
ENDROOT
BRANCH   4   7
ATOM      7  O   UNL d   1       2.318  -0.873  -0.719  0.00  0.00    -0.526 OA
ATOM      8  H5  UNL d   1       2.998  -1.449  -1.106  0.00  0.00     0.418 HD
ENDBRANCH   4   7
TORSDOF 1
ENDMDL
