MODEL 1
REMARK minimizedAffinity 1.5785898
REMARK minimizedRMSD -1
REMARK  1 active torsions:
REMARK  status: ('A' for Active; 'I' for Inactive)
REMARK    1  A    between atoms: C3_4  and  O_7 
ROOT
ATOM      1  C   UNL d   1       2.877   0.207  -1.822  0.00  0.00    -0.033 A 
ATOM      2  C1  UNL d   1       3.661   1.159  -1.165  0.00  0.00     0.039 A 
ATOM      3  C2  UNL d   1       3.469   1.405   0.195  0.00  0.00    -0.080 A 
ATOM      4  C3  UNL d   1       2.493   0.694   0.888  0.00  0.00     0.150 A 
ATOM      5  C4  UNL d   1       1.712  -0.259   0.241  0.00  0.00    -0.007 A 
ATOM      6  C5  UNL d   1       1.904  -0.503  -1.118  0.00  0.00     0.039 A 
ENDROOT
BRANCH   4   7
ATOM      7  O   UNL d   1       2.266   0.903   2.216  0.00  0.00    -0.526 OA
ATOM      8  H5  UNL d   1       2.859   1.608   2.522  0.00  0.00     0.418 HD
ENDBRANCH   4   7
TORSDOF 1
ENDMDL
