MODEL 1
REMARK minimizedAffinity -0.527265072
REMARK minimizedRMSD -1
REMARK  1 active torsions:
REMARK  status: ('A' for Active; 'I' for Inactive)
REMARK    1  A    between atoms: C3_4  and  O_7 
ROOT
ATOM      1  C   UNL d   1       3.895   2.210  -0.936  0.00  0.00    -0.033 A 
ATOM      2  C1  UNL d   1       4.592   1.096  -0.465  0.00  0.00     0.039 A 
ATOM      3  C2  UNL d   1       3.895  -0.033  -0.030  0.00  0.00    -0.080 A 
ATOM      4  C3  UNL d   1       2.504  -0.036  -0.074  0.00  0.00     0.150 A 
ATOM      5  C4  UNL d   1       1.803   1.070  -0.546  0.00  0.00    -0.007 A 
ATOM      6  C5  UNL d   1       2.501   2.196  -0.978  0.00  0.00     0.039 A 
ENDROOT
BRANCH   4   7
ATOM      7  O   UNL d   1       1.780  -1.113   0.344  0.00  0.00    -0.526 OA
ATOM      8  H5  UNL d   1       2.396  -1.790   0.670  0.00  0.00     0.418 HD
ENDBRANCH   4   7
TORSDOF 1
ENDMDL
