MODEL 1
REMARK minimizedAffinity -0.764996767
REMARK minimizedRMSD -1
REMARK  1 active torsions:
REMARK  status: ('A' for Active; 'I' for Inactive)
REMARK    1  A    between atoms: C3_4  and  O_7 
ROOT
ATOM      1  C   UNL d   1       1.915  -1.680  -1.106  0.00  0.00    -0.033 A 
ATOM      2  C1  UNL d   1       1.913  -0.671  -0.141  0.00  0.00     0.039 A 
ATOM      3  C2  UNL d   1       2.576   0.533  -0.385  0.00  0.00    -0.080 A 
ATOM      4  C3  UNL d   1       3.235   0.715  -1.598  0.00  0.00     0.150 A 
ATOM      5  C4  UNL d   1       3.238  -0.284  -2.566  0.00  0.00    -0.007 A 
ATOM      6  C5  UNL d   1       2.576  -1.486  -2.319  0.00  0.00     0.039 A 
ENDROOT
BRANCH   4   7
ATOM      7  O   UNL d   1       3.901   1.872  -1.880  0.00  0.00    -0.526 OA
ATOM      8  H5  UNL d   1       3.837   2.459  -1.108  0.00  0.00     0.418 HD
ENDBRANCH   4   7
TORSDOF 1
ENDMDL
