MODEL 1
REMARK minimizedAffinity -2.76956415
REMARK minimizedRMSD -1
REMARK  1 active torsions:
REMARK  status: ('A' for Active; 'I' for Inactive)
REMARK    1  A    between atoms: C3_4  and  O_7 
ROOT
ATOM      1  C   UNL d   1       3.376   1.746  -0.739  0.00  0.00    -0.033 A 
ATOM      2  C1  UNL d   1       3.775   0.532  -1.300  0.00  0.00     0.039 A 
ATOM      3  C2  UNL d   1       3.019  -0.622  -1.083  0.00  0.00    -0.080 A 
ATOM      4  C3  UNL d   1       1.867  -0.547  -0.305  0.00  0.00     0.150 A 
ATOM      5  C4  UNL d   1       1.461   0.660   0.254  0.00  0.00    -0.007 A 
ATOM      6  C5  UNL d   1       2.218   1.811   0.037  0.00  0.00     0.039 A 
ENDROOT
BRANCH   4   7
ATOM      7  O   UNL d   1       1.099  -1.647  -0.061  0.00  0.00    -0.526 OA
ATOM      8  H5  UNL d   1       1.517  -2.414  -0.487  0.00  0.00     0.418 HD
ENDBRANCH   4   7
TORSDOF 1
ENDMDL
