MODEL 1
REMARK minimizedAffinity 5.8822341
REMARK minimizedRMSD -1
REMARK  1 active torsions:
REMARK  status: ('A' for Active; 'I' for Inactive)
REMARK    1  A    between atoms: C3_4  and  O_7 
ROOT
ATOM      1  C   UNL d   1      -0.621  -5.116   5.999  0.00  0.00    -0.033 A 
ATOM      2  C1  UNL d   1       0.755  -4.878   6.000  0.00  0.00     0.039 A 
ATOM      3  C2  UNL d   1       1.247  -3.620   5.650  0.00  0.00    -0.080 A 
ATOM      4  C3  UNL d   1       0.355  -2.609   5.302  0.00  0.00     0.150 A 
ATOM      5  C4  UNL d   1      -1.017  -2.838   5.303  0.00  0.00    -0.007 A 
ATOM      6  C5  UNL d   1      -1.507  -4.096   5.652  0.00  0.00     0.039 A 
ENDROOT
BRANCH   4   7
ATOM      7  O   UNL d   1       0.789  -1.366   4.949  0.00  0.00    -0.526 OA
ATOM      8  H5  UNL d   1       1.761  -1.363   4.966  0.00  0.00     0.418 HD
ENDBRANCH   4   7
TORSDOF 1
ENDMDL
