MODEL 1
REMARK minimizedAffinity -2.48355269
REMARK minimizedRMSD -1
REMARK  1 active torsions:
REMARK  status: ('A' for Active; 'I' for Inactive)
REMARK    1  A    between atoms: C3_4  and  O_7 
ROOT
ATOM      1  C   UNL d   1       1.997  -1.134  -0.690  0.00  0.00    -0.033 A 
ATOM      2  C1  UNL d   1       1.448   0.056  -0.208  0.00  0.00     0.039 A 
ATOM      3  C2  UNL d   1       2.123   1.264  -0.392  0.00  0.00    -0.080 A 
ATOM      4  C3  UNL d   1       3.344   1.269  -1.060  0.00  0.00     0.150 A 
ATOM      5  C4  UNL d   1       3.895   0.089  -1.547  0.00  0.00    -0.007 A 
ATOM      6  C5  UNL d   1       3.220  -1.117  -1.361  0.00  0.00     0.039 A 
ENDROOT
BRANCH   4   7
ATOM      7  O   UNL d   1       4.042   2.423  -1.260  0.00  0.00    -0.526 OA
ATOM      8  H5  UNL d   1       3.553   3.154  -0.845  0.00  0.00     0.418 HD
ENDBRANCH   4   7
TORSDOF 1
ENDMDL
