MODEL 1
REMARK minimizedAffinity 1.33616424
REMARK minimizedRMSD -1
REMARK  1 active torsions:
REMARK  status: ('A' for Active; 'I' for Inactive)
REMARK    1  A    between atoms: C3_4  and  O_7 
ROOT
ATOM      1  C   UNL d   1      -0.316  -5.421   6.000  0.00  0.00    -0.033 A 
ATOM      2  C1  UNL d   1      -1.479  -4.651   5.936  0.00  0.00     0.039 A 
ATOM      3  C2  UNL d   1      -1.394  -3.259   5.876  0.00  0.00    -0.080 A 
ATOM      4  C3  UNL d   1      -0.142  -2.649   5.879  0.00  0.00     0.150 A 
ATOM      5  C4  UNL d   1       1.021  -3.410   5.939  0.00  0.00    -0.007 A 
ATOM      6  C5  UNL d   1       0.934  -4.800   6.000  0.00  0.00     0.039 A 
ENDROOT
BRANCH   4   7
ATOM      7  O   UNL d   1      -0.009  -1.294   5.827  0.00  0.00    -0.526 OA
ATOM      8  H5  UNL d   1      -0.897  -0.898   5.818  0.00  0.00     0.418 HD
ENDBRANCH   4   7
TORSDOF 1
ENDMDL
