MODEL 1
REMARK minimizedAffinity 1.54265034
REMARK minimizedRMSD -1
REMARK  1 active torsions:
REMARK  status: ('A' for Active; 'I' for Inactive)
REMARK    1  A    between atoms: C3_4  and  O_7 
ROOT
ATOM      1  C   UNL d   1      -4.882   4.996  -5.717  0.00  0.00    -0.033 A 
ATOM      2  C1  UNL d   1      -5.278   3.687  -6.000  0.00  0.00     0.039 A 
ATOM      3  C2  UNL d   1      -4.429   2.619  -5.702  0.00  0.00    -0.080 A 
ATOM      4  C3  UNL d   1      -3.190   2.873  -5.120  0.00  0.00     0.150 A 
ATOM      5  C4  UNL d   1      -2.791   4.174  -4.832  0.00  0.00    -0.007 A 
ATOM      6  C5  UNL d   1      -3.639   5.239  -5.131  0.00  0.00     0.039 A 
ENDROOT
BRANCH   4   7
ATOM      7  O   UNL d   1      -2.326   1.864  -4.816  0.00  0.00    -0.526 OA
ATOM      8  H5  UNL d   1      -2.723   1.023  -5.097  0.00  0.00     0.418 HD
ENDBRANCH   4   7
TORSDOF 1
ENDMDL
