MODEL 1
REMARK minimizedAffinity -3.084306
REMARK minimizedRMSD -1
REMARK  2 active torsions:
REMARK  status: ('A' for Active; 'I' for Inactive)
REMARK    1  A    between atoms: C1_2  and  C2_3 
REMARK    2  A    between atoms: C2_3  and  C3_4 
ROOT
ATOM      1  C3  UNL d   1       4.660  -3.088  -5.388  0.00  0.00    -0.075 A 
ATOM      2  C4  UNL d   1       3.735  -2.225  -5.995  0.00  0.00     0.002 A 
ATOM      3  C5  UNL d   1       3.950  -0.847  -6.000  0.00  0.00     0.002 A 
ATOM      4  C6  UNL d   1       5.083  -0.313  -5.390  0.00  0.00    -0.004 A 
ATOM      5  C7  UNL d   1       6.000  -1.159  -4.770  0.00  0.00     0.002 A 
ATOM      6  C8  UNL d   1       5.790  -2.539  -4.767  0.00  0.00     0.002 A 
ENDROOT
BRANCH   1   7
ATOM      7  C2  UNL d   1       4.448  -4.583  -5.405  0.00  0.00     0.056 C 
BRANCH   7   8
ATOM      8  C1  UNL d   1       5.728  -5.397  -5.189  0.00  0.00     0.007 C 
ATOM      9  C   UNL d   1       5.833  -5.990  -3.790  0.00  0.00     0.009 C 
ENDBRANCH   7   8
ENDBRANCH   1   7
TORSDOF 2
ENDMDL
