MODEL 1
REMARK minimizedAffinity -3.52941799
REMARK minimizedRMSD -1
REMARK  2 active torsions:
REMARK  status: ('A' for Active; 'I' for Inactive)
REMARK    1  A    between atoms: C1_2  and  C2_3 
REMARK    2  A    between atoms: C2_3  and  C3_4 
ROOT
ATOM      1  C3  UNL d   1       5.432  -3.199  -4.936  0.00  0.00    -0.075 A 
ATOM      2  C4  UNL d   1       5.993  -3.975  -3.912  0.00  0.00     0.002 A 
ATOM      3  C5  UNL d   1       5.889  -5.366  -3.939  0.00  0.00     0.002 A 
ATOM      4  C6  UNL d   1       5.215  -5.997  -4.982  0.00  0.00    -0.004 A 
ATOM      5  C7  UNL d   1       4.639  -5.235  -5.996  0.00  0.00     0.002 A 
ATOM      6  C8  UNL d   1       4.746  -3.843  -5.974  0.00  0.00     0.002 A 
ENDROOT
BRANCH   1   7
ATOM      7  C2  UNL d   1       5.567  -1.695  -4.928  0.00  0.00     0.056 C 
BRANCH   7   8
ATOM      8  C1  UNL d   1       4.568  -0.975  -5.840  0.00  0.00     0.007 C 
ATOM      9  C   UNL d   1       4.865   0.511  -6.000  0.00  0.00     0.009 C 
ENDBRANCH   7   8
ENDBRANCH   1   7
TORSDOF 2
ENDMDL
