MODEL 1
REMARK minimizedAffinity -3.14108968
REMARK minimizedRMSD -1
REMARK  2 active torsions:
REMARK  status: ('A' for Active; 'I' for Inactive)
REMARK    1  A    between atoms: C1_2  and  C2_3 
REMARK    2  A    between atoms: C2_3  and  C3_4 
ROOT
ATOM      1  C3  UNL d   1       5.259  -2.651  -5.654  0.00  0.00    -0.075 A 
ATOM      2  C4  UNL d   1       5.995  -1.481  -5.893  0.00  0.00     0.002 A 
ATOM      3  C5  UNL d   1       5.356  -0.242  -5.949  0.00  0.00     0.002 A 
ATOM      4  C6  UNL d   1       3.976  -0.157  -5.778  0.00  0.00    -0.004 A 
ATOM      5  C7  UNL d   1       3.233  -1.315  -5.557  0.00  0.00     0.002 A 
ATOM      6  C8  UNL d   1       3.870  -2.556  -5.495  0.00  0.00     0.002 A 
ENDROOT
BRANCH   1   7
ATOM      7  C2  UNL d   1       5.948  -3.992  -5.562  0.00  0.00     0.056 C 
BRANCH   7   8
ATOM      8  C1  UNL d   1       5.029  -5.185  -5.843  0.00  0.00     0.007 C 
ATOM      9  C   UNL d   1       4.697  -5.994  -4.596  0.00  0.00     0.009 C 
ENDBRANCH   7   8
ENDBRANCH   1   7
TORSDOF 2
ENDMDL
