MODEL 1
REMARK minimizedAffinity -4.34388065
REMARK minimizedRMSD -1
REMARK  2 active torsions:
REMARK  status: ('A' for Active; 'I' for Inactive)
REMARK    1  A    between atoms: C1_2  and  C2_3 
REMARK    2  A    between atoms: C2_3  and  C3_4 
ROOT
ATOM      1  C3  UNL d   1       4.538  -2.642  -5.178  0.00  0.00    -0.075 A 
ATOM      2  C4  UNL d   1       5.790  -3.061  -4.706  0.00  0.00     0.002 A 
ATOM      3  C5  UNL d   1       5.989  -4.382  -4.304  0.00  0.00     0.002 A 
ATOM      4  C6  UNL d   1       4.939  -5.296  -4.358  0.00  0.00    -0.004 A 
ATOM      5  C7  UNL d   1       3.686  -4.886  -4.809  0.00  0.00     0.002 A 
ATOM      6  C8  UNL d   1       3.485  -3.566  -5.216  0.00  0.00     0.002 A 
ENDROOT
BRANCH   1   7
ATOM      7  C2  UNL d   1       4.323  -1.221  -5.642  0.00  0.00     0.056 C 
BRANCH   7   8
ATOM      8  C1  UNL d   1       5.482  -0.274  -5.309  0.00  0.00     0.007 C 
ATOM      9  C   UNL d   1       5.228   1.162  -5.747  0.00  0.00     0.009 C 
ENDBRANCH   7   8
ENDBRANCH   1   7
TORSDOF 2
ENDMDL
