MODEL 1
REMARK minimizedAffinity -3.85650063
REMARK minimizedRMSD -1
REMARK  2 active torsions:
REMARK  status: ('A' for Active; 'I' for Inactive)
REMARK    1  A    between atoms: C1_2  and  C2_3 
REMARK    2  A    between atoms: C2_3  and  C3_4 
ROOT
ATOM      1  C3  UNL d   1       4.438  -2.955  -5.108  0.00  0.00    -0.075 A 
ATOM      2  C4  UNL d   1       3.456  -2.099  -5.627  0.00  0.00     0.002 A 
ATOM      3  C5  UNL d   1       3.749  -0.760  -5.888  0.00  0.00     0.002 A 
ATOM      4  C6  UNL d   1       5.021  -0.258  -5.624  0.00  0.00    -0.004 A 
ATOM      5  C7  UNL d   1       6.000  -1.095  -5.092  0.00  0.00     0.002 A 
ATOM      6  C8  UNL d   1       5.711  -2.436  -4.834  0.00  0.00     0.002 A 
ENDROOT
BRANCH   1   7
ATOM      7  C2  UNL d   1       4.136  -4.412  -4.851  0.00  0.00     0.056 C 
BRANCH   7   8
ATOM      8  C1  UNL d   1       5.337  -5.342  -5.049  0.00  0.00     0.007 C 
ATOM      9  C   UNL d   1       5.809  -5.998  -3.758  0.00  0.00     0.009 C 
ENDBRANCH   7   8
ENDBRANCH   1   7
TORSDOF 2
ENDMDL
