MODEL 1
REMARK minimizedAffinity -0.485670328
REMARK minimizedRMSD -1
REMARK  2 active torsions:
REMARK  status: ('A' for Active; 'I' for Inactive)
REMARK    1  A    between atoms: C1_2  and  C2_3 
REMARK    2  A    between atoms: C2_3  and  C3_4 
ROOT
ATOM      1  C3  UNL d   1       5.318  -3.708  -5.085  0.00  0.00    -0.075 A 
ATOM      2  C4  UNL d   1       4.382  -3.140  -5.962  0.00  0.00     0.002 A 
ATOM      3  C5  UNL d   1       4.151  -1.765  -5.959  0.00  0.00     0.002 A 
ATOM      4  C6  UNL d   1       4.843  -0.941  -5.073  0.00  0.00    -0.004 A 
ATOM      5  C7  UNL d   1       5.763  -1.496  -4.186  0.00  0.00     0.002 A 
ATOM      6  C8  UNL d   1       6.000  -2.872  -4.191  0.00  0.00     0.002 A 
ENDROOT
BRANCH   1   7
ATOM      7  C2  UNL d   1       5.595  -5.192  -5.105  0.00  0.00     0.056 C 
BRANCH   7   8
ATOM      8  C1  UNL d   1       4.734  -6.000  -4.128  0.00  0.00     0.007 C 
ATOM      9  C   UNL d   1       5.277  -5.997  -2.705  0.00  0.00     0.009 C 
ENDBRANCH   7   8
ENDBRANCH   1   7
TORSDOF 2
ENDMDL
