MODEL 1
REMARK minimizedAffinity -2.668185
REMARK minimizedRMSD -1
REMARK  2 active torsions:
REMARK  status: ('A' for Active; 'I' for Inactive)
REMARK    1  A    between atoms: C1_2  and  C2_3 
REMARK    2  A    between atoms: C2_3  and  C3_4 
ROOT
ATOM      1  C3  UNL d   1       5.465  -3.348  -4.955  0.00  0.00    -0.075 A 
ATOM      2  C4  UNL d   1       4.560  -3.794  -3.980  0.00  0.00     0.002 A 
ATOM      3  C5  UNL d   1       4.095  -5.109  -3.995  0.00  0.00     0.002 A 
ATOM      4  C6  UNL d   1       4.518  -5.990  -4.988  0.00  0.00    -0.004 A 
ATOM      5  C7  UNL d   1       5.404  -5.553  -5.971  0.00  0.00     0.002 A 
ATOM      6  C8  UNL d   1       5.875  -4.239  -5.956  0.00  0.00     0.002 A 
ENDROOT
BRANCH   1   7
ATOM      7  C2  UNL d   1       5.996  -1.934  -4.927  0.00  0.00     0.056 C 
BRANCH   7   8
ATOM      8  C1  UNL d   1       5.392  -1.021  -5.999  0.00  0.00     0.007 C 
ATOM      9  C   UNL d   1       4.253  -0.155  -5.478  0.00  0.00     0.009 C 
ENDBRANCH   7   8
ENDBRANCH   1   7
TORSDOF 2
ENDMDL
