MODEL 1
REMARK minimizedAffinity -3.0715301
REMARK minimizedRMSD -1
REMARK  2 active torsions:
REMARK  status: ('A' for Active; 'I' for Inactive)
REMARK    1  A    between atoms: C1_2  and  C2_3 
REMARK    2  A    between atoms: C2_3  and  C3_4 
ROOT
ATOM      1  C3  UNL d   1       4.919  -3.723  -5.314  0.00  0.00    -0.075 A 
ATOM      2  C4  UNL d   1       3.842  -2.982  -4.806  0.00  0.00     0.002 A 
ATOM      3  C5  UNL d   1       3.833  -1.590  -4.899  0.00  0.00     0.002 A 
ATOM      4  C6  UNL d   1       4.903  -0.922  -5.490  0.00  0.00    -0.004 A 
ATOM      5  C7  UNL d   1       5.986  -1.647  -5.983  0.00  0.00     0.002 A 
ATOM      6  C8  UNL d   1       5.995  -3.040  -5.895  0.00  0.00     0.002 A 
ENDROOT
BRANCH   1   7
ATOM      7  C2  UNL d   1       4.921  -5.232  -5.243  0.00  0.00     0.056 C 
BRANCH   7   8
ATOM      8  C1  UNL d   1       4.691  -5.790  -3.834  0.00  0.00     0.007 C 
ATOM      9  C   UNL d   1       5.981  -5.997  -3.052  0.00  0.00     0.009 C 
ENDBRANCH   7   8
ENDBRANCH   1   7
TORSDOF 2
ENDMDL
