MODEL 1
REMARK minimizedAffinity -3.83273911
REMARK minimizedRMSD -1
REMARK  0 active torsions:
REMARK  status: ('A' for Active; 'I' for Inactive)
ROOT
ATOM      1  C1  BNZ d   1       1.233  -0.124  -0.073  0.00  0.00     0.000 A 
ATOM      2  C2  BNZ d   1       1.183   0.283  -1.380  0.00  0.00     0.000 A 
ATOM      3  C3  BNZ d   1       1.019   1.603  -1.697  0.00  0.00     0.000 A 
ATOM      4  C4  BNZ d   1       0.864   2.507  -0.708  0.00  0.00     0.000 A 
ATOM      5  C5  BNZ d   1       0.903   2.112   0.614  0.00  0.00     0.000 A 
ATOM      6  C6  BNZ d   1       1.108   0.788   0.929  0.00  0.00     0.000 A 
ENDROOT
TORSDOF 0
ENDMDL
