MODEL 1
REMARK minimizedAffinity -3.72124624
REMARK minimizedRMSD -1
REMARK  0 active torsions:
REMARK  status: ('A' for Active; 'I' for Inactive)
ROOT
ATOM      1  C1  BNZ d   1       0.861   0.897  -1.292  0.00  0.00     0.000 A 
ATOM      2  C2  BNZ d   1       1.042   1.995  -2.090  0.00  0.00     0.000 A 
ATOM      3  C3  BNZ d   1       1.285   3.225  -1.544  0.00  0.00     0.000 A 
ATOM      4  C4  BNZ d   1       1.307   3.361  -0.202  0.00  0.00     0.000 A 
ATOM      5  C5  BNZ d   1       1.116   2.265   0.615  0.00  0.00     0.000 A 
ATOM      6  C6  BNZ d   1       0.910   1.022   0.062  0.00  0.00     0.000 A 
ENDROOT
TORSDOF 0
ENDMDL
