MODEL 1
REMARK minimizedAffinity 3.72285056
REMARK minimizedRMSD -1
REMARK  0 active torsions:
REMARK  status: ('A' for Active; 'I' for Inactive)
ROOT
ATOM      1  C1  BNZ d   1       1.368   1.339  -1.169  0.00  0.00     0.000 A 
ATOM      2  C2  BNZ d   1       1.460   2.438  -1.981  0.00  0.00     0.000 A 
ATOM      3  C3  BNZ d   1       1.420   3.700  -1.458  0.00  0.00     0.000 A 
ATOM      4  C4  BNZ d   1       1.248   3.863  -0.131  0.00  0.00     0.000 A 
ATOM      5  C5  BNZ d   1       1.144   2.765   0.701  0.00  0.00     0.000 A 
ATOM      6  C6  BNZ d   1       1.224   1.496   0.176  0.00  0.00     0.000 A 
ENDROOT
TORSDOF 0
ENDMDL
