MODEL 1
REMARK minimizedAffinity -1.53678405
REMARK minimizedRMSD -1
REMARK  0 active torsions:
REMARK  status: ('A' for Active; 'I' for Inactive)
ROOT
ATOM      1  C1  BNZ d   1       1.450  -0.611   0.039  0.00  0.00     0.000 A 
ATOM      2  C2  BNZ d   1       1.085  -0.176  -1.208  0.00  0.00     0.000 A 
ATOM      3  C3  BNZ d   1       0.733   1.128  -1.418  0.00  0.00     0.000 A 
ATOM      4  C4  BNZ d   1       0.707   1.985  -0.377  0.00  0.00     0.000 A 
ATOM      5  C5  BNZ d   1       1.063   1.559   0.887  0.00  0.00     0.000 A 
ATOM      6  C6  BNZ d   1       1.454   0.255   1.088  0.00  0.00     0.000 A 
ENDROOT
TORSDOF 0
ENDMDL
