MODEL 1
REMARK minimizedAffinity 2.7546649
REMARK minimizedRMSD -1
REMARK  0 active torsions:
REMARK  status: ('A' for Active; 'I' for Inactive)
ROOT
ATOM      1  C1  BNZ d   1       1.036  -0.351  -0.839  0.00  0.00     0.000 A 
ATOM      2  C2  BNZ d   1       1.750   0.473  -0.011  0.00  0.00     0.000 A 
ATOM      3  C3  BNZ d   1       1.993   1.773  -0.357  0.00  0.00     0.000 A 
ATOM      4  C4  BNZ d   1       1.557   2.235  -1.547  0.00  0.00     0.000 A 
ATOM      5  C5  BNZ d   1       0.844   1.413  -2.397  0.00  0.00     0.000 A 
ATOM      6  C6  BNZ d   1       0.568   0.116  -2.028  0.00  0.00     0.000 A 
ENDROOT
TORSDOF 0
ENDMDL
