MODEL 1
REMARK minimizedAffinity 5.52746582
REMARK minimizedRMSD -1
REMARK  0 active torsions:
REMARK  status: ('A' for Active; 'I' for Inactive)
ROOT
ATOM      1  C1  BNZ d   1       1.067   2.872  -2.172  0.00  0.00     0.000 A 
ATOM      2  C2  BNZ d   1       0.655   1.679  -2.703  0.00  0.00     0.000 A 
ATOM      3  C3  BNZ d   1       0.907   0.501  -2.057  0.00  0.00     0.000 A 
ATOM      4  C4  BNZ d   1       1.603   0.514  -0.902  0.00  0.00     0.000 A 
ATOM      5  C5  BNZ d   1       2.033   1.708  -0.358  0.00  0.00     0.000 A 
ATOM      6  C6  BNZ d   1       1.745   2.895  -0.992  0.00  0.00     0.000 A 
ENDROOT
TORSDOF 0
ENDMDL
