MODEL 1
REMARK minimizedAffinity -6.29577303
REMARK minimizedRMSD -1
REMARK  0 active torsions:
REMARK  status: ('A' for Active; 'I' for Inactive)
ROOT
ATOM      1  C1  BNZ d   1       0.648   0.479  -0.098  0.00  0.00     0.000 A 
ATOM      2  C2  BNZ d   1       0.848   0.965  -1.363  0.00  0.00     0.000 A 
ATOM      3  C3  BNZ d   1       1.112   2.290  -1.570  0.00  0.00     0.000 A 
ATOM      4  C4  BNZ d   1       1.137   3.133  -0.518  0.00  0.00     0.000 A 
ATOM      5  C5  BNZ d   1       0.928   2.660   0.762  0.00  0.00     0.000 A 
ATOM      6  C6  BNZ d   1       0.701   1.319   0.971  0.00  0.00     0.000 A 
ENDROOT
TORSDOF 0
ENDMDL
