MODEL 1
REMARK minimizedAffinity -1.15741193
REMARK minimizedRMSD -1
REMARK  0 active torsions:
REMARK  status: ('A' for Active; 'I' for Inactive)
ROOT
ATOM      1  C1  BNZ d   1       1.822  -1.670  -0.670  0.00  0.00     0.000 A 
ATOM      2  C2  BNZ d   1       1.737  -3.036  -0.638  0.00  0.00     0.000 A 
ATOM      3  C3  BNZ d   1       0.618  -3.678  -1.090  0.00  0.00     0.000 A 
ATOM      4  C4  BNZ d   1      -0.428  -2.953  -1.536  0.00  0.00     0.000 A 
ATOM      5  C5  BNZ d   1      -0.361  -1.574  -1.566  0.00  0.00     0.000 A 
ATOM      6  C6  BNZ d   1       0.782  -0.933  -1.146  0.00  0.00     0.000 A 
ENDROOT
TORSDOF 0
ENDMDL
