MODEL 1
REMARK minimizedAffinity 1.41056955
REMARK minimizedRMSD -1
REMARK  0 active torsions:
REMARK  status: ('A' for Active; 'I' for Inactive)
ROOT
ATOM      1  C1  BNZ d   1       1.775  -0.603   0.282  0.00  0.00     0.000 A 
ATOM      2  C2  BNZ d   1       1.144  -0.496  -0.929  0.00  0.00     0.000 A 
ATOM      3  C3  BNZ d   1       0.542   0.672  -1.304  0.00  0.00     0.000 A 
ATOM      4  C4  BNZ d   1       0.537   1.718  -0.452  0.00  0.00     0.000 A 
ATOM      5  C5  BNZ d   1       1.160   1.623   0.776  0.00  0.00     0.000 A 
ATOM      6  C6  BNZ d   1       1.799   0.458   1.134  0.00  0.00     0.000 A 
ENDROOT
TORSDOF 0
ENDMDL
