MODEL 1
REMARK minimizedAffinity -1.86116338
REMARK minimizedRMSD -1
REMARK  0 active torsions:
REMARK  status: ('A' for Active; 'I' for Inactive)
ROOT
ATOM      1  C1  BNZ d   1       0.984   0.234   0.206  0.00  0.00     0.000 A 
ATOM      2  C2  BNZ d   1       1.161   0.498  -1.126  0.00  0.00     0.000 A 
ATOM      3  C3  BNZ d   1       1.348   1.778  -1.567  0.00  0.00     0.000 A 
ATOM      4  C4  BNZ d   1       1.318   2.796  -0.682  0.00  0.00     0.000 A 
ATOM      5  C5  BNZ d   1       1.131   2.547   0.663  0.00  0.00     0.000 A 
ATOM      6  C6  BNZ d   1       0.982   1.253   1.108  0.00  0.00     0.000 A 
ENDROOT
TORSDOF 0
ENDMDL
