MODEL 1
REMARK minimizedAffinity -2.6030364
REMARK minimizedRMSD -1
REMARK  0 active torsions:
REMARK  status: ('A' for Active; 'I' for Inactive)
ROOT
ATOM      1  C1  BNZ d   1       0.941   0.325  -1.074  0.00  0.00     0.000 A 
ATOM      2  C2  BNZ d   1       1.204   1.243  -2.055  0.00  0.00     0.000 A 
ATOM      3  C3  BNZ d   1       1.573   2.521  -1.737  0.00  0.00     0.000 A 
ATOM      4  C4  BNZ d   1       1.639   2.889  -0.441  0.00  0.00     0.000 A 
ATOM      5  C5  BNZ d   1       1.368   1.977   0.559  0.00  0.00     0.000 A 
ATOM      6  C6  BNZ d   1       1.035   0.681   0.236  0.00  0.00     0.000 A 
ENDROOT
TORSDOF 0
ENDMDL
