MODEL 1
REMARK minimizedAffinity 1.12144256
REMARK minimizedRMSD -1
REMARK  0 active torsions:
REMARK  status: ('A' for Active; 'I' for Inactive)
ROOT
ATOM      1  C1  BNZ d   1       1.293   1.728  -1.847  0.00  0.00     0.000 A 
ATOM      2  C2  BNZ d   1       1.430   2.994  -2.349  0.00  0.00     0.000 A 
ATOM      3  C3  BNZ d   1       1.598   4.064  -1.515  0.00  0.00     0.000 A 
ATOM      4  C4  BNZ d   1       1.589   3.872  -0.181  0.00  0.00     0.000 A 
ATOM      5  C5  BNZ d   1       1.443   2.602   0.342  0.00  0.00     0.000 A 
ATOM      6  C6  BNZ d   1       1.313   1.523  -0.501  0.00  0.00     0.000 A 
ENDROOT
TORSDOF 0
ENDMDL
