MODEL 1
REMARK minimizedAffinity -2.17801881
REMARK minimizedRMSD -1
REMARK  0 active torsions:
REMARK  status: ('A' for Active; 'I' for Inactive)
ROOT
ATOM      1  C1  BNZ d   1       0.668   0.580  -1.589  0.00  0.00     0.000 A 
ATOM      2  C2  BNZ d   1       0.911   1.817  -2.123  0.00  0.00     0.000 A 
ATOM      3  C3  BNZ d   1       1.503   2.798  -1.378  0.00  0.00     0.000 A 
ATOM      4  C4  BNZ d   1       1.816   2.553  -0.089  0.00  0.00     0.000 A 
ATOM      5  C5  BNZ d   1       1.569   1.314   0.467  0.00  0.00     0.000 A 
ATOM      6  C6  BNZ d   1       1.008   0.317  -0.297  0.00  0.00     0.000 A 
ENDROOT
TORSDOF 0
ENDMDL
