MODEL 1
REMARK minimizedAffinity 1.45691156
REMARK minimizedRMSD -1
REMARK  0 active torsions:
REMARK  status: ('A' for Active; 'I' for Inactive)
ROOT
ATOM      1  C1  BNZ d   1       2.641   0.499  -0.609  0.00  0.00     0.000 A 
ATOM      2  C2  BNZ d   1       1.904   1.184  -1.538  0.00  0.00     0.000 A 
ATOM      3  C3  BNZ d   1       1.297   2.366  -1.216  0.00  0.00     0.000 A 
ATOM      4  C4  BNZ d   1       1.393   2.839   0.043  0.00  0.00     0.000 A 
ATOM      5  C5  BNZ d   1       2.125   2.155   0.993  0.00  0.00     0.000 A 
ATOM      6  C6  BNZ d   1       2.767   0.986   0.655  0.00  0.00     0.000 A 
ENDROOT
TORSDOF 0
ENDMDL
