MODEL 1
REMARK minimizedAffinity -2.80308628
REMARK minimizedRMSD -1
REMARK  0 active torsions:
REMARK  status: ('A' for Active; 'I' for Inactive)
ROOT
ATOM      1  C1  BNZ d   1       0.978   2.800  -1.009  0.00  0.00     0.000 A 
ATOM      2  C2  BNZ d   1       1.079   1.855  -1.995  0.00  0.00     0.000 A 
ATOM      3  C3  BNZ d   1       1.398   0.560  -1.694  0.00  0.00     0.000 A 
ATOM      4  C4  BNZ d   1       1.653   0.221  -0.414  0.00  0.00     0.000 A 
ATOM      5  C5  BNZ d   1       1.564   1.164   0.590  0.00  0.00     0.000 A 
ATOM      6  C6  BNZ d   1       1.205   2.458   0.288  0.00  0.00     0.000 A 
ENDROOT
TORSDOF 0
ENDMDL
