MODEL 1
REMARK minimizedAffinity 0.929863751
REMARK minimizedRMSD -1
REMARK  0 active torsions:
REMARK  status: ('A' for Active; 'I' for Inactive)
ROOT
ATOM      1  C1  BNZ d   1       1.528  -0.193  -0.302  0.00  0.00     0.000 A 
ATOM      2  C2  BNZ d   1       1.598   0.757   0.682  0.00  0.00     0.000 A 
ATOM      3  C3  BNZ d   1       1.215   2.047   0.438  0.00  0.00     0.000 A 
ATOM      4  C4  BNZ d   1       0.802   2.393  -0.798  0.00  0.00     0.000 A 
ATOM      5  C5  BNZ d   1       0.735   1.449  -1.803  0.00  0.00     0.000 A 
ATOM      6  C6  BNZ d   1       1.085   0.143  -1.543  0.00  0.00     0.000 A 
ENDROOT
TORSDOF 0
ENDMDL
