MODEL 1
REMARK minimizedAffinity -2.8142283
REMARK minimizedRMSD -1
REMARK  0 active torsions:
REMARK  status: ('A' for Active; 'I' for Inactive)
ROOT
ATOM      1  C1  BNZ d   1       1.161  -0.051  -0.961  0.00  0.00     0.000 A 
ATOM      2  C2  BNZ d   1       1.610  -0.146   0.329  0.00  0.00     0.000 A 
ATOM      3  C3  BNZ d   1       1.467   0.899   1.198  0.00  0.00     0.000 A 
ATOM      4  C4  BNZ d   1       0.913   2.050   0.766  0.00  0.00     0.000 A 
ATOM      5  C5  BNZ d   1       0.464   2.165  -0.534  0.00  0.00     0.000 A 
ATOM      6  C6  BNZ d   1       0.574   1.097  -1.396  0.00  0.00     0.000 A 
ENDROOT
TORSDOF 0
ENDMDL
