MODEL 1
REMARK minimizedAffinity 0.992320955
REMARK minimizedRMSD -1
REMARK  0 active torsions:
REMARK  status: ('A' for Active; 'I' for Inactive)
ROOT
ATOM      1  C1  BNZ d   1       1.182   2.871  -0.792  0.00  0.00     0.000 A 
ATOM      2  C2  BNZ d   1       0.433   2.536  -1.888  0.00  0.00     0.000 A 
ATOM      3  C3  BNZ d   1       0.194   1.227  -2.199  0.00  0.00     0.000 A 
ATOM      4  C4  BNZ d   1       0.736   0.255  -1.438  0.00  0.00     0.000 A 
ATOM      5  C5  BNZ d   1       1.501   0.576  -0.334  0.00  0.00     0.000 A 
ATOM      6  C6  BNZ d   1       1.707   1.895  -0.002  0.00  0.00     0.000 A 
ENDROOT
TORSDOF 0
ENDMDL
