MODEL 1
REMARK minimizedAffinity 3.00147319
REMARK minimizedRMSD -1
REMARK  0 active torsions:
REMARK  status: ('A' for Active; 'I' for Inactive)
ROOT
ATOM      1  C1  BNZ d   1      -0.008   2.045  -2.650  0.00  0.00     0.000 A 
ATOM      2  C2  BNZ d   1      -0.002   3.273  -2.043  0.00  0.00     0.000 A 
ATOM      3  C3  BNZ d   1       0.799   3.515  -0.962  0.00  0.00     0.000 A 
ATOM      4  C4  BNZ d   1       1.562   2.520  -0.466  0.00  0.00     0.000 A 
ATOM      5  C5  BNZ d   1       1.560   1.274  -1.061  0.00  0.00     0.000 A 
ATOM      6  C6  BNZ d   1       0.782   1.045  -2.172  0.00  0.00     0.000 A 
ENDROOT
TORSDOF 0
ENDMDL
