MODEL 1
REMARK minimizedAffinity 2.36616063
REMARK minimizedRMSD -1
REMARK  1 active torsions:
REMARK  status: ('A' for Active; 'I' for Inactive)
REMARK    1  A    between atoms: C1_2  and  C2_3 
ROOT
ATOM      1  C2  UNL d   1      -1.809  -1.558  -1.513  0.00  0.00    -0.081 A 
ATOM      2  C3  UNL d   1      -1.869  -2.695  -0.698  0.00  0.00     0.006 A 
ATOM      3  C4  UNL d   1      -2.188  -3.941  -1.243  0.00  0.00     0.002 A 
ATOM      4  C5  UNL d   1      -2.443  -4.072  -2.612  0.00  0.00    -0.080 A 
ATOM      5  C6  UNL d   1      -2.757  -5.409  -3.215  0.00  0.00     0.076 C 
ATOM      6  C7  UNL d   1      -2.400  -2.933  -3.424  0.00  0.00     0.002 A 
ATOM      7  C8  UNL d   1      -2.082  -1.687  -2.879  0.00  0.00     0.006 A 
ENDROOT
BRANCH   1   8
ATOM      8  C1  UNL d   1      -1.402  -0.225  -0.939  0.00  0.00     0.054 C 
ATOM      9  C   UNL d   1      -0.351  -0.388   0.149  0.00  0.00     0.018 C 
ENDBRANCH   1   8
TORSDOF 1
ENDMDL
