MODEL 1
REMARK minimizedAffinity 0.842175066
REMARK minimizedRMSD -1
REMARK  1 active torsions:
REMARK  status: ('A' for Active; 'I' for Inactive)
REMARK    1  A    between atoms: C1_2  and  C2_3 
ROOT
ATOM      1  C2  UNL d   1      -4.999   5.272   3.991  0.00  0.00    -0.081 A 
ATOM      2  C3  UNL d   1      -5.970   4.519   3.319  0.00  0.00     0.006 A 
ATOM      3  C4  UNL d   1      -5.995   4.480   1.923  0.00  0.00     0.002 A 
ATOM      4  C5  UNL d   1      -5.046   5.186   1.176  0.00  0.00    -0.080 A 
ATOM      5  C6  UNL d   1      -5.043   5.129  -0.322  0.00  0.00     0.076 C 
ATOM      6  C7  UNL d   1      -4.087   5.953   1.847  0.00  0.00     0.002 A 
ATOM      7  C8  UNL d   1      -4.062   5.993   3.243  0.00  0.00     0.006 A 
ENDROOT
BRANCH   1   8
ATOM      8  C1  UNL d   1      -4.930   5.265   5.497  0.00  0.00     0.054 C 
ATOM      9  C   UNL d   1      -3.767   4.417   5.993  0.00  0.00     0.018 C 
ENDBRANCH   1   8
TORSDOF 1
ENDMDL
