MODEL 1
REMARK minimizedAffinity 3.92769837
REMARK minimizedRMSD -1
REMARK  1 active torsions:
REMARK  status: ('A' for Active; 'I' for Inactive)
REMARK    1  A    between atoms: C1_2  and  C2_3 
ROOT
ATOM      1  C2  UNL d   1       1.603   2.414   2.451  0.00  0.00    -0.081 A 
ATOM      2  C3  UNL d   1       2.467   3.505   2.611  0.00  0.00     0.006 A 
ATOM      3  C4  UNL d   1       3.171   4.017   1.519  0.00  0.00     0.002 A 
ATOM      4  C5  UNL d   1       3.018   3.452   0.248  0.00  0.00    -0.080 A 
ATOM      5  C6  UNL d   1       3.745   4.012  -0.939  0.00  0.00     0.076 C 
ATOM      6  C7  UNL d   1       2.169   2.352   0.091  0.00  0.00     0.002 A 
ATOM      7  C8  UNL d   1       1.465   1.839   1.183  0.00  0.00     0.006 A 
ENDROOT
BRANCH   1   8
ATOM      8  C1  UNL d   1       0.793   1.901   3.614  0.00  0.00     0.054 C 
ATOM      9  C   UNL d   1       0.162   3.044   4.396  0.00  0.00     0.018 C 
ENDBRANCH   1   8
TORSDOF 1
ENDMDL
