MODEL 1
REMARK minimizedAffinity -3.59366918
REMARK minimizedRMSD -1
REMARK  1 active torsions:
REMARK  status: ('A' for Active; 'I' for Inactive)
REMARK    1  A    between atoms: C1_2  and  C2_3 
ROOT
ATOM      1  C2  UNL d   1      -4.829   4.608   3.296  0.00  0.00    -0.081 A 
ATOM      2  C3  UNL d   1      -4.500   3.542   2.450  0.00  0.00     0.006 A 
ATOM      3  C4  UNL d   1      -4.365   2.248   2.959  0.00  0.00     0.002 A 
ATOM      4  C5  UNL d   1      -4.564   1.998   4.321  0.00  0.00    -0.080 A 
ATOM      5  C6  UNL d   1      -4.451   0.609   4.876  0.00  0.00     0.076 C 
ATOM      6  C7  UNL d   1      -4.875   3.065   5.170  0.00  0.00     0.002 A 
ATOM      7  C8  UNL d   1      -5.010   4.359   4.661  0.00  0.00     0.006 A 
ENDROOT
BRANCH   1   8
ATOM      8  C1  UNL d   1      -5.039   5.992   2.739  0.00  0.00     0.054 C 
ATOM      9  C   UNL d   1      -4.931   6.000   1.221  0.00  0.00     0.018 C 
ENDBRANCH   1   8
TORSDOF 1
ENDMDL
