MODEL 1
REMARK minimizedAffinity 5.76615953
REMARK minimizedRMSD -1
REMARK  1 active torsions:
REMARK  status: ('A' for Active; 'I' for Inactive)
REMARK    1  A    between atoms: C1_2  and  C2_3 
ROOT
ATOM      1  C2  UNL d   1       1.319  -0.265  -1.763  0.00  0.00    -0.081 A 
ATOM      2  C3  UNL d   1       0.340   0.195  -2.652  0.00  0.00     0.006 A 
ATOM      3  C4  UNL d   1       0.606   0.268  -4.022  0.00  0.00     0.002 A 
ATOM      4  C5  UNL d   1       1.851  -0.124  -4.525  0.00  0.00    -0.080 A 
ATOM      5  C6  UNL d   1       2.139  -0.079  -5.997  0.00  0.00     0.076 C 
ATOM      6  C7  UNL d   1       2.835  -0.567  -3.635  0.00  0.00     0.002 A 
ATOM      7  C8  UNL d   1       2.570  -0.640  -2.266  0.00  0.00     0.006 A 
ENDROOT
BRANCH   1   8
ATOM      8  C1  UNL d   1       1.014  -0.406  -0.294  0.00  0.00     0.054 C 
ATOM      9  C   UNL d   1      -0.485  -0.488  -0.045  0.00  0.00     0.018 C 
ENDBRANCH   1   8
TORSDOF 1
ENDMDL
