MODEL 1
REMARK minimizedAffinity 9.44029999
REMARK minimizedRMSD -1
REMARK  1 active torsions:
REMARK  status: ('A' for Active; 'I' for Inactive)
REMARK    1  A    between atoms: C1_2  and  C2_3 
ROOT
ATOM      1  C2  UNL d   1      -4.604   5.248   2.564  0.00  0.00    -0.081 A 
ATOM      2  C3  UNL d   1      -3.844   4.497   1.658  0.00  0.00     0.006 A 
ATOM      3  C4  UNL d   1      -4.157   4.501   0.297  0.00  0.00     0.002 A 
ATOM      4  C5  UNL d   1      -5.229   5.262  -0.183  0.00  0.00    -0.080 A 
ATOM      5  C6  UNL d   1      -5.557   5.299  -1.646  0.00  0.00     0.076 C 
ATOM      6  C7  UNL d   1      -5.999   5.998   0.724  0.00  0.00     0.002 A 
ATOM      7  C8  UNL d   1      -5.687   5.994   2.086  0.00  0.00     0.006 A 
ENDROOT
BRANCH   1   8
ATOM      8  C1  UNL d   1      -4.230   5.297   4.023  0.00  0.00     0.054 C 
ATOM      9  C   UNL d   1      -3.073   4.356   4.329  0.00  0.00     0.018 C 
ENDBRANCH   1   8
TORSDOF 1
ENDMDL
