MODEL 1
REMARK minimizedAffinity 5.57649946
REMARK minimizedRMSD -1
REMARK  1 active torsions:
REMARK  status: ('A' for Active; 'I' for Inactive)
REMARK    1  A    between atoms: C1_2  and  C2_3 
ROOT
ATOM      1  C2  UNL d   1      -4.905   5.803   1.135  0.00  0.00    -0.081 A 
ATOM      2  C3  UNL d   1      -3.611   5.814   1.669  0.00  0.00     0.006 A 
ATOM      3  C4  UNL d   1      -3.415   5.881   3.051  0.00  0.00     0.002 A 
ATOM      4  C5  UNL d   1      -4.510   5.930   3.921  0.00  0.00    -0.080 A 
ATOM      5  C6  UNL d   1      -4.314   5.971   5.407  0.00  0.00     0.076 C 
ATOM      6  C7  UNL d   1      -5.803   5.936   3.387  0.00  0.00     0.002 A 
ATOM      7  C8  UNL d   1      -5.999   5.870   2.005  0.00  0.00     0.006 A 
ENDROOT
BRANCH   1   8
ATOM      8  C1  UNL d   1      -5.120   5.665  -0.351  0.00  0.00     0.054 C 
ATOM      9  C   UNL d   1      -5.915   4.410  -0.681  0.00  0.00     0.018 C 
ENDBRANCH   1   8
TORSDOF 1
ENDMDL
