MODEL 1
REMARK minimizedAffinity -2.53889847
REMARK minimizedRMSD -1
REMARK  1 active torsions:
REMARK  status: ('A' for Active; 'I' for Inactive)
REMARK    1  A    between atoms: C1_2  and  C2_3 
ROOT
ATOM      1  C2  UNL d   1      -4.812   5.810   1.685  0.00  0.00    -0.081 A 
ATOM      2  C3  UNL d   1      -3.600   5.719   2.379  0.00  0.00     0.006 A 
ATOM      3  C4  UNL d   1      -3.578   5.763   3.775  0.00  0.00     0.002 A 
ATOM      4  C5  UNL d   1      -4.767   5.891   4.500  0.00  0.00    -0.080 A 
ATOM      5  C6  UNL d   1      -4.760   5.909   6.000  0.00  0.00     0.076 C 
ATOM      6  C7  UNL d   1      -5.977   6.000   3.806  0.00  0.00     0.002 A 
ATOM      7  C8  UNL d   1      -6.000   5.956   2.411  0.00  0.00     0.006 A 
ENDROOT
BRANCH   1   8
ATOM      8  C1  UNL d   1      -4.846   5.698   0.182  0.00  0.00     0.054 C 
ATOM      9  C   UNL d   1      -5.862   4.660  -0.273  0.00  0.00     0.018 C 
ENDBRANCH   1   8
TORSDOF 1
ENDMDL
