MODEL 1
REMARK minimizedAffinity -1.60881162
REMARK minimizedRMSD -1
REMARK  1 active torsions:
REMARK  status: ('A' for Active; 'I' for Inactive)
REMARK    1  A    between atoms: C1_2  and  C2_3 
ROOT
ATOM      1  C2  UNL d   1      -4.874   5.686   3.559  0.00  0.00    -0.081 A 
ATOM      2  C3  UNL d   1      -5.995   5.106   2.954  0.00  0.00     0.006 A 
ATOM      3  C4  UNL d   1      -6.000   4.835   1.584  0.00  0.00     0.002 A 
ATOM      4  C5  UNL d   1      -4.881   5.133   0.798  0.00  0.00    -0.080 A 
ATOM      5  C6  UNL d   1      -4.862   4.819  -0.669  0.00  0.00     0.076 C 
ATOM      6  C7  UNL d   1      -3.768   5.728   1.399  0.00  0.00     0.002 A 
ATOM      7  C8  UNL d   1      -3.763   6.000   2.769  0.00  0.00     0.006 A 
ENDROOT
BRANCH   1   8
ATOM      8  C1  UNL d   1      -4.841   5.919   5.048  0.00  0.00     0.054 C 
ATOM      9  C   UNL d   1      -5.391   4.721   5.808  0.00  0.00     0.018 C 
ENDBRANCH   1   8
TORSDOF 1
ENDMDL
