MODEL 1
REMARK minimizedAffinity 0.889053464
REMARK minimizedRMSD -1
REMARK  1 active torsions:
REMARK  status: ('A' for Active; 'I' for Inactive)
REMARK    1  A    between atoms: C1_2  and  C2_3 
ROOT
ATOM      1  C2  UNL d   1      -1.253  -0.936  -1.070  0.00  0.00    -0.081 A 
ATOM      2  C3  UNL d   1      -1.872  -2.146  -0.735  0.00  0.00     0.006 A 
ATOM      3  C4  UNL d   1      -2.449  -2.945  -1.725  0.00  0.00     0.002 A 
ATOM      4  C5  UNL d   1      -2.411  -2.550  -3.067  0.00  0.00    -0.080 A 
ATOM      5  C6  UNL d   1      -3.000  -3.412  -4.143  0.00  0.00     0.076 C 
ATOM      6  C7  UNL d   1      -1.809  -1.332  -3.399  0.00  0.00     0.002 A 
ATOM      7  C8  UNL d   1      -1.232  -0.533  -2.410  0.00  0.00     0.006 A 
ENDROOT
BRANCH   1   8
ATOM      8  C1  UNL d   1      -0.573  -0.104  -0.012  0.00  0.00     0.054 C 
ATOM      9  C   UNL d   1      -1.571   0.778   0.725  0.00  0.00     0.018 C 
ENDBRANCH   1   8
TORSDOF 1
ENDMDL
