MODEL 1
REMARK minimizedAffinity -6.36529303
REMARK minimizedRMSD -1
REMARK  1 active torsions:
REMARK  status: ('A' for Active; 'I' for Inactive)
REMARK    1  A    between atoms: C1_2  and  C2_3 
ROOT
ATOM      1  C2  UNL d   1      -4.663  -3.690   0.462  0.00  0.00    -0.081 A 
ATOM      2  C3  UNL d   1      -3.667  -4.166  -0.400  0.00  0.00     0.006 A 
ATOM      3  C4  UNL d   1      -2.590  -3.351  -0.757  0.00  0.00     0.002 A 
ATOM      4  C5  UNL d   1      -2.486  -2.050  -0.252  0.00  0.00    -0.080 A 
ATOM      5  C6  UNL d   1      -1.320  -1.176  -0.602  0.00  0.00     0.076 C 
ATOM      6  C7  UNL d   1      -3.490  -1.569   0.596  0.00  0.00     0.002 A 
ATOM      7  C8  UNL d   1      -4.567  -2.383   0.952  0.00  0.00     0.006 A 
ENDROOT
BRANCH   1   8
ATOM      8  C1  UNL d   1      -5.791  -4.588   0.900  0.00  0.00     0.054 C 
ATOM      9  C   UNL d   1      -5.998  -5.734  -0.080  0.00  0.00     0.018 C 
ENDBRANCH   1   8
TORSDOF 1
ENDMDL
