MODEL 1
REMARK minimizedAffinity 8.75349331
REMARK minimizedRMSD -1
REMARK  1 active torsions:
REMARK  status: ('A' for Active; 'I' for Inactive)
REMARK    1  A    between atoms: C1_2  and  C2_3 
ROOT
ATOM      1  C2  UNL d   1      -2.292  -2.267  -2.089  0.00  0.00    -0.081 A 
ATOM      2  C3  UNL d   1      -2.630  -1.056  -2.705  0.00  0.00     0.006 A 
ATOM      3  C4  UNL d   1      -2.144   0.154  -2.203  0.00  0.00     0.002 A 
ATOM      4  C5  UNL d   1      -1.306   0.172  -1.083  0.00  0.00    -0.080 A 
ATOM      5  C6  UNL d   1      -0.752   1.461  -0.553  0.00  0.00     0.076 C 
ATOM      6  C7  UNL d   1      -0.982  -1.036  -0.458  0.00  0.00     0.002 A 
ATOM      7  C8  UNL d   1      -1.468  -2.246  -0.958  0.00  0.00     0.006 A 
ENDROOT
BRANCH   1   8
ATOM      8  C1  UNL d   1      -2.762  -3.578  -2.666  0.00  0.00     0.054 C 
ATOM      9  C   UNL d   1      -2.573  -3.617  -4.176  0.00  0.00     0.018 C 
ENDBRANCH   1   8
TORSDOF 1
ENDMDL
