MODEL 1
REMARK minimizedAffinity 11.6867123
REMARK minimizedRMSD -1
REMARK  1 active torsions:
REMARK  status: ('A' for Active; 'I' for Inactive)
REMARK    1  A    between atoms: C1_2  and  C2_3 
ROOT
ATOM      1  C2  UNL d   1      -1.457  -1.545  -1.657  0.00  0.00    -0.081 A 
ATOM      2  C3  UNL d   1      -1.209  -0.857  -2.852  0.00  0.00     0.006 A 
ATOM      3  C4  UNL d   1      -1.655  -1.372  -4.071  0.00  0.00     0.002 A 
ATOM      4  C5  UNL d   1      -2.363  -2.578  -4.116  0.00  0.00    -0.080 A 
ATOM      5  C6  UNL d   1      -2.874  -3.126  -5.415  0.00  0.00     0.076 C 
ATOM      6  C7  UNL d   1      -2.596  -3.273  -2.925  0.00  0.00     0.002 A 
ATOM      7  C8  UNL d   1      -2.150  -2.759  -1.705  0.00  0.00     0.006 A 
ENDROOT
BRANCH   1   8
ATOM      8  C1  UNL d   1      -1.034  -0.960  -0.334  0.00  0.00     0.054 C 
ATOM      9  C   UNL d   1      -0.340   0.382  -0.519  0.00  0.00     0.018 C 
ENDBRANCH   1   8
TORSDOF 1
ENDMDL
