MODEL 1
REMARK minimizedAffinity 3.13624692
REMARK minimizedRMSD -1
REMARK  1 active torsions:
REMARK  status: ('A' for Active; 'I' for Inactive)
REMARK    1  A    between atoms: C1_2  and  C2_3 
ROOT
ATOM      1  C2  UNL d   1       2.367   2.245   3.242  0.00  0.00    -0.081 A 
ATOM      2  C3  UNL d   1       2.381   2.473   4.624  0.00  0.00     0.006 A 
ATOM      3  C4  UNL d   1       2.232   1.411   5.519  0.00  0.00     0.002 A 
ATOM      4  C5  UNL d   1       2.074   0.103   5.048  0.00  0.00    -0.080 A 
ATOM      5  C6  UNL d   1       1.944  -1.050   5.998  0.00  0.00     0.076 C 
ATOM      6  C7  UNL d   1       2.043  -0.123   3.668  0.00  0.00     0.002 A 
ATOM      7  C8  UNL d   1       2.192   0.939   2.772  0.00  0.00     0.006 A 
ENDROOT
BRANCH   1   8
ATOM      8  C1  UNL d   1       2.593   3.380   2.276  0.00  0.00     0.054 C 
ATOM      9  C   UNL d   1       2.343   2.941   0.840  0.00  0.00     0.018 C 
ENDBRANCH   1   8
TORSDOF 1
ENDMDL
