MODEL 1
REMARK minimizedAffinity 4.93866014
REMARK minimizedRMSD -1
REMARK  0 active torsions:
REMARK  status: ('A' for Active; 'I' for Inactive)
ROOT
ATOM      1  C   UNL d   1       4.483  -0.985  -4.023  0.00  0.00     0.078 C 
ATOM      2  C1  UNL d   1       4.295  -0.543  -2.603  0.00  0.00    -0.077 A 
ATOM      3  C2  UNL d   1       5.161   0.386  -2.016  0.00  0.00    -0.001 A 
ATOM      4  C3  UNL d   1       4.980   0.781  -0.689  0.00  0.00     0.003 A 
ATOM      5  C4  UNL d   1       3.932   0.251   0.061  0.00  0.00    -0.005 A 
ATOM      6  C5  UNL d   1       3.066  -0.677  -0.514  0.00  0.00     0.003 A 
ATOM      7  C6  UNL d   1       3.246  -1.073  -1.840  0.00  0.00    -0.001 A 
ENDROOT
TORSDOF 0
ENDMDL
