MODEL 1
REMARK minimizedAffinity 10.1867723
REMARK minimizedRMSD -1
REMARK  0 active torsions:
REMARK  status: ('A' for Active; 'I' for Inactive)
ROOT
ATOM      1  C   UNL d   1       5.520   1.910   1.416  0.00  0.00     0.078 C 
ATOM      2  C1  UNL d   1       4.609   1.163   0.488  0.00  0.00    -0.077 A 
ATOM      3  C2  UNL d   1       3.481   0.489   0.972  0.00  0.00    -0.001 A 
ATOM      4  C3  UNL d   1       2.648  -0.211   0.098  0.00  0.00     0.003 A 
ATOM      5  C4  UNL d   1       2.935  -0.245  -1.265  0.00  0.00    -0.005 A 
ATOM      6  C5  UNL d   1       4.056   0.421  -1.756  0.00  0.00     0.003 A 
ATOM      7  C6  UNL d   1       4.890   1.122  -0.883  0.00  0.00    -0.001 A 
ENDROOT
TORSDOF 0
ENDMDL
