MODEL 1
REMARK minimizedAffinity 5.39665318
REMARK minimizedRMSD -1
REMARK  0 active torsions:
REMARK  status: ('A' for Active; 'I' for Inactive)
ROOT
ATOM      1  C   UNL d   1      -0.311  -5.987   5.993  0.00  0.00     0.078 C 
ATOM      2  C1  UNL d   1       0.433  -4.811   5.435  0.00  0.00    -0.077 A 
ATOM      3  C2  UNL d   1       1.648  -4.395   5.994  0.00  0.00    -0.001 A 
ATOM      4  C3  UNL d   1       2.325  -3.292   5.471  0.00  0.00     0.003 A 
ATOM      5  C4  UNL d   1       1.794  -2.595   4.387  0.00  0.00    -0.005 A 
ATOM      6  C5  UNL d   1       0.585  -3.000   3.826  0.00  0.00     0.003 A 
ATOM      7  C6  UNL d   1      -0.093  -4.103   4.347  0.00  0.00    -0.001 A 
ENDROOT
TORSDOF 0
ENDMDL
