MODEL 1
REMARK minimizedAffinity 9.69591427
REMARK minimizedRMSD -1
REMARK  0 active torsions:
REMARK  status: ('A' for Active; 'I' for Inactive)
ROOT
ATOM      1  C   UNL d   1       5.082   1.668  -0.852  0.00  0.00     0.078 C 
ATOM      2  C1  UNL d   1       5.395   3.134  -0.877  0.00  0.00    -0.077 A 
ATOM      3  C2  UNL d   1       5.632   3.800  -2.086  0.00  0.00    -0.001 A 
ATOM      4  C3  UNL d   1       5.932   5.163  -2.094  0.00  0.00     0.003 A 
ATOM      5  C4  UNL d   1       6.000   5.872  -0.896  0.00  0.00    -0.005 A 
ATOM      6  C5  UNL d   1       5.768   5.217   0.312  0.00  0.00     0.003 A 
ATOM      7  C6  UNL d   1       5.468   3.854   0.322  0.00  0.00    -0.001 A 
ENDROOT
TORSDOF 0
ENDMDL
