MODEL 1
REMARK minimizedAffinity 4.54549313
REMARK minimizedRMSD -1
REMARK  0 active torsions:
REMARK  status: ('A' for Active; 'I' for Inactive)
ROOT
ATOM      1  C   UNL d   1      -5.653   3.789  -3.334  0.00  0.00     0.078 C 
ATOM      2  C1  UNL d   1      -5.211   2.570  -4.088  0.00  0.00    -0.077 A 
ATOM      3  C2  UNL d   1      -4.021   2.571  -4.826  0.00  0.00    -0.001 A 
ATOM      4  C3  UNL d   1      -3.627   1.433  -5.531  0.00  0.00     0.003 A 
ATOM      5  C4  UNL d   1      -4.417   0.285  -5.505  0.00  0.00    -0.005 A 
ATOM      6  C5  UNL d   1      -5.603   0.275  -4.774  0.00  0.00     0.003 A 
ATOM      7  C6  UNL d   1      -6.000   1.413  -4.069  0.00  0.00    -0.001 A 
ENDROOT
TORSDOF 0
ENDMDL
