MODEL 1
REMARK minimizedAffinity 3.79700971
REMARK minimizedRMSD -1
REMARK  0 active torsions:
REMARK  status: ('A' for Active; 'I' for Inactive)
ROOT
ATOM      1  C   UNL d   1      -1.194  -5.417   5.993  0.00  0.00     0.078 C 
ATOM      2  C1  UNL d   1      -0.125  -4.534   5.421  0.00  0.00    -0.077 A 
ATOM      3  C2  UNL d   1       1.149  -4.476   6.000  0.00  0.00    -0.001 A 
ATOM      4  C3  UNL d   1       2.131  -3.643   5.463  0.00  0.00     0.003 A 
ATOM      5  C4  UNL d   1       1.850  -2.859   4.346  0.00  0.00    -0.005 A 
ATOM      6  C5  UNL d   1       0.584  -2.907   3.765  0.00  0.00     0.003 A 
ATOM      7  C6  UNL d   1      -0.399  -3.741   4.300  0.00  0.00    -0.001 A 
ENDROOT
TORSDOF 0
ENDMDL
