MODEL 1
REMARK minimizedAffinity 17.251009
REMARK minimizedRMSD -1
REMARK  0 active torsions:
REMARK  status: ('A' for Active; 'I' for Inactive)
ROOT
ATOM      1  C   UNL d   1      -2.280  -6.000  -4.135  0.00  0.00     0.078 C 
ATOM      2  C1  UNL d   1      -1.356  -5.320  -3.170  0.00  0.00    -0.077 A 
ATOM      3  C2  UNL d   1      -0.700  -4.131  -3.515  0.00  0.00    -0.001 A 
ATOM      4  C3  UNL d   1       0.165  -3.514  -2.610  0.00  0.00     0.003 A 
ATOM      5  C4  UNL d   1       0.384  -4.079  -1.355  0.00  0.00    -0.005 A 
ATOM      6  C5  UNL d   1      -0.262  -5.262  -1.003  0.00  0.00     0.003 A 
ATOM      7  C6  UNL d   1      -1.128  -5.881  -1.907  0.00  0.00    -0.001 A 
ENDROOT
TORSDOF 0
ENDMDL
