MODEL 1
REMARK minimizedAffinity 9.6435585
REMARK minimizedRMSD -1
REMARK  0 active torsions:
REMARK  status: ('A' for Active; 'I' for Inactive)
ROOT
ATOM      1  C   UNL d   1       3.132  -2.538   0.527  0.00  0.00     0.078 C 
ATOM      2  C1  UNL d   1       3.677  -1.203   0.114  0.00  0.00    -0.077 A 
ATOM      3  C2  UNL d   1       4.979  -0.818   0.457  0.00  0.00    -0.001 A 
ATOM      4  C3  UNL d   1       5.469   0.431   0.075  0.00  0.00     0.003 A 
ATOM      5  C4  UNL d   1       4.664   1.307  -0.651  0.00  0.00    -0.005 A 
ATOM      6  C5  UNL d   1       3.366   0.933  -0.995  0.00  0.00     0.003 A 
ATOM      7  C6  UNL d   1       2.874  -0.316  -0.614  0.00  0.00    -0.001 A 
ENDROOT
TORSDOF 0
ENDMDL
