MODEL 1
REMARK minimizedAffinity 12.6926184
REMARK minimizedRMSD -1
REMARK  0 active torsions:
REMARK  status: ('A' for Active; 'I' for Inactive)
ROOT
ATOM      1  C   UNL d   1       1.314  -1.748  -2.141  0.00  0.00     0.078 C 
ATOM      2  C1  UNL d   1       0.392  -2.921  -2.294  0.00  0.00    -0.077 A 
ATOM      3  C2  UNL d   1      -0.950  -2.742  -2.651  0.00  0.00    -0.001 A 
ATOM      4  C3  UNL d   1      -1.799  -3.842  -2.781  0.00  0.00     0.003 A 
ATOM      5  C4  UNL d   1      -1.316  -5.129  -2.554  0.00  0.00    -0.005 A 
ATOM      6  C5  UNL d   1       0.017  -5.317  -2.196  0.00  0.00     0.003 A 
ATOM      7  C6  UNL d   1       0.868  -4.218  -2.066  0.00  0.00    -0.001 A 
ENDROOT
TORSDOF 0
ENDMDL
