MODEL 1
REMARK minimizedAffinity 9.29490948
REMARK minimizedRMSD -1
REMARK  0 active torsions:
REMARK  status: ('A' for Active; 'I' for Inactive)
ROOT
ATOM      1  C   UNL d   1       2.320  -0.285  -0.682  0.00  0.00     0.078 C 
ATOM      2  C1  UNL d   1       3.599   0.497  -0.721  0.00  0.00    -0.077 A 
ATOM      3  C2  UNL d   1       4.258   0.741  -1.932  0.00  0.00    -0.001 A 
ATOM      4  C3  UNL d   1       5.453   1.462  -1.953  0.00  0.00     0.003 A 
ATOM      5  C4  UNL d   1       6.000   1.944  -0.765  0.00  0.00    -0.005 A 
ATOM      6  C5  UNL d   1       5.352   1.705   0.445  0.00  0.00     0.003 A 
ATOM      7  C6  UNL d   1       4.157   0.984   0.468  0.00  0.00    -0.001 A 
ENDROOT
TORSDOF 0
ENDMDL
