MODEL 1
REMARK minimizedAffinity 13.0228853
REMARK minimizedRMSD -1
REMARK  0 active torsions:
REMARK  status: ('A' for Active; 'I' for Inactive)
ROOT
ATOM      1  C   UNL d   1       2.148  -0.655  -1.130  0.00  0.00     0.078 C 
ATOM      2  C1  UNL d   1       3.490  -0.029  -0.893  0.00  0.00    -0.077 A 
ATOM      3  C2  UNL d   1       4.460   0.000  -1.902  0.00  0.00    -0.001 A 
ATOM      4  C3  UNL d   1       5.709   0.578  -1.664  0.00  0.00     0.003 A 
ATOM      5  C4  UNL d   1       5.998   1.130  -0.418  0.00  0.00    -0.005 A 
ATOM      6  C5  UNL d   1       5.040   1.104   0.593  0.00  0.00     0.003 A 
ATOM      7  C6  UNL d   1       3.791   0.526   0.357  0.00  0.00    -0.001 A 
ENDROOT
TORSDOF 0
ENDMDL
