MODEL 1
REMARK minimizedAffinity 11.1376877
REMARK minimizedRMSD -1
REMARK  0 active torsions:
REMARK  status: ('A' for Active; 'I' for Inactive)
ROOT
ATOM      1  O1  BZF d   1       3.162   0.728  -1.402  0.00  0.00    -0.204 OA
ATOM      2  C2  BZF d   1       3.971   1.407  -0.511  0.00  0.00     0.174 A 
ATOM      3  C3  BZF d   1       3.980   0.795   0.690  0.00  0.00    -0.012 A 
ATOM      4  C3A BZF d   1       3.197  -0.390   0.514  0.00  0.00    -0.107 A 
ATOM      5  C4  BZF d   1       2.851  -1.418   1.344  0.00  0.00     0.055 A 
ATOM      6  C5  BZF d   1       2.013  -2.384   0.884  0.00  0.00    -0.016 A 
ATOM      7  C6  BZF d   1       1.500  -2.351  -0.396  0.00  0.00     0.022 A 
ATOM      8  C7  BZF d   1       1.819  -1.355  -1.257  0.00  0.00     0.029 A 
ATOM      9  C7A BZF d   1       2.692  -0.394  -0.806  0.00  0.00     0.058 A 
ENDROOT
TORSDOF 0
ENDMDL
