MODEL 1
REMARK minimizedAffinity 11.95611
REMARK minimizedRMSD -1
REMARK  0 active torsions:
REMARK  status: ('A' for Active; 'I' for Inactive)
ROOT
ATOM      1  O1  BZF d   1       4.329  -2.145   1.362  0.00  0.00    -0.204 OA
ATOM      2  C2  BZF d   1       5.628  -1.852   1.729  0.00  0.00     0.174 A 
ATOM      3  C3  BZF d   1       5.998  -0.644   1.255  0.00  0.00    -0.012 A 
ATOM      4  C3A BZF d   1       4.828  -0.113   0.626  0.00  0.00    -0.107 A 
ATOM      5  C4  BZF d   1       4.560   1.062  -0.017  0.00  0.00     0.055 A 
ATOM      6  C5  BZF d   1       3.337   1.241  -0.582  0.00  0.00    -0.016 A 
ATOM      7  C6  BZF d   1       2.362   0.266  -0.528  0.00  0.00     0.022 A 
ATOM      8  C7  BZF d   1       2.581  -0.914   0.102  0.00  0.00     0.029 A 
ATOM      9  C7A BZF d   1       3.804  -1.085   0.703  0.00  0.00     0.058 A 
ENDROOT
TORSDOF 0
ENDMDL
