MODEL 1
REMARK minimizedAffinity 15.3021126
REMARK minimizedRMSD -1
REMARK  0 active torsions:
REMARK  status: ('A' for Active; 'I' for Inactive)
ROOT
ATOM      1  O1  BZF d   1       2.690  -2.333   0.022  0.00  0.00    -0.204 OA
ATOM      2  C2  BZF d   1       2.168  -2.707  -1.201  0.00  0.00     0.174 A 
ATOM      3  C3  BZF d   1       1.819  -1.623  -1.923  0.00  0.00    -0.012 A 
ATOM      4  C3A BZF d   1       2.228  -0.499  -1.138  0.00  0.00    -0.107 A 
ATOM      5  C4  BZF d   1       2.167   0.852  -1.328  0.00  0.00     0.055 A 
ATOM      6  C5  BZF d   1       2.588   1.678  -0.335  0.00  0.00    -0.016 A 
ATOM      7  C6  BZF d   1       3.070   1.189   0.861  0.00  0.00     0.022 A 
ATOM      8  C7  BZF d   1       3.155  -0.144   1.094  0.00  0.00     0.029 A 
ATOM      9  C7A BZF d   1       2.762  -0.982   0.080  0.00  0.00     0.058 A 
ENDROOT
TORSDOF 0
ENDMDL
