MODEL 1
REMARK minimizedAffinity 3.65864182
REMARK minimizedRMSD -1
REMARK  0 active torsions:
REMARK  status: ('A' for Active; 'I' for Inactive)
ROOT
ATOM      1  O1  BZF d   1      -6.000   2.174  -3.342  0.00  0.00    -0.204 OA
ATOM      2  C2  BZF d   1      -6.000   1.040  -4.130  0.00  0.00     0.174 A 
ATOM      3  C3  BZF d   1      -5.355   0.029  -3.514  0.00  0.00    -0.012 A 
ATOM      4  C3A BZF d   1      -5.005   0.537  -2.223  0.00  0.00    -0.107 A 
ATOM      5  C4  BZF d   1      -4.364  -0.000  -1.144  0.00  0.00     0.055 A 
ATOM      6  C5  BZF d   1      -4.117   0.785  -0.063  0.00  0.00    -0.016 A 
ATOM      7  C6  BZF d   1      -4.492   2.112  -0.029  0.00  0.00     0.022 A 
ATOM      8  C7  BZF d   1      -5.136   2.689  -1.073  0.00  0.00     0.029 A 
ATOM      9  C7A BZF d   1      -5.416   1.889  -2.154  0.00  0.00     0.058 A 
ENDROOT
TORSDOF 0
ENDMDL
