MODEL 1
REMARK minimizedAffinity 9.18318081
REMARK minimizedRMSD -1
REMARK  0 active torsions:
REMARK  status: ('A' for Active; 'I' for Inactive)
ROOT
ATOM      1  O1  BZF d   1      -5.919   3.367   2.132  0.00  0.00    -0.204 OA
ATOM      2  C2  BZF d   1      -5.891   4.449   1.273  0.00  0.00     0.174 A 
ATOM      3  C3  BZF d   1      -5.941   5.607   1.961  0.00  0.00    -0.012 A 
ATOM      4  C3A BZF d   1      -5.911   5.227   3.340  0.00  0.00    -0.107 A 
ATOM      5  C4  BZF d   1      -5.920   5.934   4.509  0.00  0.00     0.055 A 
ATOM      6  C5  BZF d   1      -5.958   5.259   5.688  0.00  0.00    -0.016 A 
ATOM      7  C6  BZF d   1      -5.991   3.881   5.735  0.00  0.00     0.022 A 
ATOM      8  C7  BZF d   1      -5.979   3.137   4.602  0.00  0.00     0.029 A 
ATOM      9  C7A BZF d   1      -5.908   3.815   3.410  0.00  0.00     0.058 A 
ENDROOT
TORSDOF 0
ENDMDL
