MODEL 1
REMARK minimizedAffinity 6.64245653
REMARK minimizedRMSD -1
REMARK  0 active torsions:
REMARK  status: ('A' for Active; 'I' for Inactive)
ROOT
ATOM      1  O1  BZF d   1       3.302   1.869  -2.483  0.00  0.00    -0.204 OA
ATOM      2  C2  BZF d   1       4.334   2.764  -2.283  0.00  0.00     0.174 A 
ATOM      3  C3  BZF d   1       4.872   2.607  -1.056  0.00  0.00    -0.012 A 
ATOM      4  C3A BZF d   1       4.190   1.486  -0.487  0.00  0.00    -0.107 A 
ATOM      5  C4  BZF d   1       4.291   0.833   0.708  0.00  0.00     0.055 A 
ATOM      6  C5  BZF d   1       3.428  -0.180   0.983  0.00  0.00    -0.016 A 
ATOM      7  C6  BZF d   1       2.449  -0.562   0.089  0.00  0.00     0.022 A 
ATOM      8  C7  BZF d   1       2.313   0.052  -1.111  0.00  0.00     0.029 A 
ATOM      9  C7A BZF d   1       3.205   1.054  -1.405  0.00  0.00     0.058 A 
ENDROOT
TORSDOF 0
ENDMDL
