MODEL 1
REMARK minimizedAffinity 7.74494743
REMARK minimizedRMSD -1
REMARK  0 active torsions:
REMARK  status: ('A' for Active; 'I' for Inactive)
ROOT
ATOM      1  O1  BZF d   1       2.531  -1.603  -0.125  0.00  0.00    -0.204 OA
ATOM      2  C2  BZF d   1       3.038  -1.944   1.114  0.00  0.00     0.174 A 
ATOM      3  C3  BZF d   1       3.975  -1.057   1.508  0.00  0.00    -0.012 A 
ATOM      4  C3A BZF d   1       3.993  -0.052   0.491  0.00  0.00    -0.107 A 
ATOM      5  C4  BZF d   1       4.705   1.101   0.323  0.00  0.00     0.055 A 
ATOM      6  C5  BZF d   1       4.539   1.821  -0.818  0.00  0.00    -0.016 A 
ATOM      7  C6  BZF d   1       3.673   1.414  -1.812  0.00  0.00     0.022 A 
ATOM      8  C7  BZF d   1       2.941   0.280  -1.689  0.00  0.00     0.029 A 
ATOM      9  C7A BZF d   1       3.083  -0.431  -0.523  0.00  0.00     0.058 A 
ENDROOT
TORSDOF 0
ENDMDL
