MODEL 1
REMARK minimizedAffinity 16.1140137
REMARK minimizedRMSD -1
REMARK  0 active torsions:
REMARK  status: ('A' for Active; 'I' for Inactive)
ROOT
ATOM      1  O1  BZF d   1      -4.789   1.336   0.476  0.00  0.00    -0.204 OA
ATOM      2  C2  BZF d   1      -6.000   0.854   0.018  0.00  0.00     0.174 A 
ATOM      3  C3  BZF d   1      -5.846   0.212  -1.157  0.00  0.00    -0.012 A 
ATOM      4  C3A BZF d   1      -4.437   0.218  -1.408  0.00  0.00    -0.107 A 
ATOM      5  C4  BZF d   1      -3.660  -0.282  -2.414  0.00  0.00     0.055 A 
ATOM      6  C5  BZF d   1      -2.322  -0.041  -2.396  0.00  0.00    -0.016 A 
ATOM      7  C6  BZF d   1      -1.730   0.697  -1.393  0.00  0.00     0.022 A 
ATOM      8  C7  BZF d   1      -2.459   1.209  -0.371  0.00  0.00     0.029 A 
ATOM      9  C7A BZF d   1      -3.806   0.940  -0.368  0.00  0.00     0.058 A 
ENDROOT
TORSDOF 0
ENDMDL
