MODEL 1
REMARK minimizedAffinity 15.6067123
REMARK minimizedRMSD -1
REMARK  0 active torsions:
REMARK  status: ('A' for Active; 'I' for Inactive)
ROOT
ATOM      1  O1  BZF d   1      -4.141   2.627   2.512  0.00  0.00    -0.204 OA
ATOM      2  C2  BZF d   1      -4.423   2.724   1.163  0.00  0.00     0.174 A 
ATOM      3  C3  BZF d   1      -5.201   3.797   0.913  0.00  0.00    -0.012 A 
ATOM      4  C3A BZF d   1      -5.344   4.460   2.173  0.00  0.00    -0.107 A 
ATOM      5  C4  BZF d   1      -5.991   5.596   2.568  0.00  0.00     0.055 A 
ATOM      6  C5  BZF d   1      -5.996   5.929   3.886  0.00  0.00    -0.016 A 
ATOM      7  C6  BZF d   1      -5.369   5.148   4.834  0.00  0.00     0.022 A 
ATOM      8  C7  BZF d   1      -4.709   4.015   4.490  0.00  0.00     0.029 A 
ATOM      9  C7A BZF d   1      -4.675   3.694   3.155  0.00  0.00     0.058 A 
ENDROOT
TORSDOF 0
ENDMDL
