MODEL 1
REMARK minimizedAffinity 19.7548141
REMARK minimizedRMSD -1
REMARK  0 active torsions:
REMARK  status: ('A' for Active; 'I' for Inactive)
ROOT
ATOM      1  O1  BZF d   1       5.410   4.349   3.517  0.00  0.00    -0.204 OA
ATOM      2  C2  BZF d   1       5.889   3.165   4.044  0.00  0.00     0.174 A 
ATOM      3  C3  BZF d   1       4.889   2.450   4.600  0.00  0.00    -0.012 A 
ATOM      4  C3A BZF d   1       3.697   3.193   4.326  0.00  0.00    -0.107 A 
ATOM      5  C4  BZF d   1       2.377   2.987   4.609  0.00  0.00     0.055 A 
ATOM      6  C5  BZF d   1       1.472   3.941   4.266  0.00  0.00    -0.016 A 
ATOM      7  C6  BZF d   1       1.852   5.112   3.644  0.00  0.00     0.022 A 
ATOM      8  C7  BZF d   1       3.149   5.359   3.339  0.00  0.00     0.029 A 
ATOM      9  C7A BZF d   1       4.062   4.382   3.655  0.00  0.00     0.058 A 
ENDROOT
TORSDOF 0
ENDMDL
