MODEL 1
REMARK minimizedAffinity 1.12439394
REMARK minimizedRMSD -1
REMARK  0 active torsions:
REMARK  status: ('A' for Active; 'I' for Inactive)
ROOT
ATOM      1  O1  BZF d   1       2.711  -1.965   1.105  0.00  0.00    -0.204 OA
ATOM      2  C2  BZF d   1       2.031  -2.682   0.140  0.00  0.00     0.174 A 
ATOM      3  C3  BZF d   1       1.754  -1.905  -0.927  0.00  0.00    -0.012 A 
ATOM      4  C3A BZF d   1       2.376  -0.647  -0.648  0.00  0.00    -0.107 A 
ATOM      5  C4  BZF d   1       2.467   0.528  -1.338  0.00  0.00     0.055 A 
ATOM      6  C5  BZF d   1       3.083   1.590  -0.754  0.00  0.00    -0.016 A 
ATOM      7  C6  BZF d   1       3.613   1.513   0.517  0.00  0.00     0.022 A 
ATOM      8  C7  BZF d   1       3.550   0.367   1.238  0.00  0.00     0.029 A 
ATOM      9  C7A BZF d   1       2.958  -0.717   0.638  0.00  0.00     0.058 A 
ENDROOT
TORSDOF 0
ENDMDL
