MODEL 1
REMARK minimizedAffinity 16.478508
REMARK minimizedRMSD -1
REMARK  0 active torsions:
REMARK  status: ('A' for Active; 'I' for Inactive)
ROOT
ATOM      1  O1  BZF d   1       2.218  -2.547  -0.768  0.00  0.00    -0.204 OA
ATOM      2  C2  BZF d   1       2.038  -2.576  -2.137  0.00  0.00     0.174 A 
ATOM      3  C3  BZF d   1       2.124  -1.335  -2.658  0.00  0.00    -0.012 A 
ATOM      4  C3A BZF d   1       2.466  -0.488  -1.557  0.00  0.00    -0.107 A 
ATOM      5  C4  BZF d   1       2.706   0.851  -1.442  0.00  0.00     0.055 A 
ATOM      6  C5  BZF d   1       2.942   1.377  -0.211  0.00  0.00    -0.016 A 
ATOM      7  C6  BZF d   1       2.940   0.594   0.925  0.00  0.00     0.022 A 
ATOM      8  C7  BZF d   1       2.712  -0.740   0.861  0.00  0.00     0.029 A 
ATOM      9  C7A BZF d   1       2.506  -1.279  -0.385  0.00  0.00     0.058 A 
ENDROOT
TORSDOF 0
ENDMDL
