MODEL 1
REMARK minimizedAffinity 1.58012867
REMARK minimizedRMSD -1
REMARK  0 active torsions:
REMARK  status: ('A' for Active; 'I' for Inactive)
ROOT
ATOM      1  O1  BZF d   1      -5.999   3.944   5.743  0.00  0.00    -0.204 OA
ATOM      2  C2  BZF d   1      -5.999   5.302   5.994  0.00  0.00     0.174 A 
ATOM      3  C3  BZF d   1      -5.836   6.000   4.852  0.00  0.00    -0.012 A 
ATOM      4  C3A BZF d   1      -5.821   5.019   3.810  0.00  0.00    -0.107 A 
ATOM      5  C4  BZF d   1      -5.704   5.094   2.452  0.00  0.00     0.055 A 
ATOM      6  C5  BZF d   1      -5.652   3.944   1.729  0.00  0.00    -0.016 A 
ATOM      7  C6  BZF d   1      -5.708   2.704   2.332  0.00  0.00     0.022 A 
ATOM      8  C7  BZF d   1      -5.829   2.580   3.676  0.00  0.00     0.029 A 
ATOM      9  C7A BZF d   1      -5.915   3.740   4.406  0.00  0.00     0.058 A 
ENDROOT
TORSDOF 0
ENDMDL
