MODEL 1
REMARK minimizedAffinity 0.524982154
REMARK minimizedRMSD -1
REMARK  0 active torsions:
REMARK  status: ('A' for Active; 'I' for Inactive)
ROOT
ATOM      1  O1  BZF d   1       2.033   2.425   2.723  0.00  0.00    -0.204 OA
ATOM      2  C2  BZF d   1       1.072   1.704   3.405  0.00  0.00     0.174 A 
ATOM      3  C3  BZF d   1       1.359   1.652   4.722  0.00  0.00    -0.012 A 
ATOM      4  C3A BZF d   1       2.526   2.464   4.885  0.00  0.00    -0.107 A 
ATOM      5  C4  BZF d   1       3.281   2.816   5.968  0.00  0.00     0.055 A 
ATOM      6  C5  BZF d   1       4.400   3.563   5.778  0.00  0.00    -0.016 A 
ATOM      7  C6  BZF d   1       4.795   3.972   4.521  0.00  0.00     0.022 A 
ATOM      8  C7  BZF d   1       4.076   3.652   3.418  0.00  0.00     0.029 A 
ATOM      9  C7A BZF d   1       2.927   2.924   3.610  0.00  0.00     0.058 A 
ENDROOT
TORSDOF 0
ENDMDL
