MODEL 1
REMARK minimizedAffinity -5.33929157
REMARK minimizedRMSD -1
REMARK  0 active torsions:
REMARK  status: ('A' for Active; 'I' for Inactive)
ROOT
ATOM      1  O1  BZF d   1      -1.419   0.440   1.151  0.00  0.00    -0.204 OA
ATOM      2  C2  BZF d   1      -1.048   1.021  -0.046  0.00  0.00     0.174 A 
ATOM      3  C3  BZF d   1       0.053   0.424  -0.546  0.00  0.00    -0.012 A 
ATOM      4  C3A BZF d   1       0.338  -0.654   0.351  0.00  0.00    -0.107 A 
ATOM      5  C4  BZF d   1       1.301  -1.621   0.380  0.00  0.00     0.055 A 
ATOM      6  C5  BZF d   1       1.344  -2.478   1.434  0.00  0.00    -0.016 A 
ATOM      7  C6  BZF d   1       0.444  -2.394   2.475  0.00  0.00     0.022 A 
ATOM      8  C7  BZF d   1      -0.533  -1.455   2.488  0.00  0.00     0.029 A 
ATOM      9  C7A BZF d   1      -0.599  -0.608   1.409  0.00  0.00     0.058 A 
ENDROOT
TORSDOF 0
ENDMDL
