MODEL 1
REMARK minimizedAffinity -1.91736889
REMARK minimizedRMSD -1
REMARK  0 active torsions:
REMARK  status: ('A' for Active; 'I' for Inactive)
ROOT
ATOM      1  O1  BZF d   1      -1.234  -0.161  -0.153  0.00  0.00    -0.204 OA
ATOM      2  C2  BZF d   1       0.110  -0.056   0.148  0.00  0.00     0.174 A 
ATOM      3  C3  BZF d   1       0.686   0.930  -0.570  0.00  0.00    -0.012 A 
ATOM      4  C3A BZF d   1      -0.384   1.536  -1.302  0.00  0.00    -0.107 A 
ATOM      5  C4  BZF d   1      -0.448   2.580  -2.180  0.00  0.00     0.055 A 
ATOM      6  C5  BZF d   1      -1.635   2.871  -2.774  0.00  0.00    -0.016 A 
ATOM      7  C6  BZF d   1      -2.774   2.138  -2.519  0.00  0.00     0.022 A 
ATOM      8  C7  BZF d   1      -2.762   1.096  -1.651  0.00  0.00     0.029 A 
ATOM      9  C7A BZF d   1      -1.571   0.820  -1.024  0.00  0.00     0.058 A 
ENDROOT
TORSDOF 0
ENDMDL
