MODEL 1
REMARK minimizedAffinity -4.65021324
REMARK minimizedRMSD -1
REMARK  0 active torsions:
REMARK  status: ('A' for Active; 'I' for Inactive)
ROOT
ATOM      1  O1  BZF d   1       0.257  -2.488   1.624  0.00  0.00    -0.204 OA
ATOM      2  C2  BZF d   1       1.539  -2.974   1.449  0.00  0.00     0.174 A 
ATOM      3  C3  BZF d   1       2.251  -2.165   0.638  0.00  0.00    -0.012 A 
ATOM      4  C3A BZF d   1       1.387  -1.060   0.356  0.00  0.00    -0.107 A 
ATOM      5  C4  BZF d   1       1.531   0.080  -0.382  0.00  0.00     0.055 A 
ATOM      6  C5  BZF d   1       0.470   0.920  -0.514  0.00  0.00    -0.016 A 
ATOM      7  C6  BZF d   1      -0.748   0.649   0.074  0.00  0.00     0.022 A 
ATOM      8  C7  BZF d   1      -0.937  -0.467   0.820  0.00  0.00     0.029 A 
ATOM      9  C7A BZF d   1       0.142  -1.301   0.982  0.00  0.00     0.058 A 
ENDROOT
TORSDOF 0
ENDMDL
