MODEL 1
REMARK minimizedAffinity -3.96865463
REMARK minimizedRMSD -1
REMARK  0 active torsions:
REMARK  status: ('A' for Active; 'I' for Inactive)
ROOT
ATOM      1  O1  BZF d   1       0.546  -2.811   1.449  0.00  0.00    -0.204 OA
ATOM      2  C2  BZF d   1       1.913  -2.974   1.341  0.00  0.00     0.174 A 
ATOM      3  C3  BZF d   1       2.471  -1.925   0.702  0.00  0.00    -0.012 A 
ATOM      4  C3A BZF d   1       1.396  -1.009   0.474  0.00  0.00    -0.107 A 
ATOM      5  C4  BZF d   1       1.322   0.225  -0.107  0.00  0.00     0.055 A 
ATOM      6  C5  BZF d   1       0.108   0.822  -0.237  0.00  0.00    -0.016 A 
ATOM      7  C6  BZF d   1      -1.051   0.212   0.196  0.00  0.00     0.022 A 
ATOM      8  C7  BZF d   1      -1.027  -1.010   0.783  0.00  0.00     0.029 A 
ATOM      9  C7A BZF d   1       0.202  -1.601   0.946  0.00  0.00     0.058 A 
ENDROOT
TORSDOF 0
ENDMDL
