MODEL 1
REMARK minimizedAffinity -5.2722187
REMARK minimizedRMSD -1
REMARK  0 active torsions:
REMARK  status: ('A' for Active; 'I' for Inactive)
ROOT
ATOM      1  O1  BZF d   1      -0.819   0.224   0.600  0.00  0.00    -0.204 OA
ATOM      2  C2  BZF d   1      -0.053   1.134  -0.102  0.00  0.00     0.174 A 
ATOM      3  C3  BZF d   1       1.183   0.644  -0.330  0.00  0.00    -0.012 A 
ATOM      4  C3A BZF d   1       1.160  -0.691   0.187  0.00  0.00    -0.107 A 
ATOM      5  C4  BZF d   1       2.086  -1.693   0.241  0.00  0.00     0.055 A 
ATOM      6  C5  BZF d   1       1.770  -2.851   0.878  0.00  0.00    -0.016 A 
ATOM      7  C6  BZF d   1       0.540  -3.038   1.475  0.00  0.00     0.022 A 
ATOM      8  C7  BZF d   1      -0.413  -2.075   1.443  0.00  0.00     0.029 A 
ATOM      9  C7A BZF d   1      -0.108  -0.917   0.772  0.00  0.00     0.058 A 
ENDROOT
TORSDOF 0
ENDMDL
