MODEL 1
REMARK minimizedAffinity -6.23152113
REMARK minimizedRMSD -1
REMARK  0 active torsions:
REMARK  status: ('A' for Active; 'I' for Inactive)
ROOT
ATOM      1  O1  BZF d   1      -1.056  -1.321   2.605  0.00  0.00    -0.204 OA
ATOM      2  C2  BZF d   1      -0.565  -2.270   3.482  0.00  0.00     0.174 A 
ATOM      3  C3  BZF d   1       0.605  -2.772   3.039  0.00  0.00    -0.012 A 
ATOM      4  C3A BZF d   1       0.909  -2.029   1.854  0.00  0.00    -0.107 A 
ATOM      5  C4  BZF d   1       1.950  -2.055   0.971  0.00  0.00     0.055 A 
ATOM      6  C5  BZF d   1       1.908  -1.249  -0.123  0.00  0.00    -0.016 A 
ATOM      7  C6  BZF d   1       0.840  -0.411  -0.367  0.00  0.00     0.022 A 
ATOM      8  C7  BZF d   1      -0.214  -0.347   0.483  0.00  0.00     0.029 A 
ATOM      9  C7A BZF d   1      -0.159  -1.135   1.607  0.00  0.00     0.058 A 
ENDROOT
TORSDOF 0
ENDMDL
