MODEL 1
REMARK minimizedAffinity -2.49429321
REMARK minimizedRMSD -1
REMARK  0 active torsions:
REMARK  status: ('A' for Active; 'I' for Inactive)
ROOT
ATOM      1  O1  BZF d   1      -0.551   0.345   1.229  0.00  0.00    -0.204 OA
ATOM      2  C2  BZF d   1      -0.552   1.211   0.153  0.00  0.00     0.174 A 
ATOM      3  C3  BZF d   1       0.494   0.963  -0.661  0.00  0.00    -0.012 A 
ATOM      4  C3A BZF d   1       1.140  -0.186  -0.105  0.00  0.00    -0.107 A 
ATOM      5  C4  BZF d   1       2.231  -0.920  -0.474  0.00  0.00     0.055 A 
ATOM      6  C5  BZF d   1       2.643  -1.939   0.326  0.00  0.00    -0.016 A 
ATOM      7  C6  BZF d   1       1.992  -2.246   1.503  0.00  0.00     0.022 A 
ATOM      8  C7  BZF d   1       0.903  -1.549   1.908  0.00  0.00     0.029 A 
ATOM      9  C7A BZF d   1       0.464  -0.541   1.085  0.00  0.00     0.058 A 
ENDROOT
TORSDOF 0
ENDMDL
