MODEL 1
REMARK minimizedAffinity -2.27625132
REMARK minimizedRMSD -1
REMARK  0 active torsions:
REMARK  status: ('A' for Active; 'I' for Inactive)
ROOT
ATOM      1  O1  BZF d   1      -1.160   0.404  -0.226  0.00  0.00    -0.204 OA
ATOM      2  C2  BZF d   1      -0.298   1.281  -0.856  0.00  0.00     0.174 A 
ATOM      3  C3  BZF d   1       0.986   0.937  -0.629  0.00  0.00    -0.012 A 
ATOM      4  C3A BZF d   1       0.922  -0.282   0.118  0.00  0.00    -0.107 A 
ATOM      5  C4  BZF d   1       1.871  -1.121   0.628  0.00  0.00     0.055 A 
ATOM      6  C5  BZF d   1       1.478  -2.189   1.371  0.00  0.00    -0.016 A 
ATOM      7  C6  BZF d   1       0.147  -2.443   1.629  0.00  0.00     0.022 A 
ATOM      8  C7  BZF d   1      -0.831  -1.642   1.141  0.00  0.00     0.029 A 
ATOM      9  C7A BZF d   1      -0.438  -0.581   0.361  0.00  0.00     0.058 A 
ENDROOT
TORSDOF 0
ENDMDL
