MODEL 1
REMARK minimizedAffinity -4.5494585
REMARK minimizedRMSD -1
REMARK  0 active torsions:
REMARK  status: ('A' for Active; 'I' for Inactive)
ROOT
ATOM      1  O1  BZF d   1       1.759  -1.412  -0.061  0.00  0.00    -0.204 OA
ATOM      2  C2  BZF d   1       1.849  -2.631   0.583  0.00  0.00     0.174 A 
ATOM      3  C3  BZF d   1       0.818  -2.798   1.436  0.00  0.00    -0.012 A 
ATOM      4  C3A BZF d   1      -0.015  -1.651   1.249  0.00  0.00    -0.107 A 
ATOM      5  C4  BZF d   1      -1.198  -1.249   1.802  0.00  0.00     0.055 A 
ATOM      6  C5  BZF d   1      -1.712  -0.040   1.456  0.00  0.00    -0.016 A 
ATOM      7  C6  BZF d   1      -1.068   0.795   0.566  0.00  0.00     0.022 A 
ATOM      8  C7  BZF d   1       0.105   0.438  -0.012  0.00  0.00     0.029 A 
ATOM      9  C7A BZF d   1       0.610  -0.798   0.311  0.00  0.00     0.058 A 
ENDROOT
TORSDOF 0
ENDMDL
