MODEL 1
REMARK minimizedAffinity -1.49074793
REMARK minimizedRMSD -1
REMARK  0 active torsions:
REMARK  status: ('A' for Active; 'I' for Inactive)
ROOT
ATOM      1  O1  BZF d   1       1.308   1.086   0.419  0.00  0.00    -0.204 OA
ATOM      2  C2  BZF d   1       0.133   1.529  -0.158  0.00  0.00     0.174 A 
ATOM      3  C3  BZF d   1      -0.733   0.509  -0.323  0.00  0.00    -0.012 A 
ATOM      4  C3A BZF d   1      -0.093  -0.627   0.266  0.00  0.00    -0.107 A 
ATOM      5  C4  BZF d   1      -0.460  -1.932   0.429  0.00  0.00     0.055 A 
ATOM      6  C5  BZF d   1       0.424  -2.804   0.980  0.00  0.00    -0.016 A 
ATOM      7  C6  BZF d   1       1.685  -2.406   1.375  0.00  0.00     0.022 A 
ATOM      8  C7  BZF d   1       2.093  -1.121   1.239  0.00  0.00     0.029 A 
ATOM      9  C7A BZF d   1       1.189  -0.231   0.712  0.00  0.00     0.058 A 
ENDROOT
TORSDOF 0
ENDMDL
