MODEL 1
REMARK minimizedAffinity -5.48308659
REMARK minimizedRMSD -1
REMARK  0 active torsions:
REMARK  status: ('A' for Active; 'I' for Inactive)
ROOT
ATOM      1  O1  BZF d   1      -0.687   0.465  -0.109  0.00  0.00    -0.204 OA
ATOM      2  C2  BZF d   1       0.183   1.378  -0.674  0.00  0.00     0.174 A 
ATOM      3  C3  BZF d   1       1.463   1.032  -0.433  0.00  0.00    -0.012 A 
ATOM      4  C3A BZF d   1       1.391  -0.223   0.252  0.00  0.00    -0.107 A 
ATOM      5  C4  BZF d   1       2.334  -1.080   0.743  0.00  0.00     0.055 A 
ATOM      6  C5  BZF d   1       1.932  -2.185   1.423  0.00  0.00    -0.016 A 
ATOM      7  C6  BZF d   1       0.597  -2.461   1.635  0.00  0.00     0.022 A 
ATOM      8  C7  BZF d   1      -0.375  -1.643   1.163  0.00  0.00     0.029 A 
ATOM      9  C7A BZF d   1       0.028  -0.543   0.447  0.00  0.00     0.058 A 
ENDROOT
TORSDOF 0
ENDMDL
