MODEL 1
REMARK minimizedAffinity -4.36840487
REMARK minimizedRMSD -1
REMARK  0 active torsions:
REMARK  status: ('A' for Active; 'I' for Inactive)
ROOT
ATOM      1  O1  BZF d   1       1.121  -1.723  -0.649  0.00  0.00    -0.204 OA
ATOM      2  C2  BZF d   1       1.272  -2.657   0.358  0.00  0.00     0.174 A 
ATOM      3  C3  BZF d   1       0.643  -2.254   1.481  0.00  0.00    -0.012 A 
ATOM      4  C3A BZF d   1      -0.014  -1.034   1.128  0.00  0.00    -0.107 A 
ATOM      5  C4  BZF d   1      -0.813  -0.164   1.815  0.00  0.00     0.055 A 
ATOM      6  C5  BZF d   1      -1.233   0.973   1.201  0.00  0.00    -0.016 A 
ATOM      7  C6  BZF d   1      -0.870   1.274  -0.096  0.00  0.00     0.022 A 
ATOM      8  C7  BZF d   1      -0.084   0.440  -0.819  0.00  0.00     0.029 A 
ATOM      9  C7A BZF d   1       0.315  -0.725  -0.212  0.00  0.00     0.058 A 
ENDROOT
TORSDOF 0
ENDMDL
