MODEL 1
REMARK minimizedAffinity -2.92546868
REMARK minimizedRMSD -1
REMARK  0 active torsions:
REMARK  status: ('A' for Active; 'I' for Inactive)
ROOT
ATOM      1  O1  BZF d   1       2.512  -1.254   0.339  0.00  0.00    -0.204 OA
ATOM      2  C2  BZF d   1       2.268  -2.351   1.142  0.00  0.00     0.174 A 
ATOM      3  C3  BZF d   1       0.983  -2.367   1.552  0.00  0.00    -0.012 A 
ATOM      4  C3A BZF d   1       0.364  -1.258   0.894  0.00  0.00    -0.107 A 
ATOM      5  C4  BZF d   1      -0.908  -0.761   0.887  0.00  0.00     0.055 A 
ATOM      6  C5  BZF d   1      -1.168   0.380   0.196  0.00  0.00    -0.016 A 
ATOM      7  C6  BZF d   1      -0.180   1.051  -0.494  0.00  0.00     0.022 A 
ATOM      8  C7  BZF d   1       1.096   0.594  -0.521  0.00  0.00     0.029 A 
ATOM      9  C7A BZF d   1       1.354  -0.577   0.150  0.00  0.00     0.058 A 
ENDROOT
TORSDOF 0
ENDMDL
