MODEL 1
REMARK minimizedAffinity -4.31938744
REMARK minimizedRMSD -1
REMARK  0 active torsions:
REMARK  status: ('A' for Active; 'I' for Inactive)
ROOT
ATOM      1  O1  BZF d   1       0.268  -2.330   1.361  0.00  0.00    -0.204 OA
ATOM      2  C2  BZF d   1       1.567  -2.643   1.009  0.00  0.00     0.174 A 
ATOM      3  C3  BZF d   1       2.116  -1.653   0.277  0.00  0.00    -0.012 A 
ATOM      4  C3A BZF d   1       1.128  -0.618   0.242  0.00  0.00    -0.107 A 
ATOM      5  C4  BZF d   1       1.090   0.626  -0.319  0.00  0.00     0.055 A 
ATOM      6  C5  BZF d   1      -0.052   1.356  -0.232  0.00  0.00    -0.016 A 
ATOM      7  C6  BZF d   1      -1.176   0.872   0.405  0.00  0.00     0.022 A 
ATOM      8  C7  BZF d   1      -1.186  -0.354   0.982  0.00  0.00     0.029 A 
ATOM      9  C7A BZF d   1      -0.022  -1.081   0.923  0.00  0.00     0.058 A 
ENDROOT
TORSDOF 0
ENDMDL
