MODEL 1
REMARK minimizedAffinity 14.0587683
REMARK minimizedRMSD -1
REMARK  0 active torsions:
REMARK  status: ('A' for Active; 'I' for Inactive)
ROOT
ATOM      1  C4' PXY d   1       4.084  -1.142   0.085  0.00  0.00     0.077 C 
ATOM      2  C1' PXY d   1       0.902   0.308   4.688  0.00  0.00     0.077 C 
ATOM      3  C1  PXY d   1       1.743  -0.061   3.482  0.00  0.00    -0.082 A 
ATOM      4  C2  PXY d   1       1.265  -0.909   2.586  0.00  0.00     0.003 A 
ATOM      5  C3  PXY d   1       2.025  -1.279   1.506  0.00  0.00     0.003 A 
ATOM      6  C4  PXY d   1       3.266  -0.733   1.313  0.00  0.00    -0.082 A 
ATOM      7  C5  PXY d   1       3.756   0.141   2.217  0.00  0.00     0.003 A 
ATOM      8  C6  PXY d   1       2.986   0.472   3.328  0.00  0.00     0.003 A 
ENDROOT
TORSDOF 0
ENDMDL
