MODEL 1
REMARK minimizedAffinity 19.668108
REMARK minimizedRMSD -1
REMARK  0 active torsions:
REMARK  status: ('A' for Active; 'I' for Inactive)
ROOT
ATOM      1  C4' PXY d   1      -2.482   3.968  -5.399  0.00  0.00     0.077 C 
ATOM      2  C1' PXY d   1      -0.083   3.106  -0.211  0.00  0.00     0.077 C 
ATOM      3  C1  PXY d   1      -0.717   3.343  -1.567  0.00  0.00    -0.082 A 
ATOM      4  C2  PXY d   1      -0.981   2.313  -2.355  0.00  0.00     0.003 A 
ATOM      5  C3  PXY d   1      -1.525   2.512  -3.598  0.00  0.00     0.003 A 
ATOM      6  C4  PXY d   1      -1.851   3.774  -4.017  0.00  0.00    -0.082 A 
ATOM      7  C5  PXY d   1      -1.595   4.829  -3.215  0.00  0.00     0.003 A 
ATOM      8  C6  PXY d   1      -1.004   4.609  -1.974  0.00  0.00     0.003 A 
ENDROOT
TORSDOF 0
ENDMDL
