MODEL 1
REMARK minimizedAffinity 4.82519913
REMARK minimizedRMSD -1
REMARK  0 active torsions:
REMARK  status: ('A' for Active; 'I' for Inactive)
ROOT
ATOM      1  C4' PXY d   1      -2.996  -3.468   2.506  0.00  0.00     0.077 C 
ATOM      2  C1' PXY d   1      -5.944  -5.998  -1.774  0.00  0.00     0.077 C 
ATOM      3  C1  PXY d   1      -5.179  -5.324  -0.652  0.00  0.00    -0.082 A 
ATOM      4  C2  PXY d   1      -3.920  -5.662  -0.424  0.00  0.00     0.003 A 
ATOM      5  C3  PXY d   1      -3.224  -5.086   0.607  0.00  0.00     0.003 A 
ATOM      6  C4  PXY d   1      -3.804  -4.115   1.378  0.00  0.00    -0.082 A 
ATOM      7  C5  PXY d   1      -5.085  -3.756   1.144  0.00  0.00     0.003 A 
ATOM      8  C6  PXY d   1      -5.788  -4.383   0.120  0.00  0.00     0.003 A 
ENDROOT
TORSDOF 0
ENDMDL
