MODEL 1
REMARK minimizedAffinity 15.4331398
REMARK minimizedRMSD -1
REMARK  0 active torsions:
REMARK  status: ('A' for Active; 'I' for Inactive)
ROOT
ATOM      1  C4' PXY d   1      -3.935   1.449  -3.201  0.00  0.00     0.077 C 
ATOM      2  C1' PXY d   1       1.046   3.458  -1.061  0.00  0.00     0.077 C 
ATOM      3  C1  PXY d   1      -0.263   2.943  -1.628  0.00  0.00    -0.082 A 
ATOM      4  C2  PXY d   1      -0.865   1.914  -1.053  0.00  0.00     0.003 A 
ATOM      5  C3  PXY d   1      -2.032   1.415  -1.571  0.00  0.00     0.003 A 
ATOM      6  C4  PXY d   1      -2.617   2.009  -2.658  0.00  0.00    -0.082 A 
ATOM      7  C5  PXY d   1      -2.014   3.065  -3.244  0.00  0.00     0.003 A 
ATOM      8  C6  PXY d   1      -0.809   3.530  -2.727  0.00  0.00     0.003 A 
ENDROOT
TORSDOF 0
ENDMDL
