MODEL 1
REMARK minimizedAffinity 16.3649807
REMARK minimizedRMSD -1
REMARK  0 active torsions:
REMARK  status: ('A' for Active; 'I' for Inactive)
ROOT
ATOM      1  C4' PXY d   1      -0.259  -0.385   4.496  0.00  0.00     0.077 C 
ATOM      2  C1' PXY d   1       3.681  -1.630   0.453  0.00  0.00     0.077 C 
ATOM      3  C1  PXY d   1       2.639  -1.311   1.507  0.00  0.00    -0.082 A 
ATOM      4  C2  PXY d   1       2.732  -0.188   2.200  0.00  0.00     0.003 A 
ATOM      5  C3  PXY d   1       1.817   0.101   3.179  0.00  0.00     0.003 A 
ATOM      6  C4  PXY d   1       0.765  -0.744   3.415  0.00  0.00    -0.082 A 
ATOM      7  C5  PXY d   1       0.657  -1.887   2.705  0.00  0.00     0.003 A 
ATOM      8  C6  PXY d   1       1.620  -2.181   1.744  0.00  0.00     0.003 A 
ENDROOT
TORSDOF 0
ENDMDL
