MODEL 1
REMARK minimizedAffinity 5.748981
REMARK minimizedRMSD -1
REMARK  0 active torsions:
REMARK  status: ('A' for Active; 'I' for Inactive)
ROOT
ATOM      1  C4' PXY d   1      -4.828  -5.997  -1.209  0.00  0.00     0.077 C 
ATOM      2  C1' PXY d   1      -2.836  -3.349   3.528  0.00  0.00     0.077 C 
ATOM      3  C1  PXY d   1      -3.348  -4.051   2.286  0.00  0.00    -0.082 A 
ATOM      4  C2  PXY d   1      -4.172  -3.416   1.468  0.00  0.00     0.003 A 
ATOM      5  C3  PXY d   1      -4.670  -4.047   0.357  0.00  0.00     0.003 A 
ATOM      6  C4  PXY d   1      -4.278  -5.323   0.052  0.00  0.00    -0.082 A 
ATOM      7  C5  PXY d   1      -3.430  -5.974   0.876  0.00  0.00     0.003 A 
ATOM      8  C6  PXY d   1      -2.968  -5.331   2.020  0.00  0.00     0.003 A 
ENDROOT
TORSDOF 0
ENDMDL
