MODEL 1
REMARK minimizedAffinity 15.8356905
REMARK minimizedRMSD -1
REMARK  0 active torsions:
REMARK  status: ('A' for Active; 'I' for Inactive)
ROOT
ATOM      1  C4' PXY d   1      -4.402   2.870  -1.316  0.00  0.00     0.077 C 
ATOM      2  C1' PXY d   1       1.321   2.688  -0.520  0.00  0.00     0.077 C 
ATOM      3  C1  PXY d   1      -0.178   2.739  -0.741  0.00  0.00    -0.082 A 
ATOM      4  C2  PXY d   1      -0.985   2.933   0.290  0.00  0.00     0.003 A 
ATOM      5  C3  PXY d   1      -2.344   2.950   0.112  0.00  0.00     0.003 A 
ATOM      6  C4  PXY d   1      -2.881   2.820  -1.141  0.00  0.00    -0.082 A 
ATOM      7  C5  PXY d   1      -2.064   2.633  -2.199  0.00  0.00     0.003 A 
ATOM      8  C6  PXY d   1      -0.689   2.577  -1.992  0.00  0.00     0.003 A 
ENDROOT
TORSDOF 0
ENDMDL
