MODEL 1
REMARK minimizedAffinity 12.0960722
REMARK minimizedRMSD -1
REMARK  0 active torsions:
REMARK  status: ('A' for Active; 'I' for Inactive)
ROOT
ATOM      1  C4' PXY d   1       2.058  -0.414   1.921  0.00  0.00     0.077 C 
ATOM      2  C1' PXY d   1      -2.733  -3.263   3.451  0.00  0.00     0.077 C 
ATOM      3  C1  PXY d   1      -1.482  -2.505   3.054  0.00  0.00    -0.082 A 
ATOM      4  C2  PXY d   1      -0.721  -2.965   2.075  0.00  0.00     0.003 A 
ATOM      5  C3  PXY d   1       0.432  -2.309   1.725  0.00  0.00     0.003 A 
ATOM      6  C4  PXY d   1       0.780  -1.141   2.348  0.00  0.00    -0.082 A 
ATOM      7  C5  PXY d   1       0.003  -0.659   3.341  0.00  0.00     0.003 A 
ATOM      8  C6  PXY d   1      -1.140  -1.362   3.709  0.00  0.00     0.003 A 
ENDROOT
TORSDOF 0
ENDMDL
