MODEL 1
REMARK minimizedAffinity 2.58504415
REMARK minimizedRMSD -1
REMARK  0 active torsions:
REMARK  status: ('A' for Active; 'I' for Inactive)
ROOT
ATOM      1  C4' PXY d   1      -2.873  -3.350   2.260  0.00  0.00     0.077 C 
ATOM      2  C1' PXY d   1       0.864   0.069   5.047  0.00  0.00     0.077 C 
ATOM      3  C1  PXY d   1      -0.111  -0.824   4.305  0.00  0.00    -0.082 A 
ATOM      4  C2  PXY d   1      -1.239  -1.190   4.891  0.00  0.00     0.003 A 
ATOM      5  C3  PXY d   1      -2.117  -2.023   4.246  0.00  0.00     0.003 A 
ATOM      6  C4  PXY d   1      -1.863  -2.442   2.968  0.00  0.00    -0.082 A 
ATOM      7  C5  PXY d   1      -0.720  -2.064   2.359  0.00  0.00     0.003 A 
ATOM      8  C6  PXY d   1       0.178  -1.251   3.046  0.00  0.00     0.003 A 
ENDROOT
TORSDOF 0
ENDMDL
