MODEL 1
REMARK minimizedAffinity 14.876297
REMARK minimizedRMSD -1
REMARK  0 active torsions:
REMARK  status: ('A' for Active; 'I' for Inactive)
ROOT
ATOM      1  C4' PXY d   1      -2.392  -2.561   2.684  0.00  0.00     0.077 C 
ATOM      2  C1' PXY d   1       2.647   0.270   2.573  0.00  0.00     0.077 C 
ATOM      3  C1  PXY d   1       1.324  -0.469   2.615  0.00  0.00    -0.082 A 
ATOM      4  C2  PXY d   1       1.092  -1.445   1.752  0.00  0.00     0.003 A 
ATOM      5  C3  PXY d   1      -0.111  -2.102   1.754  0.00  0.00     0.003 A 
ATOM      6  C4  PXY d   1      -1.067  -1.794   2.685  0.00  0.00    -0.082 A 
ATOM      7  C5  PXY d   1      -0.834  -0.807   3.576  0.00  0.00     0.003 A 
ATOM      8  C6  PXY d   1       0.378  -0.124   3.530  0.00  0.00     0.003 A 
ENDROOT
TORSDOF 0
ENDMDL
