MODEL 1
REMARK minimizedAffinity 21.1335793
REMARK minimizedRMSD -1
REMARK  0 active torsions:
REMARK  status: ('A' for Active; 'I' for Inactive)
ROOT
ATOM      1  C4' PXY d   1      -1.931  -3.035   2.763  0.00  0.00     0.077 C 
ATOM      2  C1' PXY d   1       2.747   0.261   1.943  0.00  0.00     0.077 C 
ATOM      3  C1  PXY d   1       1.519  -0.599   2.170  0.00  0.00    -0.082 A 
ATOM      4  C2  PXY d   1       1.317  -1.664   1.412  0.00  0.00     0.003 A 
ATOM      5  C3  PXY d   1       0.196  -2.435   1.583  0.00  0.00     0.003 A 
ATOM      6  C4  PXY d   1      -0.701  -2.143   2.576  0.00  0.00    -0.082 A 
ATOM      7  C5  PXY d   1      -0.496  -1.064   3.361  0.00  0.00     0.003 A 
ATOM      8  C6  PXY d   1       0.627  -0.271   3.144  0.00  0.00     0.003 A 
ENDROOT
TORSDOF 0
ENDMDL
