MODEL 1
REMARK minimizedAffinity 9.40424633
REMARK minimizedRMSD -1
REMARK  0 active torsions:
REMARK  status: ('A' for Active; 'I' for Inactive)
ROOT
ATOM      1  C4' PXY d   1       4.420  -1.062   1.111  0.00  0.00     0.077 C 
ATOM      2  C1' PXY d   1      -0.422  -0.042   4.100  0.00  0.00     0.077 C 
ATOM      3  C1  PXY d   1       0.852  -0.298   3.319  0.00  0.00    -0.082 A 
ATOM      4  C2  PXY d   1       0.864  -1.221   2.371  0.00  0.00     0.003 A 
ATOM      5  C3  PXY d   1       2.016  -1.487   1.677  0.00  0.00     0.003 A 
ATOM      6  C4  PXY d   1       3.154  -0.764   1.919  0.00  0.00    -0.082 A 
ATOM      7  C5  PXY d   1       3.146   0.187   2.877  0.00  0.00     0.003 A 
ATOM      8  C6  PXY d   1       1.978   0.414   3.598  0.00  0.00     0.003 A 
ENDROOT
TORSDOF 0
ENDMDL
