MODEL 1
REMARK minimizedAffinity 20.8486843
REMARK minimizedRMSD -1
REMARK  0 active torsions:
REMARK  status: ('A' for Active; 'I' for Inactive)
ROOT
ATOM      1  C4' PXY d   1      -0.945  -0.151   4.896  0.00  0.00     0.077 C 
ATOM      2  C1' PXY d   1       3.570  -0.473   1.301  0.00  0.00     0.077 C 
ATOM      3  C1  PXY d   1       2.394  -0.390   2.254  0.00  0.00    -0.082 A 
ATOM      4  C2  PXY d   1       1.176  -0.667   1.816  0.00  0.00     0.003 A 
ATOM      5  C3  PXY d   1       0.097  -0.566   2.656  0.00  0.00     0.003 A 
ATOM      6  C4  PXY d   1       0.273  -0.230   3.972  0.00  0.00    -0.082 A 
ATOM      7  C5  PXY d   1       1.513   0.044   4.429  0.00  0.00     0.003 A 
ATOM      8  C6  PXY d   1       2.590  -0.024   3.550  0.00  0.00     0.003 A 
ENDROOT
TORSDOF 0
ENDMDL
