MODEL 1
REMARK minimizedAffinity 10.7286367
REMARK minimizedRMSD -1
REMARK  0 active torsions:
REMARK  status: ('A' for Active; 'I' for Inactive)
ROOT
ATOM      1  C4' PXY d   1      -0.528   0.152   4.794  0.00  0.00     0.077 C 
ATOM      2  C1' PXY d   1       3.485  -1.478   0.966  0.00  0.00     0.077 C 
ATOM      3  C1  PXY d   1       2.442  -1.049   1.979  0.00  0.00    -0.082 A 
ATOM      4  C2  PXY d   1       1.173  -1.370   1.786  0.00  0.00     0.003 A 
ATOM      5  C3  PXY d   1       0.212  -0.963   2.676  0.00  0.00     0.003 A 
ATOM      6  C4  PXY d   1       0.561  -0.267   3.802  0.00  0.00    -0.082 A 
ATOM      7  C5  PXY d   1       1.855   0.054   4.011  0.00  0.00     0.003 A 
ATOM      8  C6  PXY d   1       2.810  -0.332   3.075  0.00  0.00     0.003 A 
ENDROOT
TORSDOF 0
ENDMDL
