MODEL 1
REMARK minimizedAffinity 8.17749977
REMARK minimizedRMSD -1
REMARK  0 active torsions:
REMARK  status: ('A' for Active; 'I' for Inactive)
ROOT
ATOM      1  C4' PXY d   1      -5.082   5.324  -1.003  0.00  0.00     0.077 C 
ATOM      2  C1' PXY d   1      -0.833   1.652  -2.371  0.00  0.00     0.077 C 
ATOM      3  C1  PXY d   1      -1.939   2.625  -2.014  0.00  0.00    -0.082 A 
ATOM      4  C2  PXY d   1      -2.941   2.224  -1.249  0.00  0.00     0.003 A 
ATOM      5  C3  PXY d   1      -3.967   3.081  -0.943  0.00  0.00     0.003 A 
ATOM      6  C4  PXY d   1      -3.939   4.378  -1.381  0.00  0.00    -0.082 A 
ATOM      7  C5  PXY d   1      -2.914   4.798  -2.153  0.00  0.00     0.003 A 
ATOM      8  C6  PXY d   1      -1.904   3.901  -2.486  0.00  0.00     0.003 A 
ENDROOT
TORSDOF 0
ENDMDL
