MODEL 1
REMARK minimizedAffinity 9.78310966
REMARK minimizedRMSD -1
REMARK  0 active torsions:
REMARK  status: ('A' for Active; 'I' for Inactive)
ROOT
ATOM      1  C4' PXY d   1      -4.612   1.713  -2.300  0.00  0.00     0.077 C 
ATOM      2  C1' PXY d   1       0.961   3.221  -2.001  0.00  0.00     0.077 C 
ATOM      3  C1  PXY d   1      -0.503   2.837  -2.085  0.00  0.00    -0.082 A 
ATOM      4  C2  PXY d   1      -0.990   1.931  -1.254  0.00  0.00     0.003 A 
ATOM      5  C3  PXY d   1      -2.305   1.548  -1.337  0.00  0.00     0.003 A 
ATOM      6  C4  PXY d   1      -3.142   2.139  -2.245  0.00  0.00    -0.082 A 
ATOM      7  C5  PXY d   1      -2.655   3.072  -3.090  0.00  0.00     0.003 A 
ATOM      8  C6  PXY d   1      -1.308   3.417  -3.017  0.00  0.00     0.003 A 
ENDROOT
TORSDOF 0
ENDMDL
