MODEL 1
REMARK minimizedAffinity 13.3167763
REMARK minimizedRMSD -1
REMARK  0 active torsions:
REMARK  status: ('A' for Active; 'I' for Inactive)
ROOT
ATOM      1  C4' PXY d   1      -2.070   4.076  -5.177  0.00  0.00     0.077 C 
ATOM      2  C1' PXY d   1      -1.177   2.159   0.202  0.00  0.00     0.077 C 
ATOM      3  C1  PXY d   1      -1.423   2.658  -1.208  0.00  0.00    -0.082 A 
ATOM      4  C2  PXY d   1      -0.418   2.721  -2.065  0.00  0.00     0.003 A 
ATOM      5  C3  PXY d   1      -0.617   3.200  -3.334  0.00  0.00     0.003 A 
ATOM      6  C4  PXY d   1      -1.869   3.569  -3.747  0.00  0.00    -0.082 A 
ATOM      7  C5  PXY d   1      -2.902   3.498  -2.881  0.00  0.00     0.003 A 
ATOM      8  C6  PXY d   1      -2.671   3.048  -1.585  0.00  0.00     0.003 A 
ENDROOT
TORSDOF 0
ENDMDL
