MODEL 1
REMARK minimizedAffinity 16.8927231
REMARK minimizedRMSD -1
REMARK  0 active torsions:
REMARK  status: ('A' for Active; 'I' for Inactive)
ROOT
ATOM      1  C4' PXY d   1      -3.350   3.383  -6.000  0.00  0.00     0.077 C 
ATOM      2  C1' PXY d   1      -0.456   2.526  -1.070  0.00  0.00     0.077 C 
ATOM      3  C1  PXY d   1      -1.225   2.745  -2.358  0.00  0.00    -0.082 A 
ATOM      4  C2  PXY d   1      -0.566   2.922  -3.491  0.00  0.00     0.003 A 
ATOM      5  C3  PXY d   1      -1.246   3.153  -4.660  0.00  0.00     0.003 A 
ATOM      6  C4  PXY d   1      -2.615   3.150  -4.677  0.00  0.00    -0.082 A 
ATOM      7  C5  PXY d   1      -3.294   2.959  -3.527  0.00  0.00     0.003 A 
ATOM      8  C6  PXY d   1      -2.586   2.767  -2.344  0.00  0.00     0.003 A 
ENDROOT
TORSDOF 0
ENDMDL
