MODEL 1
REMARK minimizedAffinity 1.28904963
REMARK minimizedRMSD -1
REMARK  0 active torsions:
REMARK  status: ('A' for Active; 'I' for Inactive)
ROOT
ATOM      1  C4' PXY d   1       3.057   0.081  -0.700  0.00  0.00     0.077 C 
ATOM      2  C1' PXY d   1      -2.311  -0.189   1.427  0.00  0.00     0.077 C 
ATOM      3  C1  PXY d   1      -0.900  -0.129   0.876  0.00  0.00    -0.082 A 
ATOM      4  C2  PXY d   1      -0.411   1.026   0.455  0.00  0.00     0.003 A 
ATOM      5  C3  PXY d   1       0.852   1.092  -0.076  0.00  0.00     0.003 A 
ATOM      6  C4  PXY d   1       1.641  -0.025  -0.127  0.00  0.00    -0.082 A 
ATOM      7  C5  PXY d   1       1.153  -1.205   0.310  0.00  0.00     0.003 A 
ATOM      8  C6  PXY d   1      -0.145  -1.259   0.808  0.00  0.00     0.003 A 
ENDROOT
TORSDOF 0
ENDMDL
