MODEL 1
REMARK minimizedAffinity -4.33624363
REMARK minimizedRMSD -1
REMARK  0 active torsions:
REMARK  status: ('A' for Active; 'I' for Inactive)
ROOT
ATOM      1  C   UNL d   1      -1.375   0.332   2.331  0.00  0.00     0.020 A 
ATOM      2  C1  UNL d   1      -1.809   1.622   2.029  0.00  0.00     0.020 A 
ATOM      3  C2  UNL d   1      -1.378   2.247   0.857  0.00  0.00     0.034 A 
ATOM      4  C3  UNL d   1      -0.510   1.583  -0.017  0.00  0.00     0.017 A 
ATOM      5  C4  UNL d   1      -0.075   0.288   0.287  0.00  0.00     0.017 A 
ATOM      6  C5  UNL d   1      -0.510  -0.334   1.462  0.00  0.00     0.034 A 
ATOM      7 Cl   UNL d   1       0.995  -0.596  -0.743  0.00  0.00    -0.070 Cl
ATOM      8 Cl1  UNL d   1      -0.018   2.416  -1.448  0.00  0.00    -0.070 Cl
ENDROOT
TORSDOF 0
ENDMDL
