MODEL 1
REMARK minimizedAffinity -2.47426152
REMARK minimizedRMSD -1
REMARK  0 active torsions:
REMARK  status: ('A' for Active; 'I' for Inactive)
ROOT
ATOM      1  C   UNL d   1      -2.560   1.617  -1.359  0.00  0.00     0.020 A 
ATOM      2  C1  UNL d   1      -2.640   0.642  -0.366  0.00  0.00     0.020 A 
ATOM      3  C2  UNL d   1      -1.474   0.062   0.138  0.00  0.00     0.034 A 
ATOM      4  C3  UNL d   1      -0.223   0.456  -0.352  0.00  0.00     0.017 A 
ATOM      5  C4  UNL d   1      -0.144   1.434  -1.349  0.00  0.00     0.017 A 
ATOM      6  C5  UNL d   1      -1.315   2.012  -1.850  0.00  0.00     0.034 A 
ATOM      7 Cl   UNL d   1       1.362   1.972  -2.003  0.00  0.00    -0.070 Cl
ATOM      8 Cl1  UNL d   1       1.177  -0.304   0.318  0.00  0.00    -0.070 Cl
ENDROOT
TORSDOF 0
ENDMDL
