MODEL 1
REMARK minimizedAffinity -3.06063485
REMARK minimizedRMSD -1
REMARK  0 active torsions:
REMARK  status: ('A' for Active; 'I' for Inactive)
ROOT
ATOM      1  C   UNL d   1      -1.870   1.828   2.051  0.00  0.00     0.020 A 
ATOM      2  C1  UNL d   1      -1.576   0.488   2.298  0.00  0.00     0.020 A 
ATOM      3  C2  UNL d   1      -0.745  -0.216   1.424  0.00  0.00     0.034 A 
ATOM      4  C3  UNL d   1      -0.205   0.419   0.300  0.00  0.00     0.017 A 
ATOM      5  C4  UNL d   1      -0.502   1.764   0.053  0.00  0.00     0.017 A 
ATOM      6  C5  UNL d   1      -1.335   2.465   0.931  0.00  0.00     0.034 A 
ATOM      7 Cl   UNL d   1       0.126   2.616  -1.314  0.00  0.00    -0.070 Cl
ATOM      8 Cl1  UNL d   1       0.815  -0.513  -0.738  0.00  0.00    -0.070 Cl
ENDROOT
TORSDOF 0
ENDMDL
