MODEL 1
REMARK minimizedAffinity -0.985381007
REMARK minimizedRMSD -1
REMARK  0 active torsions:
REMARK  status: ('A' for Active; 'I' for Inactive)
ROOT
ATOM      1  C   UNL d   1       0.585  -1.120  -0.731  0.00  0.00     0.020 A 
ATOM      2  C1  UNL d   1       0.150  -1.426   0.557  0.00  0.00     0.020 A 
ATOM      3  C2  UNL d   1      -0.333  -0.414   1.390  0.00  0.00     0.034 A 
ATOM      4  C3  UNL d   1      -0.381   0.908   0.935  0.00  0.00     0.017 A 
ATOM      5  C4  UNL d   1       0.056   1.215  -0.358  0.00  0.00     0.017 A 
ATOM      6  C5  UNL d   1       0.538   0.198  -1.188  0.00  0.00     0.034 A 
ATOM      7 Cl   UNL d   1       0.027   2.823  -0.990  0.00  0.00    -0.070 Cl
ATOM      8 Cl1  UNL d   1      -0.990   2.109   2.019  0.00  0.00    -0.070 Cl
ENDROOT
TORSDOF 0
ENDMDL
