MODEL 1
REMARK minimizedAffinity -4.45076418
REMARK minimizedRMSD -1
REMARK  0 active torsions:
REMARK  status: ('A' for Active; 'I' for Inactive)
ROOT
ATOM      1  C   UNL d   1      -2.008   2.166   1.114  0.00  0.00     0.020 A 
ATOM      2  C1  UNL d   1      -1.495   2.424  -0.156  0.00  0.00     0.020 A 
ATOM      3  C2  UNL d   1      -0.528   1.578  -0.704  0.00  0.00     0.034 A 
ATOM      4  C3  UNL d   1      -0.072   0.470   0.019  0.00  0.00     0.017 A 
ATOM      5  C4  UNL d   1      -0.588   0.211   1.294  0.00  0.00     0.017 A 
ATOM      6  C5  UNL d   1      -1.556   1.062   1.837  0.00  0.00     0.034 A 
ATOM      7 Cl   UNL d   1      -0.074  -1.137   2.245  0.00  0.00    -0.070 Cl
ATOM      8 Cl1  UNL d   1       1.124  -0.534  -0.721  0.00  0.00    -0.070 Cl
ENDROOT
TORSDOF 0
ENDMDL
