MODEL 1
REMARK minimizedAffinity -0.393694997
REMARK minimizedRMSD -1
REMARK  0 active torsions:
REMARK  status: ('A' for Active; 'I' for Inactive)
ROOT
ATOM      1  C   UNL d   1      -0.660   2.249  -1.121  0.00  0.00     0.020 A 
ATOM      2  C1  UNL d   1      -1.285   2.113   0.118  0.00  0.00     0.020 A 
ATOM      3  C2  UNL d   1      -1.019   0.997   0.915  0.00  0.00     0.034 A 
ATOM      4  C3  UNL d   1      -0.127   0.014   0.474  0.00  0.00     0.017 A 
ATOM      5  C4  UNL d   1       0.501   0.151  -0.769  0.00  0.00     0.017 A 
ATOM      6  C5  UNL d   1       0.231   1.270  -1.563  0.00  0.00     0.034 A 
ATOM      7 Cl   UNL d   1       1.614  -1.020  -1.381  0.00  0.00    -0.070 Cl
ATOM      8 Cl1  UNL d   1       0.155  -1.339   1.512  0.00  0.00    -0.070 Cl
ENDROOT
TORSDOF 0
ENDMDL
