MODEL 1
REMARK minimizedAffinity -2.18279362
REMARK minimizedRMSD -1
REMARK  0 active torsions:
REMARK  status: ('A' for Active; 'I' for Inactive)
ROOT
ATOM      1  C   UNL d   1      -0.834   1.056   2.172  0.00  0.00     0.020 A 
ATOM      2  C1  UNL d   1      -1.102  -0.313   2.165  0.00  0.00     0.020 A 
ATOM      3  C2  UNL d   1      -0.717  -1.094   1.074  0.00  0.00     0.034 A 
ATOM      4  C3  UNL d   1      -0.061  -0.508  -0.015  0.00  0.00     0.017 A 
ATOM      5  C4  UNL d   1       0.207   0.866  -0.007  0.00  0.00     0.017 A 
ATOM      6  C5  UNL d   1      -0.181   1.643   1.088  0.00  0.00     0.034 A 
ATOM      7 Cl   UNL d   1       1.011   1.660  -1.315  0.00  0.00    -0.070 Cl
ATOM      8 Cl1  UNL d   1       0.387  -1.535  -1.330  0.00  0.00    -0.070 Cl
ENDROOT
TORSDOF 0
ENDMDL
