MODEL 1
REMARK minimizedAffinity -4.46635199
REMARK minimizedRMSD -1
REMARK  0 active torsions:
REMARK  status: ('A' for Active; 'I' for Inactive)
ROOT
ATOM      1  C   UNL d   1      -1.023   2.364  -0.260  0.00  0.00     0.020 A 
ATOM      2  C1  UNL d   1      -1.579   2.323   1.018  0.00  0.00     0.020 A 
ATOM      3  C2  UNL d   1      -1.398   1.196   1.822  0.00  0.00     0.034 A 
ATOM      4  C3  UNL d   1      -0.660   0.105   1.350  0.00  0.00     0.017 A 
ATOM      5  C4  UNL d   1      -0.102   0.147   0.067  0.00  0.00     0.017 A 
ATOM      6  C5  UNL d   1      -0.286   1.278  -0.734  0.00  0.00     0.034 A 
ATOM      7 Cl   UNL d   1       0.821  -1.160  -0.586  0.00  0.00    -0.070 Cl
ATOM      8 Cl1  UNL d   1      -0.476  -1.256   2.398  0.00  0.00    -0.070 Cl
ENDROOT
TORSDOF 0
ENDMDL
