MODEL 1
REMARK minimizedAffinity -4.54987907
REMARK minimizedRMSD -1
REMARK  0 active torsions:
REMARK  status: ('A' for Active; 'I' for Inactive)
ROOT
ATOM      1  C   UNL d   1      -2.025   2.051   1.885  0.00  0.00     0.020 A 
ATOM      2  C1  UNL d   1      -1.771   0.737   2.275  0.00  0.00     0.020 A 
ATOM      3  C2  UNL d   1      -0.941  -0.074   1.498  0.00  0.00     0.034 A 
ATOM      4  C3  UNL d   1      -0.362   0.428   0.327  0.00  0.00     0.017 A 
ATOM      5  C4  UNL d   1      -0.618   1.747  -0.063  0.00  0.00     0.017 A 
ATOM      6  C5  UNL d   1      -1.450   2.555   0.718  0.00  0.00     0.034 A 
ATOM      7 Cl   UNL d   1       0.060   2.438  -1.495  0.00  0.00    -0.070 Cl
ATOM      8 Cl1  UNL d   1       0.654  -0.631  -0.584  0.00  0.00    -0.070 Cl
ENDROOT
TORSDOF 0
ENDMDL
