MODEL 1
REMARK minimizedAffinity -2.8309381
REMARK minimizedRMSD -1
REMARK  0 active torsions:
REMARK  status: ('A' for Active; 'I' for Inactive)
ROOT
ATOM      1  C   UNL d   1       0.214   1.273  -1.506  0.00  0.00     0.020 A 
ATOM      2  C1  UNL d   1       0.659  -0.009  -1.186  0.00  0.00     0.020 A 
ATOM      3  C2  UNL d   1       0.242  -0.616   0.001  0.00  0.00     0.034 A 
ATOM      4  C3  UNL d   1      -0.621   0.059   0.872  0.00  0.00     0.017 A 
ATOM      5  C4  UNL d   1      -1.066   1.346   0.550  0.00  0.00     0.017 A 
ATOM      6  C5  UNL d   1      -0.646   1.949  -0.640  0.00  0.00     0.034 A 
ATOM      7 Cl   UNL d   1      -2.132   2.242   1.574  0.00  0.00    -0.070 Cl
ATOM      8 Cl1  UNL d   1      -1.095  -0.752   2.322  0.00  0.00    -0.070 Cl
ENDROOT
TORSDOF 0
ENDMDL
