MODEL 1
REMARK minimizedAffinity -4.2066412
REMARK minimizedRMSD -1
REMARK  0 active torsions:
REMARK  status: ('A' for Active; 'I' for Inactive)
ROOT
ATOM      1  C   UNL d   1      -1.387   0.421   1.630  0.00  0.00     0.020 A 
ATOM      2  C1  UNL d   1      -0.440  -0.598   1.539  0.00  0.00     0.020 A 
ATOM      3  C2  UNL d   1       0.549  -0.547   0.555  0.00  0.00     0.034 A 
ATOM      4  C3  UNL d   1       0.594   0.526  -0.343  0.00  0.00     0.017 A 
ATOM      5  C4  UNL d   1      -0.357   1.549  -0.251  0.00  0.00     0.017 A 
ATOM      6  C5  UNL d   1      -1.346   1.492   0.737  0.00  0.00     0.034 A 
ATOM      7 Cl   UNL d   1      -0.367   2.905  -1.323  0.00  0.00    -0.070 Cl
ATOM      8 Cl1  UNL d   1       1.845   0.525  -1.534  0.00  0.00    -0.070 Cl
ENDROOT
TORSDOF 0
ENDMDL
