MODEL 1
REMARK minimizedAffinity -1.8193208
REMARK minimizedRMSD -1
REMARK  0 active torsions:
REMARK  status: ('A' for Active; 'I' for Inactive)
ROOT
ATOM      1  C   UNL d   1       0.773   1.445  -1.749  0.00  0.00     0.020 A 
ATOM      2  C1  UNL d   1       1.373   0.307  -1.211  0.00  0.00     0.020 A 
ATOM      3  C2  UNL d   1       0.870  -0.259  -0.038  0.00  0.00     0.034 A 
ATOM      4  C3  UNL d   1      -0.236   0.313   0.601  0.00  0.00     0.017 A 
ATOM      5  C4  UNL d   1      -0.837   1.456   0.060  0.00  0.00     0.017 A 
ATOM      6  C5  UNL d   1      -0.329   2.018  -1.115  0.00  0.00     0.034 A 
ATOM      7 Cl   UNL d   1      -2.205   2.219   0.792  0.00  0.00    -0.070 Cl
ATOM      8 Cl1  UNL d   1      -0.806  -0.439   2.049  0.00  0.00    -0.070 Cl
ENDROOT
TORSDOF 0
ENDMDL
