MODEL 1
REMARK minimizedAffinity -1.517102
REMARK minimizedRMSD -1
REMARK  0 active torsions:
REMARK  status: ('A' for Active; 'I' for Inactive)
ROOT
ATOM      1  C   UNL d   1      -1.880   1.491   0.074  0.00  0.00     0.020 A 
ATOM      2  C1  UNL d   1      -1.928   1.618   1.462  0.00  0.00     0.020 A 
ATOM      3  C2  UNL d   1      -1.057   0.875   2.261  0.00  0.00     0.034 A 
ATOM      4  C3  UNL d   1      -0.134   0.002   1.674  0.00  0.00     0.017 A 
ATOM      5  C4  UNL d   1      -0.087  -0.125   0.280  0.00  0.00     0.017 A 
ATOM      6  C5  UNL d   1      -0.962   0.622  -0.515  0.00  0.00     0.034 A 
ATOM      7 Cl   UNL d   1       1.024  -1.181  -0.517  0.00  0.00    -0.070 Cl
ATOM      8 Cl1  UNL d   1       0.914  -0.885   2.723  0.00  0.00    -0.070 Cl
ENDROOT
TORSDOF 0
ENDMDL
