MODEL 1
REMARK minimizedAffinity -2.94274235
REMARK minimizedRMSD -1
REMARK  0 active torsions:
REMARK  status: ('A' for Active; 'I' for Inactive)
ROOT
ATOM      1  C   UNL d   1       0.326  -0.480   0.431  0.00  0.00     0.020 A 
ATOM      2  C1  UNL d   1       1.148   0.146  -0.505  0.00  0.00     0.020 A 
ATOM      3  C2  UNL d   1       0.695   1.276  -1.188  0.00  0.00     0.034 A 
ATOM      4  C3  UNL d   1      -0.585   1.784  -0.936  0.00  0.00     0.017 A 
ATOM      5  C4  UNL d   1      -1.410   1.155   0.003  0.00  0.00     0.017 A 
ATOM      6  C5  UNL d   1      -0.951   0.023   0.684  0.00  0.00     0.034 A 
ATOM      7 Cl   UNL d   1      -3.002   1.723   0.366  0.00  0.00    -0.070 Cl
ATOM      8 Cl1  UNL d   1      -1.081   3.186  -1.817  0.00  0.00    -0.070 Cl
ENDROOT
TORSDOF 0
ENDMDL
