MODEL 1
REMARK minimizedAffinity -3.20945811
REMARK minimizedRMSD -1
REMARK  0 active torsions:
REMARK  status: ('A' for Active; 'I' for Inactive)
ROOT
ATOM      1  C   UNL d   1      -1.972   1.896   1.482  0.00  0.00     0.020 A 
ATOM      2  C1  UNL d   1      -1.789   1.944   0.100  0.00  0.00     0.020 A 
ATOM      3  C2  UNL d   1      -0.873   1.086  -0.513  0.00  0.00     0.034 A 
ATOM      4  C3  UNL d   1      -0.138   0.176   0.255  0.00  0.00     0.017 A 
ATOM      5  C4  UNL d   1      -0.323   0.128   1.642  0.00  0.00     0.017 A 
ATOM      6  C5  UNL d   1      -1.241   0.990   2.251  0.00  0.00     0.034 A 
ATOM      7 Cl   UNL d   1       0.548  -0.968   2.656  0.00  0.00    -0.070 Cl
ATOM      8 Cl1  UNL d   1       0.976  -0.855  -0.569  0.00  0.00    -0.070 Cl
ENDROOT
TORSDOF 0
ENDMDL
