MODEL 1
REMARK minimizedAffinity -3.72001028
REMARK minimizedRMSD -1
REMARK  0 active torsions:
REMARK  status: ('A' for Active; 'I' for Inactive)
ROOT
ATOM      1  C   UNL d   1      -1.833   1.424   1.897  0.00  0.00     0.020 A 
ATOM      2  C1  UNL d   1      -1.728   0.057   2.148  0.00  0.00     0.020 A 
ATOM      3  C2  UNL d   1      -0.945  -0.748   1.318  0.00  0.00     0.034 A 
ATOM      4  C3  UNL d   1      -0.263  -0.185   0.232  0.00  0.00     0.017 A 
ATOM      5  C4  UNL d   1      -0.370   1.188  -0.019  0.00  0.00     0.017 A 
ATOM      6  C5  UNL d   1      -1.155   1.988   0.816  0.00  0.00     0.034 A 
ATOM      7 Cl   UNL d   1       0.442   1.954  -1.339  0.00  0.00    -0.070 Cl
ATOM      8 Cl1  UNL d   1       0.688  -1.239  -0.753  0.00  0.00    -0.070 Cl
ENDROOT
TORSDOF 0
ENDMDL
