MODEL 1
REMARK minimizedAffinity -5.26058483
REMARK minimizedRMSD -1
REMARK  0 active torsions:
REMARK  status: ('A' for Active; 'I' for Inactive)
ROOT
ATOM      1  C   UNL d   1      -1.668   2.212   0.148  0.00  0.00     0.020 A 
ATOM      2  C1  UNL d   1      -2.131   1.997   1.446  0.00  0.00     0.020 A 
ATOM      3  C2  UNL d   1      -1.677   0.897   2.176  0.00  0.00     0.034 A 
ATOM      4  C3  UNL d   1      -0.757   0.007   1.610  0.00  0.00     0.017 A 
ATOM      5  C4  UNL d   1      -0.292   0.224   0.307  0.00  0.00     0.017 A 
ATOM      6  C5  UNL d   1      -0.750   1.327  -0.419  0.00  0.00     0.034 A 
ATOM      7 Cl   UNL d   1       0.844  -0.830  -0.459  0.00  0.00    -0.070 Cl
ATOM      8 Cl1  UNL d   1      -0.238  -1.332   2.571  0.00  0.00    -0.070 Cl
ENDROOT
TORSDOF 0
ENDMDL
