MODEL 1
REMARK minimizedAffinity -3.93892407
REMARK minimizedRMSD -1
REMARK  0 active torsions:
REMARK  status: ('A' for Active; 'I' for Inactive)
ROOT
ATOM      1  C   UNL d   1       0.791  -1.024  -0.030  0.00  0.00     0.020 A 
ATOM      2  C1  UNL d   1       0.187  -1.065   1.226  0.00  0.00     0.020 A 
ATOM      3  C2  UNL d   1      -0.554   0.028   1.681  0.00  0.00     0.034 A 
ATOM      4  C3  UNL d   1      -0.694   1.166   0.879  0.00  0.00     0.017 A 
ATOM      5  C4  UNL d   1      -0.087   1.207  -0.381  0.00  0.00     0.017 A 
ATOM      6  C5  UNL d   1       0.654   0.110  -0.832  0.00  0.00     0.034 A 
ATOM      7 Cl   UNL d   1      -0.214   2.577  -1.427  0.00  0.00    -0.070 Cl
ATOM      8 Cl1  UNL d   1      -1.625   2.481   1.505  0.00  0.00    -0.070 Cl
ENDROOT
TORSDOF 0
ENDMDL
