MODEL 1
REMARK minimizedAffinity -4.32104588
REMARK minimizedRMSD -1
REMARK  0 active torsions:
REMARK  status: ('A' for Active; 'I' for Inactive)
ROOT
ATOM      1  C   UNL d   1       0.017  -0.762  -1.341  0.00  0.00     0.077 C 
ATOM      2  C1  UNL d   1      -0.195  -0.273   0.061  0.00  0.00    -0.074 A 
ATOM      3  C2  UNL d   1      -1.389   0.353   0.431  0.00  0.00    -0.005 A 
ATOM      4  C3  UNL d   1      -1.576   0.795   1.741  0.00  0.00     0.006 A 
ATOM      5  C4  UNL d   1      -0.571   0.615   2.692  0.00  0.00    -0.005 A 
ATOM      6  C5  UNL d   1       0.630  -0.009   2.341  0.00  0.00    -0.074 A 
ATOM      7  C6  UNL d   1       1.716  -0.219   3.354  0.00  0.00     0.077 C 
ATOM      8  C7  UNL d   1       0.807  -0.456   1.025  0.00  0.00    -0.001 A 
ENDROOT
TORSDOF 0
ENDMDL
