MODEL 1
REMARK minimizedAffinity -2.30006576
REMARK minimizedRMSD -1
REMARK  0 active torsions:
REMARK  status: ('A' for Active; 'I' for Inactive)
ROOT
ATOM      1  C   UNL d   1      -0.316  -0.001   0.039  0.00  0.00     0.077 C 
ATOM      2  C1  UNL d   1      -0.555   0.271   1.495  0.00  0.00    -0.074 A 
ATOM      3  C2  UNL d   1      -0.288   1.530   2.044  0.00  0.00    -0.005 A 
ATOM      4  C3  UNL d   1      -0.524   1.771   3.397  0.00  0.00     0.006 A 
ATOM      5  C4  UNL d   1      -1.028   0.758   4.214  0.00  0.00    -0.005 A 
ATOM      6  C5  UNL d   1      -1.302  -0.506   3.683  0.00  0.00    -0.074 A 
ATOM      7  C6  UNL d   1      -1.853  -1.603   4.544  0.00  0.00     0.077 C 
ATOM      8  C7  UNL d   1      -1.069  -0.739   2.320  0.00  0.00    -0.001 A 
ENDROOT
TORSDOF 0
ENDMDL
