MODEL 1
REMARK minimizedAffinity -3.77178979
REMARK minimizedRMSD -1
REMARK  0 active torsions:
REMARK  status: ('A' for Active; 'I' for Inactive)
ROOT
ATOM      1  C   UNL d   1       1.899   0.854   3.201  0.00  0.00     0.077 C 
ATOM      2  C1  UNL d   1       0.766   0.521   2.277  0.00  0.00    -0.074 A 
ATOM      3  C2  UNL d   1      -0.563   0.688   2.679  0.00  0.00    -0.005 A 
ATOM      4  C3  UNL d   1      -1.606   0.383   1.806  0.00  0.00     0.006 A 
ATOM      5  C4  UNL d   1      -1.332  -0.093   0.523  0.00  0.00    -0.005 A 
ATOM      6  C5  UNL d   1      -0.010  -0.267   0.103  0.00  0.00    -0.074 A 
ATOM      7  C6  UNL d   1       0.303  -0.768  -1.276  0.00  0.00     0.077 C 
ATOM      8  C7  UNL d   1       1.033   0.049   0.984  0.00  0.00    -0.001 A 
ENDROOT
TORSDOF 0
ENDMDL
