MODEL 1
REMARK minimizedAffinity -1.99879634
REMARK minimizedRMSD -1
REMARK  0 active torsions:
REMARK  status: ('A' for Active; 'I' for Inactive)
ROOT
ATOM      1  C   UNL d   1      -0.021  -1.806  -0.446  0.00  0.00     0.077 C 
ATOM      2  C1  UNL d   1       0.211  -0.450   0.151  0.00  0.00    -0.074 A 
ATOM      3  C2  UNL d   1       1.005   0.498  -0.503  0.00  0.00    -0.005 A 
ATOM      4  C3  UNL d   1       1.204   1.758   0.060  0.00  0.00     0.006 A 
ATOM      5  C4  UNL d   1       0.612   2.084   1.281  0.00  0.00    -0.005 A 
ATOM      6  C5  UNL d   1      -0.186   1.150   1.949  0.00  0.00    -0.074 A 
ATOM      7  C6  UNL d   1      -0.838   1.487   3.258  0.00  0.00     0.077 C 
ATOM      8  C7  UNL d   1      -0.387  -0.112   1.374  0.00  0.00    -0.001 A 
ENDROOT
TORSDOF 0
ENDMDL
