MODEL 1
REMARK minimizedAffinity -4.07071877
REMARK minimizedRMSD -1
REMARK  0 active torsions:
REMARK  status: ('A' for Active; 'I' for Inactive)
ROOT
ATOM      1  C   UNL d   1      -1.363  -0.178  -5.092  0.00  0.00     0.077 C 
ATOM      2  C1  UNL d   1      -0.115  -0.058  -4.270  0.00  0.00    -0.074 A 
ATOM      3  C2  UNL d   1       0.948   0.747  -4.691  0.00  0.00    -0.005 A 
ATOM      4  C3  UNL d   1       2.100   0.857  -3.911  0.00  0.00     0.006 A 
ATOM      5  C4  UNL d   1       2.199   0.163  -2.704  0.00  0.00    -0.005 A 
ATOM      6  C5  UNL d   1       1.146  -0.646  -2.267  0.00  0.00    -0.074 A 
ATOM      7  C6  UNL d   1       1.233  -1.390  -0.967  0.00  0.00     0.077 C 
ATOM      8  C7  UNL d   1      -0.010  -0.745  -3.052  0.00  0.00    -0.001 A 
ENDROOT
TORSDOF 0
ENDMDL
