MODEL 1
REMARK minimizedAffinity -4.4249444
REMARK minimizedRMSD -1
REMARK  0 active torsions:
REMARK  status: ('A' for Active; 'I' for Inactive)
ROOT
ATOM      1  C   UNL d   1      -1.499   0.028  -5.454  0.00  0.00     0.077 C 
ATOM      2  C1  UNL d   1      -0.391   0.229  -4.463  0.00  0.00    -0.074 A 
ATOM      3  C2  UNL d   1       0.753   0.957  -4.802  0.00  0.00    -0.005 A 
ATOM      4  C3  UNL d   1       1.771   1.144  -3.866  0.00  0.00     0.006 A 
ATOM      5  C4  UNL d   1       1.654   0.606  -2.584  0.00  0.00    -0.005 A 
ATOM      6  C5  UNL d   1       0.516  -0.124  -2.227  0.00  0.00    -0.074 A 
ATOM      7  C6  UNL d   1       0.370  -0.701  -0.850  0.00  0.00     0.077 C 
ATOM      8  C7  UNL d   1      -0.505  -0.302  -3.170  0.00  0.00    -0.001 A 
ENDROOT
TORSDOF 0
ENDMDL
