MODEL 1
REMARK minimizedAffinity -2.80532885
REMARK minimizedRMSD -1
REMARK  0 active torsions:
REMARK  status: ('A' for Active; 'I' for Inactive)
ROOT
ATOM      1  C   UNL d   1      -1.033   1.195   2.722  0.00  0.00     0.077 C 
ATOM      2  C1  UNL d   1      -0.147   0.378   1.830  0.00  0.00    -0.074 A 
ATOM      3  C2  UNL d   1       0.992  -0.259   2.336  0.00  0.00    -0.005 A 
ATOM      4  C3  UNL d   1       1.801  -1.023   1.496  0.00  0.00     0.006 A 
ATOM      5  C4  UNL d   1       1.481  -1.159   0.144  0.00  0.00    -0.005 A 
ATOM      6  C5  UNL d   1       0.347  -0.531  -0.379  0.00  0.00    -0.074 A 
ATOM      7  C6  UNL d   1      -0.017  -0.675  -1.827  0.00  0.00     0.077 C 
ATOM      8  C7  UNL d   1      -0.466   0.230   0.473  0.00  0.00    -0.001 A 
ENDROOT
TORSDOF 0
ENDMDL
