MODEL 1
REMARK minimizedAffinity -5.16984653
REMARK minimizedRMSD -1
REMARK  0 active torsions:
REMARK  status: ('A' for Active; 'I' for Inactive)
ROOT
ATOM      1  C   UNL d   1       0.666  -1.140  -0.704  0.00  0.00     0.077 C 
ATOM      2  C1  UNL d   1       0.693  -0.374  -1.993  0.00  0.00    -0.074 A 
ATOM      3  C2  UNL d   1       1.764   0.470  -2.305  0.00  0.00    -0.005 A 
ATOM      4  C3  UNL d   1       1.780   1.169  -3.512  0.00  0.00     0.006 A 
ATOM      5  C4  UNL d   1       0.728   1.030  -4.418  0.00  0.00    -0.005 A 
ATOM      6  C5  UNL d   1      -0.351   0.190  -4.124  0.00  0.00    -0.074 A 
ATOM      7  C6  UNL d   1      -1.485   0.023  -5.091  0.00  0.00     0.077 C 
ATOM      8  C7  UNL d   1      -0.356  -0.514  -2.912  0.00  0.00    -0.001 A 
ENDROOT
TORSDOF 0
ENDMDL
