MODEL 1
REMARK minimizedAffinity -0.0997962728
REMARK minimizedRMSD -1
REMARK  0 active torsions:
REMARK  status: ('A' for Active; 'I' for Inactive)
ROOT
ATOM      1  C1  BNZ d   1       4.277  -5.307  -3.489  0.00  0.00     0.000 A 
ATOM      2  C2  BNZ d   1       5.576  -5.674  -3.719  0.00  0.00     0.000 A 
ATOM      3  C3  BNZ d   1       5.999  -6.000  -4.978  0.00  0.00     0.000 A 
ATOM      4  C4  BNZ d   1       5.115  -5.998  -5.996  0.00  0.00     0.000 A 
ATOM      5  C5  BNZ d   1       3.799  -5.639  -5.778  0.00  0.00     0.000 A 
ATOM      6  C6  BNZ d   1       3.386  -5.274  -4.518  0.00  0.00     0.000 A 
ENDROOT
TORSDOF 0
ENDMDL
