MODEL 1
REMARK minimizedAffinity -0.325490743
REMARK minimizedRMSD -1
REMARK  0 active torsions:
REMARK  status: ('A' for Active; 'I' for Inactive)
ROOT
ATOM      1  C1  BNZ d   1       3.301  -5.028  -6.000  0.00  0.00     0.000 A 
ATOM      2  C2  BNZ d   1       2.613  -4.889  -4.823  0.00  0.00     0.000 A 
ATOM      3  C3  BNZ d   1       3.172  -5.272  -3.637  0.00  0.00     0.000 A 
ATOM      4  C4  BNZ d   1       4.400  -5.831  -3.632  0.00  0.00     0.000 A 
ATOM      5  C5  BNZ d   1       5.102  -5.986  -4.810  0.00  0.00     0.000 A 
ATOM      6  C6  BNZ d   1       4.552  -5.563  -5.999  0.00  0.00     0.000 A 
ENDROOT
TORSDOF 0
ENDMDL
