MODEL 1
REMARK minimizedAffinity -2.31095314
REMARK minimizedRMSD -1
REMARK  0 active torsions:
REMARK  status: ('A' for Active; 'I' for Inactive)
ROOT
ATOM      1  C1  BNZ d   1       2.735  -5.673  -4.173  0.00  0.00     0.000 A 
ATOM      2  C2  BNZ d   1       2.997  -5.999  -5.477  0.00  0.00     0.000 A 
ATOM      3  C3  BNZ d   1       4.278  -6.000  -5.955  0.00  0.00     0.000 A 
ATOM      4  C4  BNZ d   1       5.290  -5.637  -5.140  0.00  0.00     0.000 A 
ATOM      5  C5  BNZ d   1       5.041  -5.296  -3.825  0.00  0.00     0.000 A 
ATOM      6  C6  BNZ d   1       3.755  -5.334  -3.337  0.00  0.00     0.000 A 
ENDROOT
TORSDOF 0
ENDMDL
