MODEL 1
REMARK minimizedAffinity -2.71603584
REMARK minimizedRMSD -1
REMARK  0 active torsions:
REMARK  status: ('A' for Active; 'I' for Inactive)
ROOT
ATOM      1  C1  BNZ d   1       5.562  -5.703  -5.059  0.00  0.00     0.000 A 
ATOM      2  C2  BNZ d   1       4.562  -5.723  -5.994  0.00  0.00     0.000 A 
ATOM      3  C3  BNZ d   1       3.258  -5.540  -5.626  0.00  0.00     0.000 A 
ATOM      4  C4  BNZ d   1       2.952  -5.379  -4.323  0.00  0.00     0.000 A 
ATOM      5  C5  BNZ d   1       3.949  -5.367  -3.368  0.00  0.00     0.000 A 
ATOM      6  C6  BNZ d   1       5.264  -5.512  -3.745  0.00  0.00     0.000 A 
ENDROOT
TORSDOF 0
ENDMDL
