MODEL 1
REMARK minimizedAffinity -3.37036657
REMARK minimizedRMSD -1
REMARK  0 active torsions:
REMARK  status: ('A' for Active; 'I' for Inactive)
ROOT
ATOM      1  C1  BNZ d   1       2.895  -5.272  -4.799  0.00  0.00     0.000 A 
ATOM      2  C2  BNZ d   1       3.599  -5.249  -3.625  0.00  0.00     0.000 A 
ATOM      3  C3  BNZ d   1       4.965  -5.193  -3.630  0.00  0.00     0.000 A 
ATOM      4  C4  BNZ d   1       5.625  -5.200  -4.806  0.00  0.00     0.000 A 
ATOM      5  C5  BNZ d   1       4.929  -5.232  -5.998  0.00  0.00     0.000 A 
ATOM      6  C6  BNZ d   1       3.553  -5.250  -5.990  0.00  0.00     0.000 A 
ENDROOT
TORSDOF 0
ENDMDL
