MODEL 1
REMARK minimizedAffinity -0.221959591
REMARK minimizedRMSD -1
REMARK  0 active torsions:
REMARK  status: ('A' for Active; 'I' for Inactive)
ROOT
ATOM      1  C1  BNZ d   1      -3.740   3.554  -6.000  0.00  0.00     0.000 A 
ATOM      2  C2  BNZ d   1      -5.035   3.998  -6.000  0.00  0.00     0.000 A 
ATOM      3  C3  BNZ d   1      -5.983   3.390  -5.225  0.00  0.00     0.000 A 
ATOM      4  C4  BNZ d   1      -5.644   2.316  -4.483  0.00  0.00     0.000 A 
ATOM      5  C5  BNZ d   1      -4.344   1.851  -4.479  0.00  0.00     0.000 A 
ATOM      6  C6  BNZ d   1      -3.384   2.490  -5.230  0.00  0.00     0.000 A 
ENDROOT
TORSDOF 0
ENDMDL
