MODEL 1
REMARK minimizedAffinity -3.62530947
REMARK minimizedRMSD -1
REMARK  0 active torsions:
REMARK  status: ('A' for Active; 'I' for Inactive)
ROOT
ATOM      1  C1  BNZ d   1       3.051  -6.000  -5.533  0.00  0.00     0.000 A 
ATOM      2  C2  BNZ d   1       2.801  -5.952  -4.187  0.00  0.00     0.000 A 
ATOM      3  C3  BNZ d   1       3.809  -5.707  -3.296  0.00  0.00     0.000 A 
ATOM      4  C4  BNZ d   1       5.070  -5.551  -3.749  0.00  0.00     0.000 A 
ATOM      5  C5  BNZ d   1       5.339  -5.606  -5.102  0.00  0.00     0.000 A 
ATOM      6  C6  BNZ d   1       4.316  -5.814  -5.998  0.00  0.00     0.000 A 
ENDROOT
TORSDOF 0
ENDMDL
