MODEL 1
REMARK minimizedAffinity -0.612848699
REMARK minimizedRMSD -1
REMARK  0 active torsions:
REMARK  status: ('A' for Active; 'I' for Inactive)
ROOT
ATOM      1  C1  BNZ d   1       4.125  -4.501  -5.437  0.00  0.00     0.000 A 
ATOM      2  C2  BNZ d   1       5.057  -4.505  -4.433  0.00  0.00     0.000 A 
ATOM      3  C3  BNZ d   1       4.878  -5.271  -3.315  0.00  0.00     0.000 A 
ATOM      4  C4  BNZ d   1       3.751  -6.000  -3.184  0.00  0.00     0.000 A 
ATOM      5  C5  BNZ d   1       2.798  -5.999  -4.182  0.00  0.00     0.000 A 
ATOM      6  C6  BNZ d   1       2.999  -5.257  -5.324  0.00  0.00     0.000 A 
ENDROOT
TORSDOF 0
ENDMDL
