MODEL 1
REMARK minimizedAffinity -2.86120534
REMARK minimizedRMSD -1
REMARK  0 active torsions:
REMARK  status: ('A' for Active; 'I' for Inactive)
ROOT
ATOM      1  C1  BNZ d   1       2.876  -5.794  -5.541  0.00  0.00     0.000 A 
ATOM      2  C2  BNZ d   1       2.705  -5.991  -4.196  0.00  0.00     0.000 A 
ATOM      3  C3  BNZ d   1       3.597  -5.479  -3.295  0.00  0.00     0.000 A 
ATOM      4  C4  BNZ d   1       4.677  -4.806  -3.740  0.00  0.00     0.000 A 
ATOM      5  C5  BNZ d   1       4.868  -4.607  -5.093  0.00  0.00     0.000 A 
ATOM      6  C6  BNZ d   1       3.949  -5.090  -5.995  0.00  0.00     0.000 A 
ENDROOT
TORSDOF 0
ENDMDL
