MODEL 1
REMARK minimizedAffinity -3.63529611
REMARK minimizedRMSD -1
REMARK  0 active torsions:
REMARK  status: ('A' for Active; 'I' for Inactive)
ROOT
ATOM      1  C1  BNZ d   1       2.599  -6.000  -4.803  0.00  0.00     0.000 A 
ATOM      2  C2  BNZ d   1       3.055  -5.956  -3.513  0.00  0.00     0.000 A 
ATOM      3  C3  BNZ d   1       4.304  -5.479  -3.227  0.00  0.00     0.000 A 
ATOM      4  C4  BNZ d   1       5.109  -5.085  -4.234  0.00  0.00     0.000 A 
ATOM      5  C5  BNZ d   1       4.668  -5.132  -5.542  0.00  0.00     0.000 A 
ATOM      6  C6  BNZ d   1       3.396  -5.576  -5.822  0.00  0.00     0.000 A 
ENDROOT
TORSDOF 0
ENDMDL
