MODEL 1
REMARK minimizedAffinity -2.06972241
REMARK minimizedRMSD -1
REMARK  0 active torsions:
REMARK  status: ('A' for Active; 'I' for Inactive)
ROOT
ATOM      1  C1  BNZ d   1       2.948  -5.990  -4.778  0.00  0.00     0.000 A 
ATOM      2  C2  BNZ d   1       3.598  -5.607  -3.634  0.00  0.00     0.000 A 
ATOM      3  C3  BNZ d   1       4.909  -5.221  -3.669  0.00  0.00     0.000 A 
ATOM      4  C4  BNZ d   1       5.579  -5.257  -4.839  0.00  0.00     0.000 A 
ATOM      5  C5  BNZ d   1       4.941  -5.649  -5.999  0.00  0.00     0.000 A 
ATOM      6  C6  BNZ d   1       3.611  -6.000  -5.966  0.00  0.00     0.000 A 
ENDROOT
TORSDOF 0
ENDMDL
