MODEL 1
REMARK minimizedAffinity -1.14551497
REMARK minimizedRMSD -1
REMARK  0 active torsions:
REMARK  status: ('A' for Active; 'I' for Inactive)
ROOT
ATOM      1  C1  BNZ d   1      -4.205   1.785  -5.949  0.00  0.00     0.000 A 
ATOM      2  C2  BNZ d   1      -2.978   2.393  -5.995  0.00  0.00     0.000 A 
ATOM      3  C3  BNZ d   1      -2.872   3.756  -6.000  0.00  0.00     0.000 A 
ATOM      4  C4  BNZ d   1      -3.991   4.508  -5.999  0.00  0.00     0.000 A 
ATOM      5  C5  BNZ d   1      -5.235   3.910  -5.962  0.00  0.00     0.000 A 
ATOM      6  C6  BNZ d   1      -5.338   2.539  -5.918  0.00  0.00     0.000 A 
ENDROOT
TORSDOF 0
ENDMDL
