MODEL 1
REMARK minimizedAffinity -2.14628267
REMARK minimizedRMSD -1
REMARK  0 active torsions:
REMARK  status: ('A' for Active; 'I' for Inactive)
ROOT
ATOM      1  C1  BNZ d   1      -0.353   3.018   2.080  0.00  0.00     0.000 A 
ATOM      2  C2  BNZ d   1       1.006   3.003   2.254  0.00  0.00     0.000 A 
ATOM      3  C3  BNZ d   1       1.798   2.182   1.502  0.00  0.00     0.000 A 
ATOM      4  C4  BNZ d   1       1.230   1.348   0.607  0.00  0.00     0.000 A 
ATOM      5  C5  BNZ d   1      -0.139   1.345   0.427  0.00  0.00     0.000 A 
ATOM      6  C6  BNZ d   1      -0.931   2.201   1.158  0.00  0.00     0.000 A 
ENDROOT
TORSDOF 0
ENDMDL
