MODEL 1
REMARK minimizedAffinity -2.91610789
REMARK minimizedRMSD -1
REMARK  0 active torsions:
REMARK  status: ('A' for Active; 'I' for Inactive)
ROOT
ATOM      1  C1  BNZ d   1       2.656  -5.439  -3.550  0.00  0.00     0.000 A 
ATOM      2  C2  BNZ d   1       2.715  -5.728  -4.888  0.00  0.00     0.000 A 
ATOM      3  C3  BNZ d   1       3.912  -5.991  -5.495  0.00  0.00     0.000 A 
ATOM      4  C4  BNZ d   1       5.050  -5.925  -4.774  0.00  0.00     0.000 A 
ATOM      5  C5  BNZ d   1       5.007  -5.626  -3.427  0.00  0.00     0.000 A 
ATOM      6  C6  BNZ d   1       3.798  -5.400  -2.811  0.00  0.00     0.000 A 
ENDROOT
TORSDOF 0
ENDMDL
