MODEL 1
REMARK minimizedAffinity -3.74776602
REMARK minimizedRMSD -1
REMARK  0 active torsions:
REMARK  status: ('A' for Active; 'I' for Inactive)
ROOT
ATOM      1  C1  BNZ d   1       5.417  -5.273  -3.623  0.00  0.00     0.000 A 
ATOM      2  C2  BNZ d   1       5.104  -5.628  -4.908  0.00  0.00     0.000 A 
ATOM      3  C3  BNZ d   1       3.819  -5.937  -5.256  0.00  0.00     0.000 A 
ATOM      4  C4  BNZ d   1       2.856  -5.930  -4.311  0.00  0.00     0.000 A 
ATOM      5  C5  BNZ d   1       3.158  -5.583  -3.009  0.00  0.00     0.000 A 
ATOM      6  C6  BNZ d   1       4.445  -5.235  -2.671  0.00  0.00     0.000 A 
ENDROOT
TORSDOF 0
ENDMDL
