MODEL 1
REMARK minimizedAffinity -3.3373313
REMARK minimizedRMSD -1
REMARK  0 active torsions:
REMARK  status: ('A' for Active; 'I' for Inactive)
ROOT
ATOM      1  C1  BNZ d   1       0.823   1.910  -3.773  0.00  0.00     0.000 A 
ATOM      2  C2  BNZ d   1      -0.546   1.961  -3.784  0.00  0.00     0.000 A 
ATOM      3  C3  BNZ d   1      -1.222   2.354  -4.905  0.00  0.00     0.000 A 
ATOM      4  C4  BNZ d   1      -0.530   2.732  -5.999  0.00  0.00     0.000 A 
ATOM      5  C5  BNZ d   1       0.850   2.695  -6.000  0.00  0.00     0.000 A 
ATOM      6  C6  BNZ d   1       1.527   2.262  -4.883  0.00  0.00     0.000 A 
ENDROOT
TORSDOF 0
ENDMDL
