MODEL 1
REMARK minimizedAffinity -0.539331138
REMARK minimizedRMSD -1
REMARK  0 active torsions:
REMARK  status: ('A' for Active; 'I' for Inactive)
ROOT
ATOM      1  C1  BNZ d   1       1.511   1.149   0.013  0.00  0.00     0.000 A 
ATOM      2  C2  BNZ d   1       0.658   1.903   0.774  0.00  0.00     0.000 A 
ATOM      3  C3  BNZ d   1       1.140   2.801   1.685  0.00  0.00     0.000 A 
ATOM      4  C4  BNZ d   1       2.472   2.916   1.861  0.00  0.00     0.000 A 
ATOM      5  C5  BNZ d   1       3.345   2.157   1.108  0.00  0.00     0.000 A 
ATOM      6  C6  BNZ d   1       2.857   1.281   0.165  0.00  0.00     0.000 A 
ENDROOT
TORSDOF 0
ENDMDL
