MODEL 1
REMARK minimizedAffinity 19.1429615
REMARK minimizedRMSD -1
REMARK  0 active torsions:
REMARK  status: ('A' for Active; 'I' for Inactive)
ROOT
ATOM      1  N1  IND d   1       4.360   2.462   2.793  0.00  0.00    -0.196 N 
ATOM      2  C2  IND d   1       4.670   1.674   3.866  0.00  0.00     0.054 A 
ATOM      3  C3  IND d   1       5.357   2.384   4.789  0.00  0.00    -0.031 A 
ATOM      4  C4  IND d   1       5.993   4.878   4.792  0.00  0.00     0.051 A 
ATOM      5  C5  IND d   1       5.959   6.000   4.011  0.00  0.00    -0.031 A 
ATOM      6  C6  IND d   1       5.376   6.000   2.761  0.00  0.00     0.015 A 
ATOM      7  C7  IND d   1       4.793   4.876   2.246  0.00  0.00    -0.016 A 
ATOM      8  C8  IND d   1       4.832   3.734   3.033  0.00  0.00    -0.047 A 
ATOM      9  C9  IND d   1       5.459   3.717   4.286  0.00  0.00    -0.096 A 
ATOM     10  HN1 IND d   1       3.942   2.207   2.087  0.00  0.00     0.298 HD
ENDROOT
TORSDOF 0
ENDMDL
