MODEL 1
REMARK minimizedAffinity 16.6452484
REMARK minimizedRMSD -1
REMARK  0 active torsions:
REMARK  status: ('A' for Active; 'I' for Inactive)
ROOT
ATOM      1  N1  IND d   1       1.272  -5.366  -6.000  0.00  0.00    -0.196 N 
ATOM      2  C2  IND d   1       2.550  -5.729  -5.679  0.00  0.00     0.054 A 
ATOM      3  C3  IND d   1       3.265  -4.646  -5.299  0.00  0.00    -0.031 A 
ATOM      4  C4  IND d   1       2.511  -2.200  -5.031  0.00  0.00     0.051 A 
ATOM      5  C5  IND d   1       1.443  -1.373  -5.240  0.00  0.00    -0.031 A 
ATOM      6  C6  IND d   1       0.238  -1.845  -5.720  0.00  0.00     0.015 A 
ATOM      7  C7  IND d   1       0.052  -3.169  -6.000  0.00  0.00    -0.016 A 
ATOM      8  C8  IND d   1       1.137  -4.010  -5.795  0.00  0.00    -0.047 A 
ATOM      9  C9  IND d   1       2.375  -3.531  -5.349  0.00  0.00    -0.096 A 
ATOM     10  HN1 IND d   1       0.656  -5.895  -6.282  0.00  0.00     0.298 HD
ENDROOT
TORSDOF 0
ENDMDL
