MODEL 1
REMARK minimizedAffinity 10.5511951
REMARK minimizedRMSD -1
REMARK  0 active torsions:
REMARK  status: ('A' for Active; 'I' for Inactive)
ROOT
ATOM      1  N1  IND d   1       3.800   1.248  -5.978  0.00  0.00    -0.196 N 
ATOM      2  C2  IND d   1       5.151   1.038  -5.946  0.00  0.00     0.054 A 
ATOM      3  C3  IND d   1       5.420  -0.286  -5.910  0.00  0.00    -0.031 A 
ATOM      4  C4  IND d   1       3.803  -2.288  -6.000  0.00  0.00     0.051 A 
ATOM      5  C5  IND d   1       2.472  -2.598  -5.998  0.00  0.00    -0.031 A 
ATOM      6  C6  IND d   1       1.496  -1.623  -5.992  0.00  0.00     0.015 A 
ATOM      7  C7  IND d   1       1.816  -0.294  -5.999  0.00  0.00    -0.016 A 
ATOM      8  C8  IND d   1       3.167   0.024  -5.994  0.00  0.00    -0.047 A 
ATOM      9  C9  IND d   1       4.162  -0.961  -5.957  0.00  0.00    -0.096 A 
ATOM     10  HN1 IND d   1       3.412   2.015  -5.987  0.00  0.00     0.298 HD
ENDROOT
TORSDOF 0
ENDMDL
