MODEL 1
REMARK minimizedAffinity 11.0933571
REMARK minimizedRMSD -1
REMARK  0 active torsions:
REMARK  status: ('A' for Active; 'I' for Inactive)
ROOT
ATOM      1  N1  IND d   1       3.246   2.266   2.156  0.00  0.00    -0.196 N 
ATOM      2  C2  IND d   1       2.928   2.761   0.922  0.00  0.00     0.054 A 
ATOM      3  C3  IND d   1       1.841   2.128   0.427  0.00  0.00    -0.031 A 
ATOM      4  C4  IND d   1       0.365   0.320   1.512  0.00  0.00     0.051 A 
ATOM      5  C5  IND d   1       0.278  -0.479   2.618  0.00  0.00    -0.031 A 
ATOM      6  C6  IND d   1       1.193  -0.400   3.648  0.00  0.00     0.015 A 
ATOM      7  C7  IND d   1       2.227   0.492   3.616  0.00  0.00    -0.016 A 
ATOM      8  C8  IND d   1       2.322   1.300   2.492  0.00  0.00    -0.047 A 
ATOM      9  C9  IND d   1       1.422   1.195   1.424  0.00  0.00    -0.096 A 
ATOM     10  HN1 IND d   1       3.911   2.515   2.641  0.00  0.00     0.298 HD
ENDROOT
TORSDOF 0
ENDMDL
