MODEL 1
REMARK minimizedAffinity 10.3964062
REMARK minimizedRMSD -1
REMARK  0 active torsions:
REMARK  status: ('A' for Active; 'I' for Inactive)
ROOT
ATOM      1  N1  IND d   1       2.022   0.367  -5.418  0.00  0.00    -0.196 N 
ATOM      2  C2  IND d   1       3.375   0.250  -5.257  0.00  0.00     0.054 A 
ATOM      3  C3  IND d   1       3.747  -1.047  -5.335  0.00  0.00    -0.031 A 
ATOM      4  C4  IND d   1       2.317  -3.133  -5.820  0.00  0.00     0.051 A 
ATOM      5  C5  IND d   1       1.023  -3.533  -6.000  0.00  0.00    -0.031 A 
ATOM      6  C6  IND d   1      -0.025  -2.636  -5.998  0.00  0.00     0.015 A 
ATOM      7  C7  IND d   1       0.184  -1.297  -5.826  0.00  0.00    -0.016 A 
ATOM      8  C8  IND d   1       1.496  -0.887  -5.636  0.00  0.00    -0.047 A 
ATOM      9  C9  IND d   1       2.560  -1.798  -5.594  0.00  0.00    -0.096 A 
ATOM     10  HN1 IND d   1       1.575   1.101  -5.387  0.00  0.00     0.298 HD
ENDROOT
TORSDOF 0
ENDMDL
