MODEL 1
REMARK minimizedAffinity 16.2565002
REMARK minimizedRMSD -1
REMARK  0 active torsions:
REMARK  status: ('A' for Active; 'I' for Inactive)
ROOT
ATOM      1  N1  IND d   1       5.639   1.701   4.807  0.00  0.00    -0.196 N 
ATOM      2  C2  IND d   1       5.932   0.742   3.877  0.00  0.00     0.054 A 
ATOM      3  C3  IND d   1       5.487   1.119   2.657  0.00  0.00    -0.031 A 
ATOM      4  C4  IND d   1       4.343   3.310   1.938  0.00  0.00     0.051 A 
ATOM      5  C5  IND d   1       3.832   4.474   2.440  0.00  0.00    -0.031 A 
ATOM      6  C6  IND d   1       3.901   4.780   3.784  0.00  0.00     0.015 A 
ATOM      7  C7  IND d   1       4.496   3.935   4.678  0.00  0.00    -0.016 A 
ATOM      8  C8  IND d   1       5.010   2.750   4.172  0.00  0.00    -0.047 A 
ATOM      9  C9  IND d   1       4.905   2.414   2.816  0.00  0.00    -0.096 A 
ATOM     10  HN1 IND d   1       5.817   1.656   5.647  0.00  0.00     0.298 HD
ENDROOT
TORSDOF 0
ENDMDL
