MODEL 1
REMARK minimizedAffinity 6.86079216
REMARK minimizedRMSD -1
REMARK  0 active torsions:
REMARK  status: ('A' for Active; 'I' for Inactive)
ROOT
ATOM      1  N1  IND d   1      -2.366  -2.179   2.998  0.00  0.00    -0.196 N 
ATOM      2  C2  IND d   1      -3.305  -1.331   2.481  0.00  0.00     0.054 A 
ATOM      3  C3  IND d   1      -2.781  -0.097   2.310  0.00  0.00    -0.031 A 
ATOM      4  C4  IND d   1      -0.377   0.730   2.717  0.00  0.00     0.051 A 
ATOM      5  C5  IND d   1       0.829   0.330   3.220  0.00  0.00    -0.031 A 
ATOM      6  C6  IND d   1       1.037  -0.953   3.682  0.00  0.00     0.015 A 
ATOM      7  C7  IND d   1       0.045  -1.892   3.647  0.00  0.00    -0.016 A 
ATOM      8  C8  IND d   1      -1.183  -1.488   3.143  0.00  0.00    -0.047 A 
ATOM      9  C9  IND d   1      -1.412  -0.175   2.713  0.00  0.00    -0.096 A 
ATOM     10  HN1 IND d   1      -2.492  -3.006   3.200  0.00  0.00     0.298 HD
ENDROOT
TORSDOF 0
ENDMDL
