MODEL 1
REMARK minimizedAffinity 14.5289125
REMARK minimizedRMSD -1
REMARK  0 active torsions:
REMARK  status: ('A' for Active; 'I' for Inactive)
ROOT
ATOM      1  N1  IND d   1      -2.237  -3.936  -4.127  0.00  0.00    -0.196 N 
ATOM      2  C2  IND d   1      -2.169  -4.861  -5.132  0.00  0.00     0.054 A 
ATOM      3  C3  IND d   1      -1.182  -4.542  -5.999  0.00  0.00    -0.031 A 
ATOM      4  C4  IND d   1       0.511  -2.605  -5.909  0.00  0.00     0.051 A 
ATOM      5  C5  IND d   1       0.823  -1.478  -5.201  0.00  0.00    -0.031 A 
ATOM      6  C6  IND d   1       0.118  -1.108  -4.074  0.00  0.00     0.015 A 
ATOM      7  C7  IND d   1      -0.922  -1.859  -3.605  0.00  0.00    -0.016 A 
ATOM      8  C8  IND d   1      -1.246  -3.000  -4.326  0.00  0.00    -0.047 A 
ATOM      9  C9  IND d   1      -0.562  -3.358  -5.494  0.00  0.00    -0.096 A 
ATOM     10  HN1 IND d   1      -2.803  -3.939  -3.480  0.00  0.00     0.298 HD
ENDROOT
TORSDOF 0
ENDMDL
