MODEL 1
REMARK minimizedAffinity -2.73504329
REMARK minimizedRMSD -1
REMARK  0 active torsions:
REMARK  status: ('A' for Active; 'I' for Inactive)
ROOT
ATOM      1  C4' PXY d   1       0.786   2.150  -0.145  0.00  0.00     0.077 C 
ATOM      2  C1' PXY d   1      -1.528  -3.123   0.366  0.00  0.00     0.077 C 
ATOM      3  C1  PXY d   1      -0.913  -1.745   0.222  0.00  0.00    -0.082 A 
ATOM      4  C2  PXY d   1      -0.928  -0.911   1.250  0.00  0.00     0.003 A 
ATOM      5  C3  PXY d   1      -0.406   0.350   1.128  0.00  0.00     0.003 A 
ATOM      6  C4  PXY d   1       0.186   0.745  -0.042  0.00  0.00    -0.082 A 
ATOM      7  C5  PXY d   1       0.214  -0.103  -1.092  0.00  0.00     0.003 A 
ATOM      8  C6  PXY d   1      -0.358  -1.365  -0.960  0.00  0.00     0.003 A 
ENDROOT
TORSDOF 0
ENDMDL
