MODEL 1
REMARK minimizedAffinity -3.21103477
REMARK minimizedRMSD -1
REMARK  0 active torsions:
REMARK  status: ('A' for Active; 'I' for Inactive)
ROOT
ATOM      1  C4' PXY d   1      -1.546  -1.375   2.816  0.00  0.00     0.077 C 
ATOM      2  C1' PXY d   1       0.920  -1.333  -2.413  0.00  0.00     0.077 C 
ATOM      3  C1  PXY d   1       0.273  -1.357  -1.042  0.00  0.00    -0.082 A 
ATOM      4  C2  PXY d   1      -0.442  -0.320  -0.638  0.00  0.00     0.003 A 
ATOM      5  C3  PXY d   1      -1.007  -0.312   0.612  0.00  0.00     0.003 A 
ATOM      6  C4  PXY d   1      -0.883  -1.399   1.436  0.00  0.00    -0.082 A 
ATOM      7  C5  PXY d   1      -0.163  -2.465   1.026  0.00  0.00     0.003 A 
ATOM      8  C6  PXY d   1       0.437  -2.436  -0.229  0.00  0.00     0.003 A 
ENDROOT
TORSDOF 0
ENDMDL
