MODEL 1
REMARK minimizedAffinity -2.66578674
REMARK minimizedRMSD -1
REMARK  0 active torsions:
REMARK  status: ('A' for Active; 'I' for Inactive)
ROOT
ATOM      1  C4' PXY d   1       2.827  -1.203  -1.082  0.00  0.00     0.077 C 
ATOM      2  C1' PXY d   1      -2.305  -3.538   0.189  0.00  0.00     0.077 C 
ATOM      3  C1  PXY d   1      -0.965  -2.914  -0.145  0.00  0.00    -0.082 A 
ATOM      4  C2  PXY d   1      -0.005  -3.663  -0.663  0.00  0.00     0.003 A 
ATOM      5  C3  PXY d   1       1.223  -3.122  -0.942  0.00  0.00     0.003 A 
ATOM      6  C4  PXY d   1       1.455  -1.788  -0.738  0.00  0.00    -0.082 A 
ATOM      7  C5  PXY d   1       0.478  -1.015  -0.220  0.00  0.00     0.003 A 
ATOM      8  C6  PXY d   1      -0.749  -1.592   0.094  0.00  0.00     0.003 A 
ENDROOT
TORSDOF 0
ENDMDL
