MODEL 1
REMARK minimizedAffinity -4.29412222
REMARK minimizedRMSD -1
REMARK  0 active torsions:
REMARK  status: ('A' for Active; 'I' for Inactive)
ROOT
ATOM      1  C4' PXY d   1       0.073  -3.601   0.482  0.00  0.00     0.077 C 
ATOM      2  C1' PXY d   1      -0.215   2.142  -0.111  0.00  0.00     0.077 C 
ATOM      3  C1  PXY d   1      -0.142   0.637   0.057  0.00  0.00    -0.082 A 
ATOM      4  C2  PXY d   1       0.572  -0.082  -0.793  0.00  0.00     0.003 A 
ATOM      5  C3  PXY d   1       0.623  -1.447  -0.674  0.00  0.00     0.003 A 
ATOM      6  C4  PXY d   1      -0.021  -2.078   0.356  0.00  0.00    -0.082 A 
ATOM      7  C5  PXY d   1      -0.744  -1.350   1.234  0.00  0.00     0.003 A 
ATOM      8  C6  PXY d   1      -0.816   0.031   1.072  0.00  0.00     0.003 A 
ENDROOT
TORSDOF 0
ENDMDL
