MODEL 1
REMARK minimizedAffinity -1.05694139
REMARK minimizedRMSD -1
REMARK  0 active torsions:
REMARK  status: ('A' for Active; 'I' for Inactive)
ROOT
ATOM      1  C4' PXY d   1       1.095  -3.014  -0.989  0.00  0.00     0.077 C 
ATOM      2  C1' PXY d   1      -0.446   2.521  -0.357  0.00  0.00     0.077 C 
ATOM      3  C1  PXY d   1      -0.048   1.069  -0.534  0.00  0.00    -0.082 A 
ATOM      4  C2  PXY d   1       0.268   0.343   0.527  0.00  0.00     0.003 A 
ATOM      5  C3  PXY d   1       0.660  -0.963   0.382  0.00  0.00     0.003 A 
ATOM      6  C4  PXY d   1       0.678  -1.547  -0.856  0.00  0.00    -0.082 A 
ATOM      7  C5  PXY d   1       0.347  -0.816  -1.942  0.00  0.00     0.003 A 
ATOM      8  C6  PXY d   1      -0.009   0.519  -1.778  0.00  0.00     0.003 A 
ENDROOT
TORSDOF 0
ENDMDL
