MODEL 1
REMARK minimizedAffinity -1.9738977
REMARK minimizedRMSD -1
REMARK  0 active torsions:
REMARK  status: ('A' for Active; 'I' for Inactive)
ROOT
ATOM      1  C4' PXY d   1      -0.058   1.636   0.939  0.00  0.00     0.077 C 
ATOM      2  C1' PXY d   1       0.242  -4.039  -0.118  0.00  0.00     0.077 C 
ATOM      3  C1  PXY d   1       0.151  -2.552   0.164  0.00  0.00    -0.082 A 
ATOM      4  C2  PXY d   1       0.958  -1.716  -0.469  0.00  0.00     0.003 A 
ATOM      5  C3  PXY d   1       0.911  -0.372  -0.203  0.00  0.00     0.003 A 
ATOM      6  C4  PXY d   1      -0.008   0.128   0.680  0.00  0.00    -0.082 A 
ATOM      7  C5  PXY d   1      -0.843  -0.717   1.321  0.00  0.00     0.003 A 
ATOM      8  C6  PXY d   1      -0.751  -2.083   1.068  0.00  0.00     0.003 A 
ENDROOT
TORSDOF 0
ENDMDL
