MODEL 1
REMARK minimizedAffinity -3.2166934
REMARK minimizedRMSD -1
REMARK  0 active torsions:
REMARK  status: ('A' for Active; 'I' for Inactive)
ROOT
ATOM      1  C4' PXY d   1      -1.551  -0.369   2.445  0.00  0.00     0.077 C 
ATOM      2  C1' PXY d   1       1.414  -1.195  -2.448  0.00  0.00     0.077 C 
ATOM      3  C1  PXY d   1       0.640  -0.966  -1.165  0.00  0.00    -0.082 A 
ATOM      4  C2  PXY d   1       0.393  -1.986  -0.359  0.00  0.00     0.003 A 
ATOM      5  C3  PXY d   1      -0.333  -1.802   0.790  0.00  0.00     0.003 A 
ATOM      6  C4  PXY d   1      -0.765  -0.552   1.144  0.00  0.00    -0.082 A 
ATOM      7  C5  PXY d   1      -0.508   0.495   0.332  0.00  0.00     0.003 A 
ATOM      8  C6  PXY d   1       0.195   0.281  -0.850  0.00  0.00     0.003 A 
ENDROOT
TORSDOF 0
ENDMDL
