MODEL 1
REMARK minimizedAffinity -4.72807264
REMARK minimizedRMSD -1
REMARK  0 active torsions:
REMARK  status: ('A' for Active; 'I' for Inactive)
ROOT
ATOM      1  C4' PXY d   1      -1.873   0.011   3.159  0.00  0.00     0.077 C 
ATOM      2  C1' PXY d   1       0.397  -0.447  -2.137  0.00  0.00     0.077 C 
ATOM      3  C1  PXY d   1      -0.204  -0.338  -0.750  0.00  0.00    -0.082 A 
ATOM      4  C2  PXY d   1      -0.354   0.853  -0.193  0.00  0.00     0.003 A 
ATOM      5  C3  PXY d   1      -0.867   0.967   1.073  0.00  0.00     0.003 A 
ATOM      6  C4  PXY d   1      -1.279  -0.146   1.757  0.00  0.00    -0.082 A 
ATOM      7  C5  PXY d   1      -1.139  -1.364   1.191  0.00  0.00     0.003 A 
ATOM      8  C6  PXY d   1      -0.578  -1.461  -0.079  0.00  0.00     0.003 A 
ENDROOT
TORSDOF 0
ENDMDL
