MODEL 1
REMARK minimizedAffinity -2.66373587
REMARK minimizedRMSD -1
REMARK  0 active torsions:
REMARK  status: ('A' for Active; 'I' for Inactive)
ROOT
ATOM      1  C4' PXY d   1      -0.019  -2.982   0.681  0.00  0.00     0.077 C 
ATOM      2  C1' PXY d   1       0.510   2.760   0.274  0.00  0.00     0.077 C 
ATOM      3  C1  PXY d   1       0.368   1.255   0.393  0.00  0.00    -0.082 A 
ATOM      4  C2  PXY d   1       1.014   0.468  -0.451  0.00  0.00     0.003 A 
ATOM      5  C3  PXY d   1       0.872  -0.894  -0.378  0.00  0.00     0.003 A 
ATOM      6  C4  PXY d   1       0.102  -1.458   0.604  0.00  0.00    -0.082 A 
ATOM      7  C5  PXY d   1      -0.553  -0.662   1.476  0.00  0.00     0.003 A 
ATOM      8  C6  PXY d   1      -0.428   0.719   1.358  0.00  0.00     0.003 A 
ENDROOT
TORSDOF 0
ENDMDL
