MODEL 1
REMARK minimizedAffinity -3.72250962
REMARK minimizedRMSD -1
REMARK  0 active torsions:
REMARK  status: ('A' for Active; 'I' for Inactive)
ROOT
ATOM      1  C4' PXY d   1       0.648  -2.983   1.414  0.00  0.00     0.077 C 
ATOM      2  C1' PXY d   1      -0.737   1.174  -2.356  0.00  0.00     0.077 C 
ATOM      3  C1  PXY d   1      -0.375   0.092  -1.358  0.00  0.00    -0.082 A 
ATOM      4  C2  PXY d   1       0.371  -0.931  -1.742  0.00  0.00     0.003 A 
ATOM      5  C3  PXY d   1       0.680  -1.934  -0.861  0.00  0.00     0.003 A 
ATOM      6  C4  PXY d   1       0.266  -1.863   0.443  0.00  0.00    -0.082 A 
ATOM      7  C5  PXY d   1      -0.486  -0.817   0.846  0.00  0.00     0.003 A 
ATOM      8  C6  PXY d   1      -0.824   0.170  -0.075  0.00  0.00     0.003 A 
ENDROOT
TORSDOF 0
ENDMDL
