MODEL 1
REMARK minimizedAffinity -2.70334649
REMARK minimizedRMSD -1
REMARK  0 active torsions:
REMARK  status: ('A' for Active; 'I' for Inactive)
ROOT
ATOM      1  C4' PXY d   1      -2.032  -0.293   2.424  0.00  0.00     0.077 C 
ATOM      2  C1' PXY d   1       1.685  -1.640  -1.793  0.00  0.00     0.077 C 
ATOM      3  C1  PXY d   1       0.707  -1.300  -0.686  0.00  0.00    -0.082 A 
ATOM      4  C2  PXY d   1       0.215  -0.074  -0.602  0.00  0.00     0.003 A 
ATOM      5  C3  PXY d   1      -0.646   0.260   0.411  0.00  0.00     0.003 A 
ATOM      6  C4  PXY d   1      -1.049  -0.685   1.317  0.00  0.00    -0.082 A 
ATOM      7  C5  PXY d   1      -0.560  -1.940   1.232  0.00  0.00     0.003 A 
ATOM      8  C6  PXY d   1       0.345  -2.248   0.220  0.00  0.00     0.003 A 
ENDROOT
TORSDOF 0
ENDMDL
