MODEL 1
REMARK minimizedAffinity -5.83725166
REMARK minimizedRMSD -1
REMARK  0 active torsions:
REMARK  status: ('A' for Active; 'I' for Inactive)
ROOT
ATOM      1  C4' PXY d   1      -0.314  -3.555   0.203  0.00  0.00     0.077 C 
ATOM      2  C1' PXY d   1       0.210   2.157  -0.513  0.00  0.00     0.077 C 
ATOM      3  C1  PXY d   1       0.072   0.661  -0.312  0.00  0.00    -0.082 A 
ATOM      4  C2  PXY d   1       0.500  -0.167  -1.251  0.00  0.00     0.003 A 
ATOM      5  C3  PXY d   1       0.355  -1.522  -1.100  0.00  0.00     0.003 A 
ATOM      6  C4  PXY d   1      -0.187  -2.037   0.047  0.00  0.00    -0.082 A 
ATOM      7  C5  PXY d   1      -0.616  -1.199   1.014  0.00  0.00     0.003 A 
ATOM      8  C6  PXY d   1      -0.497   0.174   0.824  0.00  0.00     0.003 A 
ENDROOT
TORSDOF 0
ENDMDL
