MODEL 1
REMARK minimizedAffinity -3.99361753
REMARK minimizedRMSD -1
REMARK  0 active torsions:
REMARK  status: ('A' for Active; 'I' for Inactive)
ROOT
ATOM      1  C4' PXY d   1       0.165   2.709   0.241  0.00  0.00     0.077 C 
ATOM      2  C1' PXY d   1      -0.091  -3.065   0.337  0.00  0.00     0.077 C 
ATOM      3  C1  PXY d   1      -0.022  -1.551   0.299  0.00  0.00    -0.082 A 
ATOM      4  C2  PXY d   1       0.259  -0.882   1.405  0.00  0.00     0.003 A 
ATOM      5  C3  PXY d   1       0.294   0.489   1.395  0.00  0.00     0.003 A 
ATOM      6  C4  PXY d   1       0.093   1.179   0.230  0.00  0.00    -0.082 A 
ATOM      7  C5  PXY d   1      -0.183   0.503  -0.905  0.00  0.00     0.003 A 
ATOM      8  C6  PXY d   1      -0.255  -0.887  -0.865  0.00  0.00     0.003 A 
ENDROOT
TORSDOF 0
ENDMDL
