MODEL 1
REMARK minimizedAffinity -3.96479607
REMARK minimizedRMSD -1
REMARK  0 active torsions:
REMARK  status: ('A' for Active; 'I' for Inactive)
ROOT
ATOM      1  C4' PXY d   1       0.157   2.040   0.048  0.00  0.00     0.077 C 
ATOM      2  C1' PXY d   1      -0.250  -3.726   0.033  0.00  0.00     0.077 C 
ATOM      3  C1  PXY d   1      -0.154  -2.213   0.044  0.00  0.00    -0.082 A 
ATOM      4  C2  PXY d   1       0.532  -1.594  -0.903  0.00  0.00     0.003 A 
ATOM      5  C3  PXY d   1       0.656  -0.229  -0.891  0.00  0.00     0.003 A 
ATOM      6  C4  PXY d   1       0.026   0.515   0.071  0.00  0.00    -0.082 A 
ATOM      7  C5  PXY d   1      -0.685  -0.108   1.035  0.00  0.00     0.003 A 
ATOM      8  C6  PXY d   1      -0.764  -1.498   1.028  0.00  0.00     0.003 A 
ENDROOT
TORSDOF 0
ENDMDL
