MODEL 1
REMARK minimizedAffinity -3.71946073
REMARK minimizedRMSD -1
REMARK  0 active torsions:
REMARK  status: ('A' for Active; 'I' for Inactive)
ROOT
ATOM      1  C4' PXY d   1      -0.676   1.857  -0.450  0.00  0.00     0.077 C 
ATOM      2  C1' PXY d   1       0.391  -3.803   0.042  0.00  0.00     0.077 C 
ATOM      3  C1  PXY d   1       0.121  -2.318  -0.094  0.00  0.00    -0.082 A 
ATOM      4  C2  PXY d   1      -0.601  -1.697   0.824  0.00  0.00     0.003 A 
ATOM      5  C3  PXY d   1      -0.881  -0.360   0.699  0.00  0.00     0.003 A 
ATOM      6  C4  PXY d   1      -0.371   0.360  -0.348  0.00  0.00    -0.082 A 
ATOM      7  C5  PXY d   1       0.376  -0.264  -1.283  0.00  0.00     0.003 A 
ATOM      8  C6  PXY d   1       0.614  -1.630  -1.160  0.00  0.00     0.003 A 
ENDROOT
TORSDOF 0
ENDMDL
