MODEL 1
REMARK minimizedAffinity -3.23221803
REMARK minimizedRMSD -1
REMARK  0 active torsions:
REMARK  status: ('A' for Active; 'I' for Inactive)
ROOT
ATOM      1  C4' PXY d   1       0.866  -2.313  -2.743  0.00  0.00     0.077 C 
ATOM      2  C1' PXY d   1      -4.018  -3.930  -0.107  0.00  0.00     0.077 C 
ATOM      3  C1  PXY d   1      -2.733  -3.500  -0.787  0.00  0.00    -0.082 A 
ATOM      4  C2  PXY d   1      -2.691  -3.407  -2.107  0.00  0.00     0.003 A 
ATOM      5  C3  PXY d   1      -1.529  -3.050  -2.740  0.00  0.00     0.003 A 
ATOM      6  C4  PXY d   1      -0.412  -2.734  -2.013  0.00  0.00    -0.082 A 
ATOM      7  C5  PXY d   1      -0.450  -2.817  -0.666  0.00  0.00     0.003 A 
ATOM      8  C6  PXY d   1      -1.628  -3.221  -0.044  0.00  0.00     0.003 A 
ENDROOT
TORSDOF 0
ENDMDL
