MODEL 1
REMARK minimizedAffinity -1.05563283
REMARK minimizedRMSD -1
REMARK  0 active torsions:
REMARK  status: ('A' for Active; 'I' for Inactive)
ROOT
ATOM      1  C4' PXY d   1      -0.368  -3.628   0.272  0.00  0.00     0.077 C 
ATOM      2  C1' PXY d   1       0.031   2.138   0.165  0.00  0.00     0.077 C 
ATOM      3  C1  PXY d   1      -0.070   0.625   0.181  0.00  0.00    -0.082 A 
ATOM      4  C2  PXY d   1      -0.848   0.031   1.071  0.00  0.00     0.003 A 
ATOM      5  C3  PXY d   1      -0.927  -1.337   1.120  0.00  0.00     0.003 A 
ATOM      6  C4  PXY d   1      -0.243  -2.103   0.214  0.00  0.00    -0.082 A 
ATOM      7  C5  PXY d   1       0.544  -1.504  -0.704  0.00  0.00     0.003 A 
ATOM      8  C6  PXY d   1       0.642  -0.115  -0.711  0.00  0.00     0.003 A 
ENDROOT
TORSDOF 0
ENDMDL
