MODEL 1
REMARK minimizedAffinity -3.35613966
REMARK minimizedRMSD -1
REMARK  0 active torsions:
REMARK  status: ('A' for Active; 'I' for Inactive)
ROOT
ATOM      1  C4' PXY d   1       0.071   1.710   0.195  0.00  0.00     0.077 C 
ATOM      2  C1' PXY d   1       0.265  -4.066   0.319  0.00  0.00     0.077 C 
ATOM      3  C1  PXY d   1       0.201  -2.552   0.289  0.00  0.00    -0.082 A 
ATOM      4  C2  PXY d   1       1.109  -1.872  -0.392  0.00  0.00     0.003 A 
ATOM      5  C3  PXY d   1       1.086  -0.502  -0.404  0.00  0.00     0.003 A 
ATOM      6  C4  PXY d   1       0.091   0.180   0.245  0.00  0.00    -0.082 A 
ATOM      7  C5  PXY d   1      -0.846  -0.507   0.934  0.00  0.00     0.003 A 
ATOM      8  C6  PXY d   1      -0.780  -1.897   0.967  0.00  0.00     0.003 A 
ENDROOT
TORSDOF 0
ENDMDL
