MODEL 1
REMARK minimizedAffinity -4.06272745
REMARK minimizedRMSD -1
REMARK  0 active torsions:
REMARK  status: ('A' for Active; 'I' for Inactive)
ROOT
ATOM      1  C4' PXY d   1      -0.194  -2.659   0.258  0.00  0.00     0.077 C 
ATOM      2  C1' PXY d   1      -0.167   3.108   0.651  0.00  0.00     0.077 C 
ATOM      3  C1  PXY d   1      -0.178   1.595   0.560  0.00  0.00    -0.082 A 
ATOM      4  C2  PXY d   1       0.614   0.985  -0.306  0.00  0.00     0.003 A 
ATOM      5  C3  PXY d   1       0.593  -0.381  -0.424  0.00  0.00     0.003 A 
ATOM      6  C4  PXY d   1      -0.209  -1.134   0.391  0.00  0.00    -0.082 A 
ATOM      7  C5  PXY d   1      -1.013  -0.520   1.285  0.00  0.00     0.003 A 
ATOM      8  C6  PXY d   1      -1.007   0.870   1.360  0.00  0.00     0.003 A 
ENDROOT
TORSDOF 0
ENDMDL
