MODEL 1
REMARK minimizedAffinity -4.60270166
REMARK minimizedRMSD -1
REMARK  0 active torsions:
REMARK  status: ('A' for Active; 'I' for Inactive)
ROOT
ATOM      1  C4' PXY d   1      -0.918  -3.028   0.541  0.00  0.00     0.077 C 
ATOM      2  C1' PXY d   1       0.704   2.444  -0.377  0.00  0.00     0.077 C 
ATOM      3  C1  PXY d   1       0.284   1.005  -0.148  0.00  0.00    -0.082 A 
ATOM      4  C2  PXY d   1      -0.703   0.738   0.693  0.00  0.00     0.003 A 
ATOM      5  C3  PXY d   1      -1.074  -0.559   0.936  0.00  0.00     0.003 A 
ATOM      6  C4  PXY d   1      -0.466  -1.590   0.272  0.00  0.00    -0.082 A 
ATOM      7  C5  PXY d   1       0.534  -1.325  -0.596  0.00  0.00     0.003 A 
ATOM      8  C6  PXY d   1       0.924  -0.004  -0.798  0.00  0.00     0.003 A 
ENDROOT
TORSDOF 0
ENDMDL
