MODEL 1
REMARK minimizedAffinity 6.80185986
REMARK minimizedRMSD -1
REMARK  0 active torsions:
REMARK  status: ('A' for Active; 'I' for Inactive)
ROOT
ATOM      1  C   UNL d   1      -1.631   2.050  -0.453  0.00  0.00     0.124 A 
ATOM      2  C1  UNL d   1      -2.171   0.844  -0.028  0.00  0.00     0.062 A 
ATOM      3  C2  UNL d   1      -1.430  -0.330  -0.130  0.00  0.00     0.162 A 
ATOM      4  C3  UNL d   1      -0.139  -0.304  -0.658  0.00  0.00    -0.034 A 
ATOM      5  C4  UNL d   1       0.397   0.913  -1.084  0.00  0.00     0.162 A 
ATOM      6  C5  UNL d   1      -0.348   2.083  -0.981  0.00  0.00     0.062 A 
ATOM      7  F   UNL d   1       0.176   3.247  -1.392  0.00  0.00    -0.097 F 
ATOM      8  F1  UNL d   1       1.635   0.974  -1.597  0.00  0.00    -0.096 F 
ATOM      9  I   UNL d   1       0.972  -2.057  -0.812  0.00  0.00    -0.060 I 
ATOM     10  F2  UNL d   1      -1.978  -1.480   0.289  0.00  0.00    -0.096 F 
ATOM     11  F3  UNL d   1      -3.411   0.809   0.481  0.00  0.00    -0.097 F 
ATOM     12  F4  UNL d   1      -2.346   3.178  -0.355  0.00  0.00    -0.092 F 
ENDROOT
TORSDOF 0
ENDMDL
