MODEL 1
REMARK minimizedAffinity -3.03785658
REMARK minimizedRMSD -1
REMARK  0 active torsions:
REMARK  status: ('A' for Active; 'I' for Inactive)
ROOT
ATOM      1  C   UNL d   1       1.120  -0.638  -0.567  0.00  0.00     0.124 A 
ATOM      2  C1  UNL d   1       0.790   0.566  -1.174  0.00  0.00     0.062 A 
ATOM      3  C2  UNL d   1      -0.204   1.374  -0.630  0.00  0.00     0.162 A 
ATOM      4  C3  UNL d   1      -0.875   0.982   0.528  0.00  0.00    -0.034 A 
ATOM      5  C4  UNL d   1      -0.538  -0.231   1.132  0.00  0.00     0.162 A 
ATOM      6  C5  UNL d   1       0.456  -1.035   0.584  0.00  0.00     0.062 A 
ATOM      7  F   UNL d   1       0.773  -2.198   1.172  0.00  0.00    -0.097 F 
ATOM      8  F1  UNL d   1      -1.164  -0.639   2.246  0.00  0.00    -0.096 F 
ATOM      9  I   UNL d   1      -2.363   2.187   1.344  0.00  0.00    -0.060 I 
ATOM     10  F2  UNL d   1      -0.502   2.533  -1.237  0.00  0.00    -0.096 F 
ATOM     11  F3  UNL d   1       1.430   0.952  -2.287  0.00  0.00    -0.097 F 
ATOM     12  F4  UNL d   1       2.077  -1.414  -1.093  0.00  0.00    -0.092 F 
ENDROOT
TORSDOF 0
ENDMDL
