MODEL 1
REMARK minimizedAffinity 0.570153117
REMARK minimizedRMSD -1
REMARK  0 active torsions:
REMARK  status: ('A' for Active; 'I' for Inactive)
ROOT
ATOM      1  C   UNL d   1      -1.209   1.853   1.274  0.00  0.00     0.124 A 
ATOM      2  C1  UNL d   1      -1.064   1.825  -0.106  0.00  0.00     0.062 A 
ATOM      3  C2  UNL d   1      -0.423   0.754  -0.722  0.00  0.00     0.162 A 
ATOM      4  C3  UNL d   1       0.078  -0.300   0.042  0.00  0.00    -0.034 A 
ATOM      5  C4  UNL d   1      -0.070  -0.265   1.430  0.00  0.00     0.162 A 
ATOM      6  C5  UNL d   1      -0.712   0.808   2.040  0.00  0.00     0.062 A 
ATOM      7  F   UNL d   1      -0.850   0.833   3.374  0.00  0.00    -0.097 F 
ATOM      8  F1  UNL d   1       0.400  -1.261   2.195  0.00  0.00    -0.096 F 
ATOM      9  I   UNL d   1       1.037  -1.904  -0.874  0.00  0.00    -0.060 I 
ATOM     10  F2  UNL d   1      -0.298   0.754  -2.057  0.00  0.00    -0.096 F 
ATOM     11  F3  UNL d   1      -1.543   2.833  -0.849  0.00  0.00    -0.097 F 
ATOM     12  F4  UNL d   1      -1.825   2.885   1.864  0.00  0.00    -0.092 F 
ENDROOT
TORSDOF 0
ENDMDL
