MODEL 1
REMARK minimizedAffinity 0.0627168193
REMARK minimizedRMSD -1
REMARK  0 active torsions:
REMARK  status: ('A' for Active; 'I' for Inactive)
ROOT
ATOM      1  C   UNL d   1      -1.452   1.894   1.754  0.00  0.00     0.124 A 
ATOM      2  C1  UNL d   1      -1.457   1.830   0.368  0.00  0.00     0.062 A 
ATOM      3  C2  UNL d   1      -0.764   0.816  -0.288  0.00  0.00     0.162 A 
ATOM      4  C3  UNL d   1      -0.061  -0.142   0.442  0.00  0.00    -0.034 A 
ATOM      5  C4  UNL d   1      -0.060  -0.070   1.836  0.00  0.00     0.162 A 
ATOM      6  C5  UNL d   1      -0.754   0.945   2.487  0.00  0.00     0.062 A 
ATOM      7  F   UNL d   1      -0.748   1.005   3.826  0.00  0.00    -0.097 F 
ATOM      8  F1  UNL d   1       0.606  -0.975   2.568  0.00  0.00    -0.096 F 
ATOM      9  I   UNL d   1       0.976  -1.659  -0.536  0.00  0.00    -0.060 I 
ATOM     10  F2  UNL d   1      -0.786   0.778  -1.629  0.00  0.00    -0.096 F 
ATOM     11  F3  UNL d   1      -2.130   2.746  -0.342  0.00  0.00    -0.097 F 
ATOM     12  F4  UNL d   1      -2.119   2.871   2.383  0.00  0.00    -0.092 F 
ENDROOT
TORSDOF 0
ENDMDL
