MODEL 1
REMARK minimizedAffinity 0.0180581976
REMARK minimizedRMSD -1
REMARK  0 active torsions:
REMARK  status: ('A' for Active; 'I' for Inactive)
ROOT
ATOM      1  C   UNL d   1       1.585  -0.240  -0.676  0.00  0.00     0.124 A 
ATOM      2  C1  UNL d   1       0.903  -0.831   0.379  0.00  0.00     0.062 A 
ATOM      3  C2  UNL d   1      -0.192  -0.189   0.950  0.00  0.00     0.162 A 
ATOM      4  C3  UNL d   1      -0.613   1.050   0.467  0.00  0.00    -0.034 A 
ATOM      5  C4  UNL d   1       0.078   1.637  -0.593  0.00  0.00     0.162 A 
ATOM      6  C5  UNL d   1       1.172   0.992  -1.161  0.00  0.00     0.062 A 
ATOM      7  F   UNL d   1       1.830   1.564  -2.180  0.00  0.00    -0.097 F 
ATOM      8  F1  UNL d   1      -0.300   2.828  -1.082  0.00  0.00    -0.096 F 
ATOM      9  I   UNL d   1      -2.251   2.012   1.319  0.00  0.00    -0.060 I 
ATOM     10  F2  UNL d   1      -0.833  -0.783   1.969  0.00  0.00    -0.096 F 
ATOM     11  F3  UNL d   1       1.300  -2.021   0.850  0.00  0.00    -0.097 F 
ATOM     12  F4  UNL d   1       2.639  -0.859  -1.224  0.00  0.00    -0.092 F 
ENDROOT
TORSDOF 0
ENDMDL
