MODEL 1
REMARK minimizedAffinity 3.57952976
REMARK minimizedRMSD -1
REMARK  0 active torsions:
REMARK  status: ('A' for Active; 'I' for Inactive)
ROOT
ATOM      1  C   UNL d   1       1.501  -0.634  -1.195  0.00  0.00     0.124 A 
ATOM      2  C1  UNL d   1       1.407   0.750  -1.241  0.00  0.00     0.062 A 
ATOM      3  C2  UNL d   1       0.538   1.421  -0.385  0.00  0.00     0.162 A 
ATOM      4  C3  UNL d   1      -0.242   0.709   0.526  0.00  0.00    -0.034 A 
ATOM      5  C4  UNL d   1      -0.142  -0.683   0.565  0.00  0.00     0.162 A 
ATOM      6  C5  UNL d   1       0.727  -1.349  -0.292  0.00  0.00     0.062 A 
ATOM      7  F   UNL d   1       0.817  -2.686  -0.246  0.00  0.00    -0.097 F 
ATOM      8  F1  UNL d   1      -0.878  -1.398   1.429  0.00  0.00    -0.096 F 
ATOM      9  I   UNL d   1      -1.542   1.709   1.808  0.00  0.00    -0.060 I 
ATOM     10  F2  UNL d   1       0.468   2.759  -0.451  0.00  0.00    -0.096 F 
ATOM     11  F3  UNL d   1       2.153   1.443  -2.113  0.00  0.00    -0.097 F 
ATOM     12  F4  UNL d   1       2.337  -1.277  -2.021  0.00  0.00    -0.092 F 
ENDROOT
TORSDOF 0
ENDMDL
