MODEL 1
REMARK minimizedAffinity -2.87210536
REMARK minimizedRMSD -1
REMARK  0 active torsions:
REMARK  status: ('A' for Active; 'I' for Inactive)
ROOT
ATOM      1  C   UNL d   1      -1.540   1.719   0.812  0.00  0.00     0.124 A 
ATOM      2  C1  UNL d   1      -1.109   1.621  -0.503  0.00  0.00     0.062 A 
ATOM      3  C2  UNL d   1      -0.351   0.527  -0.912  0.00  0.00     0.162 A 
ATOM      4  C3  UNL d   1      -0.021  -0.479  -0.004  0.00  0.00    -0.034 A 
ATOM      5  C4  UNL d   1      -0.458  -0.373   1.318  0.00  0.00     0.162 A 
ATOM      6  C5  UNL d   1      -1.215   0.722   1.721  0.00  0.00     0.062 A 
ATOM      7  F   UNL d   1      -1.630   0.815   2.993  0.00  0.00    -0.097 F 
ATOM      8  F1  UNL d   1      -0.158  -1.323   2.216  0.00  0.00    -0.096 F 
ATOM      9  I   UNL d   1       1.111  -2.116  -0.611  0.00  0.00    -0.060 I 
ATOM     10  F2  UNL d   1       0.052   0.459  -2.190  0.00  0.00    -0.096 F 
ATOM     11  F3  UNL d   1      -1.421   2.583  -1.383  0.00  0.00    -0.097 F 
ATOM     12  F4  UNL d   1      -2.268   2.773   1.203  0.00  0.00    -0.092 F 
ENDROOT
TORSDOF 0
ENDMDL
