MODEL 1
REMARK minimizedAffinity 1.44436228
REMARK minimizedRMSD -1
REMARK  0 active torsions:
REMARK  status: ('A' for Active; 'I' for Inactive)
ROOT
ATOM      1  C   UNL d   1      -1.773   2.403   0.483  0.00  0.00     0.124 A 
ATOM      2  C1  UNL d   1      -1.060   2.345  -0.706  0.00  0.00     0.062 A 
ATOM      3  C2  UNL d   1      -0.330   1.205  -1.030  0.00  0.00     0.162 A 
ATOM      4  C3  UNL d   1      -0.309   0.113  -0.163  0.00  0.00    -0.034 A 
ATOM      5  C4  UNL d   1      -1.028   0.179   1.032  0.00  0.00     0.162 A 
ATOM      6  C5  UNL d   1      -1.757   1.320   1.351  0.00  0.00     0.062 A 
ATOM      7  F   UNL d   1      -2.445   1.375   2.500  0.00  0.00    -0.097 F 
ATOM      8  F1  UNL d   1      -1.031  -0.853   1.889  0.00  0.00    -0.096 F 
ATOM      9  I   UNL d   1       0.782  -1.593  -0.642  0.00  0.00    -0.060 I 
ATOM     10  F2  UNL d   1       0.350   1.177  -2.186  0.00  0.00    -0.096 F 
ATOM     11  F3  UNL d   1      -1.074   3.390  -1.546  0.00  0.00    -0.097 F 
ATOM     12  F4  UNL d   1      -2.474   3.501   0.792  0.00  0.00    -0.092 F 
ENDROOT
TORSDOF 0
ENDMDL
