MODEL 1
REMARK minimizedAffinity 1.57789719
REMARK minimizedRMSD -1
REMARK  0 active torsions:
REMARK  status: ('A' for Active; 'I' for Inactive)
ROOT
ATOM      1  C   UNL d   1      -0.058   0.884   0.050  0.00  0.00     0.124 A 
ATOM      2  C1  UNL d   1       0.726  -0.206   0.405  0.00  0.00     0.062 A 
ATOM      3  C2  UNL d   1       0.695  -1.369  -0.360  0.00  0.00     0.162 A 
ATOM      4  C3  UNL d   1      -0.123  -1.448  -1.487  0.00  0.00    -0.034 A 
ATOM      5  C4  UNL d   1      -0.909  -0.349  -1.836  0.00  0.00     0.162 A 
ATOM      6  C5  UNL d   1      -0.874   0.811  -1.069  0.00  0.00     0.062 A 
ATOM      7  F   UNL d   1      -1.632   1.862  -1.413  0.00  0.00    -0.097 F 
ATOM      8  F1  UNL d   1      -1.707  -0.392  -2.914  0.00  0.00    -0.096 F 
ATOM      9  I   UNL d   1      -0.173  -3.185  -2.632  0.00  0.00    -0.060 I 
ATOM     10  F2  UNL d   1       1.463  -2.406   0.006  0.00  0.00    -0.096 F 
ATOM     11  F3  UNL d   1       1.516  -0.138   1.486  0.00  0.00    -0.097 F 
ATOM     12  F4  UNL d   1      -0.026   2.001   0.788  0.00  0.00    -0.092 F 
ENDROOT
TORSDOF 0
ENDMDL
