MODEL 1
REMARK minimizedAffinity -4.42898083
REMARK minimizedRMSD -1
REMARK  0 active torsions:
REMARK  status: ('A' for Active; 'I' for Inactive)
ROOT
ATOM      1  C   UNL d   1      -1.311   2.002   1.689  0.00  0.00     0.124 A 
ATOM      2  C1  UNL d   1      -0.738   0.967   2.417  0.00  0.00     0.062 A 
ATOM      3  C2  UNL d   1      -0.173  -0.122   1.759  0.00  0.00     0.162 A 
ATOM      4  C3  UNL d   1      -0.177  -0.182   0.366  0.00  0.00    -0.034 A 
ATOM      5  C4  UNL d   1      -0.755   0.862  -0.359  0.00  0.00     0.162 A 
ATOM      6  C5  UNL d   1      -1.318   1.948   0.303  0.00  0.00     0.062 A 
ATOM      7  F   UNL d   1      -1.871   2.946  -0.402  0.00  0.00    -0.097 F 
ATOM      8  F1  UNL d   1      -0.776   0.836  -1.700  0.00  0.00    -0.096 F 
ATOM      9  I   UNL d   1       0.667  -1.809  -0.621  0.00  0.00    -0.060 I 
ATOM     10  F2  UNL d   1       0.373  -1.107   2.488  0.00  0.00    -0.096 F 
ATOM     11  F3  UNL d   1      -0.730   1.016   3.757  0.00  0.00    -0.097 F 
ATOM     12  F4  UNL d   1      -1.854   3.048   2.324  0.00  0.00    -0.092 F 
ENDROOT
TORSDOF 0
ENDMDL
