MODEL 1
REMARK minimizedAffinity 1.44828129
REMARK minimizedRMSD -1
REMARK  0 active torsions:
REMARK  status: ('A' for Active; 'I' for Inactive)
ROOT
ATOM      1  C   UNL d   1      -1.587   2.144   0.127  0.00  0.00     0.124 A 
ATOM      2  C1  UNL d   1      -0.716   2.177  -0.953  0.00  0.00     0.062 A 
ATOM      3  C2  UNL d   1       0.178   1.131  -1.164  0.00  0.00     0.162 A 
ATOM      4  C3  UNL d   1       0.203   0.041  -0.294  0.00  0.00    -0.034 A 
ATOM      5  C4  UNL d   1      -0.675   0.015   0.790  0.00  0.00     0.162 A 
ATOM      6  C5  UNL d   1      -1.566   1.063   0.997  0.00  0.00     0.062 A 
ATOM      7  F   UNL d   1      -2.408   1.029   2.041  0.00  0.00    -0.097 F 
ATOM      8  F1  UNL d   1      -0.677  -1.018   1.646  0.00  0.00    -0.096 F 
ATOM      9  I   UNL d   1       1.538  -1.525  -0.607  0.00  0.00    -0.060 I 
ATOM     10  F2  UNL d   1       1.008   1.190  -2.216  0.00  0.00    -0.096 F 
ATOM     11  F3  UNL d   1      -0.733   3.221  -1.795  0.00  0.00    -0.097 F 
ATOM     12  F4  UNL d   1      -2.445   3.152   0.328  0.00  0.00    -0.092 F 
ENDROOT
TORSDOF 0
ENDMDL
