MODEL 1
REMARK minimizedAffinity -0.0188268479
REMARK minimizedRMSD -1
REMARK  0 active torsions:
REMARK  status: ('A' for Active; 'I' for Inactive)
ROOT
ATOM      1  C   UNL d   1      -1.598   1.667   0.648  0.00  0.00     0.124 A 
ATOM      2  C1  UNL d   1      -1.575   0.511   1.417  0.00  0.00     0.062 A 
ATOM      3  C2  UNL d   1      -0.753  -0.552   1.057  0.00  0.00     0.162 A 
ATOM      4  C3  UNL d   1       0.055  -0.466  -0.077  0.00  0.00    -0.034 A 
ATOM      5  C4  UNL d   1       0.025   0.699  -0.846  0.00  0.00     0.162 A 
ATOM      6  C5  UNL d   1      -0.799   1.760  -0.482  0.00  0.00     0.062 A 
ATOM      7  F   UNL d   1      -0.820   2.875  -1.226  0.00  0.00    -0.097 F 
ATOM      8  F1  UNL d   1       0.788   0.816  -1.943  0.00  0.00    -0.096 F 
ATOM      9  I   UNL d   1       1.286  -2.054  -0.618  0.00  0.00    -0.060 I 
ATOM     10  F2  UNL d   1      -0.750  -1.657   1.819  0.00  0.00    -0.096 F 
ATOM     11  F3  UNL d   1      -2.347   0.419   2.509  0.00  0.00    -0.097 F 
ATOM     12  F4  UNL d   1      -2.391   2.688   0.996  0.00  0.00    -0.092 F 
ENDROOT
TORSDOF 0
ENDMDL
