MODEL 1
REMARK minimizedAffinity -4.50150824
REMARK minimizedRMSD -1
REMARK  0 active torsions:
REMARK  status: ('A' for Active; 'I' for Inactive)
ROOT
ATOM      1  C   UNL d   1       0.968  -2.191  -2.252  0.00  0.00     0.124 A 
ATOM      2  C1  UNL d   1      -0.034  -1.414  -2.815  0.00  0.00     0.062 A 
ATOM      3  C2  UNL d   1      -0.493  -0.277  -2.156  0.00  0.00     0.162 A 
ATOM      4  C3  UNL d   1       0.051   0.090  -0.925  0.00  0.00    -0.034 A 
ATOM      5  C4  UNL d   1       1.058  -0.697  -0.364  0.00  0.00     0.162 A 
ATOM      6  C5  UNL d   1       1.513  -1.833  -1.027  0.00  0.00     0.062 A 
ATOM      7  F   UNL d   1       2.481  -2.583  -0.480  0.00  0.00    -0.097 F 
ATOM      8  F1  UNL d   1       1.603  -0.373   0.818  0.00  0.00    -0.096 F 
ATOM      9  I   UNL d   1      -0.632   1.789   0.064  0.00  0.00    -0.060 I 
ATOM     10  F2  UNL d   1      -1.462   0.456  -2.724  0.00  0.00    -0.096 F 
ATOM     11  F3  UNL d   1      -0.563  -1.759  -3.998  0.00  0.00    -0.097 F 
ATOM     12  F4  UNL d   1       1.406  -3.285  -2.888  0.00  0.00    -0.092 F 
ENDROOT
TORSDOF 0
ENDMDL
