MODEL 1
REMARK minimizedAffinity 0.937010229
REMARK minimizedRMSD -1
REMARK  0 active torsions:
REMARK  status: ('A' for Active; 'I' for Inactive)
ROOT
ATOM      1  C   UNL d   1      -0.910   1.758   1.285  0.00  0.00     0.124 A 
ATOM      2  C1  UNL d   1      -0.648   0.686   2.126  0.00  0.00     0.062 A 
ATOM      3  C2  UNL d   1      -0.070  -0.475   1.621  0.00  0.00     0.162 A 
ATOM      4  C3  UNL d   1       0.251  -0.570   0.267  0.00  0.00    -0.034 A 
ATOM      5  C4  UNL d   1      -0.016   0.512  -0.573  0.00  0.00     0.162 A 
ATOM      6  C5  UNL d   1      -0.594   1.670  -0.064  0.00  0.00     0.062 A 
ATOM      7  F   UNL d   1      -0.846   2.705  -0.878  0.00  0.00    -0.097 F 
ATOM      8  F1  UNL d   1       0.280   0.454  -1.880  0.00  0.00    -0.096 F 
ATOM      9  I   UNL d   1       1.114  -2.305  -0.492  0.00  0.00    -0.060 I 
ATOM     10  F2  UNL d   1       0.171  -1.496   2.457  0.00  0.00    -0.096 F 
ATOM     11  F3  UNL d   1      -0.953   0.768   3.429  0.00  0.00    -0.097 F 
ATOM     12  F4  UNL d   1      -1.466   2.874   1.773  0.00  0.00    -0.092 F 
ENDROOT
TORSDOF 0
ENDMDL
