MODEL 1
REMARK minimizedAffinity -1.05397296
REMARK minimizedRMSD -1
REMARK  0 active torsions:
REMARK  status: ('A' for Active; 'I' for Inactive)
ROOT
ATOM      1  C   UNL d   1      -1.421   1.852   0.597  0.00  0.00     0.124 A 
ATOM      2  C1  UNL d   1      -1.324   0.756   1.442  0.00  0.00     0.062 A 
ATOM      3  C2  UNL d   1      -0.500  -0.315   1.109  0.00  0.00     0.162 A 
ATOM      4  C3  UNL d   1       0.236  -0.295  -0.076  0.00  0.00    -0.034 A 
ATOM      5  C4  UNL d   1       0.133   0.811  -0.922  0.00  0.00     0.162 A 
ATOM      6  C5  UNL d   1      -0.692   1.879  -0.584  0.00  0.00     0.062 A 
ATOM      7  F   UNL d   1      -0.784   2.937  -1.403  0.00  0.00    -0.097 F 
ATOM      8  F1  UNL d   1       0.827   0.863  -2.069  0.00  0.00    -0.096 F 
ATOM      9  I   UNL d   1       1.470  -1.894  -0.577  0.00  0.00    -0.060 I 
ATOM     10  F2  UNL d   1      -0.426  -1.361   1.946  0.00  0.00    -0.096 F 
ATOM     11  F3  UNL d   1      -2.028   0.727   2.584  0.00  0.00    -0.097 F 
ATOM     12  F4  UNL d   1      -2.216   2.881   0.919  0.00  0.00    -0.092 F 
ENDROOT
TORSDOF 0
ENDMDL
