MODEL 1
REMARK minimizedAffinity -3.44430518
REMARK minimizedRMSD -1
REMARK  1 active torsions:
REMARK  status: ('A' for Active; 'I' for Inactive)
REMARK    1  A    between atoms: C1_2  and  C2_3 
ROOT
ATOM      1  C2  UNL d   1      -1.060  -0.045   0.121  0.00  0.00    -0.073 A 
ATOM      2  C3  UNL d   1      -0.176   0.590   1.000  0.00  0.00    -0.002 A 
ATOM      3  C4  UNL d   1       1.121   0.905   0.591  0.00  0.00     0.004 A 
ATOM      4  C5  UNL d   1       1.544   0.596  -0.701  0.00  0.00    -0.004 A 
ATOM      5  C6  UNL d   1       0.671  -0.028  -1.599  0.00  0.00    -0.075 A 
ATOM      6  C7  UNL d   1       1.111  -0.369  -2.992  0.00  0.00     0.076 C 
ATOM      7  C8  UNL d   1      -0.628  -0.344  -1.180  0.00  0.00     0.001 A 
ENDROOT
BRANCH   1   8
ATOM      8  C1  UNL d   1      -2.463  -0.381   0.556  0.00  0.00     0.053 C 
ATOM      9  C   UNL d   1      -2.795   0.210   1.917  0.00  0.00     0.018 C 
ENDBRANCH   1   8
TORSDOF 1
ENDMDL
