MODEL 1
REMARK minimizedAffinity -4.15296888
REMARK minimizedRMSD -1
REMARK  1 active torsions:
REMARK  status: ('A' for Active; 'I' for Inactive)
REMARK    1  A    between atoms: C1_2  and  C2_3 
ROOT
ATOM      1  C2  UNL d   1      -0.782  -0.400   0.618  0.00  0.00    -0.073 A 
ATOM      2  C3  UNL d   1      -0.598  -1.722   1.040  0.00  0.00    -0.002 A 
ATOM      3  C4  UNL d   1       0.159  -2.608   0.272  0.00  0.00     0.004 A 
ATOM      4  C5  UNL d   1       0.744  -2.180  -0.919  0.00  0.00    -0.004 A 
ATOM      5  C6  UNL d   1       0.582  -0.860  -1.352  0.00  0.00    -0.075 A 
ATOM      6  C7  UNL d   1       1.203  -0.386  -2.632  0.00  0.00     0.076 C 
ATOM      7  C8  UNL d   1      -0.182   0.023  -0.576  0.00  0.00     0.001 A 
ENDROOT
BRANCH   1   8
ATOM      8  C1  UNL d   1      -1.593   0.562   1.447  0.00  0.00     0.053 C 
ATOM      9  C   UNL d   1      -2.988   0.030   1.735  0.00  0.00     0.018 C 
ENDBRANCH   1   8
TORSDOF 1
ENDMDL
