MODEL 1
REMARK minimizedAffinity 5.04311085
REMARK minimizedRMSD -1
REMARK  1 active torsions:
REMARK  status: ('A' for Active; 'I' for Inactive)
REMARK    1  A    between atoms: C1_2  and  C2_3 
ROOT
ATOM      1  C2  UNL d   1       0.502   1.121   1.544  0.00  0.00    -0.073 A 
ATOM      2  C3  UNL d   1       1.503   2.100   1.518  0.00  0.00    -0.002 A 
ATOM      3  C4  UNL d   1       2.213   2.412   2.678  0.00  0.00     0.004 A 
ATOM      4  C5  UNL d   1       1.937   1.746   3.872  0.00  0.00    -0.004 A 
ATOM      5  C6  UNL d   1       0.949   0.757   3.915  0.00  0.00    -0.075 A 
ATOM      6  C7  UNL d   1       0.638   0.032   5.192  0.00  0.00     0.076 C 
ATOM      7  C8  UNL d   1       0.238   0.450   2.747  0.00  0.00     0.001 A 
ENDROOT
BRANCH   1   8
ATOM      8  C1  UNL d   1      -0.263   0.776   0.293  0.00  0.00     0.053 C 
ATOM      9  C   UNL d   1      -0.006  -0.654  -0.156  0.00  0.00     0.018 C 
ENDBRANCH   1   8
TORSDOF 1
ENDMDL
