MODEL 1
REMARK minimizedAffinity -3.56650209
REMARK minimizedRMSD -1
REMARK  1 active torsions:
REMARK  status: ('A' for Active; 'I' for Inactive)
REMARK    1  A    between atoms: C1_2  and  C2_3 
ROOT
ATOM      1  C2  UNL d   1       1.763   1.973   1.438  0.00  0.00    -0.073 A 
ATOM      2  C3  UNL d   1       2.449   3.132   1.815  0.00  0.00    -0.002 A 
ATOM      3  C4  UNL d   1       2.692   3.401   3.163  0.00  0.00     0.004 A 
ATOM      4  C5  UNL d   1       2.258   2.511   4.145  0.00  0.00    -0.004 A 
ATOM      5  C6  UNL d   1       1.580   1.341   3.787  0.00  0.00    -0.075 A 
ATOM      6  C7  UNL d   1       1.105   0.375   4.832  0.00  0.00     0.076 C 
ATOM      7  C8  UNL d   1       1.338   1.080   2.432  0.00  0.00     0.001 A 
ENDROOT
BRANCH   1   8
ATOM      8  C1  UNL d   1       1.504   1.675  -0.016  0.00  0.00     0.053 C 
ATOM      9  C   UNL d   1       0.372   0.677  -0.201  0.00  0.00     0.018 C 
ENDBRANCH   1   8
TORSDOF 1
ENDMDL
