MODEL 1
REMARK minimizedAffinity -2.86385751
REMARK minimizedRMSD -1
REMARK  1 active torsions:
REMARK  status: ('A' for Active; 'I' for Inactive)
REMARK    1  A    between atoms: C1_2  and  C2_3 
ROOT
ATOM      1  C2  UNL d   1      -0.650   0.996   3.105  0.00  0.00    -0.073 A 
ATOM      2  C3  UNL d   1      -1.206   0.106   2.178  0.00  0.00    -0.002 A 
ATOM      3  C4  UNL d   1      -2.560   0.185   1.850  0.00  0.00     0.004 A 
ATOM      4  C5  UNL d   1      -3.370   1.156   2.439  0.00  0.00    -0.004 A 
ATOM      5  C6  UNL d   1      -2.830   2.061   3.359  0.00  0.00    -0.075 A 
ATOM      6  C7  UNL d   1      -3.689   3.110   4.003  0.00  0.00     0.076 C 
ATOM      7  C8  UNL d   1      -1.470   1.974   3.685  0.00  0.00     0.001 A 
ENDROOT
BRANCH   1   8
ATOM      8  C1  UNL d   1       0.813   0.919   3.457  0.00  0.00     0.053 C 
ATOM      9  C   UNL d   1       1.607   2.062   2.846  0.00  0.00     0.018 C 
ENDBRANCH   1   8
TORSDOF 1
ENDMDL
