MODEL 1
REMARK minimizedAffinity -4.76071644
REMARK minimizedRMSD -1
REMARK  1 active torsions:
REMARK  status: ('A' for Active; 'I' for Inactive)
REMARK    1  A    between atoms: C1_2  and  C2_3 
ROOT
ATOM      1  C2  UNL d   1       0.837   1.063   0.714  0.00  0.00    -0.073 A 
ATOM      2  C3  UNL d   1      -0.091   0.076   1.067  0.00  0.00    -0.002 A 
ATOM      3  C4  UNL d   1      -0.437  -0.924   0.157  0.00  0.00     0.004 A 
ATOM      4  C5  UNL d   1       0.146  -0.953  -1.110  0.00  0.00    -0.004 A 
ATOM      5  C6  UNL d   1       1.084   0.017  -1.477  0.00  0.00    -0.075 A 
ATOM      6  C7  UNL d   1       1.719   0.001  -2.836  0.00  0.00     0.076 C 
ATOM      7  C8  UNL d   1       1.424   1.020  -0.559  0.00  0.00     0.001 A 
ENDROOT
BRANCH   1   8
ATOM      8  C1  UNL d   1       1.218   2.141   1.695  0.00  0.00     0.053 C 
ATOM      9  C   UNL d   1       1.619   1.568   3.045  0.00  0.00     0.018 C 
ENDBRANCH   1   8
TORSDOF 1
ENDMDL
