MODEL 1
REMARK minimizedAffinity -2.9411912
REMARK minimizedRMSD -1
REMARK  1 active torsions:
REMARK  status: ('A' for Active; 'I' for Inactive)
REMARK    1  A    between atoms: C1_2  and  C2_3 
ROOT
ATOM      1  C2  UNL d   1      -0.563  -0.528   0.418  0.00  0.00    -0.073 A 
ATOM      2  C3  UNL d   1      -0.492  -1.918   0.558  0.00  0.00    -0.002 A 
ATOM      3  C4  UNL d   1       0.256  -2.680  -0.341  0.00  0.00     0.004 A 
ATOM      4  C5  UNL d   1       0.945  -2.060  -1.383  0.00  0.00    -0.004 A 
ATOM      5  C6  UNL d   1       0.895  -0.670  -1.533  0.00  0.00    -0.075 A 
ATOM      6  C7  UNL d   1       1.628   0.012  -2.651  0.00  0.00     0.076 C 
ATOM      7  C8  UNL d   1       0.140   0.087  -0.628  0.00  0.00     0.001 A 
ENDROOT
BRANCH   1   8
ATOM      8  C1  UNL d   1      -1.364   0.300   1.389  0.00  0.00     0.053 C 
ATOM      9  C   UNL d   1      -2.849  -0.020   1.321  0.00  0.00     0.018 C 
ENDBRANCH   1   8
TORSDOF 1
ENDMDL
