MODEL 1
REMARK minimizedAffinity 1.38170481
REMARK minimizedRMSD -1
REMARK  1 active torsions:
REMARK  status: ('A' for Active; 'I' for Inactive)
REMARK    1  A    between atoms: C1_2  and  C2_3 
ROOT
ATOM      1  C2  UNL d   1      -0.089   0.852   2.618  0.00  0.00    -0.073 A 
ATOM      2  C3  UNL d   1      -1.372   1.369   2.833  0.00  0.00    -0.002 A 
ATOM      3  C4  UNL d   1      -2.437   0.970   2.025  0.00  0.00     0.004 A 
ATOM      4  C5  UNL d   1      -2.233   0.046   1.000  0.00  0.00    -0.004 A 
ATOM      5  C6  UNL d   1      -0.961  -0.491   0.777  0.00  0.00    -0.075 A 
ATOM      6  C7  UNL d   1      -0.724  -1.483  -0.323  0.00  0.00     0.076 C 
ATOM      7  C8  UNL d   1       0.104  -0.083   1.591  0.00  0.00     0.001 A 
ENDROOT
BRANCH   1   8
ATOM      8  C1  UNL d   1       1.062   1.276   3.493  0.00  0.00     0.053 C 
ATOM      9  C   UNL d   1       2.011   2.219   2.769  0.00  0.00     0.018 C 
ENDBRANCH   1   8
TORSDOF 1
ENDMDL
