MODEL 1
REMARK minimizedAffinity -2.67538309
REMARK minimizedRMSD -1
REMARK  1 active torsions:
REMARK  status: ('A' for Active; 'I' for Inactive)
REMARK    1  A    between atoms: C1_2  and  C2_3 
ROOT
ATOM      1  C2  UNL d   1       2.350   0.740  -1.125  0.00  0.00    -0.073 A 
ATOM      2  C3  UNL d   1       2.088   0.041  -2.309  0.00  0.00    -0.002 A 
ATOM      3  C4  UNL d   1       0.856  -0.585  -2.501  0.00  0.00     0.004 A 
ATOM      4  C5  UNL d   1      -0.129  -0.513  -1.515  0.00  0.00    -0.004 A 
ATOM      5  C6  UNL d   1       0.110   0.190  -0.330  0.00  0.00    -0.075 A 
ATOM      6  C7  UNL d   1      -0.938   0.275   0.741  0.00  0.00     0.076 C 
ATOM      7  C8  UNL d   1       1.351   0.814  -0.144  0.00  0.00     0.001 A 
ENDROOT
BRANCH   1   8
ATOM      8  C1  UNL d   1       3.677   1.423  -0.917  0.00  0.00     0.053 C 
ATOM      9  C   UNL d   1       4.834   0.437  -0.935  0.00  0.00     0.018 C 
ENDBRANCH   1   8
TORSDOF 1
ENDMDL
