MODEL 1
REMARK minimizedAffinity -5.92252302
REMARK minimizedRMSD -1
REMARK  1 active torsions:
REMARK  status: ('A' for Active; 'I' for Inactive)
REMARK    1  A    between atoms: C1_2  and  C2_3 
ROOT
ATOM      1  C2  UNL d   1      -0.929   0.697   2.615  0.00  0.00    -0.073 A 
ATOM      2  C3  UNL d   1      -1.717  -0.033   1.719  0.00  0.00    -0.002 A 
ATOM      3  C4  UNL d   1      -3.092   0.196   1.641  0.00  0.00     0.004 A 
ATOM      4  C5  UNL d   1      -3.690   1.161   2.451  0.00  0.00    -0.004 A 
ATOM      5  C6  UNL d   1      -2.917   1.909   3.345  0.00  0.00    -0.075 A 
ATOM      6  C7  UNL d   1      -3.545   2.949   4.225  0.00  0.00     0.076 C 
ATOM      7  C8  UNL d   1      -1.538   1.672   3.419  0.00  0.00     0.001 A 
ENDROOT
BRANCH   1   8
ATOM      8  C1  UNL d   1       0.557   0.458   2.699  0.00  0.00     0.053 C 
ATOM      9  C   UNL d   1       1.260   1.525   3.522  0.00  0.00     0.018 C 
ENDBRANCH   1   8
TORSDOF 1
ENDMDL
