MODEL 1
REMARK minimizedAffinity -5.17981243
REMARK minimizedRMSD -1
REMARK  1 active torsions:
REMARK  status: ('A' for Active; 'I' for Inactive)
REMARK    1  A    between atoms: C1_2  and  C2_3 
ROOT
ATOM      1  C2  UNL d   1       0.123  -0.138  -0.063  0.00  0.00    -0.073 A 
ATOM      2  C3  UNL d   1       0.662   1.061   0.417  0.00  0.00    -0.002 A 
ATOM      3  C4  UNL d   1       1.629   1.744  -0.322  0.00  0.00     0.004 A 
ATOM      4  C5  UNL d   1       2.060   1.241  -1.549  0.00  0.00    -0.004 A 
ATOM      5  C6  UNL d   1       1.524   0.050  -2.051  0.00  0.00    -0.075 A 
ATOM      6  C7  UNL d   1       1.979  -0.506  -3.369  0.00  0.00     0.076 C 
ATOM      7  C8  UNL d   1       0.556  -0.632  -1.302  0.00  0.00     0.001 A 
ENDROOT
BRANCH   1   8
ATOM      8  C1  UNL d   1      -0.926  -0.876   0.728  0.00  0.00     0.053 C 
ATOM      9  C   UNL d   1      -2.074   0.032   1.140  0.00  0.00     0.018 C 
ENDBRANCH   1   8
TORSDOF 1
ENDMDL
