MODEL 1
REMARK minimizedAffinity -2.26898384
REMARK minimizedRMSD -1
REMARK  1 active torsions:
REMARK  status: ('A' for Active; 'I' for Inactive)
REMARK    1  A    between atoms: C1_2  and  C2_3 
ROOT
ATOM      1  C2  UNL d   1       0.018   0.587   2.644  0.00  0.00    -0.073 A 
ATOM      2  C3  UNL d   1       0.310  -0.058   1.436  0.00  0.00    -0.002 A 
ATOM      3  C4  UNL d   1      -0.707  -0.337   0.522  0.00  0.00     0.004 A 
ATOM      4  C5  UNL d   1      -2.023   0.031   0.802  0.00  0.00    -0.004 A 
ATOM      5  C6  UNL d   1      -2.333   0.687   1.998  0.00  0.00    -0.075 A 
ATOM      6  C7  UNL d   1      -3.744   1.088   2.315  0.00  0.00     0.076 C 
ATOM      7  C8  UNL d   1      -1.307   0.961   2.912  0.00  0.00     0.001 A 
ENDROOT
BRANCH   1   8
ATOM      8  C1  UNL d   1       1.113   0.896   3.631  0.00  0.00     0.053 C 
ATOM      9  C   UNL d   1       1.949   2.091   3.200  0.00  0.00     0.018 C 
ENDBRANCH   1   8
TORSDOF 1
ENDMDL
