MODEL 1
REMARK minimizedAffinity -2.89240217
REMARK minimizedRMSD -1
REMARK  1 active torsions:
REMARK  status: ('A' for Active; 'I' for Inactive)
REMARK    1  A    between atoms: C1_2  and  C2_3 
ROOT
ATOM      1  C2  UNL d   1       1.325   1.090  -0.231  0.00  0.00    -0.073 A 
ATOM      2  C3  UNL d   1       0.163   0.563   0.345  0.00  0.00    -0.002 A 
ATOM      3  C4  UNL d   1      -0.426  -0.587  -0.182  0.00  0.00     0.004 A 
ATOM      4  C5  UNL d   1       0.144  -1.226  -1.283  0.00  0.00    -0.004 A 
ATOM      5  C6  UNL d   1       1.312  -0.722  -1.864  0.00  0.00    -0.075 A 
ATOM      6  C7  UNL d   1       1.936  -1.397  -3.050  0.00  0.00     0.076 C 
ATOM      7  C8  UNL d   1       1.895   0.435  -1.331  0.00  0.00     0.001 A 
ENDROOT
BRANCH   1   8
ATOM      8  C1  UNL d   1       1.967   2.328   0.338  0.00  0.00     0.053 C 
ATOM      9  C   UNL d   1       2.201   2.212   1.836  0.00  0.00     0.018 C 
ENDBRANCH   1   8
TORSDOF 1
ENDMDL
