MODEL 1
REMARK minimizedAffinity -0.907079577
REMARK minimizedRMSD -1
REMARK  0 active torsions:
REMARK  status: ('A' for Active; 'I' for Inactive)
ROOT
ATOM      1  C1  BNZ d   1       0.876  -5.990  -3.563  0.00  0.00     0.000 A 
ATOM      2  C2  BNZ d   1       1.608  -5.967  -4.720  0.00  0.00     0.000 A 
ATOM      3  C3  BNZ d   1       0.989  -5.931  -5.939  0.00  0.00     0.000 A 
ATOM      4  C4  BNZ d   1      -0.358  -5.957  -5.999  0.00  0.00     0.000 A 
ATOM      5  C5  BNZ d   1      -1.109  -5.990  -4.841  0.00  0.00     0.000 A 
ATOM      6  C6  BNZ d   1      -0.483  -5.987  -3.616  0.00  0.00     0.000 A 
ENDROOT
TORSDOF 0
ENDMDL
