MODEL 1
REMARK minimizedAffinity -1.91144633
REMARK minimizedRMSD -1
REMARK  0 active torsions:
REMARK  status: ('A' for Active; 'I' for Inactive)
ROOT
ATOM      1  C1  BNZ d   1       0.254  -5.852  -5.812  0.00  0.00     0.000 A 
ATOM      2  C2  BNZ d   1       0.772  -5.906  -4.546  0.00  0.00     0.000 A 
ATOM      3  C3  BNZ d   1      -0.049  -6.000  -3.457  0.00  0.00     0.000 A 
ATOM      4  C4  BNZ d   1      -1.386  -5.998  -3.633  0.00  0.00     0.000 A 
ATOM      5  C5  BNZ d   1      -1.924  -5.934  -4.903  0.00  0.00     0.000 A 
ATOM      6  C6  BNZ d   1      -1.094  -5.880  -5.999  0.00  0.00     0.000 A 
ENDROOT
TORSDOF 0
ENDMDL
