MODEL 1
REMARK minimizedAffinity 0.00694551086
REMARK minimizedRMSD -1
REMARK  0 active torsions:
REMARK  status: ('A' for Active; 'I' for Inactive)
ROOT
ATOM      1  C1  BNZ d   1      -1.168  -5.998  -3.621  0.00  0.00     0.000 A 
ATOM      2  C2  BNZ d   1      -1.823  -5.993  -4.824  0.00  0.00     0.000 A 
ATOM      3  C3  BNZ d   1      -1.126  -5.998  -6.000  0.00  0.00     0.000 A 
ATOM      4  C4  BNZ d   1       0.222  -5.969  -5.972  0.00  0.00     0.000 A 
ATOM      5  C5  BNZ d   1       0.896  -5.966  -4.767  0.00  0.00     0.000 A 
ATOM      6  C6  BNZ d   1       0.192  -5.999  -3.586  0.00  0.00     0.000 A 
ENDROOT
TORSDOF 0
ENDMDL
