MODEL 1
REMARK minimizedAffinity -0.352197766
REMARK minimizedRMSD -1
REMARK  0 active torsions:
REMARK  status: ('A' for Active; 'I' for Inactive)
ROOT
ATOM      1  C1  BNZ d   1       0.035  -5.999  -2.963  0.00  0.00     0.000 A 
ATOM      2  C2  BNZ d   1       1.053  -5.996  -3.880  0.00  0.00     0.000 A 
ATOM      3  C3  BNZ d   1       0.787  -5.970  -5.220  0.00  0.00     0.000 A 
ATOM      4  C4  BNZ d   1      -0.494  -5.988  -5.643  0.00  0.00     0.000 A 
ATOM      5  C5  BNZ d   1      -1.531  -6.000  -4.731  0.00  0.00     0.000 A 
ATOM      6  C6  BNZ d   1      -1.260  -5.986  -3.382  0.00  0.00     0.000 A 
ENDROOT
TORSDOF 0
ENDMDL
