MODEL 1
REMARK minimizedAffinity 0.368680954
REMARK minimizedRMSD -1
REMARK  0 active torsions:
REMARK  status: ('A' for Active; 'I' for Inactive)
ROOT
ATOM      1  C1  BNZ d   1      -0.883  -5.974  -3.557  0.00  0.00     0.000 A 
ATOM      2  C2  BNZ d   1       0.482  -5.929  -3.657  0.00  0.00     0.000 A 
ATOM      3  C3  BNZ d   1       1.093  -5.895  -4.880  0.00  0.00     0.000 A 
ATOM      4  C4  BNZ d   1       0.341  -5.945  -5.998  0.00  0.00     0.000 A 
ATOM      5  C5  BNZ d   1      -1.036  -6.000  -5.913  0.00  0.00     0.000 A 
ATOM      6  C6  BNZ d   1      -1.649  -5.995  -4.682  0.00  0.00     0.000 A 
ENDROOT
TORSDOF 0
ENDMDL
