MODEL 1
REMARK minimizedAffinity -1.06853235
REMARK minimizedRMSD -1
REMARK  0 active torsions:
REMARK  status: ('A' for Active; 'I' for Inactive)
ROOT
ATOM      1  C1  BNZ d   1      -3.524  -6.000  -0.580  0.00  0.00     0.000 A 
ATOM      2  C2  BNZ d   1      -3.080  -5.996  -1.875  0.00  0.00     0.000 A 
ATOM      3  C3  BNZ d   1      -3.964  -5.969  -2.918  0.00  0.00     0.000 A 
ATOM      4  C4  BNZ d   1      -5.289  -5.986  -2.665  0.00  0.00     0.000 A 
ATOM      5  C5  BNZ d   1      -5.752  -5.999  -1.364  0.00  0.00     0.000 A 
ATOM      6  C6  BNZ d   1      -4.859  -5.987  -0.317  0.00  0.00     0.000 A 
ENDROOT
TORSDOF 0
ENDMDL
