MODEL 1
REMARK minimizedAffinity -2.25100923
REMARK minimizedRMSD -1
REMARK  0 active torsions:
REMARK  status: ('A' for Active; 'I' for Inactive)
ROOT
ATOM      1  C1  BNZ d   1       1.874  -0.091   0.077  0.00  0.00     0.000 A 
ATOM      2  C2  BNZ d   1       2.039  -1.428   0.325  0.00  0.00     0.000 A 
ATOM      3  C3  BNZ d   1       0.977  -2.210   0.681  0.00  0.00     0.000 A 
ATOM      4  C4  BNZ d   1      -0.241  -1.648   0.827  0.00  0.00     0.000 A 
ATOM      5  C5  BNZ d   1      -0.421  -0.300   0.590  0.00  0.00     0.000 A 
ATOM      6  C6  BNZ d   1       0.643   0.477   0.194  0.00  0.00     0.000 A 
ENDROOT
TORSDOF 0
ENDMDL
