MODEL 1
REMARK minimizedAffinity -1.90568721
REMARK minimizedRMSD -1
REMARK  0 active torsions:
REMARK  status: ('A' for Active; 'I' for Inactive)
ROOT
ATOM      1  C1  BNZ d   1      -0.943  -6.000  -3.597  0.00  0.00     0.000 A 
ATOM      2  C2  BNZ d   1      -1.642  -5.978  -4.774  0.00  0.00     0.000 A 
ATOM      3  C3  BNZ d   1      -0.990  -5.967  -5.975  0.00  0.00     0.000 A 
ATOM      4  C4  BNZ d   1       0.359  -5.937  -5.997  0.00  0.00     0.000 A 
ATOM      5  C5  BNZ d   1       1.078  -5.950  -4.819  0.00  0.00     0.000 A 
ATOM      6  C6  BNZ d   1       0.418  -6.000  -3.612  0.00  0.00     0.000 A 
ENDROOT
TORSDOF 0
ENDMDL
