MODEL 1
REMARK minimizedAffinity 1.63264728
REMARK minimizedRMSD -1
REMARK  0 active torsions:
REMARK  status: ('A' for Active; 'I' for Inactive)
ROOT
ATOM      1  C1  BNZ d   1       2.225  -1.248   0.715  0.00  0.00     0.000 A 
ATOM      2  C2  BNZ d   1       1.813  -2.519   1.015  0.00  0.00     0.000 A 
ATOM      3  C3  BNZ d   1       0.483  -2.825   1.090  0.00  0.00     0.000 A 
ATOM      4  C4  BNZ d   1      -0.432  -1.851   0.905  0.00  0.00     0.000 A 
ATOM      5  C5  BNZ d   1      -0.033  -0.563   0.612  0.00  0.00     0.000 A 
ATOM      6  C6  BNZ d   1       1.306  -0.268   0.498  0.00  0.00     0.000 A 
ENDROOT
TORSDOF 0
ENDMDL
