MODEL 1
REMARK minimizedAffinity -1.83574116
REMARK minimizedRMSD -1
REMARK  0 active torsions:
REMARK  status: ('A' for Active; 'I' for Inactive)
ROOT
ATOM      1  C1  BNZ d   1      -0.750  -1.372   0.000  0.00  0.00     0.000 A 
ATOM      2  C2  BNZ d   1      -0.879  -2.733   0.068  0.00  0.00     0.000 A 
ATOM      3  C3  BNZ d   1      -0.075  -3.473   0.890  0.00  0.00     0.000 A 
ATOM      4  C4  BNZ d   1       0.882  -2.855   1.612  0.00  0.00     0.000 A 
ATOM      5  C5  BNZ d   1       1.031  -1.484   1.548  0.00  0.00     0.000 A 
ATOM      6  C6  BNZ d   1       0.194  -0.739   0.749  0.00  0.00     0.000 A 
ENDROOT
TORSDOF 0
ENDMDL
