MODEL 1
REMARK minimizedAffinity -2.21762991
REMARK minimizedRMSD -1
REMARK  0 active torsions:
REMARK  status: ('A' for Active; 'I' for Inactive)
ROOT
ATOM      1  C1  BNZ d   1      -0.011  -0.972   0.480  0.00  0.00     0.000 A 
ATOM      2  C2  BNZ d   1      -0.199  -2.316   0.661  0.00  0.00     0.000 A 
ATOM      3  C3  BNZ d   1       0.798  -3.100   1.172  0.00  0.00     0.000 A 
ATOM      4  C4  BNZ d   1       1.993  -2.546   1.462  0.00  0.00     0.000 A 
ATOM      5  C5  BNZ d   1       2.201  -1.194   1.277  0.00  0.00     0.000 A 
ATOM      6  C6  BNZ d   1       1.182  -0.402   0.800  0.00  0.00     0.000 A 
ENDROOT
TORSDOF 0
ENDMDL
