MODEL 1
REMARK minimizedAffinity -1.99780548
REMARK minimizedRMSD -1
REMARK  0 active torsions:
REMARK  status: ('A' for Active; 'I' for Inactive)
ROOT
ATOM      1  C1  BNZ d   1      -1.343  -5.906  -5.938  0.00  0.00     0.000 A 
ATOM      2  C2  BNZ d   1      -2.030  -5.972  -4.755  0.00  0.00     0.000 A 
ATOM      3  C3  BNZ d   1      -1.366  -5.999  -3.561  0.00  0.00     0.000 A 
ATOM      4  C4  BNZ d   1      -0.018  -5.999  -3.551  0.00  0.00     0.000 A 
ATOM      5  C5  BNZ d   1       0.690  -5.942  -4.736  0.00  0.00     0.000 A 
ATOM      6  C6  BNZ d   1       0.018  -5.876  -5.935  0.00  0.00     0.000 A 
ENDROOT
TORSDOF 0
ENDMDL
