MODEL 1
REMARK minimizedAffinity -3.53190899
REMARK minimizedRMSD -1
REMARK  0 active torsions:
REMARK  status: ('A' for Active; 'I' for Inactive)
ROOT
ATOM      1  C1  BNZ d   1      -2.145  -5.644  -4.770  0.00  0.00     0.000 A 
ATOM      2  C2  BNZ d   1      -1.327  -5.190  -5.769  0.00  0.00     0.000 A 
ATOM      3  C3  BNZ d   1       0.024  -5.099  -5.581  0.00  0.00     0.000 A 
ATOM      4  C4  BNZ d   1       0.549  -5.422  -4.381  0.00  0.00     0.000 A 
ATOM      5  C5  BNZ d   1      -0.264  -5.872  -3.360  0.00  0.00     0.000 A 
ATOM      6  C6  BNZ d   1      -1.618  -6.000  -3.567  0.00  0.00     0.000 A 
ENDROOT
TORSDOF 0
ENDMDL
