MODEL 1
REMARK minimizedAffinity -1.05492866
REMARK minimizedRMSD -1
REMARK  0 active torsions:
REMARK  status: ('A' for Active; 'I' for Inactive)
ROOT
ATOM      1  C1  BNZ d   1      -0.317  -5.828  -3.437  0.00  0.00     0.000 A 
ATOM      2  C2  BNZ d   1      -1.162  -6.000  -4.501  0.00  0.00     0.000 A 
ATOM      3  C3  BNZ d   1      -0.686  -5.988  -5.782  0.00  0.00     0.000 A 
ATOM      4  C4  BNZ d   1       0.626  -5.765  -6.000  0.00  0.00     0.000 A 
ATOM      5  C5  BNZ d   1       1.490  -5.581  -4.938  0.00  0.00     0.000 A 
ATOM      6  C6  BNZ d   1       1.013  -5.632  -3.648  0.00  0.00     0.000 A 
ENDROOT
TORSDOF 0
ENDMDL
