MODEL 1
REMARK minimizedAffinity -1.57273078
REMARK minimizedRMSD -1
REMARK  0 active torsions:
REMARK  status: ('A' for Active; 'I' for Inactive)
ROOT
ATOM      1  C1  BNZ d   1      -0.212  -5.998  -2.902  0.00  0.00     0.000 A 
ATOM      2  C2  BNZ d   1      -1.204  -5.999  -3.846  0.00  0.00     0.000 A 
ATOM      3  C3  BNZ d   1      -0.903  -6.000  -5.179  0.00  0.00     0.000 A 
ATOM      4  C4  BNZ d   1       0.388  -5.959  -5.567  0.00  0.00     0.000 A 
ATOM      5  C5  BNZ d   1       1.400  -5.948  -4.628  0.00  0.00     0.000 A 
ATOM      6  C6  BNZ d   1       1.094  -5.987  -3.287  0.00  0.00     0.000 A 
ENDROOT
TORSDOF 0
ENDMDL
