MODEL 1
REMARK minimizedAffinity -1.98254323
REMARK minimizedRMSD -1
REMARK  0 active torsions:
REMARK  status: ('A' for Active; 'I' for Inactive)
ROOT
ATOM      1  C1  BNZ d   1       1.500  -5.281  -2.270  0.00  0.00     0.000 A 
ATOM      2  C2  BNZ d   1       1.501  -5.659  -3.586  0.00  0.00     0.000 A 
ATOM      3  C3  BNZ d   1       0.337  -5.999  -4.217  0.00  0.00     0.000 A 
ATOM      4  C4  BNZ d   1      -0.819  -6.000  -3.522  0.00  0.00     0.000 A 
ATOM      5  C5  BNZ d   1      -0.834  -5.631  -2.191  0.00  0.00     0.000 A 
ATOM      6  C6  BNZ d   1       0.333  -5.251  -1.570  0.00  0.00     0.000 A 
ENDROOT
TORSDOF 0
ENDMDL
