MODEL 1
REMARK minimizedAffinity 1.32402122
REMARK minimizedRMSD -1
REMARK  0 active torsions:
REMARK  status: ('A' for Active; 'I' for Inactive)
ROOT
ATOM      1  C1  BNZ d   1       0.309  -5.992  -2.567  0.00  0.00     0.000 A 
ATOM      2  C2  BNZ d   1       1.401  -6.000  -3.393  0.00  0.00     0.000 A 
ATOM      3  C3  BNZ d   1       1.252  -5.982  -4.751  0.00  0.00     0.000 A 
ATOM      4  C4  BNZ d   1       0.013  -5.997  -5.283  0.00  0.00     0.000 A 
ATOM      5  C5  BNZ d   1      -1.099  -5.999  -4.464  0.00  0.00     0.000 A 
ATOM      6  C6  BNZ d   1      -0.945  -5.978  -3.096  0.00  0.00     0.000 A 
ENDROOT
TORSDOF 0
ENDMDL
