MODEL 1
REMARK minimizedAffinity 1.36532652
REMARK minimizedRMSD -1
REMARK  2 active torsions:
REMARK  status: ('A' for Active; 'I' for Inactive)
REMARK    1  A    between atoms: C1_2  and  C2_3 
REMARK    2  A    between atoms: C2_3  and  C3_4 
ROOT
ATOM      1  C3  UNL d   1       2.711   5.033   5.491  0.00  0.00    -0.075 A 
ATOM      2  C4  UNL d   1       2.866   3.728   5.981  0.00  0.00     0.002 A 
ATOM      3  C5  UNL d   1       3.930   2.933   5.555  0.00  0.00     0.002 A 
ATOM      4  C6  UNL d   1       4.844   3.426   4.626  0.00  0.00    -0.004 A 
ATOM      5  C7  UNL d   1       4.690   4.715   4.120  0.00  0.00     0.002 A 
ATOM      6  C8  UNL d   1       3.629   5.515   4.548  0.00  0.00     0.002 A 
ENDROOT
BRANCH   1   7
ATOM      7  C2  UNL d   1       1.579   5.910   5.971  0.00  0.00     0.056 C 
BRANCH   7   8
ATOM      8  C1  UNL d   1       0.194   5.267   5.840  0.00  0.00     0.007 C 
ATOM      9  C   UNL d   1      -0.694   5.957   4.813  0.00  0.00     0.009 C 
ENDBRANCH   7   8
ENDBRANCH   1   7
TORSDOF 2
ENDMDL
