MODEL 1
REMARK minimizedAffinity 2.34236097
REMARK minimizedRMSD -1
REMARK  2 active torsions:
REMARK  status: ('A' for Active; 'I' for Inactive)
REMARK    1  A    between atoms: C1_2  and  C2_3 
REMARK    2  A    between atoms: C2_3  and  C3_4 
ROOT
ATOM      1  C3  UNL d   1       1.989   4.523   5.369  0.00  0.00    -0.075 A 
ATOM      2  C4  UNL d   1       0.730   4.530   5.987  0.00  0.00     0.002 A 
ATOM      3  C5  UNL d   1      -0.348   5.185   5.391  0.00  0.00     0.002 A 
ATOM      4  C6  UNL d   1      -0.179   5.849   4.177  0.00  0.00    -0.004 A 
ATOM      5  C7  UNL d   1       1.071   5.862   3.563  0.00  0.00     0.002 A 
ATOM      6  C8  UNL d   1       2.150   5.204   4.155  0.00  0.00     0.002 A 
ENDROOT
BRANCH   1   7
ATOM      7  C2  UNL d   1       3.152   3.791   5.995  0.00  0.00     0.056 C 
BRANCH   7   8
ATOM      8  C1  UNL d   1       3.008   2.265   5.983  0.00  0.00     0.007 C 
ATOM      9  C   UNL d   1       4.345   1.536   5.993  0.00  0.00     0.009 C 
ENDBRANCH   7   8
ENDBRANCH   1   7
TORSDOF 2
ENDMDL
