MODEL 1
REMARK minimizedAffinity 0.873890638
REMARK minimizedRMSD -1
REMARK  2 active torsions:
REMARK  status: ('A' for Active; 'I' for Inactive)
REMARK    1  A    between atoms: C1_2  and  C2_3 
REMARK    2  A    between atoms: C2_3  and  C3_4 
ROOT
ATOM      1  C3  UNL d   1       3.009   3.736   5.793  0.00  0.00    -0.075 A 
ATOM      2  C4  UNL d   1       2.597   2.411   5.999  0.00  0.00     0.002 A 
ATOM      3  C5  UNL d   1       3.495   1.356   5.834  0.00  0.00     0.002 A 
ATOM      4  C6  UNL d   1       4.810   1.610   5.450  0.00  0.00    -0.004 A 
ATOM      5  C7  UNL d   1       5.225   2.921   5.225  0.00  0.00     0.002 A 
ATOM      6  C8  UNL d   1       4.330   3.979   5.395  0.00  0.00     0.002 A 
ENDROOT
BRANCH   1   7
ATOM      7  C2  UNL d   1       2.050   4.884   5.999  0.00  0.00     0.056 C 
BRANCH   7   8
ATOM      8  C1  UNL d   1       1.383   5.379   4.712  0.00  0.00     0.007 C 
ATOM      9  C   UNL d   1       0.012   6.000   4.946  0.00  0.00     0.009 C 
ENDBRANCH   7   8
ENDBRANCH   1   7
TORSDOF 2
ENDMDL
