MODEL 1
REMARK minimizedAffinity 4.90839577
REMARK minimizedRMSD -1
REMARK  2 active torsions:
REMARK  status: ('A' for Active; 'I' for Inactive)
REMARK    1  A    between atoms: C1_2  and  C2_3 
REMARK    2  A    between atoms: C2_3  and  C3_4 
ROOT
ATOM      1  C3  UNL d   1      -4.156   2.026   2.362  0.00  0.00    -0.075 A 
ATOM      2  C4  UNL d   1      -5.136   1.922   3.360  0.00  0.00     0.002 A 
ATOM      3  C5  UNL d   1      -5.355   2.974   4.250  0.00  0.00     0.002 A 
ATOM      4  C6  UNL d   1      -4.592   4.136   4.162  0.00  0.00    -0.004 A 
ATOM      5  C7  UNL d   1      -3.605   4.244   3.185  0.00  0.00     0.002 A 
ATOM      6  C8  UNL d   1      -3.386   3.195   2.289  0.00  0.00     0.002 A 
ENDROOT
BRANCH   1   7
ATOM      7  C2  UNL d   1      -3.935   0.904   1.376  0.00  0.00     0.056 C 
BRANCH   7   8
ATOM      8  C1  UNL d   1      -5.217   0.402   0.704  0.00  0.00     0.007 C 
ATOM      9  C   UNL d   1      -4.957  -0.377  -0.578  0.00  0.00     0.009 C 
ENDBRANCH   7   8
ENDBRANCH   1   7
TORSDOF 2
ENDMDL
