MODEL 1
REMARK minimizedAffinity -0.541096151
REMARK minimizedRMSD -1
REMARK  2 active torsions:
REMARK  status: ('A' for Active; 'I' for Inactive)
REMARK    1  A    between atoms: C1_2  and  C2_3 
REMARK    2  A    between atoms: C2_3  and  C3_4 
ROOT
ATOM      1  C3  UNL d   1       3.944   0.541  -0.327  0.00  0.00    -0.075 A 
ATOM      2  C4  UNL d   1       4.880   0.548   0.718  0.00  0.00     0.002 A 
ATOM      3  C5  UNL d   1       5.580   1.713   1.034  0.00  0.00     0.002 A 
ATOM      4  C6  UNL d   1       5.361   2.880   0.305  0.00  0.00    -0.004 A 
ATOM      5  C7  UNL d   1       4.446   2.880  -0.746  0.00  0.00     0.002 A 
ATOM      6  C8  UNL d   1       3.741   1.717  -1.061  0.00  0.00     0.002 A 
ENDROOT
BRANCH   1   7
ATOM      7  C2  UNL d   1       3.161  -0.708  -0.654  0.00  0.00     0.056 C 
BRANCH   7   8
ATOM      8  C1  UNL d   1       3.233  -1.791   0.428  0.00  0.00     0.007 C 
ATOM      9  C   UNL d   1       2.129  -2.833   0.309  0.00  0.00     0.009 C 
ENDBRANCH   7   8
ENDBRANCH   1   7
TORSDOF 2
ENDMDL
