MODEL 1
REMARK minimizedAffinity 8.31687546
REMARK minimizedRMSD -1
REMARK  2 active torsions:
REMARK  status: ('A' for Active; 'I' for Inactive)
REMARK    1  A    between atoms: C1_2  and  C2_3 
REMARK    2  A    between atoms: C2_3  and  C3_4 
ROOT
ATOM      1  C3  UNL d   1       3.655   1.001  -0.221  0.00  0.00    -0.075 A 
ATOM      2  C4  UNL d   1       4.982   0.548  -0.218  0.00  0.00     0.002 A 
ATOM      3  C5  UNL d   1       6.000   1.342   0.311  0.00  0.00     0.002 A 
ATOM      4  C6  UNL d   1       5.706   2.600   0.833  0.00  0.00    -0.004 A 
ATOM      5  C7  UNL d   1       4.394   3.067   0.819  0.00  0.00     0.002 A 
ATOM      6  C8  UNL d   1       3.373   2.273   0.295  0.00  0.00     0.002 A 
ENDROOT
BRANCH   1   7
ATOM      7  C2  UNL d   1       2.544   0.134  -0.765  0.00  0.00     0.056 C 
BRANCH   7   8
ATOM      8  C1  UNL d   1       2.536  -1.293  -0.208  0.00  0.00     0.007 C 
ATOM      9  C   UNL d   1       1.772  -2.276  -1.084  0.00  0.00     0.009 C 
ENDBRANCH   7   8
ENDBRANCH   1   7
TORSDOF 2
ENDMDL
