MODEL 1
REMARK minimizedAffinity 4.68755865
REMARK minimizedRMSD -1
REMARK  2 active torsions:
REMARK  status: ('A' for Active; 'I' for Inactive)
REMARK    1  A    between atoms: C1_2  and  C2_3 
REMARK    2  A    between atoms: C2_3  and  C3_4 
ROOT
ATOM      1  C3  UNL d   1       2.854   4.061   5.974  0.00  0.00    -0.075 A 
ATOM      2  C4  UNL d   1       1.814   3.121   5.980  0.00  0.00     0.002 A 
ATOM      3  C5  UNL d   1       2.096   1.754   5.996  0.00  0.00     0.002 A 
ATOM      4  C6  UNL d   1       3.417   1.312   5.995  0.00  0.00    -0.004 A 
ATOM      5  C7  UNL d   1       4.457   2.237   5.973  0.00  0.00     0.002 A 
ATOM      6  C8  UNL d   1       4.179   3.605   5.962  0.00  0.00     0.002 A 
ENDROOT
BRANCH   1   7
ATOM      7  C2  UNL d   1       2.557   5.542   5.987  0.00  0.00     0.056 C 
BRANCH   7   8
ATOM      8  C1  UNL d   1       1.062   5.878   5.993  0.00  0.00     0.007 C 
ATOM      9  C   UNL d   1       0.449   5.913   4.599  0.00  0.00     0.009 C 
ENDBRANCH   7   8
ENDBRANCH   1   7
TORSDOF 2
ENDMDL
