MODEL 1
REMARK minimizedAffinity -0.587933362
REMARK minimizedRMSD -1
REMARK  0 active torsions:
REMARK  status: ('A' for Active; 'I' for Inactive)
ROOT
ATOM      1  C1  BNZ d   1       0.508   0.498   0.620  0.00  0.00     0.000 A 
ATOM      2  C2  BNZ d   1       0.159   1.813   0.777  0.00  0.00     0.000 A 
ATOM      3  C3  BNZ d   1      -0.151   2.311   2.012  0.00  0.00     0.000 A 
ATOM      4  C4  BNZ d   1      -0.150   1.487   3.079  0.00  0.00     0.000 A 
ATOM      5  C5  BNZ d   1       0.191   0.157   2.935  0.00  0.00     0.000 A 
ATOM      6  C6  BNZ d   1       0.540  -0.332   1.697  0.00  0.00     0.000 A 
ENDROOT
TORSDOF 0
ENDMDL
