MODEL 1
REMARK minimizedAffinity -4.24416161
REMARK minimizedRMSD -1
REMARK  0 active torsions:
REMARK  status: ('A' for Active; 'I' for Inactive)
ROOT
ATOM      1  C1  BNZ d   1      -0.270   3.029   1.126  0.00  0.00     0.000 A 
ATOM      2  C2  BNZ d   1      -0.155   1.888   1.874  0.00  0.00     0.000 A 
ATOM      3  C3  BNZ d   1      -0.059   0.664   1.274  0.00  0.00     0.000 A 
ATOM      4  C4  BNZ d   1      -0.118   0.578  -0.071  0.00  0.00     0.000 A 
ATOM      5  C5  BNZ d   1      -0.243   1.719  -0.839  0.00  0.00     0.000 A 
ATOM      6  C6  BNZ d   1      -0.300   2.953  -0.233  0.00  0.00     0.000 A 
ENDROOT
TORSDOF 0
ENDMDL
