MODEL 1
REMARK minimizedAffinity -0.318316281
REMARK minimizedRMSD -1
REMARK  0 active torsions:
REMARK  status: ('A' for Active; 'I' for Inactive)
ROOT
ATOM      1  C1  BNZ d   1      -0.603   1.135   2.390  0.00  0.00     0.000 A 
ATOM      2  C2  BNZ d   1      -0.438  -0.220   2.492  0.00  0.00     0.000 A 
ATOM      3  C3  BNZ d   1       0.583  -0.852   1.838  0.00  0.00     0.000 A 
ATOM      4  C4  BNZ d   1       1.411  -0.135   1.052  0.00  0.00     0.000 A 
ATOM      5  C5  BNZ d   1       1.252   1.232   0.932  0.00  0.00     0.000 A 
ATOM      6  C6  BNZ d   1       0.248   1.870   1.623  0.00  0.00     0.000 A 
ENDROOT
TORSDOF 0
ENDMDL
