MODEL 1
REMARK minimizedAffinity -5.21168709
REMARK minimizedRMSD -1
REMARK  0 active torsions:
REMARK  status: ('A' for Active; 'I' for Inactive)
ROOT
ATOM      1  C1  BNZ d   1      -0.762   0.089   0.729  0.00  0.00     0.000 A 
ATOM      2  C2  BNZ d   1      -1.370   0.937  -0.158  0.00  0.00     0.000 A 
ATOM      3  C3  BNZ d   1      -1.432   2.281   0.088  0.00  0.00     0.000 A 
ATOM      4  C4  BNZ d   1      -0.921   2.768   1.237  0.00  0.00     0.000 A 
ATOM      5  C5  BNZ d   1      -0.313   1.925   2.145  0.00  0.00     0.000 A 
ATOM      6  C6  BNZ d   1      -0.218   0.579   1.876  0.00  0.00     0.000 A 
ENDROOT
TORSDOF 0
ENDMDL
