MODEL 1
REMARK minimizedAffinity -4.35960817
REMARK minimizedRMSD -1
REMARK  0 active torsions:
REMARK  status: ('A' for Active; 'I' for Inactive)
ROOT
ATOM      1  C1  BNZ d   1      -1.500  -0.761   1.708  0.00  0.00     0.000 A 
ATOM      2  C2  BNZ d   1      -0.952  -0.741   0.453  0.00  0.00     0.000 A 
ATOM      3  C3  BNZ d   1       0.347  -0.362   0.262  0.00  0.00     0.000 A 
ATOM      4  C4  BNZ d   1       1.084   0.035   1.319  0.00  0.00     0.000 A 
ATOM      5  C5  BNZ d   1       0.544   0.030   2.590  0.00  0.00     0.000 A 
ATOM      6  C6  BNZ d   1      -0.752  -0.389   2.783  0.00  0.00     0.000 A 
ENDROOT
TORSDOF 0
ENDMDL
