MODEL 1
REMARK minimizedAffinity -3.69061565
REMARK minimizedRMSD -1
REMARK  0 active torsions:
REMARK  status: ('A' for Active; 'I' for Inactive)
ROOT
ATOM      1  C1  BNZ d   1      -1.307  -0.691   1.106  0.00  0.00     0.000 A 
ATOM      2  C2  BNZ d   1      -0.632  -0.724  -0.085  0.00  0.00     0.000 A 
ATOM      3  C3  BNZ d   1       0.637  -0.226  -0.185  0.00  0.00     0.000 A 
ATOM      4  C4  BNZ d   1       1.213   0.340   0.895  0.00  0.00     0.000 A 
ATOM      5  C5  BNZ d   1       0.542   0.390   2.100  0.00  0.00     0.000 A 
ATOM      6  C6  BNZ d   1      -0.720  -0.148   2.207  0.00  0.00     0.000 A 
ENDROOT
TORSDOF 0
ENDMDL
