MODEL 1
REMARK minimizedAffinity -2.55854774
REMARK minimizedRMSD -1
REMARK  0 active torsions:
REMARK  status: ('A' for Active; 'I' for Inactive)
ROOT
ATOM      1  C1  BNZ d   1       0.190   0.776   3.170  0.00  0.00     0.000 A 
ATOM      2  C2  BNZ d   1       1.113   0.952   2.174  0.00  0.00     0.000 A 
ATOM      3  C3  BNZ d   1       1.300  -0.007   1.217  0.00  0.00     0.000 A 
ATOM      4  C4  BNZ d   1       0.595  -1.154   1.281  0.00  0.00     0.000 A 
ATOM      5  C5  BNZ d   1      -0.332  -1.350   2.285  0.00  0.00     0.000 A 
ATOM      6  C6  BNZ d   1      -0.546  -0.367   3.224  0.00  0.00     0.000 A 
ENDROOT
TORSDOF 0
ENDMDL
