MODEL 1
REMARK minimizedAffinity -3.90925765
REMARK minimizedRMSD -1
REMARK  0 active torsions:
REMARK  status: ('A' for Active; 'I' for Inactive)
ROOT
ATOM      1  C1  BNZ d   1       0.407   0.841  -1.176  0.00  0.00     0.000 A 
ATOM      2  C2  BNZ d   1       0.727   0.481  -2.458  0.00  0.00     0.000 A 
ATOM      3  C3  BNZ d   1       0.761  -0.834  -2.828  0.00  0.00     0.000 A 
ATOM      4  C4  BNZ d   1       0.514  -1.788  -1.907  0.00  0.00     0.000 A 
ATOM      5  C5  BNZ d   1       0.199  -1.442  -0.608  0.00  0.00     0.000 A 
ATOM      6  C6  BNZ d   1       0.128  -0.115  -0.249  0.00  0.00     0.000 A 
ENDROOT
TORSDOF 0
ENDMDL
