MODEL 1
REMARK minimizedAffinity -2.28868484
REMARK minimizedRMSD -1
REMARK  0 active torsions:
REMARK  status: ('A' for Active; 'I' for Inactive)
ROOT
ATOM      1  C1  BNZ d   1       1.232  -0.440   1.554  0.00  0.00     0.000 A 
ATOM      2  C2  BNZ d   1       1.344  -0.755   0.227  0.00  0.00     0.000 A 
ATOM      3  C3  BNZ d   1       0.326  -0.487  -0.645  0.00  0.00     0.000 A 
ATOM      4  C4  BNZ d   1      -0.817   0.059  -0.181  0.00  0.00     0.000 A 
ATOM      5  C5  BNZ d   1      -0.949   0.374   1.157  0.00  0.00     0.000 A 
ATOM      6  C6  BNZ d   1       0.093   0.138   2.024  0.00  0.00     0.000 A 
ENDROOT
TORSDOF 0
ENDMDL
