MODEL 1
REMARK minimizedAffinity -2.7130723
REMARK minimizedRMSD -1
REMARK  0 active torsions:
REMARK  status: ('A' for Active; 'I' for Inactive)
ROOT
ATOM      1  C1  BNZ d   1      -0.825   0.004  -0.314  0.00  0.00     0.000 A 
ATOM      2  C2  BNZ d   1      -1.523   0.115   0.859  0.00  0.00     0.000 A 
ATOM      3  C3  BNZ d   1      -0.871   0.150   2.060  0.00  0.00     0.000 A 
ATOM      4  C4  BNZ d   1       0.472   0.034   2.090  0.00  0.00     0.000 A 
ATOM      5  C5  BNZ d   1       1.189  -0.088   0.916  0.00  0.00     0.000 A 
ATOM      6  C6  BNZ d   1       0.533  -0.084  -0.293  0.00  0.00     0.000 A 
ENDROOT
TORSDOF 0
ENDMDL
