MODEL 1
REMARK minimizedAffinity -4.28425789
REMARK minimizedRMSD -1
REMARK  0 active torsions:
REMARK  status: ('A' for Active; 'I' for Inactive)
ROOT
ATOM      1  C1  BNZ d   1      -1.069  -1.102   0.752  0.00  0.00     0.000 A 
ATOM      2  C2  BNZ d   1      -0.463  -0.774   1.936  0.00  0.00     0.000 A 
ATOM      3  C3  BNZ d   1       0.629   0.048   1.959  0.00  0.00     0.000 A 
ATOM      4  C4  BNZ d   1       1.137   0.508   0.798  0.00  0.00     0.000 A 
ATOM      5  C5  BNZ d   1       0.544   0.179  -0.404  0.00  0.00     0.000 A 
ATOM      6  C6  BNZ d   1      -0.579  -0.617  -0.421  0.00  0.00     0.000 A 
ENDROOT
TORSDOF 0
ENDMDL
