MODEL 1
REMARK minimizedAffinity -4.64146185
REMARK minimizedRMSD -1
REMARK  0 active torsions:
REMARK  status: ('A' for Active; 'I' for Inactive)
ROOT
ATOM      1  C1  BNZ d   1      -0.559  -0.773   0.395  0.00  0.00     0.000 A 
ATOM      2  C2  BNZ d   1      -1.071  -1.000   1.644  0.00  0.00     0.000 A 
ATOM      3  C3  BNZ d   1      -0.606  -0.308   2.728  0.00  0.00     0.000 A 
ATOM      4  C4  BNZ d   1       0.397   0.579   2.567  0.00  0.00     0.000 A 
ATOM      5  C5  BNZ d   1       0.929   0.813   1.315  0.00  0.00     0.000 A 
ATOM      6  C6  BNZ d   1       0.432   0.143   0.221  0.00  0.00     0.000 A 
ENDROOT
TORSDOF 0
ENDMDL
