MODEL 1
REMARK minimizedAffinity -3.81168389
REMARK minimizedRMSD -1
REMARK  0 active torsions:
REMARK  status: ('A' for Active; 'I' for Inactive)
ROOT
ATOM      1  C1  BNZ d   1       1.126   0.912   0.877  0.00  0.00     0.000 A 
ATOM      2  C2  BNZ d   1       0.695   0.524  -0.364  0.00  0.00     0.000 A 
ATOM      3  C3  BNZ d   1      -0.034  -0.620  -0.526  0.00  0.00     0.000 A 
ATOM      4  C4  BNZ d   1      -0.296  -1.396   0.546  0.00  0.00     0.000 A 
ATOM      5  C5  BNZ d   1       0.139  -1.024   1.802  0.00  0.00     0.000 A 
ATOM      6  C6  BNZ d   1       0.840   0.149   1.967  0.00  0.00     0.000 A 
ENDROOT
TORSDOF 0
ENDMDL
