MODEL 1
REMARK minimizedAffinity -3.3856225
REMARK minimizedRMSD -1
REMARK  0 active torsions:
REMARK  status: ('A' for Active; 'I' for Inactive)
ROOT
ATOM      1  C1  BNZ d   1       0.359   0.159  -2.185  0.00  0.00     0.000 A 
ATOM      2  C2  BNZ d   1       0.175   0.718  -0.949  0.00  0.00     0.000 A 
ATOM      3  C3  BNZ d   1       0.194  -0.055   0.179  0.00  0.00     0.000 A 
ATOM      4  C4  BNZ d   1       0.356  -1.389   0.066  0.00  0.00     0.000 A 
ATOM      5  C5  BNZ d   1       0.534  -1.969  -1.174  0.00  0.00     0.000 A 
ATOM      6  C6  BNZ d   1       0.553  -1.183  -2.304  0.00  0.00     0.000 A 
ENDROOT
TORSDOF 0
ENDMDL
