MODEL 1
REMARK minimizedAffinity -4.12317085
REMARK minimizedRMSD -1
REMARK  0 active torsions:
REMARK  status: ('A' for Active; 'I' for Inactive)
ROOT
ATOM      1  C1  BNZ d   1      -0.648   0.222   2.098  0.00  0.00     0.000 A 
ATOM      2  C2  BNZ d   1      -1.085   0.504   0.831  0.00  0.00     0.000 A 
ATOM      3  C3  BNZ d   1      -0.218   0.496  -0.226  0.00  0.00     0.000 A 
ATOM      4  C4  BNZ d   1       1.089   0.246  -0.010  0.00  0.00     0.000 A 
ATOM      5  C5  BNZ d   1       1.547  -0.031   1.263  0.00  0.00     0.000 A 
ATOM      6  C6  BNZ d   1       0.665  -0.060   2.319  0.00  0.00     0.000 A 
ENDROOT
TORSDOF 0
ENDMDL
