MODEL 1
REMARK minimizedAffinity -1.9676621
REMARK minimizedRMSD -1
REMARK  0 active torsions:
REMARK  status: ('A' for Active; 'I' for Inactive)
ROOT
ATOM      1  C1  BNZ d   1       0.518   0.818  -1.132  0.00  0.00     0.000 A 
ATOM      2  C2  BNZ d   1       0.293   0.043  -0.026  0.00  0.00     0.000 A 
ATOM      3  C3  BNZ d   1       0.387  -1.319  -0.095  0.00  0.00     0.000 A 
ATOM      4  C4  BNZ d   1       0.665  -1.905  -1.277  0.00  0.00     0.000 A 
ATOM      5  C5  BNZ d   1       0.885  -1.138  -2.404  0.00  0.00     0.000 A 
ATOM      6  C6  BNZ d   1       0.828   0.234  -2.322  0.00  0.00     0.000 A 
ENDROOT
TORSDOF 0
ENDMDL
