MODEL 1
REMARK minimizedAffinity 13.3588352
REMARK minimizedRMSD -1
REMARK  1 active torsions:
REMARK  status: ('A' for Active; 'I' for Inactive)
REMARK    1  A    between atoms: C1_2  and  C2_3 
ROOT
ATOM      1  C2  UNL d   1       0.432   2.217   2.201  0.00  0.00    -0.081 A 
ATOM      2  C3  UNL d   1      -0.962   2.311   2.112  0.00  0.00     0.006 A 
ATOM      3  C4  UNL d   1      -1.570   2.713   0.921  0.00  0.00     0.002 A 
ATOM      4  C5  UNL d   1      -0.796   3.019  -0.204  0.00  0.00    -0.080 A 
ATOM      5  C6  UNL d   1      -1.437   3.422  -1.498  0.00  0.00     0.076 C 
ATOM      6  C7  UNL d   1       0.598   2.942  -0.110  0.00  0.00     0.002 A 
ATOM      7  C8  UNL d   1       1.207   2.541   1.082  0.00  0.00     0.006 A 
ENDROOT
BRANCH   1   8
ATOM      8  C1  UNL d   1       1.088   1.722   3.465  0.00  0.00     0.054 C 
ATOM      9  C   UNL d   1       2.549   2.144   3.532  0.00  0.00     0.018 C 
ENDBRANCH   1   8
TORSDOF 1
ENDMDL
