MODEL 1
REMARK minimizedAffinity 14.9122524
REMARK minimizedRMSD -1
REMARK  1 active torsions:
REMARK  status: ('A' for Active; 'I' for Inactive)
REMARK    1  A    between atoms: C1_2  and  C2_3 
ROOT
ATOM      1  C2  UNL d   1      -3.755   3.737  -3.769  0.00  0.00    -0.081 A 
ATOM      2  C3  UNL d   1      -3.424   2.553  -3.099  0.00  0.00     0.006 A 
ATOM      3  C4  UNL d   1      -3.092   1.402  -3.817  0.00  0.00     0.002 A 
ATOM      4  C5  UNL d   1      -3.078   1.418  -5.216  0.00  0.00    -0.080 A 
ATOM      5  C6  UNL d   1      -2.693   0.198  -5.999  0.00  0.00     0.076 C 
ATOM      6  C7  UNL d   1      -3.426   2.596  -5.886  0.00  0.00     0.002 A 
ATOM      7  C8  UNL d   1      -3.759   3.747  -5.168  0.00  0.00     0.006 A 
ENDROOT
BRANCH   1   8
ATOM      8  C1  UNL d   1      -4.051   4.997  -2.997  0.00  0.00     0.054 C 
ATOM      9  C   UNL d   1      -5.380   4.897  -2.262  0.00  0.00     0.018 C 
ENDBRANCH   1   8
TORSDOF 1
ENDMDL
