MODEL 1
REMARK minimizedAffinity 12.4142456
REMARK minimizedRMSD -1
REMARK  1 active torsions:
REMARK  status: ('A' for Active; 'I' for Inactive)
REMARK    1  A    between atoms: C1_2  and  C2_3 
ROOT
ATOM      1  C2  UNL d   1       1.889   2.340   1.193  0.00  0.00    -0.081 A 
ATOM      2  C3  UNL d   1       0.774   2.036   0.403  0.00  0.00     0.006 A 
ATOM      3  C4  UNL d   1       0.623   2.611  -0.861  0.00  0.00     0.002 A 
ATOM      4  C5  UNL d   1       1.588   3.493  -1.359  0.00  0.00    -0.080 A 
ATOM      5  C6  UNL d   1       1.454   4.094  -2.726  0.00  0.00     0.076 C 
ATOM      6  C7  UNL d   1       2.693   3.811  -0.562  0.00  0.00     0.002 A 
ATOM      7  C8  UNL d   1       2.844   3.237   0.702  0.00  0.00     0.006 A 
ENDROOT
BRANCH   1   8
ATOM      8  C1  UNL d   1       2.087   1.672   2.530  0.00  0.00     0.054 C 
ATOM      9  C   UNL d   1       3.160   2.376   3.347  0.00  0.00     0.018 C 
ENDBRANCH   1   8
TORSDOF 1
ENDMDL
