MODEL 1
REMARK minimizedAffinity 12.5385017
REMARK minimizedRMSD -1
REMARK  1 active torsions:
REMARK  status: ('A' for Active; 'I' for Inactive)
REMARK    1  A    between atoms: C1_2  and  C2_3 
ROOT
ATOM      1  C2  UNL d   1       2.422  -5.158  -4.581  0.00  0.00    -0.081 A 
ATOM      2  C3  UNL d   1       1.311  -4.307  -4.627  0.00  0.00     0.006 A 
ATOM      3  C4  UNL d   1       0.602  -4.005  -3.462  0.00  0.00     0.002 A 
ATOM      4  C5  UNL d   1       0.997  -4.540  -2.232  0.00  0.00    -0.080 A 
ATOM      5  C6  UNL d   1       0.264  -4.199  -0.969  0.00  0.00     0.076 C 
ATOM      6  C7  UNL d   1       2.097  -5.404  -2.188  0.00  0.00     0.002 A 
ATOM      7  C8  UNL d   1       2.806  -5.708  -3.353  0.00  0.00     0.006 A 
ENDROOT
BRANCH   1   8
ATOM      8  C1  UNL d   1       3.227  -5.435  -5.825  0.00  0.00     0.054 C 
ATOM      9  C   UNL d   1       4.712  -5.552  -5.509  0.00  0.00     0.018 C 
ENDBRANCH   1   8
TORSDOF 1
ENDMDL
