MODEL 1
REMARK minimizedAffinity 7.19395208
REMARK minimizedRMSD -1
REMARK  0 active torsions:
REMARK  status: ('A' for Active; 'I' for Inactive)
ROOT
ATOM      1  C   UNL d   1      -0.187   2.534   0.946  0.00  0.00     0.023 A 
ATOM      2  C1  UNL d   1       1.036   1.897   1.154  0.00  0.00     0.003 A 
ATOM      3  C2  UNL d   1       1.182   0.987   2.203  0.00  0.00     0.048 A 
ATOM      4  C3  UNL d   1       0.099   0.718   3.040  0.00  0.00     0.023 A 
ATOM      5  C4  UNL d   1      -1.127   1.353   2.836  0.00  0.00     0.048 A 
ATOM      6  C5  UNL d   1      -1.267   2.263   1.786  0.00  0.00     0.003 A 
ATOM      7  I   UNL d   1       0.313  -0.636   4.602  0.00  0.00    -0.146 I 
ENDROOT
TORSDOF 0
ENDMDL
