MODEL 1
REMARK minimizedAffinity 6.79782963
REMARK minimizedRMSD -1
REMARK  0 active torsions:
REMARK  status: ('A' for Active; 'I' for Inactive)
ROOT
ATOM      1  C   UNL d   1       0.589  -5.128  -1.363  0.00  0.00     0.023 A 
ATOM      2  C1  UNL d   1      -0.691  -4.819  -1.823  0.00  0.00     0.003 A 
ATOM      3  C2  UNL d   1      -1.035  -5.067  -3.153  0.00  0.00     0.048 A 
ATOM      4  C3  UNL d   1      -0.095  -5.625  -4.018  0.00  0.00     0.023 A 
ATOM      5  C4  UNL d   1       1.187  -5.937  -3.562  0.00  0.00     0.048 A 
ATOM      6  C5  UNL d   1       1.527  -5.686  -2.231  0.00  0.00     0.003 A 
ATOM      7  I   UNL d   1      -0.604  -5.995  -5.999  0.00  0.00    -0.146 I 
ENDROOT
TORSDOF 0
ENDMDL
