MODEL 1
REMARK minimizedAffinity 6.21294212
REMARK minimizedRMSD -1
REMARK  0 active torsions:
REMARK  status: ('A' for Active; 'I' for Inactive)
ROOT
ATOM      1  C   UNL d   1      -0.775   3.067   1.320  0.00  0.00     0.023 A 
ATOM      2  C1  UNL d   1       0.261   3.198   2.245  0.00  0.00     0.003 A 
ATOM      3  C2  UNL d   1       0.917   2.063   2.726  0.00  0.00     0.048 A 
ATOM      4  C3  UNL d   1       0.532   0.800   2.277  0.00  0.00     0.023 A 
ATOM      5  C4  UNL d   1      -0.503   0.664   1.351  0.00  0.00     0.048 A 
ATOM      6  C5  UNL d   1      -1.156   1.802   0.873  0.00  0.00     0.003 A 
ATOM      7  I   UNL d   1       1.506  -0.891   2.992  0.00  0.00    -0.146 I 
ENDROOT
TORSDOF 0
ENDMDL
