MODEL 1
REMARK minimizedAffinity 6.64446735
REMARK minimizedRMSD -1
REMARK  0 active torsions:
REMARK  status: ('A' for Active; 'I' for Inactive)
ROOT
ATOM      1  C   UNL d   1      -0.317   2.748  -2.016  0.00  0.00     0.023 A 
ATOM      2  C1  UNL d   1      -0.432   3.720  -1.023  0.00  0.00     0.003 A 
ATOM      3  C2  UNL d   1      -0.411   3.351   0.324  0.00  0.00     0.048 A 
ATOM      4  C3  UNL d   1      -0.273   2.007   0.670  0.00  0.00     0.023 A 
ATOM      5  C4  UNL d   1      -0.157   1.031  -0.321  0.00  0.00     0.048 A 
ATOM      6  C5  UNL d   1      -0.179   1.405  -1.665  0.00  0.00     0.003 A 
ATOM      7  I   UNL d   1      -0.241   1.455   2.673  0.00  0.00    -0.146 I 
ENDROOT
TORSDOF 0
ENDMDL
