MODEL 1
REMARK minimizedAffinity 6.80873346
REMARK minimizedRMSD -1
REMARK  0 active torsions:
REMARK  status: ('A' for Active; 'I' for Inactive)
ROOT
ATOM      1  C   UNL d   1       0.024   0.864  -3.156  0.00  0.00     0.023 A 
ATOM      2  C1  UNL d   1      -0.725   0.053  -4.009  0.00  0.00     0.003 A 
ATOM      3  C2  UNL d   1      -1.016  -1.264  -3.645  0.00  0.00     0.048 A 
ATOM      4  C3  UNL d   1      -0.556  -1.763  -2.427  0.00  0.00     0.023 A 
ATOM      5  C4  UNL d   1       0.193  -0.954  -1.570  0.00  0.00     0.048 A 
ATOM      6  C5  UNL d   1       0.483   0.361  -1.938  0.00  0.00     0.003 A 
ATOM      7  I   UNL d   1      -0.987  -3.722  -1.884  0.00  0.00    -0.146 I 
ENDROOT
TORSDOF 0
ENDMDL
