MODEL 1
REMARK minimizedAffinity 0.807788312
REMARK minimizedRMSD -1
REMARK  0 active torsions:
REMARK  status: ('A' for Active; 'I' for Inactive)
ROOT
ATOM      1  C   UNL d   1       0.279   0.275   1.801  0.00  0.00     0.023 A 
ATOM      2  C1  UNL d   1       0.037   1.426   2.551  0.00  0.00     0.003 A 
ATOM      3  C2  UNL d   1       0.100   2.682   1.945  0.00  0.00     0.048 A 
ATOM      4  C3  UNL d   1       0.405   2.781   0.588  0.00  0.00     0.023 A 
ATOM      5  C4  UNL d   1       0.647   1.632  -0.167  0.00  0.00     0.048 A 
ATOM      6  C5  UNL d   1       0.583   0.378   0.443  0.00  0.00     0.003 A 
ATOM      7  I   UNL d   1       0.499   4.650  -0.317  0.00  0.00    -0.146 I 
ENDROOT
TORSDOF 0
ENDMDL
