MODEL 1
REMARK minimizedAffinity 6.35508633
REMARK minimizedRMSD -1
REMARK  0 active torsions:
REMARK  status: ('A' for Active; 'I' for Inactive)
ROOT
ATOM      1  C   UNL d   1       0.246  -0.575   1.846  0.00  0.00     0.023 A 
ATOM      2  C1  UNL d   1       0.618   0.158   2.973  0.00  0.00     0.003 A 
ATOM      3  C2  UNL d   1       0.820   1.536   2.876  0.00  0.00     0.048 A 
ATOM      4  C3  UNL d   1       0.647   2.176   1.650  0.00  0.00     0.023 A 
ATOM      5  C4  UNL d   1       0.274   1.447   0.519  0.00  0.00     0.048 A 
ATOM      6  C5  UNL d   1       0.074   0.069   0.620  0.00  0.00     0.003 A 
ATOM      7  I   UNL d   1       0.946   4.227   1.503  0.00  0.00    -0.146 I 
ENDROOT
TORSDOF 0
ENDMDL
