MODEL 1
REMARK minimizedAffinity 3.95048285
REMARK minimizedRMSD -1
REMARK  0 active torsions:
REMARK  status: ('A' for Active; 'I' for Inactive)
ROOT
ATOM      1  C   UNL d   1       1.325   4.535   0.429  0.00  0.00     0.023 A 
ATOM      2  C1  UNL d   1       1.465   4.077   1.739  0.00  0.00     0.003 A 
ATOM      3  C2  UNL d   1       1.195   2.742   2.047  0.00  0.00     0.048 A 
ATOM      4  C3  UNL d   1       0.786   1.870   1.039  0.00  0.00     0.023 A 
ATOM      5  C4  UNL d   1       0.645   2.323  -0.274  0.00  0.00     0.048 A 
ATOM      6  C5  UNL d   1       0.915   3.659  -0.576  0.00  0.00     0.003 A 
ATOM      7  I   UNL d   1       0.384  -0.118   1.494  0.00  0.00    -0.146 I 
ENDROOT
TORSDOF 0
ENDMDL
