MODEL 1
REMARK minimizedAffinity -4.13514233
REMARK minimizedRMSD -1
REMARK  0 active torsions:
REMARK  status: ('A' for Active; 'I' for Inactive)
ROOT
ATOM      1  C1  DEN d   1      -0.067  -1.139  -1.103  0.00  0.00     0.130 A 
ATOM      2  C2  DEN d   1      -0.970  -0.058  -0.715  0.00  0.00    -0.031 A 
ATOM      3  C3  DEN d   1      -0.434   0.565   0.512  0.00  0.00     0.027 A 
ATOM      4  C4  DEN d   1       1.696  -0.031   1.838  0.00  0.00     0.027 A 
ATOM      5  C5  DEN d   1       2.777  -0.882   1.903  0.00  0.00    -0.003 A 
ATOM      6  C6  DEN d   1       2.966  -1.892   0.997  0.00  0.00     0.001 A 
ATOM      7  C7  DEN d   1       2.084  -2.048  -0.040  0.00  0.00     0.017 A 
ATOM      8  C8  DEN d   1       0.988  -1.198  -0.107  0.00  0.00    -0.094 A 
ATOM      9  C9  DEN d   1       0.821  -0.175   0.811  0.00  0.00    -0.072 A 
ENDROOT
TORSDOF 0
ENDMDL
