MODEL 1
REMARK minimizedAffinity -2.81330204
REMARK minimizedRMSD -1
REMARK  0 active torsions:
REMARK  status: ('A' for Active; 'I' for Inactive)
ROOT
ATOM      1  C1  DEN d   1       0.443  -1.942  -1.073  0.00  0.00     0.130 A 
ATOM      2  C2  DEN d   1       1.713  -2.542  -0.675  0.00  0.00    -0.031 A 
ATOM      3  C3  DEN d   1       2.390  -1.608   0.247  0.00  0.00     0.027 A 
ATOM      4  C4  DEN d   1       1.595   0.695   1.095  0.00  0.00     0.027 A 
ATOM      5  C5  DEN d   1       0.587   1.630   1.025  0.00  0.00    -0.003 A 
ATOM      6  C6  DEN d   1      -0.516   1.457   0.231  0.00  0.00     0.001 A 
ATOM      7  C7  DEN d   1      -0.657   0.302  -0.491  0.00  0.00     0.017 A 
ATOM      8  C8  DEN d   1       0.359  -0.643  -0.431  0.00  0.00    -0.094 A 
ATOM      9  C9  DEN d   1       1.460  -0.455   0.387  0.00  0.00    -0.072 A 
ENDROOT
TORSDOF 0
ENDMDL
