MODEL 1
REMARK minimizedAffinity -6.15220547
REMARK minimizedRMSD -1
REMARK  0 active torsions:
REMARK  status: ('A' for Active; 'I' for Inactive)
ROOT
ATOM      1  C1  DEN d   1      -0.612   1.178  -0.046  0.00  0.00     0.130 A 
ATOM      2  C2  DEN d   1      -1.439   0.009  -0.332  0.00  0.00    -0.031 A 
ATOM      3  C3  DEN d   1      -0.578  -1.189  -0.255  0.00  0.00     0.027 A 
ATOM      4  C4  DEN d   1       1.940  -1.346   0.281  0.00  0.00     0.027 A 
ATOM      5  C5  DEN d   1       3.071  -0.620   0.581  0.00  0.00    -0.003 A 
ATOM      6  C6  DEN d   1       3.061   0.748   0.659  0.00  0.00     0.001 A 
ATOM      7  C7  DEN d   1       1.887   1.430   0.479  0.00  0.00     0.017 A 
ATOM      8  C8  DEN d   1       0.744   0.705   0.169  0.00  0.00    -0.094 A 
ATOM      9  C9  DEN d   1       0.772  -0.678   0.106  0.00  0.00    -0.072 A 
ENDROOT
TORSDOF 0
ENDMDL
