MODEL 1
REMARK minimizedAffinity -3.85120893
REMARK minimizedRMSD -1
REMARK  0 active torsions:
REMARK  status: ('A' for Active; 'I' for Inactive)
ROOT
ATOM      1  C1  DEN d   1       2.075  -0.116   1.525  0.00  0.00     0.130 A 
ATOM      2  C2  DEN d   1       2.637  -1.407   1.139  0.00  0.00    -0.031 A 
ATOM      3  C3  DEN d   1       1.823  -1.946   0.030  0.00  0.00     0.027 A 
ATOM      4  C4  DEN d   1      -0.238  -0.910  -1.122  0.00  0.00     0.027 A 
ATOM      5  C5  DEN d   1      -1.095   0.169  -1.133  0.00  0.00    -0.003 A 
ATOM      6  C6  DEN d   1      -0.976   1.204  -0.243  0.00  0.00     0.001 A 
ATOM      7  C7  DEN d   1       0.049   1.203   0.666  0.00  0.00     0.017 A 
ATOM      8  C8  DEN d   1       0.912   0.116   0.687  0.00  0.00    -0.094 A 
ATOM      9  C9  DEN d   1       0.783  -0.915  -0.228  0.00  0.00    -0.072 A 
ENDROOT
TORSDOF 0
ENDMDL
