MODEL 1
REMARK minimizedAffinity -3.75191951
REMARK minimizedRMSD -1
REMARK  0 active torsions:
REMARK  status: ('A' for Active; 'I' for Inactive)
ROOT
ATOM      1  C1  DEN d   1      -0.276  -0.947  -0.425  0.00  0.00     0.130 A 
ATOM      2  C2  DEN d   1      -1.111   0.251  -0.457  0.00  0.00    -0.031 A 
ATOM      3  C3  DEN d   1      -0.286   1.394  -0.019  0.00  0.00     0.027 A 
ATOM      4  C4  DEN d   1       2.192   1.428   0.697  0.00  0.00     0.027 A 
ATOM      5  C5  DEN d   1       3.313   0.653   0.897  0.00  0.00    -0.003 A 
ATOM      6  C6  DEN d   1       3.307  -0.703   0.705  0.00  0.00     0.001 A 
ATOM      7  C7  DEN d   1       2.169  -1.320   0.257  0.00  0.00     0.017 A 
ATOM      8  C8  DEN d   1       1.033  -0.547   0.060  0.00  0.00    -0.094 A 
ATOM      9  C9  DEN d   1       1.062   0.824   0.248  0.00  0.00    -0.072 A 
ENDROOT
TORSDOF 0
ENDMDL
