MODEL 1
REMARK minimizedAffinity -2.91712475
REMARK minimizedRMSD -1
REMARK  0 active torsions:
REMARK  status: ('A' for Active; 'I' for Inactive)
ROOT
ATOM      1  C1  DEN d   1      -1.454  -0.998  -0.394  0.00  0.00     0.130 A 
ATOM      2  C2  DEN d   1      -1.939   0.348  -0.101  0.00  0.00    -0.031 A 
ATOM      3  C3  DEN d   1      -0.788   1.165   0.330  0.00  0.00     0.027 A 
ATOM      4  C4  DEN d   1       1.688   0.483   0.566  0.00  0.00     0.027 A 
ATOM      5  C5  DEN d   1       2.583  -0.557   0.442  0.00  0.00    -0.003 A 
ATOM      6  C6  DEN d   1       2.192  -1.815   0.067  0.00  0.00     0.001 A 
ATOM      7  C7  DEN d   1       0.879  -2.055  -0.242  0.00  0.00     0.017 A 
ATOM      8  C8  DEN d   1      -0.030  -1.013  -0.112  0.00  0.00    -0.094 A 
ATOM      9  C9  DEN d   1       0.387   0.255   0.257  0.00  0.00    -0.072 A 
ENDROOT
TORSDOF 0
ENDMDL
