MODEL 1
REMARK minimizedAffinity -6.65654898
REMARK minimizedRMSD -1
REMARK  0 active torsions:
REMARK  status: ('A' for Active; 'I' for Inactive)
ROOT
ATOM      1  C1  DEN d   1      -0.196  -0.819  -0.587  0.00  0.00     0.130 A 
ATOM      2  C2  DEN d   1      -0.732   0.537  -0.661  0.00  0.00    -0.031 A 
ATOM      3  C3  DEN d   1       0.352   1.477  -0.307  0.00  0.00     0.027 A 
ATOM      4  C4  DEN d   1       2.796   0.965   0.339  0.00  0.00     0.027 A 
ATOM      5  C5  DEN d   1       3.714  -0.039   0.551  0.00  0.00    -0.003 A 
ATOM      6  C6  DEN d   1       3.388  -1.364   0.432  0.00  0.00     0.001 A 
ATOM      7  C7  DEN d   1       2.122  -1.719   0.048  0.00  0.00     0.017 A 
ATOM      8  C8  DEN d   1       1.188  -0.713  -0.160  0.00  0.00    -0.094 A 
ATOM      9  C9  DEN d   1       1.541   0.621  -0.046  0.00  0.00    -0.072 A 
ENDROOT
TORSDOF 0
ENDMDL
