MODEL 1
REMARK minimizedAffinity -1.90456641
REMARK minimizedRMSD -1
REMARK  0 active torsions:
REMARK  status: ('A' for Active; 'I' for Inactive)
ROOT
ATOM      1  C1  DEN d   1       0.255  -1.696  -0.319  0.00  0.00     0.130 A 
ATOM      2  C2  DEN d   1       1.539  -2.141   0.215  0.00  0.00    -0.031 A 
ATOM      3  C3  DEN d   1       2.318  -0.943   0.589  0.00  0.00     0.027 A 
ATOM      4  C4  DEN d   1       1.662   1.544   0.397  0.00  0.00     0.027 A 
ATOM      5  C5  DEN d   1       0.676   2.416  -0.006  0.00  0.00    -0.003 A 
ATOM      6  C6  DEN d   1      -0.496   1.985  -0.569  0.00  0.00     0.001 A 
ATOM      7  C7  DEN d   1      -0.731   0.642  -0.703  0.00  0.00     0.017 A 
ATOM      8  C8  DEN d   1       0.262  -0.244  -0.305  0.00  0.00    -0.094 A 
ATOM      9  C9  DEN d   1       1.434   0.211   0.274  0.00  0.00    -0.072 A 
ENDROOT
TORSDOF 0
ENDMDL
