MODEL 1
REMARK minimizedAffinity -3.45512509
REMARK minimizedRMSD -1
REMARK  0 active torsions:
REMARK  status: ('A' for Active; 'I' for Inactive)
ROOT
ATOM      1  C1  DEN d   1      -0.767  -0.641  -0.862  0.00  0.00     0.130 A 
ATOM      2  C2  DEN d   1      -1.272   0.688  -0.530  0.00  0.00    -0.031 A 
ATOM      3  C3  DEN d   1      -0.316   1.321   0.400  0.00  0.00     0.027 A 
ATOM      4  C4  DEN d   1       1.890   0.379   1.350  0.00  0.00     0.027 A 
ATOM      5  C5  DEN d   1       2.730  -0.712   1.365  0.00  0.00    -0.003 A 
ATOM      6  C6  DEN d   1       2.449  -1.859   0.672  0.00  0.00     0.001 A 
ATOM      7  C7  DEN d   1       1.321  -1.926  -0.103  0.00  0.00     0.017 A 
ATOM      8  C8  DEN d   1       0.465  -0.832  -0.117  0.00  0.00    -0.094 A 
ATOM      9  C9  DEN d   1       0.773   0.323   0.581  0.00  0.00    -0.072 A 
ENDROOT
TORSDOF 0
ENDMDL
