MODEL 1
REMARK minimizedAffinity 7.4196949
REMARK minimizedRMSD -1
REMARK  3 active torsions:
REMARK  status: ('A' for Active; 'I' for Inactive)
REMARK    1  A    between atoms: C3'_2  and  C2'_3 
REMARK    2  A    between atoms: C2'_3  and  C1'_4 
REMARK    3  A    between atoms: C1'_4  and  C1_5 
ROOT
ATOM      1  C1  N4B d   1      -3.179   0.979  -2.111  0.00  0.00    -0.075 A 
ATOM      2  C2  N4B d   1      -2.520   0.538  -0.943  0.00  0.00     0.002 A 
ATOM      3  C3  N4B d   1      -3.247   0.033   0.108  0.00  0.00     0.002 A 
ATOM      4  C4  N4B d   1      -4.630  -0.022   0.020  0.00  0.00    -0.004 A 
ATOM      5  C5  N4B d   1      -5.258   0.382  -1.121  0.00  0.00     0.002 A 
ATOM      6  C6  N4B d   1      -4.539   0.887  -2.186  0.00  0.00     0.002 A 
ENDROOT
BRANCH   1   7
ATOM      7  C1' N4B d   1      -2.434   1.617  -3.251  0.00  0.00     0.057 C 
BRANCH   7   8
ATOM      8  C2' N4B d   1      -0.998   1.895  -2.817  0.00  0.00     0.009 C 
BRANCH   8   9
ATOM      9  C3' N4B d   1      -0.362   3.006  -3.636  0.00  0.00     0.004 C 
ATOM     10  C4' N4B d   1       0.401   3.984  -2.793  0.00  0.00     0.003 C 
ENDBRANCH   8   9
ENDBRANCH   7   8
ENDBRANCH   1   7
TORSDOF 3
ENDMDL
