MODEL 1
REMARK minimizedAffinity 14.1496305
REMARK minimizedRMSD -1
REMARK  3 active torsions:
REMARK  status: ('A' for Active; 'I' for Inactive)
REMARK    1  A    between atoms: C3'_2  and  C2'_3 
REMARK    2  A    between atoms: C2'_3  and  C1'_4 
REMARK    3  A    between atoms: C1'_4  and  C1_5 
ROOT
ATOM      1  C1  N4B d   1       2.932   2.028   0.255  0.00  0.00    -0.075 A 
ATOM      2  C2  N4B d   1       3.776   0.896   0.259  0.00  0.00     0.002 A 
ATOM      3  C3  N4B d   1       3.254  -0.349   0.512  0.00  0.00     0.002 A 
ATOM      4  C4  N4B d   1       1.900  -0.483   0.780  0.00  0.00    -0.004 A 
ATOM      5  C5  N4B d   1       1.087   0.612   0.749  0.00  0.00     0.002 A 
ATOM      6  C6  N4B d   1       1.597   1.869   0.493  0.00  0.00     0.002 A 
ENDROOT
BRANCH   1   7
ATOM      7  C1' N4B d   1       3.471   3.420   0.069  0.00  0.00     0.057 C 
BRANCH   7   8
ATOM      8  C2' N4B d   1       4.996   3.371   0.072  0.00  0.00     0.009 C 
BRANCH   8   9
ATOM      9  C3' N4B d   1       5.606   4.621  -0.539  0.00  0.00     0.004 C 
ATOM     10  C4' N4B d   1       5.995   4.434  -1.975  0.00  0.00     0.003 C 
ENDBRANCH   8   9
ENDBRANCH   7   8
ENDBRANCH   1   7
TORSDOF 3
ENDMDL
