MODEL 1
REMARK minimizedAffinity 2.14742875
REMARK minimizedRMSD -1
REMARK  3 active torsions:
REMARK  status: ('A' for Active; 'I' for Inactive)
REMARK    1  A    between atoms: C3'_2  and  C2'_3 
REMARK    2  A    between atoms: C2'_3  and  C1'_4 
REMARK    3  A    between atoms: C1'_4  and  C1_5 
ROOT
ATOM      1  C1  N4B d   1      -0.584  -5.936  -3.857  0.00  0.00    -0.075 A 
ATOM      2  C2  N4B d   1      -1.443  -5.914  -4.978  0.00  0.00     0.002 A 
ATOM      3  C3  N4B d   1      -2.804  -5.936  -4.800  0.00  0.00     0.002 A 
ATOM      4  C4  N4B d   1      -3.327  -5.999  -3.517  0.00  0.00    -0.004 A 
ATOM      5  C5  N4B d   1      -2.491  -5.995  -2.439  0.00  0.00     0.002 A 
ATOM      6  C6  N4B d   1      -1.121  -5.969  -2.603  0.00  0.00     0.002 A 
ENDROOT
BRANCH   1   7
ATOM      7  C1' N4B d   1       0.912  -6.000  -4.004  0.00  0.00     0.057 C 
BRANCH   7   8
ATOM      8  C2' N4B d   1       1.371  -4.887  -4.941  0.00  0.00     0.009 C 
BRANCH   8   9
ATOM      9  C3' N4B d   1       2.831  -5.040  -5.333  0.00  0.00     0.004 C 
ATOM     10  C4' N4B d   1       3.585  -5.958  -4.418  0.00  0.00     0.003 C 
ENDBRANCH   8   9
ENDBRANCH   7   8
ENDBRANCH   1   7
TORSDOF 3
ENDMDL
