MODEL 1
REMARK minimizedAffinity -1.22325671
REMARK minimizedRMSD -1
REMARK  3 active torsions:
REMARK  status: ('A' for Active; 'I' for Inactive)
REMARK    1  A    between atoms: C3'_2  and  C2'_3 
REMARK    2  A    between atoms: C2'_3  and  C1'_4 
REMARK    3  A    between atoms: C1'_4  and  C1_5 
ROOT
ATOM      1  C1  N4B d   1      -5.259  -5.289   1.856  0.00  0.00    -0.075 A 
ATOM      2  C2  N4B d   1      -5.032  -3.902   1.990  0.00  0.00     0.002 A 
ATOM      3  C3  N4B d   1      -5.282  -3.278   3.188  0.00  0.00     0.002 A 
ATOM      4  C4  N4B d   1      -5.776  -4.014   4.254  0.00  0.00    -0.004 A 
ATOM      5  C5  N4B d   1      -5.969  -5.358   4.124  0.00  0.00     0.002 A 
ATOM      6  C6  N4B d   1      -5.718  -5.999   2.928  0.00  0.00     0.002 A 
ENDROOT
BRANCH   1   7
ATOM      7  C1' N4B d   1      -5.082  -6.000   0.542  0.00  0.00     0.057 C 
BRANCH   7   8
ATOM      8  C2' N4B d   1      -4.506  -5.025  -0.481  0.00  0.00     0.009 C 
BRANCH   8   9
ATOM      9  C3' N4B d   1      -4.597  -5.567  -1.897  0.00  0.00     0.004 C 
ATOM     10  C4' N4B d   1      -5.999  -5.922  -2.293  0.00  0.00     0.003 C 
ENDBRANCH   8   9
ENDBRANCH   7   8
ENDBRANCH   1   7
TORSDOF 3
ENDMDL
