MODEL 1
REMARK minimizedAffinity -1.50023997
REMARK minimizedRMSD -1
REMARK  3 active torsions:
REMARK  status: ('A' for Active; 'I' for Inactive)
REMARK    1  A    between atoms: C3'_2  and  C2'_3 
REMARK    2  A    between atoms: C2'_3  and  C1'_4 
REMARK    3  A    between atoms: C1'_4  and  C1_5 
ROOT
ATOM      1  C1  N4B d   1      -1.022  -5.899  -3.608  0.00  0.00    -0.075 A 
ATOM      2  C2  N4B d   1      -0.252  -6.000  -2.428  0.00  0.00     0.002 A 
ATOM      3  C3  N4B d   1       1.119  -5.984  -2.499  0.00  0.00     0.002 A 
ATOM      4  C4  N4B d   1       1.740  -5.887  -3.735  0.00  0.00    -0.004 A 
ATOM      5  C5  N4B d   1       0.990  -5.763  -4.868  0.00  0.00     0.002 A 
ATOM      6  C6  N4B d   1      -0.390  -5.774  -4.811  0.00  0.00     0.002 A 
ENDROOT
BRANCH   1   7
ATOM      7  C1' N4B d   1      -2.523  -5.998  -3.588  0.00  0.00     0.057 C 
BRANCH   7   8
ATOM      8  C2' N4B d   1      -3.033  -5.597  -2.207  0.00  0.00     0.009 C 
BRANCH   8   9
ATOM      9  C3' N4B d   1      -4.483  -6.000  -1.997  0.00  0.00     0.004 C 
ATOM     10  C4' N4B d   1      -4.894  -5.963  -0.556  0.00  0.00     0.003 C 
ENDBRANCH   8   9
ENDBRANCH   7   8
ENDBRANCH   1   7
TORSDOF 3
ENDMDL
