MODEL 1
REMARK minimizedAffinity 7.28272581
REMARK minimizedRMSD -1
REMARK  3 active torsions:
REMARK  status: ('A' for Active; 'I' for Inactive)
REMARK    1  A    between atoms: C3'_2  and  C2'_3 
REMARK    2  A    between atoms: C2'_3  and  C1'_4 
REMARK    3  A    between atoms: C1'_4  and  C1_5 
ROOT
ATOM      1  C1  N4B d   1      -1.394  -5.998  -3.677  0.00  0.00    -0.075 A 
ATOM      2  C2  N4B d   1      -1.258  -5.997  -5.083  0.00  0.00     0.002 A 
ATOM      3  C3  N4B d   1      -0.009  -5.949  -5.652  0.00  0.00     0.002 A 
ATOM      4  C4  N4B d   1       1.113  -5.882  -4.839  0.00  0.00    -0.004 A 
ATOM      5  C5  N4B d   1       0.974  -5.910  -3.482  0.00  0.00     0.002 A 
ATOM      6  C6  N4B d   1      -0.275  -5.962  -2.897  0.00  0.00     0.002 A 
ENDROOT
BRANCH   1   7
ATOM      7  C1' N4B d   1      -2.741  -5.963  -3.010  0.00  0.00     0.057 C 
BRANCH   7   8
ATOM      8  C2' N4B d   1      -2.937  -4.603  -2.347  0.00  0.00     0.009 C 
BRANCH   8   9
ATOM      9  C3' N4B d   1      -4.072  -4.621  -1.338  0.00  0.00     0.004 C 
ATOM     10  C4' N4B d   1      -4.622  -5.996  -1.106  0.00  0.00     0.003 C 
ENDBRANCH   8   9
ENDBRANCH   7   8
ENDBRANCH   1   7
TORSDOF 3
ENDMDL
