MODEL 1
REMARK minimizedAffinity -2.6262598
REMARK minimizedRMSD -1
REMARK  3 active torsions:
REMARK  status: ('A' for Active; 'I' for Inactive)
REMARK    1  A    between atoms: C3'_2  and  C2'_3 
REMARK    2  A    between atoms: C2'_3  and  C1'_4 
REMARK    3  A    between atoms: C1'_4  and  C1_5 
ROOT
ATOM      1  C1  N4B d   1      -1.044  -5.540  -4.273  0.00  0.00    -0.075 A 
ATOM      2  C2  N4B d   1      -0.208  -4.964  -5.254  0.00  0.00     0.002 A 
ATOM      3  C3  N4B d   1       1.043  -4.513  -4.912  0.00  0.00     0.002 A 
ATOM      4  C4  N4B d   1       1.471  -4.611  -3.597  0.00  0.00    -0.004 A 
ATOM      5  C5  N4B d   1       0.668  -5.193  -2.660  0.00  0.00     0.002 A 
ATOM      6  C6  N4B d   1      -0.590  -5.654  -2.990  0.00  0.00     0.002 A 
ENDROOT
BRANCH   1   7
ATOM      7  C1' N4B d   1      -2.452  -5.969  -4.581  0.00  0.00     0.057 C 
BRANCH   7   8
ATOM      8  C2' N4B d   1      -3.423  -5.133  -3.752  0.00  0.00     0.009 C 
BRANCH   8   9
ATOM      9  C3' N4B d   1      -4.365  -6.000  -2.934  0.00  0.00     0.004 C 
ATOM     10  C4' N4B d   1      -4.032  -6.000  -1.472  0.00  0.00     0.003 C 
ENDBRANCH   8   9
ENDBRANCH   7   8
ENDBRANCH   1   7
TORSDOF 3
ENDMDL
