MODEL 1
REMARK minimizedAffinity -0.506540835
REMARK minimizedRMSD -1
REMARK  3 active torsions:
REMARK  status: ('A' for Active; 'I' for Inactive)
REMARK    1  A    between atoms: C3'_2  and  C2'_3 
REMARK    2  A    between atoms: C2'_3  and  C1'_4 
REMARK    3  A    between atoms: C1'_4  and  C1_5 
ROOT
ATOM      1  C1  N4B d   1      -0.535  -5.897  -4.412  0.00  0.00    -0.075 A 
ATOM      2  C2  N4B d   1       0.042  -5.842  -5.700  0.00  0.00     0.002 A 
ATOM      3  C3  N4B d   1       1.408  -5.863  -5.842  0.00  0.00     0.002 A 
ATOM      4  C4  N4B d   1       2.214  -5.918  -4.715  0.00  0.00    -0.004 A 
ATOM      5  C5  N4B d   1       1.648  -5.996  -3.476  0.00  0.00     0.002 A 
ATOM      6  C6  N4B d   1       0.277  -5.980  -3.318  0.00  0.00     0.002 A 
ENDROOT
BRANCH   1   7
ATOM      7  C1' N4B d   1      -2.021  -5.790  -4.202  0.00  0.00     0.057 C 
BRANCH   7   8
ATOM      8  C2' N4B d   1      -2.309  -5.684  -2.707  0.00  0.00     0.009 C 
BRANCH   8   9
ATOM      9  C3' N4B d   1      -3.760  -5.994  -2.385  0.00  0.00     0.004 C 
ATOM     10  C4' N4B d   1      -4.040  -6.000  -0.911  0.00  0.00     0.003 C 
ENDBRANCH   8   9
ENDBRANCH   7   8
ENDBRANCH   1   7
TORSDOF 3
ENDMDL
