MODEL 1
REMARK minimizedAffinity 8.47684479
REMARK minimizedRMSD -1
REMARK  3 active torsions:
REMARK  status: ('A' for Active; 'I' for Inactive)
REMARK    1  A    between atoms: C3'_2  and  C2'_3 
REMARK    2  A    between atoms: C2'_3  and  C1'_4 
REMARK    3  A    between atoms: C1'_4  and  C1_5 
ROOT
ATOM      1  C1  N4B d   1      -3.590  -5.915  -2.190  0.00  0.00    -0.075 A 
ATOM      2  C2  N4B d   1      -4.837  -5.995  -2.847  0.00  0.00     0.002 A 
ATOM      3  C3  N4B d   1      -6.000  -6.000  -2.116  0.00  0.00     0.002 A 
ATOM      4  C4  N4B d   1      -5.940  -5.944  -0.731  0.00  0.00    -0.004 A 
ATOM      5  C5  N4B d   1      -4.732  -5.841  -0.105  0.00  0.00     0.002 A 
ATOM      6  C6  N4B d   1      -3.556  -5.831  -0.828  0.00  0.00     0.002 A 
ENDROOT
BRANCH   1   7
ATOM      7  C1' N4B d   1      -2.290  -5.993  -2.942  0.00  0.00     0.057 C 
BRANCH   7   8
ATOM      8  C2' N4B d   1      -2.494  -5.453  -4.354  0.00  0.00     0.009 C 
BRANCH   8   9
ATOM      9  C3' N4B d   1      -1.186  -5.014  -4.989  0.00  0.00     0.004 C 
ATOM     10  C4' N4B d   1      -0.669  -6.000  -5.994  0.00  0.00     0.003 C 
ENDBRANCH   8   9
ENDBRANCH   7   8
ENDBRANCH   1   7
TORSDOF 3
ENDMDL
