MODEL 1
REMARK minimizedAffinity 0.213969544
REMARK minimizedRMSD -1
REMARK  3 active torsions:
REMARK  status: ('A' for Active; 'I' for Inactive)
REMARK    1  A    between atoms: C3'_2  and  C2'_3 
REMARK    2  A    between atoms: C2'_3  and  C1'_4 
REMARK    3  A    between atoms: C1'_4  and  C1_5 
ROOT
ATOM      1  C1  N4B d   1       0.271  -0.383  -0.343  0.00  0.00    -0.075 A 
ATOM      2  C2  N4B d   1       0.063  -1.724  -0.736  0.00  0.00     0.002 A 
ATOM      3  C3  N4B d   1       0.191  -2.736   0.182  0.00  0.00     0.002 A 
ATOM      4  C4  N4B d   1       0.544  -2.436   1.489  0.00  0.00    -0.004 A 
ATOM      5  C5  N4B d   1       0.719  -1.137   1.867  0.00  0.00     0.002 A 
ATOM      6  C6  N4B d   1       0.589  -0.109   0.955  0.00  0.00     0.002 A 
ENDROOT
BRANCH   1   7
ATOM      7  C1' N4B d   1       0.226   0.750  -1.331  0.00  0.00     0.057 C 
BRANCH   7   8
ATOM      8  C2' N4B d   1      -0.423   0.263  -2.623  0.00  0.00     0.009 C 
BRANCH   8   9
ATOM      9  C3' N4B d   1      -1.262   1.345  -3.281  0.00  0.00     0.004 C 
ATOM     10  C4' N4B d   1      -2.707   0.965  -3.405  0.00  0.00     0.003 C 
ENDBRANCH   8   9
ENDBRANCH   7   8
ENDBRANCH   1   7
TORSDOF 3
ENDMDL
