MODEL 1
REMARK minimizedAffinity 6.95102358
REMARK minimizedRMSD -1
REMARK  1 active torsions:
REMARK  status: ('A' for Active; 'I' for Inactive)
REMARK    1  A    between atoms: C1_2  and  C2_3 
ROOT
ATOM      1  C2  UNL d   1       0.254  -1.195   3.158  0.00  0.00    -0.077 A 
ATOM      2  C3  UNL d   1       1.334  -1.843   2.542  0.00  0.00     0.002 A 
ATOM      3  C4  UNL d   1       2.534  -2.026   3.232  0.00  0.00     0.002 A 
ATOM      4  C5  UNL d   1       2.664  -1.567   4.542  0.00  0.00    -0.004 A 
ATOM      5  C6  UNL d   1       1.596  -0.920   5.162  0.00  0.00     0.002 A 
ATOM      6  C7  UNL d   1       0.396  -0.735   4.473  0.00  0.00     0.002 A 
ENDROOT
BRANCH   1   7
ATOM      7  C1  UNL d   1      -1.057  -1.040   2.433  0.00  0.00     0.055 C 
ATOM      8  C   UNL d   1      -1.818  -2.357   2.378  0.00  0.00     0.019 C 
ENDBRANCH   1   7
TORSDOF 1
ENDMDL
