MODEL 1
REMARK minimizedAffinity 1.30192757
REMARK minimizedRMSD -1
REMARK  1 active torsions:
REMARK  status: ('A' for Active; 'I' for Inactive)
REMARK    1  A    between atoms: C1_2  and  C2_3 
ROOT
ATOM      1  C2  UNL d   1       0.116   0.101   2.591  0.00  0.00    -0.077 A 
ATOM      2  C3  UNL d   1      -1.234  -0.144   2.304  0.00  0.00     0.002 A 
ATOM      3  C4  UNL d   1      -1.751  -1.438   2.391  0.00  0.00     0.002 A 
ATOM      4  C5  UNL d   1      -0.927  -2.495   2.769  0.00  0.00    -0.004 A 
ATOM      5  C6  UNL d   1       0.418  -2.262   3.055  0.00  0.00     0.002 A 
ATOM      6  C7  UNL d   1       0.937  -0.969   2.967  0.00  0.00     0.002 A 
ENDROOT
BRANCH   1   7
ATOM      7  C1  UNL d   1       0.664   1.504   2.545  0.00  0.00     0.055 C 
ATOM      8  C   UNL d   1       2.034   1.542   1.883  0.00  0.00     0.019 C 
ENDBRANCH   1   7
TORSDOF 1
ENDMDL
