MODEL 1
REMARK minimizedAffinity 3.94458795
REMARK minimizedRMSD -1
REMARK  1 active torsions:
REMARK  status: ('A' for Active; 'I' for Inactive)
REMARK    1  A    between atoms: C1_2  and  C2_3 
ROOT
ATOM      1  C2  UNL d   1       0.026  -1.802   3.370  0.00  0.00    -0.077 A 
ATOM      2  C3  UNL d   1       0.780  -1.807   2.188  0.00  0.00     0.002 A 
ATOM      3  C4  UNL d   1       2.163  -1.619   2.231  0.00  0.00     0.002 A 
ATOM      4  C5  UNL d   1       2.804  -1.430   3.454  0.00  0.00    -0.004 A 
ATOM      5  C6  UNL d   1       2.063  -1.423   4.635  0.00  0.00     0.002 A 
ATOM      6  C7  UNL d   1       0.680  -1.609   4.593  0.00  0.00     0.002 A 
ENDROOT
BRANCH   1   7
ATOM      7  C1  UNL d   1      -1.459  -2.053   3.330  0.00  0.00     0.055 C 
ATOM      8  C   UNL d   1      -2.180  -0.983   2.524  0.00  0.00     0.019 C 
ENDBRANCH   1   7
TORSDOF 1
ENDMDL
