MODEL 1
REMARK minimizedAffinity 2.05671906
REMARK minimizedRMSD -1
REMARK  1 active torsions:
REMARK  status: ('A' for Active; 'I' for Inactive)
REMARK    1  A    between atoms: C1_2  and  C2_3 
ROOT
ATOM      1  C2  UNL d   1       0.613  -1.155  -4.897  0.00  0.00    -0.077 A 
ATOM      2  C3  UNL d   1       1.247  -0.487  -5.954  0.00  0.00     0.002 A 
ATOM      3  C4  UNL d   1       2.630  -0.296  -5.941  0.00  0.00     0.002 A 
ATOM      4  C5  UNL d   1       3.391  -0.775  -4.876  0.00  0.00    -0.004 A 
ATOM      5  C6  UNL d   1       2.769  -1.439  -3.819  0.00  0.00     0.002 A 
ATOM      6  C7  UNL d   1       1.387  -1.628  -3.830  0.00  0.00     0.002 A 
ENDROOT
BRANCH   1   7
ATOM      7  C1  UNL d   1      -0.872  -1.404  -4.932  0.00  0.00     0.055 C 
ATOM      8  C   UNL d   1      -1.654  -0.098  -4.909  0.00  0.00     0.019 C 
ENDBRANCH   1   7
TORSDOF 1
ENDMDL
