MODEL 1
REMARK minimizedAffinity 3.92116404
REMARK minimizedRMSD -1
REMARK  1 active torsions:
REMARK  status: ('A' for Active; 'I' for Inactive)
REMARK    1  A    between atoms: C1_2  and  C2_3 
ROOT
ATOM      1  C2  UNL d   1       3.546   0.093  -5.297  0.00  0.00    -0.077 A 
ATOM      2  C3  UNL d   1       3.569  -0.173  -3.920  0.00  0.00     0.002 A 
ATOM      3  C4  UNL d   1       4.782  -0.381  -3.262  0.00  0.00     0.002 A 
ATOM      4  C5  UNL d   1       5.980  -0.320  -3.970  0.00  0.00    -0.004 A 
ATOM      5  C6  UNL d   1       5.968  -0.058  -5.339  0.00  0.00     0.002 A 
ATOM      6  C7  UNL d   1       4.756   0.148  -5.999  0.00  0.00     0.002 A 
ENDROOT
BRANCH   1   7
ATOM      7  C1  UNL d   1       2.241   0.366  -6.000  0.00  0.00     0.055 C 
ATOM      8  C   UNL d   1       1.169  -0.629  -5.583  0.00  0.00     0.019 C 
ENDBRANCH   1   7
TORSDOF 1
ENDMDL
