MODEL 1
REMARK minimizedAffinity 0.837709665
REMARK minimizedRMSD -1
REMARK  1 active torsions:
REMARK  status: ('A' for Active; 'I' for Inactive)
REMARK    1  A    between atoms: C1_2  and  C2_3 
ROOT
ATOM      1  C2  UNL d   1       1.435  -2.018  -3.777  0.00  0.00    -0.077 A 
ATOM      2  C3  UNL d   1       2.426  -1.133  -4.225  0.00  0.00     0.002 A 
ATOM      3  C4  UNL d   1       2.194  -0.313  -5.331  0.00  0.00     0.002 A 
ATOM      4  C5  UNL d   1       0.970  -0.367  -5.995  0.00  0.00    -0.004 A 
ATOM      5  C6  UNL d   1      -0.021  -1.245  -5.559  0.00  0.00     0.002 A 
ATOM      6  C7  UNL d   1       0.210  -2.066  -4.455  0.00  0.00     0.002 A 
ENDROOT
BRANCH   1   7
ATOM      7  C1  UNL d   1       1.665  -2.868  -2.555  0.00  0.00     0.055 C 
ATOM      8  C   UNL d   1       2.636  -2.200  -1.592  0.00  0.00     0.019 C 
ENDBRANCH   1   7
TORSDOF 1
ENDMDL
