MODEL 1
REMARK minimizedAffinity 4.1734004
REMARK minimizedRMSD -1
REMARK  1 active torsions:
REMARK  status: ('A' for Active; 'I' for Inactive)
REMARK    1  A    between atoms: N_2  and  C1_3 
ROOT
ATOM      1  C1  UNL d   1       0.494  -3.909   1.012  0.00  0.00     0.143 A 
ATOM      2  C2  UNL d   1       1.692  -3.187   1.036  0.00  0.00    -0.057 A 
ATOM      3  C3  UNL d   1       1.819  -1.967   0.361  0.00  0.00     0.033 A 
ATOM      4  C4  UNL d   1       0.754  -1.461  -0.378  0.00  0.00    -0.042 A 
ATOM      5  C5  UNL d   1      -0.438  -2.174  -0.436  0.00  0.00     0.033 A 
ATOM      6  C6  UNL d   1      -0.560  -3.388   0.246  0.00  0.00    -0.057 A 
ENDROOT
BRANCH   1   7
ATOM      7  N   UNL d   1       0.338  -5.175   1.582  0.00  0.00    -0.732 N 
ATOM      8  C   UNL d   1       1.490  -6.000   1.874  0.00  0.00     0.284 C 
ATOM      9  H3  UNL d   1      -0.378  -5.190   2.304  0.00  0.00     0.395 HD
ENDBRANCH   1   7
TORSDOF 1
ENDMDL
