MODEL 1
REMARK minimizedAffinity 2.73623228
REMARK minimizedRMSD -1
REMARK  1 active torsions:
REMARK  status: ('A' for Active; 'I' for Inactive)
REMARK    1  A    between atoms: N_2  and  C1_3 
ROOT
ATOM      1  C1  UNL d   1       5.608  -0.282  -3.563  0.00  0.00     0.143 A 
ATOM      2  C2  UNL d   1       5.772  -1.671  -3.590  0.00  0.00    -0.057 A 
ATOM      3  C3  UNL d   1       5.980  -2.355  -4.794  0.00  0.00     0.033 A 
ATOM      4  C4  UNL d   1       5.998  -1.662  -6.000  0.00  0.00    -0.042 A 
ATOM      5  C5  UNL d   1       5.813  -0.284  -6.000  0.00  0.00     0.033 A 
ATOM      6  C6  UNL d   1       5.612   0.394  -4.794  0.00  0.00    -0.057 A 
ENDROOT
BRANCH   1   7
ATOM      7  N   UNL d   1       5.300   0.443  -2.410  0.00  0.00    -0.732 N 
ATOM      8  C   UNL d   1       6.000   1.672  -2.102  0.00  0.00     0.284 C 
ATOM      9  H3  UNL d   1       4.300   0.478  -2.228  0.00  0.00     0.395 HD
ENDBRANCH   1   7
TORSDOF 1
ENDMDL
