MODEL 1
REMARK minimizedAffinity 3.76528311
REMARK minimizedRMSD -1
REMARK  1 active torsions:
REMARK  status: ('A' for Active; 'I' for Inactive)
REMARK    1  A    between atoms: N_2  and  C1_3 
ROOT
ATOM      1  C1  UNL d   1      -3.993   1.102   5.072  0.00  0.00     0.143 A 
ATOM      2  C2  UNL d   1      -2.632   0.782   5.014  0.00  0.00    -0.057 A 
ATOM      3  C3  UNL d   1      -2.152  -0.194   4.132  0.00  0.00     0.033 A 
ATOM      4  C4  UNL d   1      -3.032  -0.890   3.310  0.00  0.00    -0.042 A 
ATOM      5  C5  UNL d   1      -4.392  -0.607   3.369  0.00  0.00     0.033 A 
ATOM      6  C6  UNL d   1      -4.864   0.374   4.247  0.00  0.00    -0.057 A 
ENDROOT
BRANCH   1   7
ATOM      7  N   UNL d   1      -4.544   1.992   5.997  0.00  0.00    -0.732 N 
ATOM      8  C   UNL d   1      -4.195   3.396   5.967  0.00  0.00     0.284 C 
ATOM      9  H3  UNL d   1      -5.531   1.812   6.168  0.00  0.00     0.395 HD
ENDBRANCH   1   7
TORSDOF 1
ENDMDL
