MODEL 1
REMARK minimizedAffinity 6.12112761
REMARK minimizedRMSD -1
REMARK  1 active torsions:
REMARK  status: ('A' for Active; 'I' for Inactive)
REMARK    1  A    between atoms: N_2  and  C1_3 
ROOT
ATOM      1  C1  UNL d   1       1.118  -0.733  -1.988  0.00  0.00     0.143 A 
ATOM      2  C2  UNL d   1       1.163  -2.122  -1.825  0.00  0.00    -0.057 A 
ATOM      3  C3  UNL d   1       1.400  -2.973  -2.912  0.00  0.00     0.033 A 
ATOM      4  C4  UNL d   1       1.567  -2.449  -4.190  0.00  0.00    -0.042 A 
ATOM      5  C5  UNL d   1       1.501  -1.074  -4.379  0.00  0.00     0.033 A 
ATOM      6  C6  UNL d   1       1.271  -0.229  -3.289  0.00  0.00    -0.057 A 
ENDROOT
BRANCH   1   7
ATOM      7  N   UNL d   1       0.789   0.159  -0.965  0.00  0.00    -0.732 N 
ATOM      8  C   UNL d   1       0.340   1.500  -1.273  0.00  0.00     0.284 C 
ATOM      9  H3  UNL d   1       0.274  -0.288  -0.210  0.00  0.00     0.395 HD
ENDBRANCH   1   7
TORSDOF 1
ENDMDL
