MODEL 1
REMARK minimizedAffinity 4.48654318
REMARK minimizedRMSD -1
REMARK  1 active torsions:
REMARK  status: ('A' for Active; 'I' for Inactive)
REMARK    1  A    between atoms: N_2  and  C1_3 
ROOT
ATOM      1  C1  UNL d   1       1.104   0.293  -2.532  0.00  0.00     0.143 A 
ATOM      2  C2  UNL d   1       0.915  -0.883  -1.799  0.00  0.00    -0.057 A 
ATOM      3  C3  UNL d   1       1.141  -2.141  -2.372  0.00  0.00     0.033 A 
ATOM      4  C4  UNL d   1       1.534  -2.245  -3.702  0.00  0.00    -0.042 A 
ATOM      5  C5  UNL d   1       1.704  -1.090  -4.457  0.00  0.00     0.033 A 
ATOM      6  C6  UNL d   1       1.483   0.163  -3.878  0.00  0.00    -0.057 A 
ENDROOT
BRANCH   1   7
ATOM      7  N   UNL d   1       0.801   1.568  -2.049  0.00  0.00    -0.732 N 
ATOM      8  C   UNL d   1       1.215   1.971  -0.722  0.00  0.00     0.284 C 
ATOM      9  H3  UNL d   1       0.916   2.289  -2.757  0.00  0.00     0.395 HD
ENDBRANCH   1   7
TORSDOF 1
ENDMDL
