MODEL 1
REMARK minimizedAffinity 0.81225127
REMARK minimizedRMSD -1
REMARK  1 active torsions:
REMARK  status: ('A' for Active; 'I' for Inactive)
REMARK    1  A    between atoms: N_2  and  C1_3 
ROOT
ATOM      1  C1  UNL d   1       1.191  -0.716  -2.640  0.00  0.00     0.143 A 
ATOM      2  C2  UNL d   1       0.644   0.039  -1.597  0.00  0.00    -0.057 A 
ATOM      3  C3  UNL d   1       0.365   1.401  -1.756  0.00  0.00     0.033 A 
ATOM      4  C4  UNL d   1       0.656   2.042  -2.956  0.00  0.00    -0.042 A 
ATOM      5  C5  UNL d   1       1.224   1.317  -3.997  0.00  0.00     0.033 A 
ATOM      6  C6  UNL d   1       1.494  -0.045  -3.835  0.00  0.00    -0.057 A 
ENDROOT
BRANCH   1   7
ATOM      7  N   UNL d   1       1.582  -2.051  -2.512  0.00  0.00    -0.732 N 
ATOM      8  C   UNL d   1       0.893  -3.095  -3.240  0.00  0.00     0.284 C 
ATOM      9  H3  UNL d   1       2.594  -2.159  -2.488  0.00  0.00     0.395 HD
ENDBRANCH   1   7
TORSDOF 1
ENDMDL
