MODEL 1
REMARK minimizedAffinity 0.834689617
REMARK minimizedRMSD -1
REMARK  1 active torsions:
REMARK  status: ('A' for Active; 'I' for Inactive)
REMARK    1  A    between atoms: N_2  and  C1_3 
ROOT
ATOM      1  C1  UNL d   1       1.153  -0.439  -1.446  0.00  0.00     0.143 A 
ATOM      2  C2  UNL d   1       1.532  -0.711  -2.765  0.00  0.00    -0.057 A 
ATOM      3  C3  UNL d   1       1.432   0.264  -3.765  0.00  0.00     0.033 A 
ATOM      4  C4  UNL d   1       0.923   1.524  -3.468  0.00  0.00    -0.042 A 
ATOM      5  C5  UNL d   1       0.517   1.809  -2.169  0.00  0.00     0.033 A 
ATOM      6  C6  UNL d   1       0.625   0.833  -1.173  0.00  0.00    -0.057 A 
ENDROOT
BRANCH   1   7
ATOM      7  N   UNL d   1       1.136  -1.396  -0.428  0.00  0.00    -0.732 N 
ATOM      8  C   UNL d   1      -0.010  -1.520   0.447  0.00  0.00     0.284 C 
ATOM      9  H3  UNL d   1       1.531  -2.286  -0.725  0.00  0.00     0.395 HD
ENDBRANCH   1   7
TORSDOF 1
ENDMDL
