MODEL 1
REMARK minimizedAffinity 3.25059915
REMARK minimizedRMSD -1
REMARK  1 active torsions:
REMARK  status: ('A' for Active; 'I' for Inactive)
REMARK    1  A    between atoms: N_2  and  C1_3 
ROOT
ATOM      1  C1  UNL d   1       5.572   2.663  -4.816  0.00  0.00     0.143 A 
ATOM      2  C2  UNL d   1       5.577   1.914  -5.997  0.00  0.00    -0.057 A 
ATOM      3  C3  UNL d   1       5.762   0.526  -5.976  0.00  0.00     0.033 A 
ATOM      4  C4  UNL d   1       5.975  -0.135  -4.771  0.00  0.00    -0.042 A 
ATOM      5  C5  UNL d   1       5.998   0.593  -3.587  0.00  0.00     0.033 A 
ATOM      6  C6  UNL d   1       5.806   1.977  -3.614  0.00  0.00    -0.057 A 
ENDROOT
BRANCH   1   7
ATOM      7  N   UNL d   1       5.491   4.057  -4.780  0.00  0.00    -0.732 N 
ATOM      8  C   UNL d   1       4.250   4.715  -4.432  0.00  0.00     0.284 C 
ATOM      9  H3  UNL d   1       6.317   4.483  -4.366  0.00  0.00     0.395 HD
ENDBRANCH   1   7
TORSDOF 1
ENDMDL
