MODEL 1
REMARK minimizedAffinity 1.73286641
REMARK minimizedRMSD -1
REMARK  1 active torsions:
REMARK  status: ('A' for Active; 'I' for Inactive)
REMARK    1  A    between atoms: N_2  and  C1_3 
ROOT
ATOM      1  C1  UNL d   1       1.084  -0.586  -2.111  0.00  0.00     0.143 A 
ATOM      2  C2  UNL d   1       1.055  -1.953  -1.819  0.00  0.00    -0.057 A 
ATOM      3  C3  UNL d   1       1.312  -2.913  -2.805  0.00  0.00     0.033 A 
ATOM      4  C4  UNL d   1       1.576  -2.520  -4.113  0.00  0.00    -0.042 A 
ATOM      5  C5  UNL d   1       1.586  -1.167  -4.433  0.00  0.00     0.033 A 
ATOM      6  C6  UNL d   1       1.335  -0.214  -3.441  0.00  0.00    -0.057 A 
ENDROOT
BRANCH   1   7
ATOM      7  N   UNL d   1       0.740   0.413  -1.197  0.00  0.00    -0.732 N 
ATOM      8  C   UNL d   1       0.349   1.729  -1.654  0.00  0.00     0.284 C 
ATOM      9  H3  UNL d   1       0.179   0.057  -0.426  0.00  0.00     0.395 HD
ENDBRANCH   1   7
TORSDOF 1
ENDMDL
