MODEL 1
REMARK minimizedAffinity 2.9223671
REMARK minimizedRMSD -1
REMARK  1 active torsions:
REMARK  status: ('A' for Active; 'I' for Inactive)
REMARK    1  A    between atoms: N_2  and  C1_3 
ROOT
ATOM      1  C1  UNL d   1      -3.337   1.298   5.698  0.00  0.00     0.143 A 
ATOM      2  C2  UNL d   1      -4.480   0.550   5.998  0.00  0.00    -0.057 A 
ATOM      3  C3  UNL d   1      -4.608  -0.781   5.580  0.00  0.00     0.033 A 
ATOM      4  C4  UNL d   1      -3.604  -1.379   4.827  0.00  0.00    -0.042 A 
ATOM      5  C5  UNL d   1      -2.469  -0.647   4.495  0.00  0.00     0.033 A 
ATOM      6  C6  UNL d   1      -2.345   0.679   4.921  0.00  0.00    -0.057 A 
ENDROOT
BRANCH   1   7
ATOM      7  N   UNL d   1      -3.193   2.654   6.000  0.00  0.00    -0.732 N 
ATOM      8  C   UNL d   1      -4.342   3.535   5.999  0.00  0.00     0.284 C 
ATOM      9  H3  UNL d   1      -2.547   2.814   6.769  0.00  0.00     0.395 HD
ENDBRANCH   1   7
TORSDOF 1
ENDMDL
