MODEL 1
REMARK minimizedAffinity -0.223565102
REMARK minimizedRMSD -1
REMARK  1 active torsions:
REMARK  status: ('A' for Active; 'I' for Inactive)
REMARK    1  A    between atoms: N_2  and  C1_3 
ROOT
ATOM      1  C1  UNL d   1       0.791  -1.342  -1.541  0.00  0.00     0.143 A 
ATOM      2  C2  UNL d   1       1.532  -1.089  -2.701  0.00  0.00    -0.057 A 
ATOM      3  C3  UNL d   1       1.751   0.218  -3.152  0.00  0.00     0.033 A 
ATOM      4  C4  UNL d   1       1.207   1.298  -2.464  0.00  0.00    -0.042 A 
ATOM      5  C5  UNL d   1       0.447   1.069  -1.322  0.00  0.00     0.033 A 
ATOM      6  C6  UNL d   1       0.237  -0.239  -0.874  0.00  0.00    -0.057 A 
ENDROOT
BRANCH   1   7
ATOM      7  N   UNL d   1       0.455  -2.623  -1.097  0.00  0.00    -0.732 N 
ATOM      8  C   UNL d   1      -0.358  -2.804   0.086  0.00  0.00     0.284 C 
ATOM      9  H3  UNL d   1       0.220  -3.251  -1.863  0.00  0.00     0.395 HD
ENDBRANCH   1   7
TORSDOF 1
ENDMDL
