MODEL 1
REMARK minimizedAffinity 2.05464172
REMARK minimizedRMSD -1
REMARK  1 active torsions:
REMARK  status: ('A' for Active; 'I' for Inactive)
REMARK    1  A    between atoms: N_2  and  C1_3 
ROOT
ATOM      1  C1  UNL d   1      -3.507   1.484   5.436  0.00  0.00     0.143 A 
ATOM      2  C2  UNL d   1      -2.683   0.927   4.452  0.00  0.00    -0.057 A 
ATOM      3  C3  UNL d   1      -2.863  -0.390   4.014  0.00  0.00     0.033 A 
ATOM      4  C4  UNL d   1      -3.856  -1.187   4.574  0.00  0.00    -0.042 A 
ATOM      5  C5  UNL d   1      -4.672  -0.662   5.571  0.00  0.00     0.033 A 
ATOM      6  C6  UNL d   1      -4.491   0.656   6.000  0.00  0.00    -0.057 A 
ENDROOT
BRANCH   1   7
ATOM      7  N   UNL d   1      -3.316   2.754   5.984  0.00  0.00    -0.732 N 
ATOM      8  C   UNL d   1      -4.393   3.721   5.999  0.00  0.00     0.284 C 
ATOM      9  H3  UNL d   1      -2.768   2.729   6.841  0.00  0.00     0.395 HD
ENDBRANCH   1   7
TORSDOF 1
ENDMDL
