MODEL 1
REMARK minimizedAffinity -0.984284878
REMARK minimizedRMSD -1
REMARK  1 active torsions:
REMARK  status: ('A' for Active; 'I' for Inactive)
REMARK    1  A    between atoms: N_2  and  C1_3 
ROOT
ATOM      1  C1  UNL d   1       2.279   0.629  -3.519  0.00  0.00     0.143 A 
ATOM      2  C2  UNL d   1       2.350  -0.492  -2.685  0.00  0.00    -0.057 A 
ATOM      3  C3  UNL d   1       1.463  -0.658  -1.615  0.00  0.00     0.033 A 
ATOM      4  C4  UNL d   1       0.504   0.312  -1.342  0.00  0.00    -0.042 A 
ATOM      5  C5  UNL d   1       0.431   1.447  -2.142  0.00  0.00     0.033 A 
ATOM      6  C6  UNL d   1       1.316   1.604  -3.213  0.00  0.00    -0.057 A 
ENDROOT
BRANCH   1   7
ATOM      7  N   UNL d   1       3.196   0.900  -4.539  0.00  0.00    -0.732 N 
ATOM      8  C   UNL d   1       4.619   0.868  -4.278  0.00  0.00     0.284 C 
ATOM      9  H3  UNL d   1       2.926   0.479  -5.425  0.00  0.00     0.395 HD
ENDBRANCH   1   7
TORSDOF 1
ENDMDL
