MODEL 1
REMARK minimizedAffinity 4.7150588
REMARK minimizedRMSD -1
REMARK  1 active torsions:
REMARK  status: ('A' for Active; 'I' for Inactive)
REMARK    1  A    between atoms: N_2  and  C1_3 
ROOT
ATOM      1  C1  UNL d   1       0.612  -0.940  -0.927  0.00  0.00     0.143 A 
ATOM      2  C2  UNL d   1       0.999  -1.996  -1.760  0.00  0.00    -0.057 A 
ATOM      3  C3  UNL d   1       1.326  -1.779  -3.104  0.00  0.00     0.033 A 
ATOM      4  C4  UNL d   1       1.243  -0.502  -3.648  0.00  0.00    -0.042 A 
ATOM      5  C5  UNL d   1       0.836   0.558  -2.846  0.00  0.00     0.033 A 
ATOM      6  C6  UNL d   1       0.517   0.336  -1.503  0.00  0.00    -0.057 A 
ENDROOT
BRANCH   1   7
ATOM      7  N   UNL d   1       0.180  -1.107   0.391  0.00  0.00    -0.732 N 
ATOM      8  C   UNL d   1      -0.857  -2.065   0.711  0.00  0.00     0.284 C 
ATOM      9  H3  UNL d   1       0.948  -1.088   1.057  0.00  0.00     0.395 HD
ENDBRANCH   1   7
TORSDOF 1
ENDMDL
