MODEL 1
REMARK minimizedAffinity -2.55958962
REMARK minimizedRMSD -1
REMARK  1 active torsions:
REMARK  status: ('A' for Active; 'I' for Inactive)
REMARK    1  A    between atoms: N_2  and  C1_3 
ROOT
ATOM      1  C1  UNL d   1       3.830   2.879  -5.603  0.00  0.00     0.143 A 
ATOM      2  C2  UNL d   1       3.818   1.537  -5.999  0.00  0.00    -0.057 A 
ATOM      3  C3  UNL d   1       4.862   0.669  -5.656  0.00  0.00     0.033 A 
ATOM      4  C4  UNL d   1       5.954   1.137  -4.933  0.00  0.00    -0.042 A 
ATOM      5  C5  UNL d   1       5.999   2.473  -4.550  0.00  0.00     0.033 A 
ATOM      6  C6  UNL d   1       4.951   3.333  -4.890  0.00  0.00    -0.057 A 
ENDROOT
BRANCH   1   7
ATOM      7  N   UNL d   1       2.870   3.814  -5.996  0.00  0.00    -0.732 N 
ATOM      8  C   UNL d   1       1.530   3.769  -5.452  0.00  0.00     0.284 C 
ATOM      9  H3  UNL d   1       3.254   4.753  -6.079  0.00  0.00     0.395 HD
ENDBRANCH   1   7
TORSDOF 1
ENDMDL
