MODEL 1
REMARK minimizedAffinity 3.46376944
REMARK minimizedRMSD -1
REMARK  1 active torsions:
REMARK  status: ('A' for Active; 'I' for Inactive)
REMARK    1  A    between atoms: N_2  and  C1_3 
ROOT
ATOM      1  C1  UNL d   1       1.300  -1.006  -2.699  0.00  0.00     0.143 A 
ATOM      2  C2  UNL d   1       1.285   0.332  -3.108  0.00  0.00    -0.057 A 
ATOM      3  C3  UNL d   1       0.847   1.348  -2.250  0.00  0.00     0.033 A 
ATOM      4  C4  UNL d   1       0.389   1.039  -0.973  0.00  0.00    -0.042 A 
ATOM      5  C5  UNL d   1       0.372  -0.286  -0.555  0.00  0.00     0.033 A 
ATOM      6  C6  UNL d   1       0.816  -1.296  -1.414  0.00  0.00    -0.057 A 
ENDROOT
BRANCH   1   7
ATOM      7  N   UNL d   1       1.630  -2.072  -3.539  0.00  0.00    -0.732 N 
ATOM      8  C   UNL d   1       1.180  -3.414  -3.239  0.00  0.00     0.284 C 
ATOM      9  H3  UNL d   1       1.569  -1.824  -4.524  0.00  0.00     0.395 HD
ENDBRANCH   1   7
TORSDOF 1
ENDMDL
