MODEL 1
REMARK minimizedAffinity -2.13131928
REMARK minimizedRMSD -1
REMARK  1 active torsions:
REMARK  status: ('A' for Active; 'I' for Inactive)
REMARK    1  A    between atoms: C1_2  and  C2_3 
ROOT
ATOM      1  C2  UNL d   1      -0.093  -1.695  -1.267  0.00  0.00    -0.073 A 
ATOM      2  C3  UNL d   1       1.232  -1.655  -0.820  0.00  0.00    -0.002 A 
ATOM      3  C4  UNL d   1       1.608  -0.773   0.193  0.00  0.00     0.004 A 
ATOM      4  C5  UNL d   1       0.663   0.072   0.775  0.00  0.00    -0.004 A 
ATOM      5  C6  UNL d   1      -0.669   0.038   0.350  0.00  0.00    -0.075 A 
ATOM      6  C7  UNL d   1      -1.698   0.942   0.964  0.00  0.00     0.076 C 
ATOM      7  C8  UNL d   1      -1.038  -0.849  -0.670  0.00  0.00     0.001 A 
ENDROOT
BRANCH   1   8
ATOM      8  C1  UNL d   1      -0.505  -2.651  -2.357  0.00  0.00     0.053 C 
ATOM      9  C   UNL d   1       0.311  -3.933  -2.329  0.00  0.00     0.018 C 
ENDBRANCH   1   8
TORSDOF 1
ENDMDL
