MODEL 1
REMARK minimizedAffinity -4.91139078
REMARK minimizedRMSD -1
REMARK  1 active torsions:
REMARK  status: ('A' for Active; 'I' for Inactive)
REMARK    1  A    between atoms: C1_2  and  C2_3 
ROOT
ATOM      1  C2  UNL d   1       0.710  -0.757   0.122  0.00  0.00    -0.073 A 
ATOM      2  C3  UNL d   1       0.069  -0.937   1.353  0.00  0.00    -0.002 A 
ATOM      3  C4  UNL d   1      -0.764   0.058   1.865  0.00  0.00     0.004 A 
ATOM      4  C5  UNL d   1      -0.971   1.238   1.150  0.00  0.00    -0.004 A 
ATOM      5  C6  UNL d   1      -0.348   1.431  -0.088  0.00  0.00    -0.075 A 
ATOM      6  C7  UNL d   1      -0.558   2.695  -0.868  0.00  0.00     0.076 C 
ATOM      7  C8  UNL d   1       0.489   0.428  -0.594  0.00  0.00     0.001 A 
ENDROOT
BRANCH   1   8
ATOM      8  C1  UNL d   1       1.606  -1.832  -0.439  0.00  0.00     0.053 C 
ATOM      9  C   UNL d   1       1.043  -2.434  -1.716  0.00  0.00     0.018 C 
ENDBRANCH   1   8
TORSDOF 1
ENDMDL
