MODEL 1
REMARK minimizedAffinity -2.31736946
REMARK minimizedRMSD -1
REMARK  1 active torsions:
REMARK  status: ('A' for Active; 'I' for Inactive)
REMARK    1  A    between atoms: C1_2  and  C2_3 
ROOT
ATOM      1  C2  UNL d   1       0.671  -0.220  -0.272  0.00  0.00    -0.073 A 
ATOM      2  C3  UNL d   1       1.050   0.726  -1.231  0.00  0.00    -0.002 A 
ATOM      3  C4  UNL d   1       0.387   1.951  -1.313  0.00  0.00     0.004 A 
ATOM      4  C5  UNL d   1      -0.655   2.246  -0.434  0.00  0.00    -0.004 A 
ATOM      5  C6  UNL d   1      -1.040   1.319   0.539  0.00  0.00    -0.075 A 
ATOM      6  C7  UNL d   1      -2.161   1.619   1.491  0.00  0.00     0.076 C 
ATOM      7  C8  UNL d   1      -0.372   0.089   0.613  0.00  0.00     0.001 A 
ENDROOT
BRANCH   1   8
ATOM      8  C1  UNL d   1       1.388  -1.542  -0.176  0.00  0.00     0.053 C 
ATOM      9  C   UNL d   1       1.119  -2.426  -1.383  0.00  0.00     0.018 C 
ENDBRANCH   1   8
TORSDOF 1
ENDMDL
