MODEL 1
REMARK minimizedAffinity -5.42741442
REMARK minimizedRMSD -1
REMARK  1 active torsions:
REMARK  status: ('A' for Active; 'I' for Inactive)
REMARK    1  A    between atoms: C1_2  and  C2_3 
ROOT
ATOM      1  C2  UNL d   1       0.211  -0.140  -0.096  0.00  0.00    -0.073 A 
ATOM      2  C3  UNL d   1       0.667  -0.644   1.127  0.00  0.00    -0.002 A 
ATOM      3  C4  UNL d   1       0.090  -0.219   2.324  0.00  0.00     0.004 A 
ATOM      4  C5  UNL d   1      -0.952   0.708   2.310  0.00  0.00    -0.004 A 
ATOM      5  C6  UNL d   1      -1.430   1.214   1.098  0.00  0.00    -0.075 A 
ATOM      6  C7  UNL d   1      -2.549   2.214   1.066  0.00  0.00     0.076 C 
ATOM      7  C8  UNL d   1      -0.843   0.785  -0.100  0.00  0.00     0.001 A 
ENDROOT
BRANCH   1   8
ATOM      8  C1  UNL d   1       0.827  -0.600  -1.392  0.00  0.00     0.053 C 
ATOM      9  C   UNL d   1       1.144  -2.087  -1.376  0.00  0.00     0.018 C 
ENDBRANCH   1   8
TORSDOF 1
ENDMDL
