MODEL 1
REMARK minimizedAffinity -4.94144201
REMARK minimizedRMSD -1
REMARK  1 active torsions:
REMARK  status: ('A' for Active; 'I' for Inactive)
REMARK    1  A    between atoms: C1_2  and  C2_3 
ROOT
ATOM      1  C2  UNL d   1       1.500  -4.335  -1.671  0.00  0.00    -0.073 A 
ATOM      2  C3  UNL d   1       1.452  -4.124  -3.054  0.00  0.00    -0.002 A 
ATOM      3  C4  UNL d   1       1.158  -2.859  -3.564  0.00  0.00     0.004 A 
ATOM      4  C5  UNL d   1       0.916  -1.792  -2.699  0.00  0.00    -0.004 A 
ATOM      5  C6  UNL d   1       0.971  -1.980  -1.314  0.00  0.00    -0.075 A 
ATOM      6  C7  UNL d   1       0.711  -0.843  -0.370  0.00  0.00     0.076 C 
ATOM      7  C8  UNL d   1       1.264  -3.254  -0.810  0.00  0.00     0.001 A 
ENDROOT
BRANCH   1   8
ATOM      8  C1  UNL d   1       1.823  -5.698  -1.116  0.00  0.00     0.053 C 
ATOM      9  C   UNL d   1       2.227  -5.635   0.349  0.00  0.00     0.018 C 
ENDBRANCH   1   8
TORSDOF 1
ENDMDL
