MODEL 1
REMARK minimizedAffinity -4.67969656
REMARK minimizedRMSD -1
REMARK  1 active torsions:
REMARK  status: ('A' for Active; 'I' for Inactive)
REMARK    1  A    between atoms: C1_2  and  C2_3 
ROOT
ATOM      1  C2  UNL d   1       1.324  -2.494  -1.319  0.00  0.00    -0.073 A 
ATOM      2  C3  UNL d   1       0.493  -2.952  -2.348  0.00  0.00    -0.002 A 
ATOM      3  C4  UNL d   1       0.352  -4.321  -2.583  0.00  0.00     0.004 A 
ATOM      4  C5  UNL d   1       1.034  -5.243  -1.790  0.00  0.00    -0.004 A 
ATOM      5  C6  UNL d   1       1.860  -4.805  -0.750  0.00  0.00    -0.075 A 
ATOM      6  C7  UNL d   1       2.601  -5.785   0.112  0.00  0.00     0.076 C 
ATOM      7  C8  UNL d   1       1.998  -3.430  -0.521  0.00  0.00     0.001 A 
ENDROOT
BRANCH   1   8
ATOM      8  C1  UNL d   1       1.475  -1.018  -1.057  0.00  0.00     0.053 C 
ATOM      9  C   UNL d   1       0.510  -0.527   0.010  0.00  0.00     0.018 C 
ENDBRANCH   1   8
TORSDOF 1
ENDMDL
