MODEL 1
REMARK minimizedAffinity -4.76654148
REMARK minimizedRMSD -1
REMARK  1 active torsions:
REMARK  status: ('A' for Active; 'I' for Inactive)
REMARK    1  A    between atoms: C1_2  and  C2_3 
ROOT
ATOM      1  C2  UNL d   1       0.249  -0.107  -0.013  0.00  0.00    -0.073 A 
ATOM      2  C3  UNL d   1       0.431  -0.822   1.176  0.00  0.00    -0.002 A 
ATOM      3  C4  UNL d   1      -0.171  -0.388   2.359  0.00  0.00     0.004 A 
ATOM      4  C5  UNL d   1      -0.964   0.759   2.363  0.00  0.00    -0.004 A 
ATOM      5  C6  UNL d   1      -1.167   1.481   1.182  0.00  0.00    -0.075 A 
ATOM      6  C7  UNL d   1      -2.015   2.718   1.170  0.00  0.00     0.076 C 
ATOM      7  C8  UNL d   1      -0.557   1.040  -0.000  0.00  0.00     0.001 A 
ENDROOT
BRANCH   1   8
ATOM      8  C1  UNL d   1       0.891  -0.575  -1.293  0.00  0.00     0.053 C 
ATOM      9  C   UNL d   1       0.766  -2.079  -1.477  0.00  0.00     0.018 C 
ENDBRANCH   1   8
TORSDOF 1
ENDMDL
