MODEL 1
REMARK minimizedAffinity -5.96601343
REMARK minimizedRMSD -1
REMARK  1 active torsions:
REMARK  status: ('A' for Active; 'I' for Inactive)
REMARK    1  A    between atoms: C1_2  and  C2_3 
ROOT
ATOM      1  C2  UNL d   1      -0.993   1.859   0.597  0.00  0.00    -0.073 A 
ATOM      2  C3  UNL d   1      -1.343   1.454   1.890  0.00  0.00    -0.002 A 
ATOM      3  C4  UNL d   1      -0.996   0.184   2.350  0.00  0.00     0.004 A 
ATOM      4  C5  UNL d   1      -0.289  -0.692   1.526  0.00  0.00    -0.004 A 
ATOM      5  C6  UNL d   1       0.081  -0.302   0.235  0.00  0.00    -0.075 A 
ATOM      6  C7  UNL d   1       0.839  -1.233  -0.665  0.00  0.00     0.076 C 
ATOM      7  C8  UNL d   1      -0.274   0.975  -0.221  0.00  0.00     0.001 A 
ENDROOT
BRANCH   1   8
ATOM      8  C1  UNL d   1      -1.360   3.232   0.099  0.00  0.00     0.053 C 
ATOM      9  C   UNL d   1      -0.524   3.646  -1.102  0.00  0.00     0.018 C 
ENDBRANCH   1   8
TORSDOF 1
ENDMDL
