MODEL 1
REMARK minimizedAffinity -4.0450592
REMARK minimizedRMSD -1
REMARK  1 active torsions:
REMARK  status: ('A' for Active; 'I' for Inactive)
REMARK    1  A    between atoms: C1_2  and  C2_3 
ROOT
ATOM      1  C2  UNL d   1       0.798  -1.931  -1.266  0.00  0.00    -0.073 A 
ATOM      2  C3  UNL d   1       0.128  -2.235  -2.456  0.00  0.00    -0.002 A 
ATOM      3  C4  UNL d   1       0.034  -3.556  -2.895  0.00  0.00     0.004 A 
ATOM      4  C5  UNL d   1       0.601  -4.586  -2.145  0.00  0.00    -0.004 A 
ATOM      5  C6  UNL d   1       1.265  -4.304  -0.947  0.00  0.00    -0.075 A 
ATOM      6  C7  UNL d   1       1.883  -5.401  -0.130  0.00  0.00     0.076 C 
ATOM      7  C8  UNL d   1       1.358  -2.974  -0.515  0.00  0.00     0.001 A 
ENDROOT
BRANCH   1   8
ATOM      8  C1  UNL d   1       0.897  -0.506  -0.785  0.00  0.00     0.053 C 
ATOM      9  C   UNL d   1      -0.061  -0.223   0.360  0.00  0.00     0.018 C 
ENDBRANCH   1   8
TORSDOF 1
ENDMDL
