MODEL 1
REMARK minimizedAffinity -5.81645489
REMARK minimizedRMSD -1
REMARK  1 active torsions:
REMARK  status: ('A' for Active; 'I' for Inactive)
REMARK    1  A    between atoms: C1_2  and  C2_3 
ROOT
ATOM      1  C2  UNL d   1       1.058  -0.261  -0.603  0.00  0.00    -0.073 A 
ATOM      2  C3  UNL d   1       1.329   0.911  -1.319  0.00  0.00    -0.002 A 
ATOM      3  C4  UNL d   1       0.663   2.097  -1.007  0.00  0.00     0.004 A 
ATOM      4  C5  UNL d   1      -0.274   2.125   0.026  0.00  0.00    -0.004 A 
ATOM      5  C6  UNL d   1      -0.550   0.967   0.760  0.00  0.00    -0.075 A 
ATOM      6  C7  UNL d   1      -1.557   0.980   1.872  0.00  0.00     0.076 C 
ATOM      7  C8  UNL d   1       0.121  -0.221   0.439  0.00  0.00     0.001 A 
ENDROOT
BRANCH   1   8
ATOM      8  C1  UNL d   1       1.779  -1.543  -0.932  0.00  0.00     0.053 C 
ATOM      9  C   UNL d   1       1.004  -2.395  -1.925  0.00  0.00     0.018 C 
ENDBRANCH   1   8
TORSDOF 1
ENDMDL
