MODEL 1
REMARK minimizedAffinity -5.05994368
REMARK minimizedRMSD -1
REMARK  1 active torsions:
REMARK  status: ('A' for Active; 'I' for Inactive)
REMARK    1  A    between atoms: C1_2  and  C2_3 
ROOT
ATOM      1  C2  UNL d   1       1.070  -2.068  -1.472  0.00  0.00    -0.073 A 
ATOM      2  C3  UNL d   1       0.571  -2.175  -2.775  0.00  0.00    -0.002 A 
ATOM      3  C4  UNL d   1       0.425  -3.427  -3.374  0.00  0.00     0.004 A 
ATOM      4  C5  UNL d   1       0.768  -4.584  -2.674  0.00  0.00    -0.004 A 
ATOM      5  C6  UNL d   1       1.257  -4.498  -1.366  0.00  0.00    -0.075 A 
ATOM      6  C7  UNL d   1       1.633  -5.733  -0.601  0.00  0.00     0.076 C 
ATOM      7  C8  UNL d   1       1.404  -3.237  -0.774  0.00  0.00     0.001 A 
ENDROOT
BRANCH   1   8
ATOM      8  C1  UNL d   1       1.224  -0.718  -0.820  0.00  0.00     0.053 C 
ATOM      9  C   UNL d   1       0.329  -0.569   0.400  0.00  0.00     0.018 C 
ENDBRANCH   1   8
TORSDOF 1
ENDMDL
