MODEL 1
REMARK minimizedAffinity -4.39025688
REMARK minimizedRMSD -1
REMARK  1 active torsions:
REMARK  status: ('A' for Active; 'I' for Inactive)
REMARK    1  A    between atoms: C1_2  and  C2_3 
ROOT
ATOM      1  C2  UNL d   1       0.869  -2.065  -1.238  0.00  0.00    -0.073 A 
ATOM      2  C3  UNL d   1       0.027  -2.333  -2.323  0.00  0.00    -0.002 A 
ATOM      3  C4  UNL d   1      -0.193  -3.648  -2.737  0.00  0.00     0.004 A 
ATOM      4  C5  UNL d   1       0.420  -4.706  -2.067  0.00  0.00    -0.004 A 
ATOM      5  C6  UNL d   1       1.255  -4.459  -0.972  0.00  0.00    -0.075 A 
ATOM      6  C7  UNL d   1       1.924  -5.587  -0.242  0.00  0.00     0.076 C 
ATOM      7  C8  UNL d   1       1.473  -3.137  -0.565  0.00  0.00     0.001 A 
ENDROOT
BRANCH   1   8
ATOM      8  C1  UNL d   1       1.104  -0.648  -0.783  0.00  0.00     0.053 C 
ATOM      9  C   UNL d   1      -0.090  -0.086  -0.027  0.00  0.00     0.018 C 
ENDBRANCH   1   8
TORSDOF 1
ENDMDL
