MODEL 1
REMARK minimizedAffinity 4.25385952
REMARK minimizedRMSD -1
REMARK  1 active torsions:
REMARK  status: ('A' for Active; 'I' for Inactive)
REMARK    1  A    between atoms: C1_2  and  C2_3 
ROOT
ATOM      1  C2  UNL d   1       0.996  -1.491   2.097  0.00  0.00    -0.077 A 
ATOM      2  C3  UNL d   1       0.568  -0.747   3.205  0.00  0.00     0.002 A 
ATOM      3  C4  UNL d   1      -0.715  -0.927   3.724  0.00  0.00     0.002 A 
ATOM      4  C5  UNL d   1      -1.580  -1.853   3.144  0.00  0.00    -0.004 A 
ATOM      5  C6  UNL d   1      -1.165  -2.596   2.040  0.00  0.00     0.002 A 
ATOM      6  C7  UNL d   1       0.117  -2.417   1.520  0.00  0.00     0.002 A 
ENDROOT
BRANCH   1   7
ATOM      7  C1  UNL d   1       2.397  -1.334   1.566  0.00  0.00     0.055 C 
ATOM      8  C   UNL d   1       3.073  -0.100   2.145  0.00  0.00     0.019 C 
ENDBRANCH   1   7
TORSDOF 1
ENDMDL
