MODEL 1
REMARK minimizedAffinity 18.2349758
REMARK minimizedRMSD -1
REMARK  1 active torsions:
REMARK  status: ('A' for Active; 'I' for Inactive)
REMARK    1  A    between atoms: C1_2  and  C2_3 
ROOT
ATOM      1  C2  UNL d   1      -2.041   3.578  -3.648  0.00  0.00    -0.077 A 
ATOM      2  C3  UNL d   1      -1.984   3.589  -5.048  0.00  0.00     0.002 A 
ATOM      3  C4  UNL d   1      -1.876   4.796  -5.742  0.00  0.00     0.002 A 
ATOM      4  C5  UNL d   1      -1.820   6.000  -5.043  0.00  0.00    -0.004 A 
ATOM      5  C6  UNL d   1      -1.877   6.000  -3.650  0.00  0.00     0.002 A 
ATOM      6  C7  UNL d   1      -1.986   4.794  -2.955  0.00  0.00     0.002 A 
ENDROOT
BRANCH   1   7
ATOM      7  C1  UNL d   1      -2.107   2.274  -2.896  0.00  0.00     0.055 C 
ATOM      8  C   UNL d   1      -0.740   1.871  -2.364  0.00  0.00     0.019 C 
ENDBRANCH   1   7
TORSDOF 1
ENDMDL
