MODEL 1
REMARK minimizedAffinity 12.6723232
REMARK minimizedRMSD -1
REMARK  1 active torsions:
REMARK  status: ('A' for Active; 'I' for Inactive)
REMARK    1  A    between atoms: C1_2  and  C2_3 
ROOT
ATOM      1  C2  UNL d   1      -2.993   4.136  -2.260  0.00  0.00    -0.077 A 
ATOM      2  C3  UNL d   1      -2.634   5.485  -2.391  0.00  0.00     0.002 A 
ATOM      3  C4  UNL d   1      -2.262   6.000  -3.634  0.00  0.00     0.002 A 
ATOM      4  C5  UNL d   1      -2.250   5.174  -4.756  0.00  0.00    -0.004 A 
ATOM      5  C6  UNL d   1      -2.604   3.831  -4.636  0.00  0.00     0.002 A 
ATOM      6  C7  UNL d   1      -2.975   3.314  -3.394  0.00  0.00     0.002 A 
ENDROOT
BRANCH   1   7
ATOM      7  C1  UNL d   1      -3.442   3.591  -0.929  0.00  0.00     0.055 C 
ATOM      8  C   UNL d   1      -4.902   3.926  -0.658  0.00  0.00     0.019 C 
ENDBRANCH   1   7
TORSDOF 1
ENDMDL
