MODEL 1
REMARK minimizedAffinity 18.3955345
REMARK minimizedRMSD -1
REMARK  1 active torsions:
REMARK  status: ('A' for Active; 'I' for Inactive)
REMARK    1  A    between atoms: C1_2  and  C2_3 
ROOT
ATOM      1  C2  UNL d   1       2.478   2.885   0.600  0.00  0.00    -0.077 A 
ATOM      2  C3  UNL d   1       1.255   2.485   0.044  0.00  0.00     0.002 A 
ATOM      3  C4  UNL d   1       0.258   3.425  -0.222  0.00  0.00     0.002 A 
ATOM      4  C5  UNL d   1       0.476   4.772   0.060  0.00  0.00    -0.004 A 
ATOM      5  C6  UNL d   1       1.688   5.180   0.615  0.00  0.00     0.002 A 
ATOM      6  C7  UNL d   1       2.685   4.241   0.883  0.00  0.00     0.002 A 
ENDROOT
BRANCH   1   7
ATOM      7  C1  UNL d   1       3.572   1.879   0.842  0.00  0.00     0.055 C 
ATOM      8  C   UNL d   1       3.191   0.900   1.943  0.00  0.00     0.019 C 
ENDBRANCH   1   7
TORSDOF 1
ENDMDL
