MODEL 1
REMARK minimizedAffinity 15.7064247
REMARK minimizedRMSD -1
REMARK  1 active torsions:
REMARK  status: ('A' for Active; 'I' for Inactive)
REMARK    1  A    between atoms: C1_2  and  C2_3 
ROOT
ATOM      1  C2  UNL d   1      -3.463  -4.150   0.584  0.00  0.00    -0.077 A 
ATOM      2  C3  UNL d   1      -4.634  -3.467   0.944  0.00  0.00     0.002 A 
ATOM      3  C4  UNL d   1      -4.618  -2.540   1.987  0.00  0.00     0.002 A 
ATOM      4  C5  UNL d   1      -3.435  -2.284   2.677  0.00  0.00    -0.004 A 
ATOM      5  C6  UNL d   1      -2.266  -2.959   2.328  0.00  0.00     0.002 A 
ATOM      6  C7  UNL d   1      -2.279  -3.887   1.286  0.00  0.00     0.002 A 
ENDROOT
BRANCH   1   7
ATOM      7  C1  UNL d   1      -3.466  -5.114  -0.573  0.00  0.00     0.055 C 
ATOM      8  C   UNL d   1      -4.791  -5.855  -0.673  0.00  0.00     0.019 C 
ENDBRANCH   1   7
TORSDOF 1
ENDMDL
