MODEL 1
REMARK minimizedAffinity 4.84255791
REMARK minimizedRMSD -1
REMARK  1 active torsions:
REMARK  status: ('A' for Active; 'I' for Inactive)
REMARK    1  A    between atoms: C1_2  and  C2_3 
ROOT
ATOM      1  C2  UNL d   1      -0.297  -2.303   2.712  0.00  0.00    -0.077 A 
ATOM      2  C3  UNL d   1       0.048  -1.096   3.336  0.00  0.00     0.002 A 
ATOM      3  C4  UNL d   1       1.174  -0.383   2.920  0.00  0.00     0.002 A 
ATOM      4  C5  UNL d   1       1.960  -0.866   1.876  0.00  0.00    -0.004 A 
ATOM      5  C6  UNL d   1       1.626  -2.066   1.250  0.00  0.00     0.002 A 
ATOM      6  C7  UNL d   1       0.502  -2.781   1.665  0.00  0.00     0.002 A 
ENDROOT
BRANCH   1   7
ATOM      7  C1  UNL d   1      -1.539  -3.049   3.126  0.00  0.00     0.055 C 
ATOM      8  C   UNL d   1      -2.353  -3.483   1.916  0.00  0.00     0.019 C 
ENDBRANCH   1   7
TORSDOF 1
ENDMDL
