MODEL 1
REMARK minimizedAffinity 11.2835245
REMARK minimizedRMSD -1
REMARK  1 active torsions:
REMARK  status: ('A' for Active; 'I' for Inactive)
REMARK    1  A    between atoms: C1_2  and  C2_3 
ROOT
ATOM      1  C2  UNL d   1       1.327  -0.556   1.937  0.00  0.00    -0.077 A 
ATOM      2  C3  UNL d   1       1.106  -1.813   1.355  0.00  0.00     0.002 A 
ATOM      3  C4  UNL d   1       0.248  -2.731   1.964  0.00  0.00     0.002 A 
ATOM      4  C5  UNL d   1      -0.397  -2.402   3.154  0.00  0.00    -0.004 A 
ATOM      5  C6  UNL d   1      -0.182  -1.156   3.741  0.00  0.00     0.002 A 
ATOM      6  C7  UNL d   1       0.676  -0.237   3.135  0.00  0.00     0.002 A 
ENDROOT
BRANCH   1   7
ATOM      7  C1  UNL d   1       2.213   0.454   1.257  0.00  0.00     0.055 C 
ATOM      8  C   UNL d   1       3.638   0.388   1.787  0.00  0.00     0.019 C 
ENDBRANCH   1   7
TORSDOF 1
ENDMDL
