MODEL 1
REMARK minimizedAffinity 19.9985809
REMARK minimizedRMSD -1
REMARK  1 active torsions:
REMARK  status: ('A' for Active; 'I' for Inactive)
REMARK    1  A    between atoms: C1_2  and  C2_3 
ROOT
ATOM      1  C2  UNL d   1       2.719   0.516   2.641  0.00  0.00    -0.077 A 
ATOM      2  C3  UNL d   1       1.945  -0.026   1.606  0.00  0.00     0.002 A 
ATOM      3  C4  UNL d   1       0.634  -0.442   1.847  0.00  0.00     0.002 A 
ATOM      4  C5  UNL d   1       0.084  -0.315   3.121  0.00  0.00    -0.004 A 
ATOM      5  C6  UNL d   1       0.847   0.221   4.158  0.00  0.00     0.002 A 
ATOM      6  C7  UNL d   1       2.158   0.636   3.919  0.00  0.00     0.002 A 
ENDROOT
BRANCH   1   7
ATOM      7  C1  UNL d   1       4.116   1.011   2.372  0.00  0.00     0.055 C 
ATOM      8  C   UNL d   1       4.160   1.901   1.138  0.00  0.00     0.019 C 
ENDBRANCH   1   7
TORSDOF 1
ENDMDL
