MODEL 1
REMARK minimizedAffinity 7.49658775
REMARK minimizedRMSD -1
REMARK  1 active torsions:
REMARK  status: ('A' for Active; 'I' for Inactive)
REMARK    1  A    between atoms: C1_2  and  C2_3 
ROOT
ATOM      1  C2  UNL d   1      -2.029   3.744  -3.798  0.00  0.00    -0.077 A 
ATOM      2  C3  UNL d   1      -1.522   5.038  -3.615  0.00  0.00     0.002 A 
ATOM      3  C4  UNL d   1      -1.661   6.000  -4.618  0.00  0.00     0.002 A 
ATOM      4  C5  UNL d   1      -2.311   5.679  -5.807  0.00  0.00    -0.004 A 
ATOM      5  C6  UNL d   1      -2.817   4.394  -6.000  0.00  0.00     0.002 A 
ATOM      6  C7  UNL d   1      -2.677   3.431  -4.999  0.00  0.00     0.002 A 
ENDROOT
BRANCH   1   7
ATOM      7  C1  UNL d   1      -1.923   2.720  -2.698  0.00  0.00     0.055 C 
ATOM      8  C   UNL d   1      -0.498   2.618  -2.172  0.00  0.00     0.019 C 
ENDBRANCH   1   7
TORSDOF 1
ENDMDL
