MODEL 1
REMARK minimizedAffinity -1.19647455
REMARK minimizedRMSD -1
REMARK  1 active torsions:
REMARK  status: ('A' for Active; 'I' for Inactive)
REMARK    1  A    between atoms: C3_4  and  O_7 
ROOT
ATOM      1  C   UNL d   1       1.223  -3.034  -2.762  0.00  0.00    -0.033 A 
ATOM      2  C1  UNL d   1       0.494  -1.914  -3.166  0.00  0.00     0.039 A 
ATOM      3  C2  UNL d   1       0.177  -0.915  -2.244  0.00  0.00    -0.080 A 
ATOM      4  C3  UNL d   1       0.595  -1.047  -0.923  0.00  0.00     0.150 A 
ATOM      5  C4  UNL d   1       1.324  -2.159  -0.514  0.00  0.00    -0.007 A 
ATOM      6  C5  UNL d   1       1.639  -3.156  -1.436  0.00  0.00     0.039 A 
ENDROOT
BRANCH   4   7
ATOM      7  O   UNL d   1       0.305  -0.101   0.015  0.00  0.00    -0.526 OA
ATOM      8  H5  UNL d   1      -0.228   0.595  -0.405  0.00  0.00     0.418 HD
ENDBRANCH   4   7
TORSDOF 1
ENDMDL
