MODEL 1
REMARK minimizedAffinity -3.63175917
REMARK minimizedRMSD -1
REMARK  1 active torsions:
REMARK  status: ('A' for Active; 'I' for Inactive)
REMARK    1  A    between atoms: C3_4  and  O_7 
ROOT
ATOM      1  C   UNL d   1      -1.081  -0.820   1.513  0.00  0.00    -0.033 A 
ATOM      2  C1  UNL d   1       0.143  -0.218   1.218  0.00  0.00     0.039 A 
ATOM      3  C2  UNL d   1       0.875  -0.629   0.103  0.00  0.00    -0.080 A 
ATOM      4  C3  UNL d   1       0.372  -1.643  -0.709  0.00  0.00     0.150 A 
ATOM      5  C4  UNL d   1      -0.849  -2.245  -0.423  0.00  0.00    -0.007 A 
ATOM      6  C5  UNL d   1      -1.578  -1.833   0.692  0.00  0.00     0.039 A 
ENDROOT
BRANCH   4   7
ATOM      7  O   UNL d   1       1.052  -2.082  -1.805  0.00  0.00    -0.526 OA
ATOM      8  H5  UNL d   1       1.891  -1.595  -1.862  0.00  0.00     0.418 HD
ENDBRANCH   4   7
TORSDOF 1
ENDMDL
