MODEL 1
REMARK minimizedAffinity -1.57969403
REMARK minimizedRMSD -1
REMARK  1 active torsions:
REMARK  status: ('A' for Active; 'I' for Inactive)
REMARK    1  A    between atoms: C3_4  and  O_7 
ROOT
ATOM      1  C   UNL d   1       0.862  -0.854   0.457  0.00  0.00    -0.033 A 
ATOM      2  C1  UNL d   1      -0.012   0.049   1.066  0.00  0.00     0.039 A 
ATOM      3  C2  UNL d   1      -0.074   1.371   0.623  0.00  0.00    -0.080 A 
ATOM      4  C3  UNL d   1       0.741   1.778  -0.430  0.00  0.00     0.150 A 
ATOM      5  C4  UNL d   1       1.611   0.883  -1.044  0.00  0.00    -0.007 A 
ATOM      6  C5  UNL d   1       1.672  -0.437  -0.599  0.00  0.00     0.039 A 
ENDROOT
BRANCH   4   7
ATOM      7  O   UNL d   1       0.720   3.059  -0.895  0.00  0.00    -0.526 OA
ATOM      8  H5  UNL d   1       0.093   3.571  -0.357  0.00  0.00     0.418 HD
ENDBRANCH   4   7
TORSDOF 1
ENDMDL
