MODEL 1
REMARK minimizedAffinity -2.48980093
REMARK minimizedRMSD -1
REMARK  1 active torsions:
REMARK  status: ('A' for Active; 'I' for Inactive)
REMARK    1  A    between atoms: C3_4  and  O_7 
ROOT
ATOM      1  C   UNL d   1       1.322  -2.274  -2.304  0.00  0.00    -0.033 A 
ATOM      2  C1  UNL d   1       1.511  -0.936  -1.951  0.00  0.00     0.039 A 
ATOM      3  C2  UNL d   1       0.829  -0.397  -0.859  0.00  0.00    -0.080 A 
ATOM      4  C3  UNL d   1      -0.037  -1.205  -0.128  0.00  0.00     0.150 A 
ATOM      5  C4  UNL d   1      -0.228  -2.540  -0.472  0.00  0.00    -0.007 A 
ATOM      6  C5  UNL d   1       0.453  -3.076  -1.563  0.00  0.00     0.039 A 
ENDROOT
BRANCH   4   7
ATOM      7  O   UNL d   1      -0.729  -0.723   0.943  0.00  0.00    -0.526 OA
ATOM      8  H5  UNL d   1      -0.520   0.221   1.045  0.00  0.00     0.418 HD
ENDBRANCH   4   7
TORSDOF 1
ENDMDL
