MODEL 1
REMARK minimizedAffinity -3.37446809
REMARK minimizedRMSD -1
REMARK  1 active torsions:
REMARK  status: ('A' for Active; 'I' for Inactive)
REMARK    1  A    between atoms: C3_4  and  O_7 
ROOT
ATOM      1  C   UNL d   1      -0.231  -0.468   1.356  0.00  0.00    -0.033 A 
ATOM      2  C1  UNL d   1       0.983  -0.205   0.720  0.00  0.00     0.039 A 
ATOM      3  C2  UNL d   1       1.241  -0.738  -0.545  0.00  0.00    -0.080 A 
ATOM      4  C3  UNL d   1       0.277  -1.530  -1.162  0.00  0.00     0.150 A 
ATOM      5  C4  UNL d   1      -0.937  -1.793  -0.536  0.00  0.00    -0.007 A 
ATOM      6  C5  UNL d   1      -1.192  -1.261   0.727  0.00  0.00     0.039 A 
ENDROOT
BRANCH   4   7
ATOM      7  O   UNL d   1       0.485  -2.076  -2.394  0.00  0.00    -0.526 OA
ATOM      8  H5  UNL d   1       1.378  -1.833  -2.691  0.00  0.00     0.418 HD
ENDBRANCH   4   7
TORSDOF 1
ENDMDL
