MODEL 1
REMARK minimizedAffinity -2.17519331
REMARK minimizedRMSD -1
REMARK  1 active torsions:
REMARK  status: ('A' for Active; 'I' for Inactive)
REMARK    1  A    between atoms: C3_4  and  O_7 
ROOT
ATOM      1  C   UNL d   1       0.327  -1.453  -0.603  0.00  0.00    -0.033 A 
ATOM      2  C1  UNL d   1       0.545  -0.074  -0.606  0.00  0.00     0.039 A 
ATOM      3  C2  UNL d   1      -0.129   0.743   0.305  0.00  0.00    -0.080 A 
ATOM      4  C3  UNL d   1      -1.015   0.169   1.212  0.00  0.00     0.150 A 
ATOM      5  C4  UNL d   1      -1.234  -1.205   1.223  0.00  0.00    -0.007 A 
ATOM      6  C5  UNL d   1      -0.561  -2.019   0.312  0.00  0.00     0.039 A 
ENDROOT
BRANCH   4   7
ATOM      7  O   UNL d   1      -1.699   0.926   2.116  0.00  0.00    -0.526 OA
ATOM      8  H5  UNL d   1      -1.469   1.859   1.973  0.00  0.00     0.418 HD
ENDBRANCH   4   7
TORSDOF 1
ENDMDL
