MODEL 1
REMARK minimizedAffinity -1.78598118
REMARK minimizedRMSD -1
REMARK  1 active torsions:
REMARK  status: ('A' for Active; 'I' for Inactive)
REMARK    1  A    between atoms: C3_4  and  O_7 
ROOT
ATOM      1  C   UNL d   1      -2.108   0.315   1.826  0.00  0.00    -0.033 A 
ATOM      2  C1  UNL d   1      -0.937   1.010   2.134  0.00  0.00     0.039 A 
ATOM      3  C2  UNL d   1       0.237   0.752   1.424  0.00  0.00    -0.080 A 
ATOM      4  C3  UNL d   1       0.227  -0.200   0.409  0.00  0.00     0.150 A 
ATOM      5  C4  UNL d   1      -0.937  -0.894   0.094  0.00  0.00    -0.007 A 
ATOM      6  C5  UNL d   1      -2.109  -0.636   0.804  0.00  0.00     0.039 A 
ENDROOT
BRANCH   4   7
ATOM      7  O   UNL d   1       1.350  -0.490  -0.309  0.00  0.00    -0.526 OA
ATOM      8  H5  UNL d   1       2.083   0.045   0.039  0.00  0.00     0.418 HD
ENDBRANCH   4   7
TORSDOF 1
ENDMDL
