MODEL 1
REMARK minimizedAffinity -2.36078215
REMARK minimizedRMSD -1
REMARK  1 active torsions:
REMARK  status: ('A' for Active; 'I' for Inactive)
REMARK    1  A    between atoms: C3_4  and  O_7 
ROOT
ATOM      1  C   UNL d   1       0.345   0.129   0.223  0.00  0.00    -0.033 A 
ATOM      2  C1  UNL d   1      -0.680  -0.819   0.199  0.00  0.00     0.039 A 
ATOM      3  C2  UNL d   1      -0.607  -1.906  -0.674  0.00  0.00    -0.080 A 
ATOM      4  C3  UNL d   1       0.495  -2.035  -1.515  0.00  0.00     0.150 A 
ATOM      5  C4  UNL d   1       1.522  -1.097  -1.493  0.00  0.00    -0.007 A 
ATOM      6  C5  UNL d   1       1.447  -0.011  -0.622  0.00  0.00     0.039 A 
ENDROOT
BRANCH   4   7
ATOM      7  O   UNL d   1       0.608  -3.077  -2.387  0.00  0.00    -0.526 OA
ATOM      8  H5  UNL d   1      -0.188  -3.629  -2.312  0.00  0.00     0.418 HD
ENDBRANCH   4   7
TORSDOF 1
ENDMDL
