MODEL 1
REMARK minimizedAffinity -4.60233545
REMARK minimizedRMSD -1
REMARK  1 active torsions:
REMARK  status: ('A' for Active; 'I' for Inactive)
REMARK    1  A    between atoms: C3_4  and  O_7 
ROOT
ATOM      1  C   UNL d   1      -1.342  -0.024   2.158  0.00  0.00    -0.033 A 
ATOM      2  C1  UNL d   1      -1.093   1.080   1.341  0.00  0.00     0.039 A 
ATOM      3  C2  UNL d   1      -0.040   1.049   0.424  0.00  0.00    -0.080 A 
ATOM      4  C3  UNL d   1       0.755  -0.091   0.335  0.00  0.00     0.150 A 
ATOM      5  C4  UNL d   1       0.510  -1.196   1.144  0.00  0.00    -0.007 A 
ATOM      6  C5  UNL d   1      -0.542  -1.162   2.059  0.00  0.00     0.039 A 
ENDROOT
BRANCH   4   7
ATOM      7  O   UNL d   1       1.797  -0.166  -0.541  0.00  0.00    -0.526 OA
ATOM      8  H5  UNL d   1       1.864   0.681  -1.012  0.00  0.00     0.418 HD
ENDBRANCH   4   7
TORSDOF 1
ENDMDL
