MODEL 1
REMARK minimizedAffinity -2.94103074
REMARK minimizedRMSD -1
REMARK  1 active torsions:
REMARK  status: ('A' for Active; 'I' for Inactive)
REMARK    1  A    between atoms: C3_4  and  O_7 
ROOT
ATOM      1  C   UNL d   1      -0.431  -0.557   1.018  0.00  0.00    -0.033 A 
ATOM      2  C1  UNL d   1       0.793  -0.392   0.367  0.00  0.00     0.039 A 
ATOM      3  C2  UNL d   1       1.097  -1.160  -0.758  0.00  0.00    -0.080 A 
ATOM      4  C3  UNL d   1       0.169  -2.088  -1.222  0.00  0.00     0.150 A 
ATOM      5  C4  UNL d   1      -1.054  -2.255  -0.581  0.00  0.00    -0.007 A 
ATOM      6  C5  UNL d   1      -1.355  -1.488   0.543  0.00  0.00     0.039 A 
ENDROOT
BRANCH   4   7
ATOM      7  O   UNL d   1       0.423  -2.865  -2.314  0.00  0.00    -0.526 OA
ATOM      8  H5  UNL d   1       1.317  -2.661  -2.636  0.00  0.00     0.418 HD
ENDBRANCH   4   7
TORSDOF 1
ENDMDL
