MODEL 1
REMARK minimizedAffinity -2.23930097
REMARK minimizedRMSD -1
REMARK  1 active torsions:
REMARK  status: ('A' for Active; 'I' for Inactive)
REMARK    1  A    between atoms: C3_4  and  O_7 
ROOT
ATOM      1  C   UNL d   1      -0.001  -0.340   1.256  0.00  0.00    -0.033 A 
ATOM      2  C1  UNL d   1       1.298  -0.178   0.770  0.00  0.00     0.039 A 
ATOM      3  C2  UNL d   1       1.707  -0.864  -0.375  0.00  0.00    -0.080 A 
ATOM      4  C3  UNL d   1       0.810  -1.707  -1.024  0.00  0.00     0.150 A 
ATOM      5  C4  UNL d   1      -0.487  -1.871  -0.548  0.00  0.00    -0.007 A 
ATOM      6  C5  UNL d   1      -0.894  -1.186   0.596  0.00  0.00     0.039 A 
ENDROOT
BRANCH   4   7
ATOM      7  O   UNL d   1       1.165  -2.401  -2.143  0.00  0.00    -0.526 OA
ATOM      8  H5  UNL d   1       2.098  -2.212  -2.339  0.00  0.00     0.418 HD
ENDBRANCH   4   7
TORSDOF 1
ENDMDL
