MODEL 1
REMARK minimizedAffinity -2.58329558
REMARK minimizedRMSD -1
REMARK  1 active torsions:
REMARK  status: ('A' for Active; 'I' for Inactive)
REMARK    1  A    between atoms: C3_4  and  O_7 
ROOT
ATOM      1  C   UNL d   1       0.539  -0.736  -2.449  0.00  0.00    -0.033 A 
ATOM      2  C1  UNL d   1       0.413  -1.874  -3.249  0.00  0.00     0.039 A 
ATOM      3  C2  UNL d   1       0.796  -3.122  -2.755  0.00  0.00    -0.080 A 
ATOM      4  C3  UNL d   1       1.302  -3.220  -1.462  0.00  0.00     0.150 A 
ATOM      5  C4  UNL d   1       1.426  -2.091  -0.658  0.00  0.00    -0.007 A 
ATOM      6  C5  UNL d   1       1.045  -0.845  -1.153  0.00  0.00     0.039 A 
ENDROOT
BRANCH   4   7
ATOM      7  O   UNL d   1       1.693  -4.416  -0.938  0.00  0.00    -0.526 OA
ATOM      8  H5  UNL d   1       1.577  -5.102  -1.617  0.00  0.00     0.418 HD
ENDBRANCH   4   7
TORSDOF 1
ENDMDL
