MODEL 1
REMARK minimizedAffinity -5.1568799
REMARK minimizedRMSD -1
REMARK  1 active torsions:
REMARK  status: ('A' for Active; 'I' for Inactive)
REMARK    1  A    between atoms: C3_4  and  O_7 
ROOT
ATOM      1  C   UNL d   1       0.295   1.564  -1.314  0.00  0.00    -0.033 A 
ATOM      2  C1  UNL d   1      -0.274   0.383  -0.831  0.00  0.00     0.039 A 
ATOM      3  C2  UNL d   1      -0.923   0.374   0.404  0.00  0.00    -0.080 A 
ATOM      4  C3  UNL d   1      -0.998   1.549   1.146  0.00  0.00     0.150 A 
ATOM      5  C4  UNL d   1      -0.437   2.730   0.670  0.00  0.00    -0.007 A 
ATOM      6  C5  UNL d   1       0.212   2.737  -0.564  0.00  0.00     0.039 A 
ENDROOT
BRANCH   4   7
ATOM      7  O   UNL d   1      -1.618   1.588   2.360  0.00  0.00    -0.526 OA
ATOM      8  H5  UNL d   1      -1.933   0.694   2.573  0.00  0.00     0.418 HD
ENDBRANCH   4   7
TORSDOF 1
ENDMDL
