MODEL 1
REMARK minimizedAffinity -2.08933115
REMARK minimizedRMSD -1
REMARK  1 active torsions:
REMARK  status: ('A' for Active; 'I' for Inactive)
REMARK    1  A    between atoms: C3_4  and  O_7 
ROOT
ATOM      1  C   UNL d   1       0.961  -0.916  -0.533  0.00  0.00    -0.033 A 
ATOM      2  C1  UNL d   1       0.404  -1.540   0.586  0.00  0.00     0.039 A 
ATOM      3  C2  UNL d   1      -0.271  -0.782   1.545  0.00  0.00    -0.080 A 
ATOM      4  C3  UNL d   1      -0.383   0.595   1.374  0.00  0.00     0.150 A 
ATOM      5  C4  UNL d   1       0.166   1.222   0.261  0.00  0.00    -0.007 A 
ATOM      6  C5  UNL d   1       0.841   0.464  -0.696  0.00  0.00     0.039 A 
ENDROOT
BRANCH   4   7
ATOM      7  O   UNL d   1      -1.028   1.376   2.286  0.00  0.00    -0.526 OA
ATOM      8  H5  UNL d   1      -1.331   0.811   3.016  0.00  0.00     0.418 HD
ENDBRANCH   4   7
TORSDOF 1
ENDMDL
