MODEL 1
REMARK minimizedAffinity -2.76521468
REMARK minimizedRMSD -1
REMARK  1 active torsions:
REMARK  status: ('A' for Active; 'I' for Inactive)
REMARK    1  A    between atoms: C3_4  and  O_7 
ROOT
ATOM      1  C   UNL d   1      -0.407   3.403   1.064  0.00  0.00    -0.033 A 
ATOM      2  C1  UNL d   1      -0.846   2.327   1.837  0.00  0.00     0.039 A 
ATOM      3  C2  UNL d   1      -0.613   1.018   1.411  0.00  0.00    -0.080 A 
ATOM      4  C3  UNL d   1       0.060   0.799   0.212  0.00  0.00     0.150 A 
ATOM      5  C4  UNL d   1       0.504   1.867  -0.562  0.00  0.00    -0.007 A 
ATOM      6  C5  UNL d   1       0.269   3.173  -0.135  0.00  0.00     0.039 A 
ENDROOT
BRANCH   4   7
ATOM      7  O   UNL d   1       0.306  -0.461  -0.248  0.00  0.00    -0.526 OA
ATOM      8  H5  UNL d   1      -0.083  -1.097   0.375  0.00  0.00     0.418 HD
ENDBRANCH   4   7
TORSDOF 1
ENDMDL
