MODEL 1
REMARK minimizedAffinity -3.04669571
REMARK minimizedRMSD -1
REMARK  1 active torsions:
REMARK  status: ('A' for Active; 'I' for Inactive)
REMARK    1  A    between atoms: C3_4  and  O_7 
ROOT
ATOM      1  C   UNL d   1      -0.219  -1.453   0.477  0.00  0.00    -0.033 A 
ATOM      2  C1  UNL d   1       0.273  -1.379  -0.827  0.00  0.00     0.039 A 
ATOM      3  C2  UNL d   1       0.481  -0.136  -1.427  0.00  0.00    -0.080 A 
ATOM      4  C3  UNL d   1       0.195   1.024  -0.713  0.00  0.00     0.150 A 
ATOM      5  C4  UNL d   1      -0.291   0.958   0.589  0.00  0.00    -0.007 A 
ATOM      6  C5  UNL d   1      -0.499  -0.284   1.186  0.00  0.00     0.039 A 
ENDROOT
BRANCH   4   7
ATOM      7  O   UNL d   1       0.377   2.260  -1.258  0.00  0.00    -0.526 OA
ATOM      8  H5  UNL d   1       0.690   2.151  -2.172  0.00  0.00     0.418 HD
ENDBRANCH   4   7
TORSDOF 1
ENDMDL
