MODEL 1
REMARK minimizedAffinity 5.67574453
REMARK minimizedRMSD -1
REMARK  1 active torsions:
REMARK  status: ('A' for Active; 'I' for Inactive)
REMARK    1  A    between atoms: C1_2  and  C2_3 
ROOT
ATOM      1  C2  UNL d   1       3.101  -4.510  -1.833  0.00  0.00    -0.077 A 
ATOM      2  C3  UNL d   1       3.527  -3.825  -0.687  0.00  0.00     0.002 A 
ATOM      3  C4  UNL d   1       2.771  -3.873   0.486  0.00  0.00     0.002 A 
ATOM      4  C5  UNL d   1       1.588  -4.608   0.525  0.00  0.00    -0.004 A 
ATOM      5  C6  UNL d   1       1.156  -5.291  -0.611  0.00  0.00     0.002 A 
ATOM      6  C7  UNL d   1       1.909  -5.243  -1.784  0.00  0.00     0.002 A 
ENDROOT
BRANCH   1   7
ATOM      7  C1  UNL d   1       3.940  -4.499  -3.085  0.00  0.00     0.055 C 
ATOM      8  C   UNL d   1       5.262  -5.223  -2.871  0.00  0.00     0.019 C 
ENDBRANCH   1   7
TORSDOF 1
ENDMDL
