MODEL 1
REMARK minimizedAffinity 5.48940086
REMARK minimizedRMSD -1
REMARK  1 active torsions:
REMARK  status: ('A' for Active; 'I' for Inactive)
REMARK    1  A    between atoms: C1_2  and  C2_3 
ROOT
ATOM      1  C2  UNL d   1      -3.683   2.535  -3.437  0.00  0.00    -0.077 A 
ATOM      2  C3  UNL d   1      -4.405   3.435  -2.640  0.00  0.00     0.002 A 
ATOM      3  C4  UNL d   1      -4.668   4.728  -3.096  0.00  0.00     0.002 A 
ATOM      4  C5  UNL d   1      -4.217   5.131  -4.352  0.00  0.00    -0.004 A 
ATOM      5  C6  UNL d   1      -3.497   4.244  -5.151  0.00  0.00     0.002 A 
ATOM      6  C7  UNL d   1      -3.232   2.952  -4.696  0.00  0.00     0.002 A 
ENDROOT
BRANCH   1   7
ATOM      7  C1  UNL d   1      -3.441   1.125  -2.967  0.00  0.00     0.055 C 
ATOM      8  C   UNL d   1      -2.318   1.068  -1.941  0.00  0.00     0.019 C 
ENDBRANCH   1   7
TORSDOF 1
ENDMDL
