MODEL 1
REMARK minimizedAffinity 13.0801678
REMARK minimizedRMSD -1
REMARK  1 active torsions:
REMARK  status: ('A' for Active; 'I' for Inactive)
REMARK    1  A    between atoms: C1_2  and  C2_3 
ROOT
ATOM      1  C2  UNL d   1       1.859  -2.402   3.379  0.00  0.00    -0.077 A 
ATOM      2  C3  UNL d   1       2.623  -3.543   3.662  0.00  0.00     0.002 A 
ATOM      3  C4  UNL d   1       2.707  -4.030   4.968  0.00  0.00     0.002 A 
ATOM      4  C5  UNL d   1       2.026  -3.386   5.999  0.00  0.00    -0.004 A 
ATOM      5  C6  UNL d   1       1.265  -2.249   5.728  0.00  0.00     0.002 A 
ATOM      6  C7  UNL d   1       1.181  -1.760   4.423  0.00  0.00     0.002 A 
ENDROOT
BRANCH   1   7
ATOM      7  C1  UNL d   1       1.727  -1.903   1.964  0.00  0.00     0.055 C 
ATOM      8  C   UNL d   1       1.377  -0.423   1.928  0.00  0.00     0.019 C 
ENDBRANCH   1   7
TORSDOF 1
ENDMDL
