MODEL 1
REMARK minimizedAffinity 7.34555912
REMARK minimizedRMSD -1
REMARK  1 active torsions:
REMARK  status: ('A' for Active; 'I' for Inactive)
REMARK    1  A    between atoms: C1_2  and  C2_3 
ROOT
ATOM      1  C2  UNL d   1       1.825  -1.887   4.032  0.00  0.00    -0.077 A 
ATOM      2  C3  UNL d   1       1.418  -0.687   3.431  0.00  0.00     0.002 A 
ATOM      3  C4  UNL d   1       1.614  -0.480   2.065  0.00  0.00     0.002 A 
ATOM      4  C5  UNL d   1       2.213  -1.469   1.287  0.00  0.00    -0.004 A 
ATOM      5  C6  UNL d   1       2.624  -2.664   1.876  0.00  0.00     0.002 A 
ATOM      6  C7  UNL d   1       2.429  -2.873   3.242  0.00  0.00     0.002 A 
ENDROOT
BRANCH   1   7
ATOM      7  C1  UNL d   1       1.569  -2.132   5.496  0.00  0.00     0.055 C 
ATOM      8  C   UNL d   1       2.344  -3.342   5.998  0.00  0.00     0.019 C 
ENDBRANCH   1   7
TORSDOF 1
ENDMDL
