MODEL 1
REMARK minimizedAffinity 10.3382187
REMARK minimizedRMSD -1
REMARK  1 active torsions:
REMARK  status: ('A' for Active; 'I' for Inactive)
REMARK    1  A    between atoms: C1_2  and  C2_3 
ROOT
ATOM      1  C2  UNL d   1       3.617  -4.503  -1.480  0.00  0.00    -0.077 A 
ATOM      2  C3  UNL d   1       4.814  -5.075  -1.934  0.00  0.00     0.002 A 
ATOM      3  C4  UNL d   1       6.000  -4.892  -1.220  0.00  0.00     0.002 A 
ATOM      4  C5  UNL d   1       6.000  -4.141  -0.047  0.00  0.00    -0.004 A 
ATOM      5  C6  UNL d   1       4.816  -3.565   0.411  0.00  0.00     0.002 A 
ATOM      6  C7  UNL d   1       3.630  -3.746  -0.301  0.00  0.00     0.002 A 
ENDROOT
BRANCH   1   7
ATOM      7  C1  UNL d   1       2.328  -4.740  -2.222  0.00  0.00     0.055 C 
ATOM      8  C   UNL d   1       1.150  -4.849  -1.264  0.00  0.00     0.019 C 
ENDBRANCH   1   7
TORSDOF 1
ENDMDL
