MODEL 1
REMARK minimizedAffinity -1.19886374
REMARK minimizedRMSD -1
REMARK  1 active torsions:
REMARK  status: ('A' for Active; 'I' for Inactive)
REMARK    1  A    between atoms: C1_2  and  C2_3 
ROOT
ATOM      1  C2  UNL d   1      -3.838   2.570  -3.274  0.00  0.00    -0.077 A 
ATOM      2  C3  UNL d   1      -3.436   3.058  -4.525  0.00  0.00     0.002 A 
ATOM      3  C4  UNL d   1      -3.595   4.409  -4.842  0.00  0.00     0.002 A 
ATOM      4  C5  UNL d   1      -4.153   5.283  -3.911  0.00  0.00    -0.004 A 
ATOM      5  C6  UNL d   1      -4.558   4.807  -2.665  0.00  0.00     0.002 A 
ATOM      6  C7  UNL d   1      -4.401   3.457  -2.347  0.00  0.00     0.002 A 
ENDROOT
BRANCH   1   7
ATOM      7  C1  UNL d   1      -3.621   1.124  -2.912  0.00  0.00     0.055 C 
ATOM      8  C   UNL d   1      -2.490   0.968  -1.907  0.00  0.00     0.019 C 
ENDBRANCH   1   7
TORSDOF 1
ENDMDL
