MODEL 1
REMARK minimizedAffinity 7.50329065
REMARK minimizedRMSD -1
REMARK  1 active torsions:
REMARK  status: ('A' for Active; 'I' for Inactive)
REMARK    1  A    between atoms: C1_2  and  C2_3 
ROOT
ATOM      1  C2  UNL d   1       2.379  -3.435   1.253  0.00  0.00    -0.077 A 
ATOM      2  C3  UNL d   1       3.229  -2.700   0.415  0.00  0.00     0.002 A 
ATOM      3  C4  UNL d   1       3.099  -1.314   0.316  0.00  0.00     0.002 A 
ATOM      4  C5  UNL d   1       2.122  -0.650   1.056  0.00  0.00    -0.004 A 
ATOM      5  C6  UNL d   1       1.270  -1.372   1.891  0.00  0.00     0.002 A 
ATOM      6  C7  UNL d   1       1.399  -2.758   1.990  0.00  0.00     0.002 A 
ENDROOT
BRANCH   1   7
ATOM      7  C1  UNL d   1       2.550  -4.925   1.398  0.00  0.00     0.055 C 
ATOM      8  C   UNL d   1       1.314  -5.567   2.009  0.00  0.00     0.019 C 
ENDBRANCH   1   7
TORSDOF 1
ENDMDL
