MODEL 1
REMARK minimizedAffinity -0.806162179
REMARK minimizedRMSD -1
REMARK  1 active torsions:
REMARK  status: ('A' for Active; 'I' for Inactive)
REMARK    1  A    between atoms: C1_2  and  C2_3 
ROOT
ATOM      1  C2  UNL d   1       0.230  -0.032   0.200  0.00  0.00    -0.076 A 
ATOM      2  C3  UNL d   1      -0.159  -1.029   1.112  0.00  0.00     0.004 A 
ATOM      3  C4  UNL d   1      -0.927  -0.716   2.232  0.00  0.00    -0.003 A 
ATOM      4  C5  UNL d   1      -1.320   0.598   2.458  0.00  0.00     0.000 A 
ATOM      5  C6  UNL d   1      -0.959   1.597   1.554  0.00  0.00     0.000 A 
ATOM      6  C7  UNL d   1      -0.199   1.296   0.411  0.00  0.00    -0.073 A 
ATOM      7  C8  UNL d   1       0.168   2.414  -0.527  0.00  0.00     0.078 C 
ENDROOT
BRANCH   1   8
ATOM      8  C1  UNL d   1       1.086  -0.426  -0.983  0.00  0.00     0.053 C 
ATOM      9  C   UNL d   1       0.621  -1.719  -1.634  0.00  0.00     0.018 C 
ENDBRANCH   1   8
TORSDOF 1
ENDMDL
