MODEL 1
REMARK minimizedAffinity -6.1288681
REMARK minimizedRMSD -1
REMARK  1 active torsions:
REMARK  status: ('A' for Active; 'I' for Inactive)
REMARK    1  A    between atoms: C1_2  and  C2_3 
ROOT
ATOM      1  C2  UNL d   1      -0.436   0.084  -1.492  0.00  0.00    -0.076 A 
ATOM      2  C3  UNL d   1      -1.556  -0.761  -1.406  0.00  0.00     0.004 A 
ATOM      3  C4  UNL d   1      -1.538  -2.035  -1.973  0.00  0.00    -0.003 A 
ATOM      4  C5  UNL d   1      -0.401  -2.483  -2.634  0.00  0.00     0.000 A 
ATOM      5  C6  UNL d   1       0.726  -1.665  -2.714  0.00  0.00     0.000 A 
ATOM      6  C7  UNL d   1       0.730  -0.385  -2.134  0.00  0.00    -0.073 A 
ATOM      7  C8  UNL d   1       1.970   0.458  -2.255  0.00  0.00     0.078 C 
ENDROOT
BRANCH   1   8
ATOM      8  C1  UNL d   1      -0.523   1.465  -0.882  0.00  0.00     0.053 C 
ATOM      9  C   UNL d   1      -1.091   1.444   0.528  0.00  0.00     0.018 C 
ENDBRANCH   1   8
TORSDOF 1
ENDMDL
