MODEL 1
REMARK minimizedAffinity -5.28392029
REMARK minimizedRMSD -1
REMARK  1 active torsions:
REMARK  status: ('A' for Active; 'I' for Inactive)
REMARK    1  A    between atoms: C1_2  and  C2_3 
ROOT
ATOM      1  C2  UNL d   1      -1.512   2.197   0.612  0.00  0.00    -0.076 A 
ATOM      2  C3  UNL d   1      -1.864   0.985   1.232  0.00  0.00     0.004 A 
ATOM      3  C4  UNL d   1      -1.385  -0.232   0.751  0.00  0.00    -0.003 A 
ATOM      4  C5  UNL d   1      -0.545  -0.258  -0.357  0.00  0.00     0.000 A 
ATOM      5  C6  UNL d   1      -0.171   0.936  -0.973  0.00  0.00     0.000 A 
ATOM      6  C7  UNL d   1      -0.632   2.173  -0.491  0.00  0.00    -0.073 A 
ATOM      7  C8  UNL d   1      -0.203   3.429  -1.198  0.00  0.00     0.078 C 
ENDROOT
BRANCH   1   8
ATOM      8  C1  UNL d   1      -2.084   3.484   1.161  0.00  0.00     0.053 C 
ATOM      9  C   UNL d   1      -2.240   3.454   2.674  0.00  0.00     0.018 C 
ENDBRANCH   1   8
TORSDOF 1
ENDMDL
