MODEL 1
REMARK minimizedAffinity -6.05475807
REMARK minimizedRMSD -1
REMARK  1 active torsions:
REMARK  status: ('A' for Active; 'I' for Inactive)
REMARK    1  A    between atoms: C1_2  and  C2_3 
ROOT
ATOM      1  C2  UNL d   1      -0.663   1.515   0.335  0.00  0.00    -0.076 A 
ATOM      2  C3  UNL d   1      -1.821   1.437   1.128  0.00  0.00     0.004 A 
ATOM      3  C4  UNL d   1      -2.657   2.541   1.286  0.00  0.00    -0.003 A 
ATOM      4  C5  UNL d   1      -2.348   3.741   0.655  0.00  0.00     0.000 A 
ATOM      5  C6  UNL d   1      -1.212   3.831  -0.149  0.00  0.00     0.000 A 
ATOM      6  C7  UNL d   1      -0.368   2.723  -0.333  0.00  0.00    -0.073 A 
ATOM      7  C8  UNL d   1       0.847   2.878  -1.205  0.00  0.00     0.078 C 
ENDROOT
BRANCH   1   8
ATOM      8  C1  UNL d   1       0.220   0.293   0.222  0.00  0.00     0.053 C 
ATOM      9  C   UNL d   1       0.308  -0.486   1.526  0.00  0.00     0.018 C 
ENDBRANCH   1   8
TORSDOF 1
ENDMDL
