MODEL 1
REMARK minimizedAffinity -4.75221825
REMARK minimizedRMSD -1
REMARK  1 active torsions:
REMARK  status: ('A' for Active; 'I' for Inactive)
REMARK    1  A    between atoms: C1_2  and  C2_3 
ROOT
ATOM      1  C2  UNL d   1       0.181   1.195  -0.290  0.00  0.00    -0.076 A 
ATOM      2  C3  UNL d   1       0.034   2.259  -1.197  0.00  0.00     0.004 A 
ATOM      3  C4  UNL d   1      -0.991   3.191  -1.049  0.00  0.00    -0.003 A 
ATOM      4  C5  UNL d   1      -1.885   3.076   0.009  0.00  0.00     0.000 A 
ATOM      5  C6  UNL d   1      -1.744   2.037   0.929  0.00  0.00     0.000 A 
ATOM      6  C7  UNL d   1      -0.706   1.098   0.803  0.00  0.00    -0.073 A 
ATOM      7  C8  UNL d   1      -0.604  -0.006   1.820  0.00  0.00     0.078 C 
ENDROOT
BRANCH   1   8
ATOM      8  C1  UNL d   1       1.296   0.198  -0.517  0.00  0.00     0.053 C 
ATOM      9  C   UNL d   1       0.831  -1.031  -1.283  0.00  0.00     0.018 C 
ENDBRANCH   1   8
TORSDOF 1
ENDMDL
