MODEL 1
REMARK minimizedAffinity -0.452762753
REMARK minimizedRMSD -1
REMARK  1 active torsions:
REMARK  status: ('A' for Active; 'I' for Inactive)
REMARK    1  A    between atoms: C1_2  and  C2_3 
ROOT
ATOM      1  C2  UNL d   1      -0.083   1.437   0.002  0.00  0.00    -0.076 A 
ATOM      2  C3  UNL d   1       0.180   0.080  -0.253  0.00  0.00     0.004 A 
ATOM      3  C4  UNL d   1      -0.119  -0.899   0.693  0.00  0.00    -0.003 A 
ATOM      4  C5  UNL d   1      -0.687  -0.536   1.909  0.00  0.00     0.000 A 
ATOM      5  C6  UNL d   1      -0.972   0.804   2.172  0.00  0.00     0.000 A 
ATOM      6  C7  UNL d   1      -0.691   1.801   1.222  0.00  0.00    -0.073 A 
ATOM      7  C8  UNL d   1      -1.013   3.231   1.561  0.00  0.00     0.078 C 
ENDROOT
BRANCH   1   8
ATOM      8  C1  UNL d   1       0.288   2.457  -1.051  0.00  0.00     0.053 C 
ATOM      9  C   UNL d   1       1.315   1.926  -2.040  0.00  0.00     0.018 C 
ENDBRANCH   1   8
TORSDOF 1
ENDMDL
