MODEL 1
REMARK minimizedAffinity -5.86632967
REMARK minimizedRMSD -1
REMARK  1 active torsions:
REMARK  status: ('A' for Active; 'I' for Inactive)
REMARK    1  A    between atoms: C1_2  and  C2_3 
ROOT
ATOM      1  C2  UNL d   1       0.420   0.319  -1.628  0.00  0.00    -0.076 A 
ATOM      2  C3  UNL d   1       0.429  -0.110  -2.967  0.00  0.00     0.004 A 
ATOM      3  C4  UNL d   1       0.609  -1.455  -3.288  0.00  0.00    -0.003 A 
ATOM      4  C5  UNL d   1       0.782  -2.392  -2.275  0.00  0.00     0.000 A 
ATOM      5  C6  UNL d   1       0.759  -1.986  -0.941  0.00  0.00     0.000 A 
ATOM      6  C7  UNL d   1       0.563  -0.637  -0.600  0.00  0.00    -0.073 A 
ATOM      7  C8  UNL d   1       0.552  -0.255   0.855  0.00  0.00     0.078 C 
ENDROOT
BRANCH   1   8
ATOM      8  C1  UNL d   1       0.249   1.793  -1.342  0.00  0.00     0.053 C 
ATOM      9  C   UNL d   1       0.847   2.672  -2.429  0.00  0.00     0.018 C 
ENDBRANCH   1   8
TORSDOF 1
ENDMDL
