MODEL 1
REMARK minimizedAffinity -2.9939816
REMARK minimizedRMSD -1
REMARK  1 active torsions:
REMARK  status: ('A' for Active; 'I' for Inactive)
REMARK    1  A    between atoms: C1_2  and  C2_3 
ROOT
ATOM      1  C2  UNL d   1      -0.711   1.406   0.506  0.00  0.00    -0.076 A 
ATOM      2  C3  UNL d   1      -1.581   1.215   1.593  0.00  0.00     0.004 A 
ATOM      3  C4  UNL d   1      -2.155   2.301   2.251  0.00  0.00    -0.003 A 
ATOM      4  C5  UNL d   1      -1.869   3.596   1.833  0.00  0.00     0.000 A 
ATOM      5  C6  UNL d   1      -1.022   3.803   0.745  0.00  0.00     0.000 A 
ATOM      6  C7  UNL d   1      -0.447   2.718   0.060  0.00  0.00    -0.073 A 
ATOM      7  C8  UNL d   1       0.464   3.000  -1.103  0.00  0.00     0.078 C 
ENDROOT
BRANCH   1   8
ATOM      8  C1  UNL d   1      -0.096   0.191  -0.152  0.00  0.00     0.053 C 
ATOM      9  C   UNL d   1       0.518  -0.769   0.856  0.00  0.00     0.018 C 
ENDBRANCH   1   8
TORSDOF 1
ENDMDL
