MODEL 1
REMARK minimizedAffinity -5.12588167
REMARK minimizedRMSD -1
REMARK  1 active torsions:
REMARK  status: ('A' for Active; 'I' for Inactive)
REMARK    1  A    between atoms: C1_2  and  C2_3 
ROOT
ATOM      1  C2  UNL d   1      -0.844   1.619   0.151  0.00  0.00    -0.076 A 
ATOM      2  C3  UNL d   1      -1.894   1.256   1.012  0.00  0.00     0.004 A 
ATOM      3  C4  UNL d   1      -2.735   2.220   1.565  0.00  0.00    -0.003 A 
ATOM      4  C5  UNL d   1      -2.540   3.564   1.265  0.00  0.00     0.000 A 
ATOM      5  C6  UNL d   1      -1.515   3.941   0.398  0.00  0.00     0.000 A 
ATOM      6  C7  UNL d   1      -0.668   2.980  -0.180  0.00  0.00    -0.073 A 
ATOM      7  C8  UNL d   1       0.425   3.443  -1.103  0.00  0.00     0.078 C 
ENDROOT
BRANCH   1   8
ATOM      8  C1  UNL d   1       0.052   0.532  -0.397  0.00  0.00     0.053 C 
ATOM      9  C   UNL d   1       0.120  -0.682   0.516  0.00  0.00     0.018 C 
ENDBRANCH   1   8
TORSDOF 1
ENDMDL
