MODEL 1
REMARK minimizedAffinity -4.36685467
REMARK minimizedRMSD -1
REMARK  1 active torsions:
REMARK  status: ('A' for Active; 'I' for Inactive)
REMARK    1  A    between atoms: C1_2  and  C2_3 
ROOT
ATOM      1  C2  UNL d   1      -0.208   0.275  -0.317  0.00  0.00    -0.076 A 
ATOM      2  C3  UNL d   1      -0.748   1.334  -1.067  0.00  0.00     0.004 A 
ATOM      3  C4  UNL d   1      -1.668   2.216  -0.503  0.00  0.00    -0.003 A 
ATOM      4  C5  UNL d   1      -2.061   2.055   0.821  0.00  0.00     0.000 A 
ATOM      5  C6  UNL d   1      -1.522   1.020   1.585  0.00  0.00     0.000 A 
ATOM      6  C7  UNL d   1      -0.581   0.132   1.037  0.00  0.00    -0.073 A 
ATOM      7  C8  UNL d   1      -0.037  -0.970   1.904  0.00  0.00     0.078 C 
ENDROOT
BRANCH   1   8
ATOM      8  C1  UNL d   1       0.765  -0.667  -0.990  0.00  0.00     0.053 C 
ATOM      9  C   UNL d   1       0.064  -1.737  -1.814  0.00  0.00     0.018 C 
ENDBRANCH   1   8
TORSDOF 1
ENDMDL
