MODEL 1
REMARK minimizedAffinity -4.11297989
REMARK minimizedRMSD -1
REMARK  1 active torsions:
REMARK  status: ('A' for Active; 'I' for Inactive)
REMARK    1  A    between atoms: C1_2  and  C2_3 
ROOT
ATOM      1  C2  UNL d   1      -0.467   1.863   0.085  0.00  0.00    -0.076 A 
ATOM      2  C3  UNL d   1      -1.482   2.248   0.978  0.00  0.00     0.004 A 
ATOM      3  C4  UNL d   1      -2.031   1.336   1.876  0.00  0.00    -0.003 A 
ATOM      4  C5  UNL d   1      -1.574   0.022   1.897  0.00  0.00     0.000 A 
ATOM      5  C6  UNL d   1      -0.556  -0.373   1.031  0.00  0.00     0.000 A 
ATOM      6  C7  UNL d   1       0.020   0.539   0.130  0.00  0.00    -0.073 A 
ATOM      7  C8  UNL d   1       1.112   0.057  -0.787  0.00  0.00     0.078 C 
ENDROOT
BRANCH   1   8
ATOM      8  C1  UNL d   1       0.072   2.889  -0.886  0.00  0.00     0.053 C 
ATOM      9  C   UNL d   1      -0.153   4.316  -0.410  0.00  0.00     0.018 C 
ENDBRANCH   1   8
TORSDOF 1
ENDMDL
