MODEL 1
REMARK minimizedAffinity -3.66782379
REMARK minimizedRMSD -1
REMARK  1 active torsions:
REMARK  status: ('A' for Active; 'I' for Inactive)
REMARK    1  A    between atoms: C1_2  and  C2_3 
ROOT
ATOM      1  C2  UNL d   1      -0.672   1.245   0.088  0.00  0.00    -0.076 A 
ATOM      2  C3  UNL d   1      -1.708   1.228   1.038  0.00  0.00     0.004 A 
ATOM      3  C4  UNL d   1      -2.298   2.412   1.478  0.00  0.00    -0.003 A 
ATOM      4  C5  UNL d   1      -1.862   3.633   0.974  0.00  0.00     0.000 A 
ATOM      5  C6  UNL d   1      -0.848   3.667   0.017  0.00  0.00     0.000 A 
ATOM      6  C7  UNL d   1      -0.254   2.482  -0.448  0.00  0.00    -0.073 A 
ATOM      7  C8  UNL d   1       0.840   2.578  -1.476  0.00  0.00     0.078 C 
ENDROOT
BRANCH   1   8
ATOM      8  C1  UNL d   1      -0.052  -0.068  -0.331  0.00  0.00     0.053 C 
ATOM      9  C   UNL d   1       0.779  -0.699   0.776  0.00  0.00     0.018 C 
ENDBRANCH   1   8
TORSDOF 1
ENDMDL
