MODEL 1
REMARK minimizedAffinity -4.93881989
REMARK minimizedRMSD -1
REMARK  1 active torsions:
REMARK  status: ('A' for Active; 'I' for Inactive)
REMARK    1  A    between atoms: C1_2  and  C2_3 
ROOT
ATOM      1  C2  UNL d   1       0.038   1.042   0.006  0.00  0.00    -0.076 A 
ATOM      2  C3  UNL d   1       0.550   1.958  -0.929  0.00  0.00     0.004 A 
ATOM      3  C4  UNL d   1       0.389   3.331  -0.751  0.00  0.00    -0.003 A 
ATOM      4  C5  UNL d   1      -0.287   3.811   0.366  0.00  0.00     0.000 A 
ATOM      5  C6  UNL d   1      -0.786   2.917   1.313  0.00  0.00     0.000 A 
ATOM      6  C7  UNL d   1      -0.618   1.530   1.157  0.00  0.00    -0.073 A 
ATOM      7  C8  UNL d   1      -1.183   0.612   2.206  0.00  0.00     0.078 C 
ENDROOT
BRANCH   1   8
ATOM      8  C1  UNL d   1       0.219  -0.436  -0.254  0.00  0.00     0.053 C 
ATOM      9  C   UNL d   1       1.619  -0.774  -0.743  0.00  0.00     0.018 C 
ENDBRANCH   1   8
TORSDOF 1
ENDMDL
