MODEL 1
REMARK minimizedAffinity -0.427600116
REMARK minimizedRMSD -1
REMARK  0 active torsions:
REMARK  status: ('A' for Active; 'I' for Inactive)
ROOT
ATOM      1  C   UNL d   1       0.132  -0.113   0.659  0.00  0.00    -0.002 A 
ATOM      2  C1  UNL d   1       0.252  -1.206  -0.187  0.00  0.00     0.010 A 
ATOM      3  C2  UNL d   1       0.525  -1.028  -1.545  0.00  0.00     0.041 A 
ATOM      4  C3  UNL d   1       0.680   0.281  -2.042  0.00  0.00    -0.075 A 
ATOM      5  S   UNL d   1       1.020   0.742  -3.668  0.00  0.00     0.015 SA
ATOM      6  C4  UNL d   1       1.014   2.401  -3.278  0.00  0.00     0.022 A 
ATOM      7  C5  UNL d   1       0.761   2.616  -1.944  0.00  0.00     0.026 A 
ATOM      8  C6  UNL d   1       0.565   1.398  -1.210  0.00  0.00    -0.082 A 
ATOM      9  C7  UNL d   1       0.286   1.184   0.162  0.00  0.00     0.045 A 
ENDROOT
TORSDOF 0
ENDMDL
