MODEL 1
REMARK minimizedAffinity -0.220316052
REMARK minimizedRMSD -1
REMARK  0 active torsions:
REMARK  status: ('A' for Active; 'I' for Inactive)
ROOT
ATOM      1  C   UNL d   1       0.851  -2.991   0.644  0.00  0.00    -0.002 A 
ATOM      2  C1  UNL d   1      -0.023  -2.594   1.646  0.00  0.00     0.010 A 
ATOM      3  C2  UNL d   1      -0.491  -1.280   1.702  0.00  0.00     0.041 A 
ATOM      4  C3  UNL d   1      -0.063  -0.362   0.722  0.00  0.00    -0.075 A 
ATOM      5  S   UNL d   1      -0.506   1.299   0.590  0.00  0.00     0.015 SA
ATOM      6  C4  UNL d   1       0.453   1.521  -0.801  0.00  0.00     0.022 A 
ATOM      7  C5  UNL d   1       1.103   0.366  -1.169  0.00  0.00     0.026 A 
ATOM      8  C6  UNL d   1       0.815  -0.738  -0.298  0.00  0.00    -0.082 A 
ATOM      9  C7  UNL d   1       1.273  -2.078  -0.326  0.00  0.00     0.045 A 
ENDROOT
TORSDOF 0
ENDMDL
