MODEL 1
REMARK minimizedAffinity -1.21440291
REMARK minimizedRMSD -1
REMARK  0 active torsions:
REMARK  status: ('A' for Active; 'I' for Inactive)
ROOT
ATOM      1  C   UNL d   1      -2.363  -1.022   3.086  0.00  0.00    -0.002 A 
ATOM      2  C1  UNL d   1      -2.595   0.307   2.763  0.00  0.00     0.010 A 
ATOM      3  C2  UNL d   1      -1.901   0.915   1.715  0.00  0.00     0.041 A 
ATOM      4  C3  UNL d   1      -0.963   0.156   0.988  0.00  0.00    -0.075 A 
ATOM      5  S   UNL d   1       0.004   0.690  -0.336  0.00  0.00     0.015 SA
ATOM      6  C4  UNL d   1       0.747  -0.835  -0.505  0.00  0.00     0.022 A 
ATOM      7  C5  UNL d   1       0.281  -1.740   0.419  0.00  0.00     0.026 A 
ATOM      8  C6  UNL d   1      -0.712  -1.184   1.294  0.00  0.00    -0.082 A 
ATOM      9  C7  UNL d   1      -1.431  -1.771   2.363  0.00  0.00     0.045 A 
ENDROOT
TORSDOF 0
ENDMDL
