MODEL 1
REMARK minimizedAffinity -1.0776763
REMARK minimizedRMSD -1
REMARK  0 active torsions:
REMARK  status: ('A' for Active; 'I' for Inactive)
ROOT
ATOM      1  C   UNL d   1      -2.855  -0.739   2.626  0.00  0.00    -0.002 A 
ATOM      2  C1  UNL d   1      -2.867   0.581   2.197  0.00  0.00     0.010 A 
ATOM      3  C2  UNL d   1      -1.856   1.067   1.367  0.00  0.00     0.041 A 
ATOM      4  C3  UNL d   1      -0.823   0.196   0.969  0.00  0.00    -0.075 A 
ATOM      5  S   UNL d   1       0.520   0.571  -0.046  0.00  0.00     0.015 SA
ATOM      6  C4  UNL d   1       1.141  -1.013   0.064  0.00  0.00     0.022 A 
ATOM      7  C5  UNL d   1       0.355  -1.821   0.852  0.00  0.00     0.026 A 
ATOM      8  C6  UNL d   1      -0.790  -1.138   1.386  0.00  0.00    -0.082 A 
ATOM      9  C7  UNL d   1      -1.829  -1.601   2.228  0.00  0.00     0.045 A 
ENDROOT
TORSDOF 0
ENDMDL
