MODEL 1
REMARK minimizedAffinity -3.3637991
REMARK minimizedRMSD -1
REMARK  0 active torsions:
REMARK  status: ('A' for Active; 'I' for Inactive)
ROOT
ATOM      1  C   UNL d   1      -1.992  -1.242   3.091  0.00  0.00    -0.002 A 
ATOM      2  C1  UNL d   1      -2.210   0.047   2.626  0.00  0.00     0.010 A 
ATOM      3  C2  UNL d   1      -1.499   0.537   1.529  0.00  0.00     0.041 A 
ATOM      4  C3  UNL d   1      -0.557  -0.300   0.898  0.00  0.00    -0.075 A 
ATOM      5  S   UNL d   1       0.429   0.085  -0.462  0.00  0.00     0.015 SA
ATOM      6  C4  UNL d   1       1.162  -1.454  -0.460  0.00  0.00     0.022 A 
ATOM      7  C5  UNL d   1       0.679  -2.254   0.548  0.00  0.00     0.026 A 
ATOM      8  C6  UNL d   1      -0.321  -1.603   1.347  0.00  0.00    -0.082 A 
ATOM      9  C7  UNL d   1      -1.057  -2.069   2.463  0.00  0.00     0.045 A 
ENDROOT
TORSDOF 0
ENDMDL
