MODEL 1
REMARK minimizedAffinity -0.993709326
REMARK minimizedRMSD -1
REMARK  0 active torsions:
REMARK  status: ('A' for Active; 'I' for Inactive)
ROOT
ATOM      1  C   UNL d   1      -2.695   0.981   1.866  0.00  0.00    -0.002 A 
ATOM      2  C1  UNL d   1      -2.939  -0.130   2.662  0.00  0.00     0.010 A 
ATOM      3  C2  UNL d   1      -2.115  -1.254   2.585  0.00  0.00     0.041 A 
ATOM      4  C3  UNL d   1      -1.029  -1.242   1.687  0.00  0.00    -0.075 A 
ATOM      5  S   UNL d   1       0.115  -2.505   1.424  0.00  0.00     0.015 SA
ATOM      6  C4  UNL d   1       0.955  -1.600   0.249  0.00  0.00     0.022 A 
ATOM      7  C5  UNL d   1       0.391  -0.362   0.051  0.00  0.00     0.026 A 
ATOM      8  C6  UNL d   1      -0.762  -0.136   0.877  0.00  0.00    -0.082 A 
ATOM      9  C7  UNL d   1      -1.617   0.988   0.977  0.00  0.00     0.045 A 
ENDROOT
TORSDOF 0
ENDMDL
