MODEL 1
REMARK minimizedAffinity -0.155456468
REMARK minimizedRMSD -1
REMARK  0 active torsions:
REMARK  status: ('A' for Active; 'I' for Inactive)
ROOT
ATOM      1  C   UNL d   1      -0.131  -2.583   1.569  0.00  0.00    -0.002 A 
ATOM      2  C1  UNL d   1      -1.189  -1.879   2.127  0.00  0.00     0.010 A 
ATOM      3  C2  UNL d   1      -1.386  -0.531   1.822  0.00  0.00     0.041 A 
ATOM      4  C3  UNL d   1      -0.493   0.104   0.936  0.00  0.00    -0.075 A 
ATOM      5  S   UNL d   1      -0.538   1.747   0.416  0.00  0.00     0.015 SA
ATOM      6  C4  UNL d   1       0.845   1.554  -0.561  0.00  0.00     0.022 A 
ATOM      7  C5  UNL d   1       1.342   0.274  -0.503  0.00  0.00     0.026 A 
ATOM      8  C6  UNL d   1       0.579  -0.583   0.360  0.00  0.00    -0.082 A 
ATOM      9  C7  UNL d   1       0.752  -1.949   0.690  0.00  0.00     0.045 A 
ENDROOT
TORSDOF 0
ENDMDL
