MODEL 1
REMARK minimizedAffinity 9.02451134
REMARK minimizedRMSD -1
REMARK  0 active torsions:
REMARK  status: ('A' for Active; 'I' for Inactive)
ROOT
ATOM      1  C   UNL d   1       4.853   5.408   0.690  0.00  0.00    -0.002 A 
ATOM      2  C1  UNL d   1       4.760   5.945  -0.586  0.00  0.00     0.010 A 
ATOM      3  C2  UNL d   1       4.424   5.136  -1.674  0.00  0.00     0.041 A 
ATOM      4  C3  UNL d   1       4.179   3.767  -1.455  0.00  0.00    -0.075 A 
ATOM      5  S   UNL d   1       3.751   2.585  -2.636  0.00  0.00     0.015 SA
ATOM      6  C4  UNL d   1       3.681   1.341  -1.473  0.00  0.00     0.022 A 
ATOM      7  C5  UNL d   1       3.974   1.797  -0.210  0.00  0.00     0.026 A 
ATOM      8  C6  UNL d   1       4.265   3.203  -0.179  0.00  0.00    -0.082 A 
ATOM      9  C7  UNL d   1       4.609   4.049   0.903  0.00  0.00     0.045 A 
ENDROOT
TORSDOF 0
ENDMDL
