MODEL 1
REMARK minimizedAffinity -2.97245407
REMARK minimizedRMSD -1
REMARK  0 active torsions:
REMARK  status: ('A' for Active; 'I' for Inactive)
ROOT
ATOM      1  C   UNL d   1      -1.540  -2.014   2.056  0.00  0.00    -0.002 A 
ATOM      2  C1  UNL d   1      -2.258  -0.872   2.383  0.00  0.00     0.010 A 
ATOM      3  C2  UNL d   1      -1.934   0.359   1.811  0.00  0.00     0.041 A 
ATOM      4  C3  UNL d   1      -0.866   0.425   0.894  0.00  0.00    -0.075 A 
ATOM      5  S   UNL d   1      -0.290   1.824   0.068  0.00  0.00     0.015 SA
ATOM      6  C4  UNL d   1       0.923   0.940  -0.739  0.00  0.00     0.022 A 
ATOM      7  C5  UNL d   1       0.904  -0.392  -0.397  0.00  0.00     0.026 A 
ATOM      8  C6  UNL d   1      -0.128  -0.711   0.549  0.00  0.00    -0.082 A 
ATOM      9  C7  UNL d   1      -0.481  -1.945   1.147  0.00  0.00     0.045 A 
ENDROOT
TORSDOF 0
ENDMDL
