MODEL 1
REMARK minimizedAffinity 5.91450453
REMARK minimizedRMSD -1
REMARK  0 active torsions:
REMARK  status: ('A' for Active; 'I' for Inactive)
ROOT
ATOM      1  C   UNL d   1      -2.839   1.651   1.538  0.00  0.00    -0.002 A 
ATOM      2  C1  UNL d   1      -3.148   0.651   2.449  0.00  0.00     0.010 A 
ATOM      3  C2  UNL d   1      -2.327  -0.471   2.580  0.00  0.00     0.041 A 
ATOM      4  C3  UNL d   1      -1.177  -0.570   1.772  0.00  0.00    -0.075 A 
ATOM      5  S   UNL d   1      -0.024  -1.852   1.759  0.00  0.00     0.015 SA
ATOM      6  C4  UNL d   1       0.907  -1.102   0.544  0.00  0.00     0.022 A 
ATOM      7  C5  UNL d   1       0.366   0.097   0.146  0.00  0.00     0.026 A 
ATOM      8  C6  UNL d   1      -0.844   0.424   0.848  0.00  0.00    -0.082 A 
ATOM      9  C7  UNL d   1      -1.697   1.548   0.739  0.00  0.00     0.045 A 
ENDROOT
TORSDOF 0
ENDMDL
