MODEL 1
REMARK minimizedAffinity -0.814680099
REMARK minimizedRMSD -1
REMARK  0 active torsions:
REMARK  status: ('A' for Active; 'I' for Inactive)
ROOT
ATOM      1  C   UNL d   1       0.915  -0.393   0.868  0.00  0.00    -0.002 A 
ATOM      2  C1  UNL d   1       0.478  -1.423   0.047  0.00  0.00     0.010 A 
ATOM      3  C2  UNL d   1       0.231  -1.194  -1.309  0.00  0.00     0.041 A 
ATOM      4  C3  UNL d   1       0.435   0.098  -1.830  0.00  0.00    -0.075 A 
ATOM      5  S   UNL d   1       0.198   0.612  -3.459  0.00  0.00     0.015 SA
ATOM      6  C4  UNL d   1       0.673   2.209  -3.103  0.00  0.00     0.022 A 
ATOM      7  C5  UNL d   1       1.007   2.365  -1.779  0.00  0.00     0.026 A 
ATOM      8  C6  UNL d   1       0.876   1.151  -1.023  0.00  0.00    -0.082 A 
ATOM      9  C7  UNL d   1       1.117   0.888   0.347  0.00  0.00     0.045 A 
ENDROOT
TORSDOF 0
ENDMDL
