MODEL 1
REMARK minimizedAffinity -2.71658564
REMARK minimizedRMSD -1
REMARK  1 active torsions:
REMARK  status: ('A' for Active; 'I' for Inactive)
REMARK    1  A    between atoms: C1_2  and  C2_3 
ROOT
ATOM      1  C2  UNL d   1      -0.491  -0.116   0.801  0.00  0.00    -0.081 A 
ATOM      2  C3  UNL d   1       0.006  -1.340   0.338  0.00  0.00     0.006 A 
ATOM      3  C4  UNL d   1       0.992  -1.377  -0.650  0.00  0.00     0.002 A 
ATOM      4  C5  UNL d   1       1.503  -0.190  -1.187  0.00  0.00    -0.080 A 
ATOM      5  C6  UNL d   1       2.584  -0.214  -2.227  0.00  0.00     0.076 C 
ATOM      6  C7  UNL d   1       0.994   1.033  -0.737  0.00  0.00     0.002 A 
ATOM      7  C8  UNL d   1       0.008   1.070   0.251  0.00  0.00     0.006 A 
ENDROOT
BRANCH   1   8
ATOM      8  C1  UNL d   1      -1.508  -0.072   1.913  0.00  0.00     0.054 C 
ATOM      9  C   UNL d   1      -2.924   0.022   1.364  0.00  0.00     0.018 C 
ENDBRANCH   1   8
TORSDOF 1
ENDMDL
