MODEL 1
REMARK minimizedAffinity -3.67688274
REMARK minimizedRMSD -1
REMARK  1 active torsions:
REMARK  status: ('A' for Active; 'I' for Inactive)
REMARK    1  A    between atoms: C1_2  and  C2_3 
ROOT
ATOM      1  C2  UNL d   1       1.546   2.055  -0.509  0.00  0.00    -0.081 A 
ATOM      2  C3  UNL d   1       1.956   1.523  -1.737  0.00  0.00     0.006 A 
ATOM      3  C4  UNL d   1       1.393   0.338  -2.218  0.00  0.00     0.002 A 
ATOM      4  C5  UNL d   1       0.408  -0.329  -1.484  0.00  0.00    -0.080 A 
ATOM      5  C6  UNL d   1      -0.226  -1.586  -2.003  0.00  0.00     0.076 C 
ATOM      6  C7  UNL d   1       0.011   0.193  -0.248  0.00  0.00     0.002 A 
ATOM      7  C8  UNL d   1       0.573   1.377   0.234  0.00  0.00     0.006 A 
ENDROOT
BRANCH   1   8
ATOM      8  C1  UNL d   1       2.103   3.367  -0.018  0.00  0.00     0.054 C 
ATOM      9  C   UNL d   1       2.024   3.469   1.499  0.00  0.00     0.018 C 
ENDBRANCH   1   8
TORSDOF 1
ENDMDL
