MODEL 1
REMARK minimizedAffinity -2.45694947
REMARK minimizedRMSD -1
REMARK  1 active torsions:
REMARK  status: ('A' for Active; 'I' for Inactive)
REMARK    1  A    between atoms: C1_2  and  C2_3 
ROOT
ATOM      1  C2  UNL d   1      -0.101   0.306   0.563  0.00  0.00    -0.081 A 
ATOM      2  C3  UNL d   1       0.797   1.277   0.101  0.00  0.00     0.006 A 
ATOM      3  C4  UNL d   1       1.582   1.035  -1.029  0.00  0.00     0.002 A 
ATOM      4  C5  UNL d   1       1.477  -0.176  -1.720  0.00  0.00    -0.080 A 
ATOM      5  C6  UNL d   1       2.292  -0.437  -2.952  0.00  0.00     0.076 C 
ATOM      6  C7  UNL d   1       0.593  -1.153  -1.249  0.00  0.00     0.002 A 
ATOM      7  C8  UNL d   1      -0.192  -0.912  -0.119  0.00  0.00     0.006 A 
ENDROOT
BRANCH   1   8
ATOM      8  C1  UNL d   1      -0.996   0.589   1.742  0.00  0.00     0.054 C 
ATOM      9  C   UNL d   1      -2.452   0.705   1.317  0.00  0.00     0.018 C 
ENDBRANCH   1   8
TORSDOF 1
ENDMDL
