MODEL 1
REMARK minimizedAffinity -4.39317465
REMARK minimizedRMSD -1
REMARK  1 active torsions:
REMARK  status: ('A' for Active; 'I' for Inactive)
REMARK    1  A    between atoms: C1_2  and  C2_3 
ROOT
ATOM      1  C2  UNL d   1      -0.011   0.007   0.746  0.00  0.00    -0.081 A 
ATOM      2  C3  UNL d   1       0.730   1.141   0.391  0.00  0.00     0.006 A 
ATOM      3  C4  UNL d   1       1.396   1.196  -0.835  0.00  0.00     0.002 A 
ATOM      4  C5  UNL d   1       1.327   0.123  -1.730  0.00  0.00    -0.080 A 
ATOM      5  C6  UNL d   1       2.013   0.181  -3.062  0.00  0.00     0.076 C 
ATOM      6  C7  UNL d   1       0.602  -1.017  -1.367  0.00  0.00     0.002 A 
ATOM      7  C8  UNL d   1      -0.064  -1.073  -0.141  0.00  0.00     0.006 A 
ENDROOT
BRANCH   1   8
ATOM      8  C1  UNL d   1      -0.783  -0.029   2.040  0.00  0.00     0.054 C 
ATOM      9  C   UNL d   1      -2.199   0.497   1.854  0.00  0.00     0.018 C 
ENDBRANCH   1   8
TORSDOF 1
ENDMDL
