MODEL 1
REMARK minimizedAffinity -2.3768959
REMARK minimizedRMSD -1
REMARK  1 active torsions:
REMARK  status: ('A' for Active; 'I' for Inactive)
REMARK    1  A    between atoms: C1_2  and  C2_3 
ROOT
ATOM      1  C2  UNL d   1      -0.668   0.494   1.043  0.00  0.00    -0.081 A 
ATOM      2  C3  UNL d   1       0.405   1.389   0.949  0.00  0.00     0.006 A 
ATOM      3  C4  UNL d   1       1.333   1.276  -0.090  0.00  0.00     0.002 A 
ATOM      4  C5  UNL d   1       1.199   0.272  -1.055  0.00  0.00    -0.080 A 
ATOM      5  C6  UNL d   1       2.170   0.158  -2.192  0.00  0.00     0.076 C 
ATOM      6  C7  UNL d   1       0.136  -0.633  -0.951  0.00  0.00     0.002 A 
ATOM      7  C8  UNL d   1      -0.791  -0.520   0.087  0.00  0.00     0.006 A 
ENDROOT
BRANCH   1   8
ATOM      8  C1  UNL d   1      -1.706   0.654   2.124  0.00  0.00     0.054 C 
ATOM      9  C   UNL d   1      -3.104   0.780   1.535  0.00  0.00     0.018 C 
ENDBRANCH   1   8
TORSDOF 1
ENDMDL
