MODEL 1
REMARK minimizedAffinity -3.61378837
REMARK minimizedRMSD -1
REMARK  1 active torsions:
REMARK  status: ('A' for Active; 'I' for Inactive)
REMARK    1  A    between atoms: C1_2  and  C2_3 
ROOT
ATOM      1  C2  UNL d   1       1.830   2.194  -0.363  0.00  0.00    -0.081 A 
ATOM      2  C3  UNL d   1       2.503   1.328  -1.235  0.00  0.00     0.006 A 
ATOM      3  C4  UNL d   1       1.878   0.172  -1.707  0.00  0.00     0.002 A 
ATOM      4  C5  UNL d   1       0.569  -0.135  -1.321  0.00  0.00    -0.080 A 
ATOM      5  C6  UNL d   1      -0.125  -1.358  -1.844  0.00  0.00     0.076 C 
ATOM      6  C7  UNL d   1      -0.097   0.720  -0.437  0.00  0.00     0.002 A 
ATOM      7  C8  UNL d   1       0.527   1.877   0.036  0.00  0.00     0.006 A 
ENDROOT
BRANCH   1   8
ATOM      8  C1  UNL d   1       2.478   3.475   0.096  0.00  0.00     0.054 C 
ATOM      9  C   UNL d   1       1.443   4.568   0.323  0.00  0.00     0.018 C 
ENDBRANCH   1   8
TORSDOF 1
ENDMDL
