MODEL 1
REMARK minimizedAffinity -5.61607456
REMARK minimizedRMSD -1
REMARK  1 active torsions:
REMARK  status: ('A' for Active; 'I' for Inactive)
REMARK    1  A    between atoms: C1_2  and  C2_3 
ROOT
ATOM      1  C2  UNL d   1       1.164   1.064  -0.643  0.00  0.00    -0.081 A 
ATOM      2  C3  UNL d   1       0.485  -0.004  -0.044  0.00  0.00     0.006 A 
ATOM      3  C4  UNL d   1       0.529  -1.279  -0.613  0.00  0.00     0.002 A 
ATOM      4  C5  UNL d   1       1.259  -1.509  -1.784  0.00  0.00    -0.080 A 
ATOM      5  C6  UNL d   1       1.339  -2.880  -2.388  0.00  0.00     0.076 C 
ATOM      6  C7  UNL d   1       1.923  -0.439  -2.392  0.00  0.00     0.002 A 
ATOM      7  C8  UNL d   1       1.879   0.837  -1.824  0.00  0.00     0.006 A 
ENDROOT
BRANCH   1   8
ATOM      8  C1  UNL d   1       1.172   2.426   0.003  0.00  0.00     0.054 C 
ATOM      9  C   UNL d   1       1.618   2.347   1.456  0.00  0.00     0.018 C 
ENDBRANCH   1   8
TORSDOF 1
ENDMDL
