MODEL 1
REMARK minimizedAffinity -0.808422923
REMARK minimizedRMSD -1
REMARK  1 active torsions:
REMARK  status: ('A' for Active; 'I' for Inactive)
REMARK    1  A    between atoms: C1_2  and  C2_3 
ROOT
ATOM      1  C2  UNL d   1       1.840   1.772  -0.607  0.00  0.00    -0.081 A 
ATOM      2  C3  UNL d   1       0.768   1.441   0.232  0.00  0.00     0.006 A 
ATOM      3  C4  UNL d   1       0.368   0.111   0.378  0.00  0.00     0.002 A 
ATOM      4  C5  UNL d   1       1.036  -0.910  -0.306  0.00  0.00    -0.080 A 
ATOM      5  C6  UNL d   1       0.635  -2.346  -0.135  0.00  0.00     0.076 C 
ATOM      6  C7  UNL d   1       2.095  -0.578  -1.157  0.00  0.00     0.002 A 
ATOM      7  C8  UNL d   1       2.495   0.752  -1.304  0.00  0.00     0.006 A 
ENDROOT
BRANCH   1   8
ATOM      8  C1  UNL d   1       2.316   3.198  -0.716  0.00  0.00     0.054 C 
ATOM      9  C   UNL d   1       1.996   3.986   0.547  0.00  0.00     0.018 C 
ENDBRANCH   1   8
TORSDOF 1
ENDMDL
