MODEL 1
REMARK minimizedAffinity -2.20308304
REMARK minimizedRMSD -1
REMARK  1 active torsions:
REMARK  status: ('A' for Active; 'I' for Inactive)
REMARK    1  A    between atoms: C1_2  and  C2_3 
ROOT
ATOM      1  C2  UNL d   1       0.967  -0.768  -0.679  0.00  0.00    -0.081 A 
ATOM      2  C3  UNL d   1       1.901  -0.407  -1.658  0.00  0.00     0.006 A 
ATOM      3  C4  UNL d   1       2.237   0.934  -1.855  0.00  0.00     0.002 A 
ATOM      4  C5  UNL d   1       1.653   1.935  -1.072  0.00  0.00    -0.080 A 
ATOM      5  C6  UNL d   1       2.028   3.376  -1.252  0.00  0.00     0.076 C 
ATOM      6  C7  UNL d   1       0.707   1.576  -0.105  0.00  0.00     0.002 A 
ATOM      7  C8  UNL d   1       0.370   0.235   0.091  0.00  0.00     0.006 A 
ENDROOT
BRANCH   1   8
ATOM      8  C1  UNL d   1       0.651  -2.219  -0.421  0.00  0.00     0.054 C 
ATOM      9  C   UNL d   1       0.173  -2.435   1.008  0.00  0.00     0.018 C 
ENDBRANCH   1   8
TORSDOF 1
ENDMDL
