MODEL 1
REMARK minimizedAffinity -4.56793022
REMARK minimizedRMSD -1
REMARK  1 active torsions:
REMARK  status: ('A' for Active; 'I' for Inactive)
REMARK    1  A    between atoms: C1_2  and  C2_3 
ROOT
ATOM      1  C2  UNL d   1       0.377   0.380  -0.111  0.00  0.00    -0.081 A 
ATOM      2  C3  UNL d   1      -0.732   0.770  -0.872  0.00  0.00     0.006 A 
ATOM      3  C4  UNL d   1      -2.023   0.652  -0.353  0.00  0.00     0.002 A 
ATOM      4  C5  UNL d   1      -2.227   0.151   0.937  0.00  0.00    -0.080 A 
ATOM      5  C6  UNL d   1      -3.606   0.048   1.517  0.00  0.00     0.076 C 
ATOM      6  C7  UNL d   1      -1.121  -0.255   1.691  0.00  0.00     0.002 A 
ATOM      7  C8  UNL d   1       0.171  -0.138   1.172  0.00  0.00     0.006 A 
ENDROOT
BRANCH   1   8
ATOM      8  C1  UNL d   1       1.775   0.566  -0.643  0.00  0.00     0.054 C 
ATOM      9  C   UNL d   1       1.876   0.131  -2.098  0.00  0.00     0.018 C 
ENDBRANCH   1   8
TORSDOF 1
ENDMDL
