MODEL 1
REMARK minimizedAffinity 0.0976637974
REMARK minimizedRMSD -1
REMARK  0 active torsions:
REMARK  status: ('A' for Active; 'I' for Inactive)
ROOT
ATOM      1  N1  IND d   1       1.559   4.498  -0.702  0.00  0.00    -0.196 N 
ATOM      2  C2  IND d   1       0.829   5.550  -1.181  0.00  0.00     0.054 A 
ATOM      3  C3  IND d   1      -0.474   5.209  -1.286  0.00  0.00    -0.031 A 
ATOM      4  C4  IND d   1      -1.648   3.013  -0.633  0.00  0.00     0.051 A 
ATOM      5  C5  IND d   1      -1.393   1.747  -0.186  0.00  0.00    -0.031 A 
ATOM      6  C6  IND d   1      -0.116   1.325   0.120  0.00  0.00     0.015 A 
ATOM      7  C7  IND d   1       0.958   2.162   0.001  0.00  0.00    -0.016 A 
ATOM      8  C8  IND d   1       0.704   3.446  -0.459  0.00  0.00    -0.047 A 
ATOM      9  C9  IND d   1      -0.585   3.866  -0.812  0.00  0.00    -0.096 A 
ATOM     10  HN1 IND d   1       2.410   4.494  -0.575  0.00  0.00     0.298 HD
ENDROOT
TORSDOF 0
ENDMDL
