MODEL 1
REMARK minimizedAffinity 2.14485192
REMARK minimizedRMSD -1
REMARK  0 active torsions:
REMARK  status: ('A' for Active; 'I' for Inactive)
ROOT
ATOM      1  N1  IND d   1       0.829   2.985   0.508  0.00  0.00    -0.196 N 
ATOM      2  C2  IND d   1       1.064   1.911  -0.304  0.00  0.00     0.054 A 
ATOM      3  C3  IND d   1      -0.102   1.398  -0.756  0.00  0.00    -0.031 A 
ATOM      4  C4  IND d   1      -2.510   2.225  -0.373  0.00  0.00     0.051 A 
ATOM      5  C5  IND d   1      -3.233   3.149   0.327  0.00  0.00    -0.031 A 
ATOM      6  C6  IND d   1      -2.626   4.087   1.138  0.00  0.00     0.015 A 
ATOM      7  C7  IND d   1      -1.268   4.142   1.271  0.00  0.00    -0.016 A 
ATOM      8  C8  IND d   1      -0.531   3.201   0.566  0.00  0.00    -0.047 A 
ATOM      9  C9  IND d   1      -1.143   2.220  -0.225  0.00  0.00    -0.096 A 
ATOM     10  HN1 IND d   1       1.429   3.448   0.915  0.00  0.00     0.298 HD
ENDROOT
TORSDOF 0
ENDMDL
