MODEL 1
REMARK minimizedAffinity 13.4787788
REMARK minimizedRMSD -1
REMARK  0 active torsions:
REMARK  status: ('A' for Active; 'I' for Inactive)
ROOT
ATOM      1  N1  IND d   1       1.100   5.342  -1.470  0.00  0.00    -0.196 N 
ATOM      2  C2  IND d   1      -0.010   5.998  -1.925  0.00  0.00     0.054 A 
ATOM      3  C3  IND d   1      -1.132   5.393  -1.476  0.00  0.00    -0.031 A 
ATOM      4  C4  IND d   1      -1.382   3.372   0.100  0.00  0.00     0.051 A 
ATOM      5  C5  IND d   1      -0.653   2.415   0.748  0.00  0.00    -0.031 A 
ATOM      6  C6  IND d   1       0.726   2.386   0.691  0.00  0.00     0.015 A 
ATOM      7  C7  IND d   1       1.430   3.323  -0.010  0.00  0.00    -0.016 A 
ATOM      8  C8  IND d   1       0.693   4.293  -0.675  0.00  0.00    -0.047 A 
ATOM      9  C9  IND d   1      -0.708   4.303  -0.656  0.00  0.00    -0.096 A 
ATOM     10  HN1 IND d   1       1.915   5.549  -1.649  0.00  0.00     0.298 HD
ENDROOT
TORSDOF 0
ENDMDL
