MODEL 1
REMARK minimizedAffinity 11.0681105
REMARK minimizedRMSD -1
REMARK  0 active torsions:
REMARK  status: ('A' for Active; 'I' for Inactive)
ROOT
ATOM      1  N1  IND d   1      -3.782   3.983  -3.855  0.00  0.00    -0.196 N 
ATOM      2  C2  IND d   1      -4.973   4.581  -4.161  0.00  0.00     0.054 A 
ATOM      3  C3  IND d   1      -5.998   3.729  -3.937  0.00  0.00    -0.031 A 
ATOM      4  C4  IND d   1      -5.961   1.342  -2.973  0.00  0.00     0.051 A 
ATOM      5  C5  IND d   1      -5.104   0.354  -2.577  0.00  0.00    -0.031 A 
ATOM      6  C6  IND d   1      -3.735   0.529  -2.584  0.00  0.00     0.015 A 
ATOM      7  C7  IND d   1      -3.170   1.708  -2.979  0.00  0.00    -0.016 A 
ATOM      8  C8  IND d   1      -4.037   2.712  -3.389  0.00  0.00    -0.047 A 
ATOM      9  C9  IND d   1      -5.425   2.525  -3.424  0.00  0.00    -0.096 A 
ATOM     10  HN1 IND d   1      -3.005   4.340  -3.940  0.00  0.00     0.298 HD
ENDROOT
TORSDOF 0
ENDMDL
