MODEL 1
REMARK minimizedAffinity 6.99197531
REMARK minimizedRMSD -1
REMARK  0 active torsions:
REMARK  status: ('A' for Active; 'I' for Inactive)
ROOT
ATOM      1  N1  IND d   1      -3.804   5.120  -3.746  0.00  0.00    -0.196 N 
ATOM      2  C2  IND d   1      -4.969   5.715  -4.142  0.00  0.00     0.054 A 
ATOM      3  C3  IND d   1      -5.992   4.832  -4.082  0.00  0.00    -0.031 A 
ATOM      4  C4  IND d   1      -5.999   2.391  -3.265  0.00  0.00     0.051 A 
ATOM      5  C5  IND d   1      -5.166   1.395  -2.839  0.00  0.00    -0.031 A 
ATOM      6  C6  IND d   1      -3.809   1.595  -2.688  0.00  0.00     0.015 A 
ATOM      7  C7  IND d   1      -3.234   2.806  -2.948  0.00  0.00    -0.016 A 
ATOM      8  C8  IND d   1      -4.076   3.818  -3.387  0.00  0.00    -0.047 A 
ATOM      9  C9  IND d   1      -5.448   3.609  -3.583  0.00  0.00    -0.096 A 
ATOM     10  HN1 IND d   1      -3.031   5.496  -3.724  0.00  0.00     0.298 HD
ENDROOT
TORSDOF 0
ENDMDL
