MODEL 1
REMARK minimizedAffinity 11.9257965
REMARK minimizedRMSD -1
REMARK  0 active torsions:
REMARK  status: ('A' for Active; 'I' for Inactive)
ROOT
ATOM      1  N1  IND d   1      -4.497  -1.045  -2.806  0.00  0.00    -0.196 N 
ATOM      2  C2  IND d   1      -5.120   0.056  -2.287  0.00  0.00     0.054 A 
ATOM      3  C3  IND d   1      -4.267   1.104  -2.246  0.00  0.00    -0.031 A 
ATOM      4  C4  IND d   1      -1.835   1.266  -3.072  0.00  0.00     0.051 A 
ATOM      5  C5  IND d   1      -0.820   0.511  -3.589  0.00  0.00    -0.031 A 
ATOM      6  C6  IND d   1      -0.983  -0.829  -3.879  0.00  0.00     0.015 A 
ATOM      7  C7  IND d   1      -2.176  -1.462  -3.674  0.00  0.00    -0.016 A 
ATOM      8  C8  IND d   1      -3.207  -0.699  -3.142  0.00  0.00    -0.047 A 
ATOM      9  C9  IND d   1      -3.034   0.649  -2.806  0.00  0.00    -0.096 A 
ATOM     10  HN1 IND d   1      -4.851  -1.822  -2.906  0.00  0.00     0.298 HD
ENDROOT
TORSDOF 0
ENDMDL
