MODEL 1
REMARK minimizedAffinity 1.07885551
REMARK minimizedRMSD -1
REMARK  0 active torsions:
REMARK  status: ('A' for Active; 'I' for Inactive)
ROOT
ATOM      1  N1  IND d   1       5.494  -1.585  -1.068  0.00  0.00    -0.196 N 
ATOM      2  C2  IND d   1       5.986  -2.857  -1.153  0.00  0.00     0.054 A 
ATOM      3  C3  IND d   1       5.137  -3.730  -0.564  0.00  0.00    -0.031 A 
ATOM      4  C4  IND d   1       2.838  -3.303   0.511  0.00  0.00     0.051 A 
ATOM      5  C5  IND d   1       1.981  -2.296   0.858  0.00  0.00    -0.031 A 
ATOM      6  C6  IND d   1       2.256  -0.974   0.573  0.00  0.00     0.015 A 
ATOM      7  C7  IND d   1       3.398  -0.609  -0.083  0.00  0.00    -0.016 A 
ATOM      8  C8  IND d   1       4.273  -1.628  -0.431  0.00  0.00    -0.047 A 
ATOM      9  C9  IND d   1       4.019  -2.967  -0.107  0.00  0.00    -0.096 A 
ATOM     10  HN1 IND d   1       5.882  -0.876  -1.362  0.00  0.00     0.298 HD
ENDROOT
TORSDOF 0
ENDMDL
