MODEL 1
REMARK minimizedAffinity 3.97787261
REMARK minimizedRMSD -1
REMARK  0 active torsions:
REMARK  status: ('A' for Active; 'I' for Inactive)
ROOT
ATOM      1  N1  IND d   1      -5.588   1.187  -3.490  0.00  0.00    -0.196 N 
ATOM      2  C2  IND d   1      -4.493   0.563  -2.961  0.00  0.00     0.054 A 
ATOM      3  C3  IND d   1      -3.440   1.411  -2.925  0.00  0.00    -0.031 A 
ATOM      4  C4  IND d   1      -3.318   3.896  -3.585  0.00  0.00     0.051 A 
ATOM      5  C5  IND d   1      -4.054   4.897  -4.154  0.00  0.00    -0.031 A 
ATOM      6  C6  IND d   1      -5.367   4.709  -4.536  0.00  0.00     0.015 A 
ATOM      7  C7  IND d   1      -5.999   3.512  -4.352  0.00  0.00    -0.016 A 
ATOM      8  C8  IND d   1      -5.252   2.491  -3.781  0.00  0.00    -0.047 A 
ATOM      9  C9  IND d   1      -3.906   2.663  -3.430  0.00  0.00    -0.096 A 
ATOM     10  HN1 IND d   1      -6.358   0.826  -3.619  0.00  0.00     0.298 HD
ENDROOT
TORSDOF 0
ENDMDL
