MODEL 1
REMARK minimizedAffinity 16.4860153
REMARK minimizedRMSD -1
REMARK  0 active torsions:
REMARK  status: ('A' for Active; 'I' for Inactive)
ROOT
ATOM      1  N1  IND d   1       1.214   4.843  -2.038  0.00  0.00    -0.196 N 
ATOM      2  C2  IND d   1       0.345   5.761  -2.558  0.00  0.00     0.054 A 
ATOM      3  C3  IND d   1      -0.905   5.540  -2.094  0.00  0.00    -0.031 A 
ATOM      4  C4  IND d   1      -1.734   3.792  -0.395  0.00  0.00     0.051 A 
ATOM      5  C5  IND d   1      -1.316   2.712   0.329  0.00  0.00    -0.031 A 
ATOM      6  C6  IND d   1      -0.006   2.279   0.303  0.00  0.00     0.015 A 
ATOM      7  C7  IND d   1       0.941   2.921  -0.443  0.00  0.00    -0.016 A 
ATOM      8  C8  IND d   1       0.519   4.015  -1.185  0.00  0.00    -0.047 A 
ATOM      9  C9  IND d   1      -0.818   4.432  -1.196  0.00  0.00    -0.096 A 
ATOM     10  HN1 IND d   1       2.054   4.792  -2.214  0.00  0.00     0.298 HD
ENDROOT
TORSDOF 0
ENDMDL
