MODEL 1
REMARK minimizedAffinity -2.64437008
REMARK minimizedRMSD -1
REMARK  2 active torsions:
REMARK  status: ('A' for Active; 'I' for Inactive)
REMARK    1  A    between atoms: C1_2  and  C2_3 
REMARK    2  A    between atoms: C2_3  and  C3_4 
ROOT
ATOM      1  C3  UNL d   1      -0.201   5.970  -4.220  0.00  0.00    -0.075 A 
ATOM      2  C4  UNL d   1      -0.936   5.959  -5.414  0.00  0.00     0.002 A 
ATOM      3  C5  UNL d   1      -2.331   5.979  -5.387  0.00  0.00     0.002 A 
ATOM      4  C6  UNL d   1      -3.007   6.000  -4.169  0.00  0.00    -0.004 A 
ATOM      5  C7  UNL d   1      -2.287   5.994  -2.977  0.00  0.00     0.002 A 
ATOM      6  C8  UNL d   1      -0.892   5.978  -3.000  0.00  0.00     0.002 A 
ENDROOT
BRANCH   1   7
ATOM      7  C2  UNL d   1       1.309   5.978  -4.242  0.00  0.00     0.056 C 
BRANCH   7   8
ATOM      8  C1  UNL d   1       1.912   5.949  -5.650  0.00  0.00     0.007 C 
ATOM      9  C   UNL d   1       3.434   5.993  -5.652  0.00  0.00     0.009 C 
ENDBRANCH   7   8
ENDBRANCH   1   7
TORSDOF 2
ENDMDL
