MODEL 1
REMARK minimizedAffinity 7.5118804
REMARK minimizedRMSD -1
REMARK  2 active torsions:
REMARK  status: ('A' for Active; 'I' for Inactive)
REMARK    1  A    between atoms: C1_2  and  C2_3 
REMARK    2  A    between atoms: C2_3  and  C3_4 
ROOT
ATOM      1  C3  UNL d   1      -0.385   5.423  -3.497  0.00  0.00    -0.075 A 
ATOM      2  C4  UNL d   1       0.305   4.307  -3.001  0.00  0.00     0.002 A 
ATOM      3  C5  UNL d   1       1.408   3.794  -3.684  0.00  0.00     0.002 A 
ATOM      4  C6  UNL d   1       1.828   4.383  -4.875  0.00  0.00    -0.004 A 
ATOM      5  C7  UNL d   1       1.141   5.482  -5.385  0.00  0.00     0.002 A 
ATOM      6  C8  UNL d   1       0.039   5.999  -4.701  0.00  0.00     0.002 A 
ENDROOT
BRANCH   1   7
ATOM      7  C2  UNL d   1      -1.561   6.000  -2.746  0.00  0.00     0.056 C 
BRANCH   7   8
ATOM      8  C1  UNL d   1      -2.877   5.971  -3.531  0.00  0.00     0.007 C 
ATOM      9  C   UNL d   1      -4.110   6.000  -2.638  0.00  0.00     0.009 C 
ENDBRANCH   7   8
ENDBRANCH   1   7
TORSDOF 2
ENDMDL
