MODEL 1
REMARK minimizedAffinity 5.27826929
REMARK minimizedRMSD -1
REMARK  2 active torsions:
REMARK  status: ('A' for Active; 'I' for Inactive)
REMARK    1  A    between atoms: C1_2  and  C2_3 
REMARK    2  A    between atoms: C2_3  and  C3_4 
ROOT
ATOM      1  C3  UNL d   1       0.136   2.682  -0.779  0.00  0.00    -0.075 A 
ATOM      2  C4  UNL d   1      -0.330   1.383  -1.033  0.00  0.00     0.002 A 
ATOM      3  C5  UNL d   1      -0.193   0.381  -0.072  0.00  0.00     0.002 A 
ATOM      4  C6  UNL d   1       0.420   0.661   1.148  0.00  0.00    -0.004 A 
ATOM      5  C7  UNL d   1       0.902   1.943   1.404  0.00  0.00     0.002 A 
ATOM      6  C8  UNL d   1       0.761   2.948   0.446  0.00  0.00     0.002 A 
ENDROOT
BRANCH   1   7
ATOM      7  C2  UNL d   1      -0.037   3.778  -1.803  0.00  0.00     0.056 C 
BRANCH   7   8
ATOM      8  C1  UNL d   1      -0.798   5.002  -1.284  0.00  0.00     0.007 C 
ATOM      9  C   UNL d   1      -1.185   5.980  -2.386  0.00  0.00     0.009 C 
ENDBRANCH   7   8
ENDBRANCH   1   7
TORSDOF 2
ENDMDL
