MODEL 1
REMARK minimizedAffinity -0.462406904
REMARK minimizedRMSD -1
REMARK  2 active torsions:
REMARK  status: ('A' for Active; 'I' for Inactive)
REMARK    1  A    between atoms: C1_2  and  C2_3 
REMARK    2  A    between atoms: C2_3  and  C3_4 
ROOT
ATOM      1  C3  UNL d   1      -0.063   5.953  -4.288  0.00  0.00    -0.075 A 
ATOM      2  C4  UNL d   1       0.180   5.971  -2.907  0.00  0.00     0.002 A 
ATOM      3  C5  UNL d   1      -0.881   5.989  -2.001  0.00  0.00     0.002 A 
ATOM      4  C6  UNL d   1      -2.195   5.999  -2.463  0.00  0.00    -0.004 A 
ATOM      5  C7  UNL d   1      -2.448   5.998  -3.833  0.00  0.00     0.002 A 
ATOM      6  C8  UNL d   1      -1.389   5.976  -4.742  0.00  0.00     0.002 A 
ENDROOT
BRANCH   1   7
ATOM      7  C2  UNL d   1       1.080   5.904  -5.274  0.00  0.00     0.056 C 
BRANCH   7   8
ATOM      8  C1  UNL d   1       2.466   5.982  -4.625  0.00  0.00     0.007 C 
ATOM      9  C   UNL d   1       3.603   5.997  -5.638  0.00  0.00     0.009 C 
ENDBRANCH   7   8
ENDBRANCH   1   7
TORSDOF 2
ENDMDL
