MODEL 1
REMARK minimizedAffinity -0.389597327
REMARK minimizedRMSD -1
REMARK  2 active torsions:
REMARK  status: ('A' for Active; 'I' for Inactive)
REMARK    1  A    between atoms: C1_2  and  C2_3 
REMARK    2  A    between atoms: C2_3  and  C3_4 
ROOT
ATOM      1  C3  UNL d   1       1.293   0.472  -0.395  0.00  0.00    -0.075 A 
ATOM      2  C4  UNL d   1       0.191  -0.252   0.082  0.00  0.00     0.002 A 
ATOM      3  C5  UNL d   1      -0.161  -0.199   1.431  0.00  0.00     0.002 A 
ATOM      4  C6  UNL d   1       0.588   0.569   2.320  0.00  0.00    -0.004 A 
ATOM      5  C7  UNL d   1       1.695   1.279   1.860  0.00  0.00     0.002 A 
ATOM      6  C8  UNL d   1       2.047   1.231   0.510  0.00  0.00     0.002 A 
ENDROOT
BRANCH   1   7
ATOM      7  C2  UNL d   1       1.661   0.442  -1.859  0.00  0.00     0.056 C 
BRANCH   7   8
ATOM      8  C1  UNL d   1       1.740   1.827  -2.511  0.00  0.00     0.007 C 
ATOM      9  C   UNL d   1       0.899   2.876  -1.795  0.00  0.00     0.009 C 
ENDBRANCH   7   8
ENDBRANCH   1   7
TORSDOF 2
ENDMDL
