MODEL 1
REMARK minimizedAffinity 4.30465746
REMARK minimizedRMSD -1
REMARK  2 active torsions:
REMARK  status: ('A' for Active; 'I' for Inactive)
REMARK    1  A    between atoms: C1_2  and  C2_3 
REMARK    2  A    between atoms: C2_3  and  C3_4 
ROOT
ATOM      1  C3  UNL d   1      -0.458   5.935  -3.448  0.00  0.00    -0.075 A 
ATOM      2  C4  UNL d   1      -1.259   5.889  -4.598  0.00  0.00     0.002 A 
ATOM      3  C5  UNL d   1      -0.678   5.808  -5.864  0.00  0.00     0.002 A 
ATOM      4  C6  UNL d   1       0.709   5.784  -5.996  0.00  0.00    -0.004 A 
ATOM      5  C7  UNL d   1       1.515   5.847  -4.862  0.00  0.00     0.002 A 
ATOM      6  C8  UNL d   1       0.936   5.923  -3.594  0.00  0.00     0.002 A 
ENDROOT
BRANCH   1   7
ATOM      7  C2  UNL d   1      -1.082   5.992  -2.074  0.00  0.00     0.056 C 
BRANCH   7   8
ATOM      8  C1  UNL d   1      -2.570   5.629  -2.049  0.00  0.00     0.007 C 
ATOM      9  C   UNL d   1      -3.184   5.708  -0.658  0.00  0.00     0.009 C 
ENDBRANCH   7   8
ENDBRANCH   1   7
TORSDOF 2
ENDMDL
