MODEL 1
REMARK minimizedAffinity -2.81706595
REMARK minimizedRMSD -1
REMARK  2 active torsions:
REMARK  status: ('A' for Active; 'I' for Inactive)
REMARK    1  A    between atoms: C1_2  and  C2_3 
REMARK    2  A    between atoms: C2_3  and  C3_4 
ROOT
ATOM      1  C3  UNL d   1       2.703   4.867  -5.272  0.00  0.00    -0.075 A 
ATOM      2  C4  UNL d   1       3.551   5.960  -5.502  0.00  0.00     0.002 A 
ATOM      3  C5  UNL d   1       4.827   5.997  -4.940  0.00  0.00     0.002 A 
ATOM      4  C6  UNL d   1       5.268   4.949  -4.134  0.00  0.00    -0.004 A 
ATOM      5  C7  UNL d   1       4.428   3.866  -3.885  0.00  0.00     0.002 A 
ATOM      6  C8  UNL d   1       3.152   3.824  -4.450  0.00  0.00     0.002 A 
ENDROOT
BRANCH   1   7
ATOM      7  C2  UNL d   1       1.332   4.807  -5.902  0.00  0.00     0.056 C 
BRANCH   7   8
ATOM      8  C1  UNL d   1       0.432   5.996  -5.551  0.00  0.00     0.007 C 
ATOM      9  C   UNL d   1      -0.035   5.989  -4.101  0.00  0.00     0.009 C 
ENDBRANCH   7   8
ENDBRANCH   1   7
TORSDOF 2
ENDMDL
