MODEL 1
REMARK minimizedAffinity 10.5736036
REMARK minimizedRMSD -1
REMARK  2 active torsions:
REMARK  status: ('A' for Active; 'I' for Inactive)
REMARK    1  A    between atoms: C1_2  and  C2_3 
REMARK    2  A    between atoms: C2_3  and  C3_4 
ROOT
ATOM      1  C3  UNL d   1       1.241   0.156  -4.118  0.00  0.00    -0.075 A 
ATOM      2  C4  UNL d   1       0.863  -1.146  -3.760  0.00  0.00     0.002 A 
ATOM      3  C5  UNL d   1      -0.072  -1.847  -4.524  0.00  0.00     0.002 A 
ATOM      4  C6  UNL d   1      -0.646  -1.253  -5.645  0.00  0.00    -0.004 A 
ATOM      5  C7  UNL d   1      -0.290   0.047  -6.000  0.00  0.00     0.002 A 
ATOM      6  C8  UNL d   1       0.648   0.749  -5.241  0.00  0.00     0.002 A 
ENDROOT
BRANCH   1   7
ATOM      7  C2  UNL d   1       2.273   0.909  -3.313  0.00  0.00     0.056 C 
BRANCH   7   8
ATOM      8  C1  UNL d   1       1.846   2.327  -2.921  0.00  0.00     0.007 C 
ATOM      9  C   UNL d   1       1.380   2.436  -1.475  0.00  0.00     0.009 C 
ENDBRANCH   7   8
ENDBRANCH   1   7
TORSDOF 2
ENDMDL
