MODEL 1
REMARK minimizedAffinity 0.520732105
REMARK minimizedRMSD -1
REMARK  2 active torsions:
REMARK  status: ('A' for Active; 'I' for Inactive)
REMARK    1  A    between atoms: C1_2  and  C2_3 
REMARK    2  A    between atoms: C2_3  and  C3_4 
ROOT
ATOM      1  C3  UNL d   1      -1.104   5.680  -3.590  0.00  0.00    -0.075 A 
ATOM      2  C4  UNL d   1      -2.166   5.767  -4.502  0.00  0.00     0.002 A 
ATOM      3  C5  UNL d   1      -3.476   5.930  -4.052  0.00  0.00     0.002 A 
ATOM      4  C6  UNL d   1      -3.743   5.998  -2.686  0.00  0.00    -0.004 A 
ATOM      5  C7  UNL d   1      -2.698   5.896  -1.770  0.00  0.00     0.002 A 
ATOM      6  C8  UNL d   1      -1.385   5.738  -2.218  0.00  0.00     0.002 A 
ENDROOT
BRANCH   1   7
ATOM      7  C2  UNL d   1       0.319   5.534  -4.072  0.00  0.00     0.056 C 
BRANCH   7   8
ATOM      8  C1  UNL d   1       0.531   5.955  -5.530  0.00  0.00     0.007 C 
ATOM      9  C   UNL d   1       1.998   6.000  -5.935  0.00  0.00     0.009 C 
ENDBRANCH   7   8
ENDBRANCH   1   7
TORSDOF 2
ENDMDL
