MODEL 1
REMARK minimizedAffinity 13.2598391
REMARK minimizedRMSD -1
REMARK  2 active torsions:
REMARK  status: ('A' for Active; 'I' for Inactive)
REMARK    1  A    between atoms: C1_2  and  C2_3 
REMARK    2  A    between atoms: C2_3  and  C3_4 
ROOT
ATOM      1  C3  UNL d   1       1.537   5.405  -4.588  0.00  0.00    -0.075 A 
ATOM      2  C4  UNL d   1       0.943   5.503  -5.855  0.00  0.00     0.002 A 
ATOM      3  C5  UNL d   1      -0.414   5.803  -5.979  0.00  0.00     0.002 A 
ATOM      4  C6  UNL d   1      -1.195   5.997  -4.842  0.00  0.00    -0.004 A 
ATOM      5  C7  UNL d   1      -0.619   5.886  -3.579  0.00  0.00     0.002 A 
ATOM      6  C8  UNL d   1       0.740   5.591  -3.451  0.00  0.00     0.002 A 
ENDROOT
BRANCH   1   7
ATOM      7  C2  UNL d   1       3.011   5.111  -4.447  0.00  0.00     0.056 C 
BRANCH   7   8
ATOM      8  C1  UNL d   1       3.895   5.851  -5.456  0.00  0.00     0.007 C 
ATOM      9  C   UNL d   1       5.383   5.715  -5.165  0.00  0.00     0.009 C 
ENDBRANCH   7   8
ENDBRANCH   1   7
TORSDOF 2
ENDMDL
