MODEL 1
REMARK minimizedAffinity -2.04603267
REMARK minimizedRMSD -1
REMARK  2 active torsions:
REMARK  status: ('A' for Active; 'I' for Inactive)
REMARK    1  A    between atoms: C1_2  and  C2_3 
REMARK    2  A    between atoms: C2_3  and  C3_4 
ROOT
ATOM      1  C3  UNL d   1      -0.686   5.969  -3.984  0.00  0.00    -0.075 A 
ATOM      2  C4  UNL d   1      -1.419   5.978  -5.179  0.00  0.00     0.002 A 
ATOM      3  C5  UNL d   1      -2.814   5.994  -5.155  0.00  0.00     0.002 A 
ATOM      4  C6  UNL d   1      -3.492   5.991  -3.938  0.00  0.00    -0.004 A 
ATOM      5  C7  UNL d   1      -2.774   5.965  -2.744  0.00  0.00     0.002 A 
ATOM      6  C8  UNL d   1      -1.378   5.954  -2.766  0.00  0.00     0.002 A 
ENDROOT
BRANCH   1   7
ATOM      7  C2  UNL d   1       0.824   5.982  -4.004  0.00  0.00     0.056 C 
BRANCH   7   8
ATOM      8  C1  UNL d   1       1.433   5.678  -5.377  0.00  0.00     0.007 C 
ATOM      9  C   UNL d   1       2.925   5.972  -5.451  0.00  0.00     0.009 C 
ENDBRANCH   7   8
ENDBRANCH   1   7
TORSDOF 2
ENDMDL
