MODEL 1
REMARK minimizedAffinity 1.02778947
REMARK minimizedRMSD -1
REMARK  2 active torsions:
REMARK  status: ('A' for Active; 'I' for Inactive)
REMARK    1  A    between atoms: C1_2  and  C2_3 
REMARK    2  A    between atoms: C2_3  and  C3_4 
ROOT
ATOM      1  C3  UNL d   1      -0.750  -1.627  -1.826  0.00  0.00    -0.075 A 
ATOM      2  C4  UNL d   1      -2.152  -1.615  -1.838  0.00  0.00     0.002 A 
ATOM      3  C5  UNL d   1      -2.852  -1.818  -3.028  0.00  0.00     0.002 A 
ATOM      4  C6  UNL d   1      -2.161  -2.026  -4.219  0.00  0.00    -0.004 A 
ATOM      5  C7  UNL d   1      -0.767  -2.023  -4.222  0.00  0.00     0.002 A 
ATOM      6  C8  UNL d   1      -0.065  -1.825  -3.032  0.00  0.00     0.002 A 
ENDROOT
BRANCH   1   7
ATOM      7  C2  UNL d   1       0.013  -1.437  -0.536  0.00  0.00     0.056 C 
BRANCH   7   8
ATOM      8  C1  UNL d   1       0.206   0.029  -0.136  0.00  0.00     0.007 C 
ATOM      9  C   UNL d   1      -0.878   0.543   0.803  0.00  0.00     0.009 C 
ENDBRANCH   7   8
ENDBRANCH   1   7
TORSDOF 2
ENDMDL
