MODEL 1
REMARK minimizedAffinity 0.205679923
REMARK minimizedRMSD -1
REMARK  2 active torsions:
REMARK  status: ('A' for Active; 'I' for Inactive)
REMARK    1  A    between atoms: C1_2  and  C2_3 
REMARK    2  A    between atoms: C2_3  and  C3_4 
ROOT
ATOM      1  C3  UNL d   1      -0.829   5.874  -3.624  0.00  0.00    -0.075 A 
ATOM      2  C4  UNL d   1       0.548   5.868  -3.359  0.00  0.00     0.002 A 
ATOM      3  C5  UNL d   1       1.471   5.934  -4.403  0.00  0.00     0.002 A 
ATOM      4  C6  UNL d   1       1.031   5.996  -5.723  0.00  0.00    -0.004 A 
ATOM      5  C7  UNL d   1      -0.335   5.986  -5.999  0.00  0.00     0.002 A 
ATOM      6  C8  UNL d   1      -1.261   5.924  -4.956  0.00  0.00     0.002 A 
ENDROOT
BRANCH   1   7
ATOM      7  C2  UNL d   1      -1.833   5.833  -2.497  0.00  0.00     0.056 C 
BRANCH   7   8
ATOM      8  C1  UNL d   1      -3.121   5.076  -2.837  0.00  0.00     0.007 C 
ATOM      9  C   UNL d   1      -4.365   5.698  -2.216  0.00  0.00     0.009 C 
ENDBRANCH   7   8
ENDBRANCH   1   7
TORSDOF 2
ENDMDL
