MODEL 1
REMARK minimizedAffinity 6.60951567
REMARK minimizedRMSD -1
REMARK  2 active torsions:
REMARK  status: ('A' for Active; 'I' for Inactive)
REMARK    1  A    between atoms: C1_2  and  C2_3 
REMARK    2  A    between atoms: C2_3  and  C3_4 
ROOT
ATOM      1  C3  UNL d   1      -3.004   5.961  -2.806  0.00  0.00    -0.075 A 
ATOM      2  C4  UNL d   1      -4.181   5.976  -2.044  0.00  0.00     0.002 A 
ATOM      3  C5  UNL d   1      -4.123   5.998  -0.650  0.00  0.00     0.002 A 
ATOM      4  C6  UNL d   1      -2.890   5.994  -0.002  0.00  0.00    -0.004 A 
ATOM      5  C7  UNL d   1      -1.714   5.962  -0.748  0.00  0.00     0.002 A 
ATOM      6  C8  UNL d   1      -1.769   5.944  -2.143  0.00  0.00     0.002 A 
ENDROOT
BRANCH   1   7
ATOM      7  C2  UNL d   1      -3.060   5.967  -4.315  0.00  0.00     0.056 C 
BRANCH   7   8
ATOM      8  C1  UNL d   1      -1.685   5.981  -4.990  0.00  0.00     0.007 C 
ATOM      9  C   UNL d   1      -1.177   4.591  -5.348  0.00  0.00     0.009 C 
ENDBRANCH   7   8
ENDBRANCH   1   7
TORSDOF 2
ENDMDL
