MODEL 1
REMARK minimizedAffinity -3.47238183
REMARK minimizedRMSD -1
REMARK  1 active torsions:
REMARK  status: ('A' for Active; 'I' for Inactive)
REMARK    1  A    between atoms: C1_2  and  C2_3 
ROOT
ATOM      1  C2  UNL d   1       0.764   0.268  -1.179  0.00  0.00    -0.076 A 
ATOM      2  C3  UNL d   1       1.812  -0.665  -1.261  0.00  0.00     0.004 A 
ATOM      3  C4  UNL d   1       1.861  -1.765  -0.405  0.00  0.00    -0.003 A 
ATOM      4  C5  UNL d   1       0.863  -1.949   0.545  0.00  0.00     0.000 A 
ATOM      5  C6  UNL d   1      -0.193  -1.042   0.628  0.00  0.00     0.000 A 
ATOM      6  C7  UNL d   1      -0.266   0.063  -0.238  0.00  0.00    -0.073 A 
ATOM      7  C8  UNL d   1      -1.425   1.012  -0.100  0.00  0.00     0.078 C 
ENDROOT
BRANCH   1   8
ATOM      8  C1  UNL d   1       0.778   1.456  -2.115  0.00  0.00     0.053 C 
ATOM      9  C   UNL d   1       1.721   1.259  -3.292  0.00  0.00     0.018 C 
ENDBRANCH   1   8
TORSDOF 1
ENDMDL
