MODEL 1
REMARK minimizedAffinity -4.01545143
REMARK minimizedRMSD -1
REMARK  1 active torsions:
REMARK  status: ('A' for Active; 'I' for Inactive)
REMARK    1  A    between atoms: C1_2  and  C2_3 
ROOT
ATOM      1  C2  UNL d   1       0.884   0.392  -1.368  0.00  0.00    -0.076 A 
ATOM      2  C3  UNL d   1       1.761  -0.697  -1.223  0.00  0.00     0.004 A 
ATOM      3  C4  UNL d   1       1.453  -1.758  -0.373  0.00  0.00    -0.003 A 
ATOM      4  C5  UNL d   1       0.263  -1.747   0.346  0.00  0.00     0.000 A 
ATOM      5  C6  UNL d   1      -0.627  -0.683   0.202  0.00  0.00     0.000 A 
ATOM      6  C7  UNL d   1      -0.339   0.386  -0.664  0.00  0.00    -0.073 A 
ATOM      7  C8  UNL d   1      -1.332   1.510  -0.777  0.00  0.00     0.078 C 
ENDROOT
BRANCH   1   8
ATOM      8  C1  UNL d   1       1.283   1.526  -2.284  0.00  0.00     0.053 C 
ATOM      9  C   UNL d   1       2.190   1.070  -3.416  0.00  0.00     0.018 C 
ENDBRANCH   1   8
TORSDOF 1
ENDMDL
