MODEL 1
REMARK minimizedAffinity -2.09679508
REMARK minimizedRMSD -1
REMARK  1 active torsions:
REMARK  status: ('A' for Active; 'I' for Inactive)
REMARK    1  A    between atoms: C1_2  and  C2_3 
ROOT
ATOM      1  C2  UNL d   1      -0.119   0.357   1.383  0.00  0.00    -0.076 A 
ATOM      2  C3  UNL d   1       0.861  -0.537   1.848  0.00  0.00     0.004 A 
ATOM      3  C4  UNL d   1       1.457  -1.459   0.989  0.00  0.00    -0.003 A 
ATOM      4  C5  UNL d   1       1.082  -1.501  -0.350  0.00  0.00     0.000 A 
ATOM      5  C6  UNL d   1       0.124  -0.610  -0.832  0.00  0.00     0.000 A 
ATOM      6  C7  UNL d   1      -0.474   0.337   0.018  0.00  0.00    -0.073 A 
ATOM      7  C8  UNL d   1      -1.506   1.269  -0.554  0.00  0.00     0.078 C 
ENDROOT
BRANCH   1   8
ATOM      8  C1  UNL d   1      -0.749   1.316   2.367  0.00  0.00     0.053 C 
ATOM      9  C   UNL d   1      -1.886   0.681   3.153  0.00  0.00     0.018 C 
ENDBRANCH   1   8
TORSDOF 1
ENDMDL
