MODEL 1
REMARK minimizedAffinity -0.76328671
REMARK minimizedRMSD -1
REMARK  1 active torsions:
REMARK  status: ('A' for Active; 'I' for Inactive)
REMARK    1  A    between atoms: C1_2  and  C2_3 
ROOT
ATOM      1  C2  UNL d   1      -0.425  -0.235  -0.210  0.00  0.00    -0.076 A 
ATOM      2  C3  UNL d   1      -0.364  -1.564   0.244  0.00  0.00     0.004 A 
ATOM      3  C4  UNL d   1       0.736  -2.371  -0.042  0.00  0.00    -0.003 A 
ATOM      4  C5  UNL d   1       1.795  -1.861  -0.785  0.00  0.00     0.000 A 
ATOM      5  C6  UNL d   1       1.760  -0.539  -1.228  0.00  0.00     0.000 A 
ATOM      6  C7  UNL d   1       0.665   0.292  -0.935  0.00  0.00    -0.073 A 
ATOM      7  C8  UNL d   1       0.678   1.708  -1.444  0.00  0.00     0.078 C 
ENDROOT
BRANCH   1   8
ATOM      8  C1  UNL d   1      -1.656   0.583   0.106  0.00  0.00     0.053 C 
ATOM      9  C   UNL d   1      -1.936   0.661   1.599  0.00  0.00     0.018 C 
ENDBRANCH   1   8
TORSDOF 1
ENDMDL
