MODEL 1
REMARK minimizedAffinity -3.28490973
REMARK minimizedRMSD -1
REMARK  1 active torsions:
REMARK  status: ('A' for Active; 'I' for Inactive)
REMARK    1  A    between atoms: C1_2  and  C2_3 
ROOT
ATOM      1  C2  UNL d   1      -0.067  -0.461   0.290  0.00  0.00    -0.076 A 
ATOM      2  C3  UNL d   1       1.104  -0.060   0.955  0.00  0.00     0.004 A 
ATOM      3  C4  UNL d   1       2.287  -0.787   0.826  0.00  0.00    -0.003 A 
ATOM      4  C5  UNL d   1       2.317  -1.926   0.029  0.00  0.00     0.000 A 
ATOM      5  C6  UNL d   1       1.169  -2.328  -0.652  0.00  0.00     0.000 A 
ATOM      6  C7  UNL d   1      -0.027  -1.598  -0.546  0.00  0.00    -0.073 A 
ATOM      7  C8  UNL d   1      -1.237  -2.081  -1.297  0.00  0.00     0.078 C 
ENDROOT
BRANCH   1   8
ATOM      8  C1  UNL d   1      -1.327   0.351   0.489  0.00  0.00     0.053 C 
ATOM      9  C   UNL d   1      -1.438   0.918   1.896  0.00  0.00     0.018 C 
ENDBRANCH   1   8
TORSDOF 1
ENDMDL
