MODEL 1
REMARK minimizedAffinity 2.52399731
REMARK minimizedRMSD -1
REMARK  1 active torsions:
REMARK  status: ('A' for Active; 'I' for Inactive)
REMARK    1  A    between atoms: C1_2  and  C2_3 
ROOT
ATOM      1  C2  UNL d   1       0.222  -0.410   1.308  0.00  0.00    -0.076 A 
ATOM      2  C3  UNL d   1       0.785  -1.553   1.902  0.00  0.00     0.004 A 
ATOM      3  C4  UNL d   1       1.092  -2.680   1.140  0.00  0.00    -0.003 A 
ATOM      4  C5  UNL d   1       0.842  -2.681  -0.227  0.00  0.00     0.000 A 
ATOM      5  C6  UNL d   1       0.300  -1.549  -0.836  0.00  0.00     0.000 A 
ATOM      6  C7  UNL d   1      -0.000  -0.399  -0.086  0.00  0.00    -0.073 A 
ATOM      7  C8  UNL d   1      -0.589   0.791  -0.793  0.00  0.00     0.078 C 
ENDROOT
BRANCH   1   8
ATOM      8  C1  UNL d   1      -0.115   0.772   2.188  0.00  0.00     0.053 C 
ATOM      9  C   UNL d   1      -1.142   0.429   3.256  0.00  0.00     0.018 C 
ENDBRANCH   1   8
TORSDOF 1
ENDMDL
