MODEL 1
REMARK minimizedAffinity -2.9669559
REMARK minimizedRMSD -1
REMARK  1 active torsions:
REMARK  status: ('A' for Active; 'I' for Inactive)
REMARK    1  A    between atoms: C1_2  and  C2_3 
ROOT
ATOM      1  C2  UNL d   1       0.378   0.448  -0.741  0.00  0.00    -0.076 A 
ATOM      2  C3  UNL d   1       0.834  -0.818  -0.333  0.00  0.00     0.004 A 
ATOM      3  C4  UNL d   1       1.901  -1.439  -0.979  0.00  0.00    -0.003 A 
ATOM      4  C5  UNL d   1       2.530  -0.805  -2.045  0.00  0.00     0.000 A 
ATOM      5  C6  UNL d   1       2.103   0.459  -2.452  0.00  0.00     0.000 A 
ATOM      6  C7  UNL d   1       1.040   1.106  -1.800  0.00  0.00    -0.073 A 
ATOM      7  C8  UNL d   1       0.617   2.466  -2.285  0.00  0.00     0.078 C 
ENDROOT
BRANCH   1   8
ATOM      8  C1  UNL d   1      -0.800   1.061  -0.020  0.00  0.00     0.053 C 
ATOM      9  C   UNL d   1      -1.322   0.175   1.101  0.00  0.00     0.018 C 
ENDBRANCH   1   8
TORSDOF 1
ENDMDL
