MODEL 1
REMARK minimizedAffinity -4.56530619
REMARK minimizedRMSD -1
REMARK  1 active torsions:
REMARK  status: ('A' for Active; 'I' for Inactive)
REMARK    1  A    between atoms: C1_2  and  C2_3 
ROOT
ATOM      1  C2  UNL d   1       0.836   0.385  -0.642  0.00  0.00    -0.076 A 
ATOM      2  C3  UNL d   1       0.844   1.606  -1.340  0.00  0.00     0.004 A 
ATOM      3  C4  UNL d   1       1.513   1.732  -2.556  0.00  0.00    -0.003 A 
ATOM      4  C5  UNL d   1       2.185   0.640  -3.095  0.00  0.00     0.000 A 
ATOM      5  C6  UNL d   1       2.173  -0.583  -2.425  0.00  0.00     0.000 A 
ATOM      6  C7  UNL d   1       1.489  -0.732  -1.206  0.00  0.00    -0.073 A 
ATOM      7  C8  UNL d   1       1.514  -2.072  -0.524  0.00  0.00     0.078 C 
ENDROOT
BRANCH   1   8
ATOM      8  C1  UNL d   1       0.116   0.315   0.685  0.00  0.00     0.053 C 
ATOM      9  C   UNL d   1      -1.395   0.246   0.526  0.00  0.00     0.018 C 
ENDBRANCH   1   8
TORSDOF 1
ENDMDL
