MODEL 1
REMARK minimizedAffinity -3.09331369
REMARK minimizedRMSD -1
REMARK  1 active torsions:
REMARK  status: ('A' for Active; 'I' for Inactive)
REMARK    1  A    between atoms: C1_2  and  C2_3 
ROOT
ATOM      1  C2  UNL d   1      -0.050   0.287  -0.458  0.00  0.00    -0.076 A 
ATOM      2  C3  UNL d   1      -0.097   1.506  -1.157  0.00  0.00     0.004 A 
ATOM      3  C4  UNL d   1       0.762   1.753  -2.227  0.00  0.00    -0.003 A 
ATOM      4  C5  UNL d   1       1.681   0.784  -2.616  0.00  0.00     0.000 A 
ATOM      5  C6  UNL d   1       1.730  -0.437  -1.945  0.00  0.00     0.000 A 
ATOM      6  C7  UNL d   1       0.860  -0.708  -0.874  0.00  0.00    -0.073 A 
ATOM      7  C8  UNL d   1       0.960  -2.040  -0.183  0.00  0.00     0.078 C 
ENDROOT
BRANCH   1   8
ATOM      8  C1  UNL d   1      -0.987   0.087   0.711  0.00  0.00     0.053 C 
ATOM      9  C   UNL d   1      -0.934   1.237   1.705  0.00  0.00     0.018 C 
ENDBRANCH   1   8
TORSDOF 1
ENDMDL
