MODEL 1
REMARK minimizedAffinity -4.43507004
REMARK minimizedRMSD -1
REMARK  1 active torsions:
REMARK  status: ('A' for Active; 'I' for Inactive)
REMARK    1  A    between atoms: C1_2  and  C2_3 
ROOT
ATOM      1  C2  UNL d   1       0.094  -0.185  -1.172  0.00  0.00    -0.076 A 
ATOM      2  C3  UNL d   1      -0.480   1.047  -1.531  0.00  0.00     0.004 A 
ATOM      3  C4  UNL d   1       0.120   1.867  -2.485  0.00  0.00    -0.003 A 
ATOM      4  C5  UNL d   1       1.302   1.468  -3.098  0.00  0.00     0.000 A 
ATOM      5  C6  UNL d   1       1.876   0.241  -2.767  0.00  0.00     0.000 A 
ATOM      6  C7  UNL d   1       1.277  -0.605  -1.819  0.00  0.00    -0.073 A 
ATOM      7  C8  UNL d   1       1.942  -1.915  -1.496  0.00  0.00     0.078 C 
ENDROOT
BRANCH   1   8
ATOM      8  C1  UNL d   1      -0.586  -1.019  -0.111  0.00  0.00     0.053 C 
ATOM      9  C   UNL d   1      -1.133  -0.177   1.031  0.00  0.00     0.018 C 
ENDBRANCH   1   8
TORSDOF 1
ENDMDL
