MODEL 1
REMARK minimizedAffinity -2.6205802
REMARK minimizedRMSD -1
REMARK  1 active torsions:
REMARK  status: ('A' for Active; 'I' for Inactive)
REMARK    1  A    between atoms: C1_2  and  C2_3 
ROOT
ATOM      1  C2  UNL d   1      -0.257  -0.131   0.062  0.00  0.00    -0.076 A 
ATOM      2  C3  UNL d   1       0.016  -1.400   0.602  0.00  0.00     0.004 A 
ATOM      3  C4  UNL d   1       0.831  -2.307  -0.073  0.00  0.00    -0.003 A 
ATOM      4  C5  UNL d   1       1.387  -1.959  -1.299  0.00  0.00     0.000 A 
ATOM      5  C6  UNL d   1       1.142  -0.698  -1.842  0.00  0.00     0.000 A 
ATOM      6  C7  UNL d   1       0.335   0.234  -1.166  0.00  0.00    -0.073 A 
ATOM      7  C8  UNL d   1       0.099   1.577  -1.800  0.00  0.00     0.078 C 
ENDROOT
BRANCH   1   8
ATOM      8  C1  UNL d   1      -1.170   0.801   0.826  0.00  0.00     0.053 C 
ATOM      9  C   UNL d   1      -1.854   0.114   1.999  0.00  0.00     0.018 C 
ENDBRANCH   1   8
TORSDOF 1
ENDMDL
