MODEL 1
REMARK minimizedAffinity 8.12862682
REMARK minimizedRMSD -1
REMARK  1 active torsions:
REMARK  status: ('A' for Active; 'I' for Inactive)
REMARK    1  A    between atoms: C1_2  and  C2_3 
ROOT
ATOM      1  C2  UNL d   1       0.410  -2.351  -0.694  0.00  0.00    -0.076 A 
ATOM      2  C3  UNL d   1       1.260  -1.463  -1.376  0.00  0.00     0.004 A 
ATOM      3  C4  UNL d   1       2.616  -1.383  -1.061  0.00  0.00    -0.003 A 
ATOM      4  C5  UNL d   1       3.143  -2.191  -0.059  0.00  0.00     0.000 A 
ATOM      5  C6  UNL d   1       2.318  -3.090   0.616  0.00  0.00     0.000 A 
ATOM      6  C7  UNL d   1       0.952  -3.194   0.299  0.00  0.00    -0.073 A 
ATOM      7  C8  UNL d   1       0.107  -4.177   1.063  0.00  0.00     0.078 C 
ENDROOT
BRANCH   1   8
ATOM      8  C1  UNL d   1      -1.057  -2.374  -1.061  0.00  0.00     0.053 C 
ATOM      9  C   UNL d   1      -1.881  -1.407  -0.226  0.00  0.00     0.018 C 
ENDBRANCH   1   8
TORSDOF 1
ENDMDL
