MODEL 1
REMARK minimizedAffinity 11.6716852
REMARK minimizedRMSD -1
REMARK  1 active torsions:
REMARK  status: ('A' for Active; 'I' for Inactive)
REMARK    1  A    between atoms: N_2  and  C1_3 
ROOT
ATOM      1  C1  UNL d   1      -0.717  -0.628  -1.810  0.00  0.00     0.143 A 
ATOM      2  C2  UNL d   1      -1.864  -1.426  -1.882  0.00  0.00    -0.057 A 
ATOM      3  C3  UNL d   1      -3.105  -0.955  -1.436  0.00  0.00     0.033 A 
ATOM      4  C4  UNL d   1      -3.215   0.316  -0.881  0.00  0.00    -0.042 A 
ATOM      5  C5  UNL d   1      -2.083   1.117  -0.777  0.00  0.00     0.033 A 
ATOM      6  C6  UNL d   1      -0.848   0.644  -1.230  0.00  0.00    -0.057 A 
ENDROOT
BRANCH   1   7
ATOM      7  N   UNL d   1       0.564  -1.075  -2.145  0.00  0.00    -0.732 N 
ATOM      8  C   UNL d   1       1.500  -1.471  -1.115  0.00  0.00     0.284 C 
ATOM      9  H3  UNL d   1       0.562  -1.682  -2.961  0.00  0.00     0.395 HD
ENDBRANCH   1   7
TORSDOF 1
ENDMDL
