MODEL 1
REMARK minimizedAffinity 10.6341639
REMARK minimizedRMSD -1
REMARK  1 active torsions:
REMARK  status: ('A' for Active; 'I' for Inactive)
REMARK    1  A    between atoms: N_2  and  C1_3 
ROOT
ATOM      1  C1  UNL d   1      -5.073  -0.046   3.820  0.00  0.00     0.143 A 
ATOM      2  C2  UNL d   1      -5.845   0.275   4.942  0.00  0.00    -0.057 A 
ATOM      3  C3  UNL d   1      -6.000  -0.629   6.000  0.00  0.00     0.033 A 
ATOM      4  C4  UNL d   1      -5.406  -1.885   5.941  0.00  0.00    -0.042 A 
ATOM      5  C5  UNL d   1      -4.655  -2.236   4.825  0.00  0.00     0.033 A 
ATOM      6  C6  UNL d   1      -4.499  -1.326   3.775  0.00  0.00    -0.057 A 
ENDROOT
BRANCH   1   7
ATOM      7  N   UNL d   1      -4.962   0.771   2.693  0.00  0.00    -0.732 N 
ATOM      8  C   UNL d   1      -3.665   1.069   2.123  0.00  0.00     0.284 C 
ATOM      9  H3  UNL d   1      -5.685   0.581   2.003  0.00  0.00     0.395 HD
ENDBRANCH   1   7
TORSDOF 1
ENDMDL
