MODEL 1
REMARK minimizedAffinity 7.52791929
REMARK minimizedRMSD -1
REMARK  1 active torsions:
REMARK  status: ('A' for Active; 'I' for Inactive)
REMARK    1  A    between atoms: N_2  and  C1_3 
ROOT
ATOM      1  C1  UNL d   1       0.464   0.298   3.329  0.00  0.00     0.143 A 
ATOM      2  C2  UNL d   1       1.691   0.966   3.255  0.00  0.00    -0.057 A 
ATOM      3  C3  UNL d   1       1.773   2.284   2.788  0.00  0.00     0.033 A 
ATOM      4  C4  UNL d   1       0.629   2.948   2.358  0.00  0.00    -0.042 A 
ATOM      5  C5  UNL d   1      -0.598   2.294   2.399  0.00  0.00     0.033 A 
ATOM      6  C6  UNL d   1      -0.674   0.981   2.873  0.00  0.00    -0.057 A 
ENDROOT
BRANCH   1   7
ATOM      7  N   UNL d   1       0.331  -1.045   3.692  0.00  0.00    -0.732 N 
ATOM      8  C   UNL d   1       1.166  -1.615   4.727  0.00  0.00     0.284 C 
ATOM      9  H3  UNL d   1      -0.641  -1.342   3.731  0.00  0.00     0.395 HD
ENDBRANCH   1   7
TORSDOF 1
ENDMDL
