MODEL 1
REMARK minimizedAffinity 2.12120295
REMARK minimizedRMSD -1
REMARK  1 active torsions:
REMARK  status: ('A' for Active; 'I' for Inactive)
REMARK    1  A    between atoms: N_2  and  C1_3 
ROOT
ATOM      1  C1  UNL d   1      -1.775  -1.142  -2.298  0.00  0.00     0.143 A 
ATOM      2  C2  UNL d   1      -0.756  -0.899  -1.371  0.00  0.00    -0.057 A 
ATOM      3  C3  UNL d   1       0.587  -0.853  -1.765  0.00  0.00     0.033 A 
ATOM      4  C4  UNL d   1       0.937  -1.078  -3.092  0.00  0.00    -0.042 A 
ATOM      5  C5  UNL d   1      -0.057  -1.346  -4.026  0.00  0.00     0.033 A 
ATOM      6  C6  UNL d   1      -1.397  -1.384  -3.628  0.00  0.00    -0.057 A 
ENDROOT
BRANCH   1   7
ATOM      7  N   UNL d   1      -3.120  -1.297  -1.952  0.00  0.00    -0.732 N 
ATOM      8  C   UNL d   1      -3.708  -0.496  -0.900  0.00  0.00     0.284 C 
ATOM      9  H3  UNL d   1      -3.719  -1.420  -2.765  0.00  0.00     0.395 HD
ENDBRANCH   1   7
TORSDOF 1
ENDMDL
