MODEL 1
REMARK minimizedAffinity 11.3212481
REMARK minimizedRMSD -1
REMARK  1 active torsions:
REMARK  status: ('A' for Active; 'I' for Inactive)
REMARK    1  A    between atoms: N_2  and  C1_3 
ROOT
ATOM      1  C1  UNL d   1       0.186   3.341   0.849  0.00  0.00     0.143 A 
ATOM      2  C2  UNL d   1      -0.511   2.532  -0.055  0.00  0.00    -0.057 A 
ATOM      3  C3  UNL d   1      -0.889   3.011  -1.316  0.00  0.00     0.033 A 
ATOM      4  C4  UNL d   1      -0.602   4.321  -1.683  0.00  0.00    -0.042 A 
ATOM      5  C5  UNL d   1       0.068   5.151  -0.791  0.00  0.00     0.033 A 
ATOM      6  C6  UNL d   1       0.449   4.665   0.464  0.00  0.00    -0.057 A 
ENDROOT
BRANCH   1   7
ATOM      7  N   UNL d   1       0.503   2.954   2.153  0.00  0.00    -0.732 N 
ATOM      8  C   UNL d   1      -0.425   2.163   2.934  0.00  0.00     0.284 C 
ATOM      9  H3  UNL d   1       1.475   2.669   2.249  0.00  0.00     0.395 HD
ENDBRANCH   1   7
TORSDOF 1
ENDMDL
