MODEL 1
REMARK minimizedAffinity 8.62142181
REMARK minimizedRMSD -1
REMARK  1 active torsions:
REMARK  status: ('A' for Active; 'I' for Inactive)
REMARK    1  A    between atoms: N_2  and  C1_3 
ROOT
ATOM      1  C1  UNL d   1       0.133   3.478   0.874  0.00  0.00     0.143 A 
ATOM      2  C2  UNL d   1       1.300   3.364   1.637  0.00  0.00    -0.057 A 
ATOM      3  C3  UNL d   1       1.282   2.779   2.909  0.00  0.00     0.033 A 
ATOM      4  C4  UNL d   1       0.087   2.323   3.454  0.00  0.00    -0.042 A 
ATOM      5  C5  UNL d   1      -1.090   2.448   2.724  0.00  0.00     0.033 A 
ATOM      6  C6  UNL d   1      -1.064   3.027   1.451  0.00  0.00    -0.057 A 
ENDROOT
BRANCH   1   7
ATOM      7  N   UNL d   1       0.069   4.138  -0.356  0.00  0.00    -0.732 N 
ATOM      8  C   UNL d   1      -0.528   3.496  -1.507  0.00  0.00     0.284 C 
ATOM      9  H3  UNL d   1      -0.173   5.122  -0.256  0.00  0.00     0.395 HD
ENDBRANCH   1   7
TORSDOF 1
ENDMDL
