MODEL 1
REMARK minimizedAffinity 4.54828453
REMARK minimizedRMSD -1
REMARK  1 active torsions:
REMARK  status: ('A' for Active; 'I' for Inactive)
REMARK    1  A    between atoms: N_2  and  C1_3 
ROOT
ATOM      1  C1  UNL d   1      -0.028  -3.445  -4.946  0.00  0.00     0.143 A 
ATOM      2  C2  UNL d   1       0.908  -3.842  -3.985  0.00  0.00    -0.057 A 
ATOM      3  C3  UNL d   1       1.518  -5.100  -4.041  0.00  0.00     0.033 A 
ATOM      4  C4  UNL d   1       1.181  -5.999  -5.047  0.00  0.00    -0.042 A 
ATOM      5  C5  UNL d   1       0.235  -5.637  -5.999  0.00  0.00     0.033 A 
ATOM      6  C6  UNL d   1      -0.366  -4.376  -5.942  0.00  0.00    -0.057 A 
ENDROOT
BRANCH   1   7
ATOM      7  N   UNL d   1      -0.742  -2.246  -4.889  0.00  0.00    -0.732 N 
ATOM      8  C   UNL d   1      -1.445  -1.864  -3.684  0.00  0.00     0.284 C 
ATOM      9  H3  UNL d   1      -0.252  -1.480  -5.345  0.00  0.00     0.395 HD
ENDBRANCH   1   7
TORSDOF 1
ENDMDL
