MODEL 1
REMARK minimizedAffinity -4.15868282
REMARK minimizedRMSD -1
REMARK  0 active torsions:
REMARK  status: ('A' for Active; 'I' for Inactive)
ROOT
ATOM      1  C   UNL d   1       0.330  -0.813  -0.052  0.00  0.00     0.172 C 
ATOM      2  N   UNL d   1       0.645   0.582   0.145  0.00  0.00    -0.070 N 
ATOM      3  C1  UNL d   1       1.897   1.097   0.353  0.00  0.00    -0.004 A 
ATOM      4  C2  UNL d   1       1.774   2.462   0.494  0.00  0.00    -0.047 A 
ATOM      5  C3  UNL d   1       0.401   2.779   0.369  0.00  0.00    -0.047 A 
ATOM      6  C4  UNL d   1      -0.275   1.597   0.153  0.00  0.00    -0.004 A 
ENDROOT
TORSDOF 0
ENDMDL
