MODEL 1
REMARK minimizedAffinity -4.11868668
REMARK minimizedRMSD -1
REMARK  0 active torsions:
REMARK  status: ('A' for Active; 'I' for Inactive)
ROOT
ATOM      1  C   UNL d   1       0.158  -0.959   0.058  0.00  0.00     0.172 C 
ATOM      2  N   UNL d   1       0.194   0.484   0.019  0.00  0.00    -0.070 N 
ATOM      3  C1  UNL d   1      -0.861   1.317   0.282  0.00  0.00    -0.004 A 
ATOM      4  C2  UNL d   1      -0.420   2.615   0.140  0.00  0.00    -0.047 A 
ATOM      5  C3  UNL d   1       0.947   2.560  -0.222  0.00  0.00    -0.047 A 
ATOM      6  C4  UNL d   1       1.301   1.230  -0.289  0.00  0.00    -0.004 A 
ENDROOT
TORSDOF 0
ENDMDL
