MODEL 1
REMARK minimizedAffinity -4.35166597
REMARK minimizedRMSD -1
REMARK  0 active torsions:
REMARK  status: ('A' for Active; 'I' for Inactive)
ROOT
ATOM      1  C   UNL d   1       0.830  -0.465   0.292  0.00  0.00     0.172 C 
ATOM      2  N   UNL d   1       1.101   0.952   0.336  0.00  0.00    -0.070 N 
ATOM      3  C1  UNL d   1       0.167   1.947   0.220  0.00  0.00    -0.004 A 
ATOM      4  C2  UNL d   1       0.823   3.155   0.314  0.00  0.00    -0.047 A 
ATOM      5  C3  UNL d   1       2.199   2.877   0.492  0.00  0.00    -0.047 A 
ATOM      6  C4  UNL d   1       2.343   1.506   0.502  0.00  0.00    -0.004 A 
ENDROOT
TORSDOF 0
ENDMDL
