MODEL 1
REMARK minimizedAffinity -2.35515976
REMARK minimizedRMSD -1
REMARK  0 active torsions:
REMARK  status: ('A' for Active; 'I' for Inactive)
ROOT
ATOM      1  C   UNL d   1      -0.089   2.848   0.348  0.00  0.00     0.172 C 
ATOM      2  N   UNL d   1      -0.155   1.408   0.438  0.00  0.00    -0.070 N 
ATOM      3  C1  UNL d   1       0.848   0.540   0.097  0.00  0.00    -0.004 A 
ATOM      4  C2  UNL d   1       0.394  -0.740   0.327  0.00  0.00    -0.047 A 
ATOM      5  C3  UNL d   1      -0.928  -0.639   0.822  0.00  0.00    -0.047 A 
ATOM      6  C4  UNL d   1      -1.242   0.702   0.880  0.00  0.00    -0.004 A 
ENDROOT
TORSDOF 0
ENDMDL
