MODEL 1
REMARK minimizedAffinity -3.83953094
REMARK minimizedRMSD -1
REMARK  0 active torsions:
REMARK  status: ('A' for Active; 'I' for Inactive)
ROOT
ATOM      1  C   UNL d   1      -0.637  -0.051   0.813  0.00  0.00     0.172 C 
ATOM      2  N   UNL d   1       0.280   1.058   0.699  0.00  0.00    -0.070 N 
ATOM      3  C1  UNL d   1      -0.004   2.363   1.002  0.00  0.00    -0.004 A 
ATOM      4  C2  UNL d   1       1.129   3.109   0.760  0.00  0.00    -0.047 A 
ATOM      5  C3  UNL d   1       2.129   2.221   0.294  0.00  0.00    -0.047 A 
ATOM      6  C4  UNL d   1       1.576   0.959   0.266  0.00  0.00    -0.004 A 
ENDROOT
TORSDOF 0
ENDMDL
