MODEL 1
REMARK minimizedAffinity -4.15992022
REMARK minimizedRMSD -1
REMARK  0 active torsions:
REMARK  status: ('A' for Active; 'I' for Inactive)
ROOT
ATOM      1  C   UNL d   1       0.771  -0.705  -0.092  0.00  0.00     0.172 C 
ATOM      2  N   UNL d   1       1.106   0.694   0.038  0.00  0.00    -0.070 N 
ATOM      3  C1  UNL d   1       2.360   1.197   0.258  0.00  0.00    -0.004 A 
ATOM      4  C2  UNL d   1       2.259   2.570   0.319  0.00  0.00    -0.047 A 
ATOM      5  C3  UNL d   1       0.897   2.903   0.128  0.00  0.00    -0.047 A 
ATOM      6  C4  UNL d   1       0.206   1.723  -0.043  0.00  0.00    -0.004 A 
ENDROOT
TORSDOF 0
ENDMDL
