MODEL 1
REMARK minimizedAffinity -2.81518769
REMARK minimizedRMSD -1
REMARK  0 active torsions:
REMARK  status: ('A' for Active; 'I' for Inactive)
ROOT
ATOM      1  C   UNL d   1       0.881   0.104  -0.161  0.00  0.00     0.172 C 
ATOM      2  N   UNL d   1       0.819   1.507   0.174  0.00  0.00    -0.070 N 
ATOM      3  C1  UNL d   1       1.891   2.302   0.483  0.00  0.00    -0.004 A 
ATOM      4  C2  UNL d   1       1.415   3.570   0.740  0.00  0.00    -0.047 A 
ATOM      5  C3  UNL d   1       0.010   3.535   0.581  0.00  0.00    -0.047 A 
ATOM      6  C4  UNL d   1      -0.333   2.246   0.230  0.00  0.00    -0.004 A 
ENDROOT
TORSDOF 0
ENDMDL
