MODEL 1
REMARK minimizedAffinity -1.78625548
REMARK minimizedRMSD -1
REMARK  0 active torsions:
REMARK  status: ('A' for Active; 'I' for Inactive)
ROOT
ATOM      1  C   UNL d   1       1.218   3.487   0.321  0.00  0.00     0.172 C 
ATOM      2  N   UNL d   1       0.485   2.245   0.240  0.00  0.00    -0.070 N 
ATOM      3  C1  UNL d   1       0.792   1.188  -0.575  0.00  0.00    -0.004 A 
ATOM      4  C2  UNL d   1      -0.144   0.201  -0.356  0.00  0.00    -0.047 A 
ATOM      5  C3  UNL d   1      -1.046   0.681   0.624  0.00  0.00    -0.047 A 
ATOM      6  C4  UNL d   1      -0.633   1.949   0.975  0.00  0.00    -0.004 A 
ENDROOT
TORSDOF 0
ENDMDL
