MODEL 1
REMARK minimizedAffinity -3.78230906
REMARK minimizedRMSD -1
REMARK  0 active torsions:
REMARK  status: ('A' for Active; 'I' for Inactive)
ROOT
ATOM      1  C   UNL d   1       0.427  -0.963   0.123  0.00  0.00     0.172 C 
ATOM      2  N   UNL d   1       0.375   0.478   0.054  0.00  0.00    -0.070 N 
ATOM      3  C1  UNL d   1      -0.628   1.266   0.552  0.00  0.00    -0.004 A 
ATOM      4  C2  UNL d   1      -0.305   2.579   0.287  0.00  0.00    -0.047 A 
ATOM      5  C3  UNL d   1       0.935   2.581  -0.394  0.00  0.00    -0.047 A 
ATOM      6  C4  UNL d   1       1.334   1.267  -0.525  0.00  0.00    -0.004 A 
ENDROOT
TORSDOF 0
ENDMDL
