MODEL 1
REMARK minimizedAffinity -3.88331342
REMARK minimizedRMSD -1
REMARK  0 active torsions:
REMARK  status: ('A' for Active; 'I' for Inactive)
ROOT
ATOM      1  C   UNL d   1      -0.435   3.365  -0.074  0.00  0.00     0.172 C 
ATOM      2  N   UNL d   1       0.780   2.634   0.197  0.00  0.00    -0.070 N 
ATOM      3  C1  UNL d   1       0.976   1.298  -0.032  0.00  0.00    -0.004 A 
ATOM      4  C2  UNL d   1       2.261   0.987   0.358  0.00  0.00    -0.047 A 
ATOM      5  C3  UNL d   1       2.857   2.177   0.839  0.00  0.00    -0.047 A 
ATOM      6  C4  UNL d   1       1.918   3.181   0.728  0.00  0.00    -0.004 A 
ENDROOT
TORSDOF 0
ENDMDL
