MODEL 1
REMARK minimizedAffinity -2.34136486
REMARK minimizedRMSD -1
REMARK  0 active torsions:
REMARK  status: ('A' for Active; 'I' for Inactive)
ROOT
ATOM      1  C   UNL d   1      -0.906   2.342   0.929  0.00  0.00     0.172 C 
ATOM      2  N   UNL d   1       0.425   2.295   0.372  0.00  0.00    -0.070 N 
ATOM      3  C1  UNL d   1       1.150   1.159   0.131  0.00  0.00    -0.004 A 
ATOM      4  C2  UNL d   1       2.363   1.538  -0.402  0.00  0.00    -0.047 A 
ATOM      5  C3  UNL d   1       2.368   2.950  -0.482  0.00  0.00    -0.047 A 
ATOM      6  C4  UNL d   1       1.156   3.394   0.003  0.00  0.00    -0.004 A 
ENDROOT
TORSDOF 0
ENDMDL
