MODEL 1
REMARK minimizedAffinity -4.19820356
REMARK minimizedRMSD -1
REMARK  0 active torsions:
REMARK  status: ('A' for Active; 'I' for Inactive)
ROOT
ATOM      1  C   UNL d   1      -0.741   0.537   0.152  0.00  0.00     0.172 C 
ATOM      2  N   UNL d   1       0.093   1.715   0.133  0.00  0.00    -0.070 N 
ATOM      3  C1  UNL d   1      -0.353   3.009   0.177  0.00  0.00    -0.004 A 
ATOM      4  C2  UNL d   1       0.749   3.837   0.140  0.00  0.00    -0.047 A 
ATOM      5  C3  UNL d   1       1.896   3.011   0.070  0.00  0.00    -0.047 A 
ATOM      6  C4  UNL d   1       1.461   1.703   0.068  0.00  0.00    -0.004 A 
ENDROOT
TORSDOF 0
ENDMDL
