MODEL 1
REMARK minimizedAffinity -3.80227757
REMARK minimizedRMSD -1
REMARK  0 active torsions:
REMARK  status: ('A' for Active; 'I' for Inactive)
ROOT
ATOM      1  C   UNL d   1       2.972   1.529   0.724  0.00  0.00     0.172 C 
ATOM      2  N   UNL d   1       1.665   2.080   0.453  0.00  0.00    -0.070 N 
ATOM      3  C1  UNL d   1       1.328   3.406   0.517  0.00  0.00    -0.004 A 
ATOM      4  C2  UNL d   1      -0.005   3.519   0.189  0.00  0.00    -0.047 A 
ATOM      5  C3  UNL d   1      -0.487   2.216  -0.081  0.00  0.00    -0.047 A 
ATOM      6  C4  UNL d   1       0.568   1.344   0.090  0.00  0.00    -0.004 A 
ENDROOT
TORSDOF 0
ENDMDL
