MODEL 1
REMARK minimizedAffinity -2.43637228
REMARK minimizedRMSD -1
REMARK  0 active torsions:
REMARK  status: ('A' for Active; 'I' for Inactive)
ROOT
ATOM      1  C   UNL d   1       0.246  -0.863  -0.411  0.00  0.00     0.172 C 
ATOM      2  N   UNL d   1      -0.014   0.515  -0.065  0.00  0.00    -0.070 N 
ATOM      3  C1  UNL d   1       0.876   1.549  -0.183  0.00  0.00    -0.004 A 
ATOM      4  C2  UNL d   1       0.248   2.697   0.248  0.00  0.00    -0.047 A 
ATOM      5  C3  UNL d   1      -1.064   2.340   0.641  0.00  0.00    -0.047 A 
ATOM      6  C4  UNL d   1      -1.199   0.983   0.437  0.00  0.00    -0.004 A 
ENDROOT
TORSDOF 0
ENDMDL
