MODEL 1
REMARK minimizedAffinity -3.86617327
REMARK minimizedRMSD -1
REMARK  0 active torsions:
REMARK  status: ('A' for Active; 'I' for Inactive)
ROOT
ATOM      1  C   UNL d   1       0.564   0.494  -0.405  0.00  0.00     0.172 C 
ATOM      2  N   UNL d   1       0.287  -0.923  -0.370  0.00  0.00    -0.070 N 
ATOM      3  C1  UNL d   1       0.424  -1.789  -1.422  0.00  0.00    -0.004 A 
ATOM      4  C2  UNL d   1       0.063  -3.045  -0.984  0.00  0.00    -0.047 A 
ATOM      5  C3  UNL d   1      -0.306  -2.929   0.377  0.00  0.00    -0.047 A 
ATOM      6  C4  UNL d   1      -0.158  -1.605   0.732  0.00  0.00    -0.004 A 
ENDROOT
TORSDOF 0
ENDMDL
