MODEL 1
REMARK minimizedAffinity -2.96492195
REMARK minimizedRMSD -1
REMARK  0 active torsions:
REMARK  status: ('A' for Active; 'I' for Inactive)
ROOT
ATOM      1  C   UNL d   1      -0.069  -2.940   0.501  0.00  0.00     0.172 C 
ATOM      2  N   UNL d   1       0.143  -1.530   0.279  0.00  0.00    -0.070 N 
ATOM      3  C1  UNL d   1       0.690  -0.653   1.177  0.00  0.00    -0.004 A 
ATOM      4  C2  UNL d   1       0.720   0.592   0.587  0.00  0.00    -0.047 A 
ATOM      5  C3  UNL d   1       0.171   0.459  -0.711  0.00  0.00    -0.047 A 
ATOM      6  C4  UNL d   1      -0.178  -0.864  -0.875  0.00  0.00    -0.004 A 
ENDROOT
TORSDOF 0
ENDMDL
