MODEL 1
REMARK minimizedAffinity -3.38199449
REMARK minimizedRMSD -1
REMARK  0 active torsions:
REMARK  status: ('A' for Active; 'I' for Inactive)
ROOT
ATOM      1  C   UNL d   1       0.689  -2.559   0.353  0.00  0.00     0.172 C 
ATOM      2  N   UNL d   1       0.221  -1.287  -0.145  0.00  0.00    -0.070 N 
ATOM      3  C1  UNL d   1       0.362  -0.832  -1.429  0.00  0.00    -0.004 A 
ATOM      4  C2  UNL d   1      -0.215   0.418  -1.500  0.00  0.00    -0.047 A 
ATOM      5  C3  UNL d   1      -0.719   0.725  -0.213  0.00  0.00    -0.047 A 
ATOM      6  C4  UNL d   1      -0.436  -0.348   0.606  0.00  0.00    -0.004 A 
ENDROOT
TORSDOF 0
ENDMDL
