MODEL 1
REMARK minimizedAffinity -2.66815138
REMARK minimizedRMSD -1
REMARK  0 active torsions:
REMARK  status: ('A' for Active; 'I' for Inactive)
ROOT
ATOM      1  C   UNL d   1       0.789  -1.526  -0.716  0.00  0.00     0.172 C 
ATOM      2  N   UNL d   1       0.049  -0.351  -0.320  0.00  0.00    -0.070 N 
ATOM      3  C1  UNL d   1      -0.834  -0.278   0.723  0.00  0.00    -0.004 A 
ATOM      4  C2  UNL d   1      -1.326   1.009   0.770  0.00  0.00    -0.047 A 
ATOM      5  C3  UNL d   1      -0.718   1.734  -0.282  0.00  0.00    -0.047 A 
ATOM      6  C4  UNL d   1       0.129   0.868  -0.941  0.00  0.00    -0.004 A 
ENDROOT
TORSDOF 0
ENDMDL
