MODEL 1
REMARK minimizedAffinity -2.90372658
REMARK minimizedRMSD -1
REMARK  0 active torsions:
REMARK  status: ('A' for Active; 'I' for Inactive)
ROOT
ATOM      1  C   UNL d   1       0.014  -2.854   0.327  0.00  0.00     0.172 C 
ATOM      2  N   UNL d   1       0.089  -1.523  -0.228  0.00  0.00    -0.070 N 
ATOM      3  C1  UNL d   1      -0.302  -0.372   0.402  0.00  0.00    -0.004 A 
ATOM      4  C2  UNL d   1      -0.069   0.680  -0.457  0.00  0.00    -0.047 A 
ATOM      5  C3  UNL d   1       0.479   0.143  -1.646  0.00  0.00    -0.047 A 
ATOM      6  C4  UNL d   1       0.566  -1.223  -1.477  0.00  0.00    -0.004 A 
ENDROOT
TORSDOF 0
ENDMDL
