MODEL 1
REMARK minimizedAffinity -3.43763351
REMARK minimizedRMSD -1
REMARK  0 active torsions:
REMARK  status: ('A' for Active; 'I' for Inactive)
ROOT
ATOM      1  C   UNL d   1       0.301  -1.115  -1.983  0.00  0.00     0.172 C 
ATOM      2  N   UNL d   1      -0.182  -1.103  -0.622  0.00  0.00    -0.070 N 
ATOM      3  C1  UNL d   1      -0.691  -2.180   0.054  0.00  0.00    -0.004 A 
ATOM      4  C2  UNL d   1      -1.038  -1.758   1.319  0.00  0.00    -0.047 A 
ATOM      5  C3  UNL d   1      -0.728  -0.380   1.406  0.00  0.00    -0.047 A 
ATOM      6  C4  UNL d   1      -0.199  -0.000   0.190  0.00  0.00    -0.004 A 
ENDROOT
TORSDOF 0
ENDMDL
