MODEL 1
REMARK minimizedAffinity -3.65162086
REMARK minimizedRMSD -1
REMARK  0 active torsions:
REMARK  status: ('A' for Active; 'I' for Inactive)
ROOT
ATOM      1  C   UNL d   1       0.070   1.110  -0.122  0.00  0.00     0.172 C 
ATOM      2  N   UNL d   1      -0.265  -0.137   0.524  0.00  0.00    -0.070 N 
ATOM      3  C1  UNL d   1      -0.928  -0.265   1.716  0.00  0.00    -0.004 A 
ATOM      4  C2  UNL d   1      -1.052  -1.610   1.987  0.00  0.00    -0.047 A 
ATOM      5  C3  UNL d   1      -0.443  -2.315   0.921  0.00  0.00    -0.047 A 
ATOM      6  C4  UNL d   1       0.035  -1.378   0.030  0.00  0.00    -0.004 A 
ENDROOT
TORSDOF 0
ENDMDL
