MODEL 1
REMARK minimizedAffinity -3.65407681
REMARK minimizedRMSD -1
REMARK  0 active torsions:
REMARK  status: ('A' for Active; 'I' for Inactive)
ROOT
ATOM      1  C   UNL d   1       0.499   1.252   0.126  0.00  0.00     0.172 C 
ATOM      2  N   UNL d   1       0.169  -0.125   0.412  0.00  0.00    -0.070 N 
ATOM      3  C1  UNL d   1       0.285  -1.172  -0.462  0.00  0.00    -0.004 A 
ATOM      4  C2  UNL d   1      -0.128  -2.314   0.190  0.00  0.00    -0.047 A 
ATOM      5  C3  UNL d   1      -0.507  -1.940   1.501  0.00  0.00    -0.047 A 
ATOM      6  C4  UNL d   1      -0.313  -0.579   1.611  0.00  0.00    -0.004 A 
ENDROOT
TORSDOF 0
ENDMDL
