MODEL 1
REMARK minimizedAffinity -1.64454949
REMARK minimizedRMSD -1
REMARK  0 active torsions:
REMARK  status: ('A' for Active; 'I' for Inactive)
ROOT
ATOM      1  C   UNL d   1       0.023  -2.257  -2.329  0.00  0.00     0.172 C 
ATOM      2  N   UNL d   1      -0.206  -1.863  -0.959  0.00  0.00    -0.070 N 
ATOM      3  C1  UNL d   1       0.066  -0.631  -0.427  0.00  0.00    -0.004 A 
ATOM      4  C2  UNL d   1      -0.294  -0.657   0.903  0.00  0.00    -0.047 A 
ATOM      5  C3  UNL d   1      -0.799  -1.950   1.180  0.00  0.00    -0.047 A 
ATOM      6  C4  UNL d   1      -0.733  -2.676   0.009  0.00  0.00    -0.004 A 
ENDROOT
TORSDOF 0
ENDMDL
