MODEL 1
REMARK minimizedAffinity -3.3897562
REMARK minimizedRMSD -1
REMARK  0 active torsions:
REMARK  status: ('A' for Active; 'I' for Inactive)
ROOT
ATOM      1  C   UNL d   1       0.010   0.840  -0.020  0.00  0.00     0.172 C 
ATOM      2  N   UNL d   1      -0.256  -0.503   0.438  0.00  0.00    -0.070 N 
ATOM      3  C1  UNL d   1      -0.687  -0.848   1.691  0.00  0.00    -0.004 A 
ATOM      4  C2  UNL d   1      -0.822  -2.219   1.728  0.00  0.00    -0.047 A 
ATOM      5  C3  UNL d   1      -0.459  -2.715   0.453  0.00  0.00    -0.047 A 
ATOM      6  C4  UNL d   1      -0.113  -1.631  -0.325  0.00  0.00    -0.004 A 
ENDROOT
TORSDOF 0
ENDMDL
