MODEL 1
REMARK minimizedAffinity -2.48052168
REMARK minimizedRMSD -1
REMARK  0 active torsions:
REMARK  status: ('A' for Active; 'I' for Inactive)
ROOT
ATOM      1  C   UNL d   1       0.797   2.734   0.404  0.00  0.00     0.172 C 
ATOM      2  N   UNL d   1       0.429   1.385   0.043  0.00  0.00    -0.070 N 
ATOM      3  C1  UNL d   1      -0.002   0.978  -1.191  0.00  0.00    -0.004 A 
ATOM      4  C2  UNL d   1      -0.250  -0.376  -1.126  0.00  0.00    -0.047 A 
ATOM      5  C3  UNL d   1       0.040  -0.797   0.193  0.00  0.00    -0.047 A 
ATOM      6  C4  UNL d   1       0.458   0.313   0.896  0.00  0.00    -0.004 A 
ENDROOT
TORSDOF 0
ENDMDL
