MODEL 1
REMARK minimizedAffinity -3.68226004
REMARK minimizedRMSD -1
REMARK  0 active torsions:
REMARK  status: ('A' for Active; 'I' for Inactive)
ROOT
ATOM      1  C   UNL d   1       0.410   0.974  -0.045  0.00  0.00     0.172 C 
ATOM      2  N   UNL d   1       0.156  -0.425   0.203  0.00  0.00    -0.070 N 
ATOM      3  C1  UNL d   1       0.798  -1.473  -0.402  0.00  0.00    -0.004 A 
ATOM      4  C2  UNL d   1       0.271  -2.641   0.105  0.00  0.00    -0.047 A 
ATOM      5  C3  UNL d   1      -0.722  -2.283   1.047  0.00  0.00    -0.047 A 
ATOM      6  C4  UNL d   1      -0.773  -0.906   1.088  0.00  0.00    -0.004 A 
ENDROOT
TORSDOF 0
ENDMDL
