MODEL 1
REMARK minimizedAffinity -2.87282729
REMARK minimizedRMSD -1
REMARK  0 active torsions:
REMARK  status: ('A' for Active; 'I' for Inactive)
ROOT
ATOM      1  C   UNL d   1      -0.835  -3.213   0.735  0.00  0.00     0.172 C 
ATOM      2  N   UNL d   1      -0.390  -1.861   0.492  0.00  0.00    -0.070 N 
ATOM      3  C1  UNL d   1       0.435  -1.462  -0.525  0.00  0.00    -0.004 A 
ATOM      4  C2  UNL d   1       0.618  -0.101  -0.411  0.00  0.00    -0.047 A 
ATOM      5  C3  UNL d   1      -0.122   0.333   0.715  0.00  0.00    -0.047 A 
ATOM      6  C4  UNL d   1      -0.736  -0.777   1.255  0.00  0.00    -0.004 A 
ENDROOT
TORSDOF 0
ENDMDL
