MODEL 1
REMARK minimizedAffinity -2.87926269
REMARK minimizedRMSD -1
REMARK  0 active torsions:
REMARK  status: ('A' for Active; 'I' for Inactive)
ROOT
ATOM      1  C   UNL d   1      -0.598  -3.104   0.826  0.00  0.00     0.172 C 
ATOM      2  N   UNL d   1      -0.355  -1.730   0.457  0.00  0.00    -0.070 N 
ATOM      3  C1  UNL d   1      -0.600  -0.636   1.244  0.00  0.00    -0.004 A 
ATOM      4  C2  UNL d   1      -0.235   0.486   0.533  0.00  0.00    -0.047 A 
ATOM      5  C3  UNL d   1       0.246   0.052  -0.726  0.00  0.00    -0.047 A 
ATOM      6  C4  UNL d   1       0.160  -1.324  -0.746  0.00  0.00    -0.004 A 
ENDROOT
TORSDOF 0
ENDMDL
