MODEL 1
REMARK minimizedAffinity -3.84470654
REMARK minimizedRMSD -1
REMARK  0 active torsions:
REMARK  status: ('A' for Active; 'I' for Inactive)
ROOT
ATOM      1  C   UNL d   1       0.257   1.297  -0.422  0.00  0.00     0.172 C 
ATOM      2  N   UNL d   1       0.112  -0.111  -0.139  0.00  0.00    -0.070 N 
ATOM      3  C1  UNL d   1       0.555  -1.135  -0.933  0.00  0.00    -0.004 A 
ATOM      4  C2  UNL d   1       0.225  -2.322  -0.315  0.00  0.00    -0.047 A 
ATOM      5  C3  UNL d   1      -0.441  -2.000   0.891  0.00  0.00    -0.047 A 
ATOM      6  C4  UNL d   1      -0.498  -0.625   0.975  0.00  0.00    -0.004 A 
ENDROOT
TORSDOF 0
ENDMDL
