MODEL 1
REMARK minimizedAffinity -3.34834766
REMARK minimizedRMSD -1
REMARK  0 active torsions:
REMARK  status: ('A' for Active; 'I' for Inactive)
ROOT
ATOM      1  C   UNL d   1       0.745   2.528   0.323  0.00  0.00     0.172 C 
ATOM      2  N   UNL d   1       0.546   1.151  -0.062  0.00  0.00    -0.070 N 
ATOM      3  C1  UNL d   1       0.680   0.064   0.760  0.00  0.00    -0.004 A 
ATOM      4  C2  UNL d   1       0.406  -1.064   0.018  0.00  0.00    -0.047 A 
ATOM      5  C3  UNL d   1       0.097  -0.641  -1.297  0.00  0.00    -0.047 A 
ATOM      6  C4  UNL d   1       0.191   0.734  -1.318  0.00  0.00    -0.004 A 
ENDROOT
TORSDOF 0
ENDMDL
