MODEL 1
REMARK minimizedAffinity -2.5055151
REMARK minimizedRMSD -1
REMARK  0 active torsions:
REMARK  status: ('A' for Active; 'I' for Inactive)
ROOT
ATOM      1  C   UNL d   1       0.247   0.730  -0.393  0.00  0.00     0.172 C 
ATOM      2  N   UNL d   1      -0.206  -0.524   0.164  0.00  0.00    -0.070 N 
ATOM      3  C1  UNL d   1      -1.143  -0.666   1.152  0.00  0.00    -0.004 A 
ATOM      4  C2  UNL d   1      -1.294  -2.014   1.400  0.00  0.00    -0.047 A 
ATOM      5  C3  UNL d   1      -0.416  -2.705   0.531  0.00  0.00    -0.047 A 
ATOM      6  C4  UNL d   1       0.245  -1.758  -0.223  0.00  0.00    -0.004 A 
ENDROOT
TORSDOF 0
ENDMDL
