MODEL 1
REMARK minimizedAffinity -2.6818409
REMARK minimizedRMSD -1
REMARK  0 active torsions:
REMARK  status: ('A' for Active; 'I' for Inactive)
ROOT
ATOM      1  C   UNL d   1       0.492   1.089   0.331  0.00  0.00     0.172 C 
ATOM      2  N   UNL d   1       0.126  -0.266   0.668  0.00  0.00    -0.070 N 
ATOM      3  C1  UNL d   1      -0.007  -0.766   1.936  0.00  0.00    -0.004 A 
ATOM      4  C2  UNL d   1      -0.366  -2.092   1.832  0.00  0.00    -0.047 A 
ATOM      5  C3  UNL d   1      -0.452  -2.401   0.453  0.00  0.00    -0.047 A 
ATOM      6  C4  UNL d   1      -0.142  -1.253  -0.245  0.00  0.00    -0.004 A 
ENDROOT
TORSDOF 0
ENDMDL
