MODEL 1
REMARK minimizedAffinity -5.13444471
REMARK minimizedRMSD -1
REMARK  0 active torsions:
REMARK  status: ('A' for Active; 'I' for Inactive)
ROOT
ATOM      1  C1  BNZ d   1       0.112  -0.687  -1.074  0.00  0.00     0.000 A 
ATOM      2  C2  BNZ d   1       0.784  -0.808  -2.261  0.00  0.00     0.000 A 
ATOM      3  C3  BNZ d   1       1.590   0.199  -2.714  0.00  0.00     0.000 A 
ATOM      4  C4  BNZ d   1       1.692   1.339  -2.001  0.00  0.00     0.000 A 
ATOM      5  C5  BNZ d   1       1.014   1.479  -0.807  0.00  0.00     0.000 A 
ATOM      6  C6  BNZ d   1       0.234   0.448  -0.335  0.00  0.00     0.000 A 
ENDROOT
TORSDOF 0
ENDMDL
