MODEL 1
REMARK minimizedAffinity -4.47405243
REMARK minimizedRMSD -1
REMARK  0 active torsions:
REMARK  status: ('A' for Active; 'I' for Inactive)
ROOT
ATOM      1  C1  BNZ d   1       0.454  -1.413  -1.277  0.00  0.00     0.000 A 
ATOM      2  C2  BNZ d   1       0.095  -0.925  -0.049  0.00  0.00     0.000 A 
ATOM      3  C3  BNZ d   1       0.371   0.368   0.298  0.00  0.00     0.000 A 
ATOM      4  C4  BNZ d   1       1.039   1.159  -0.566  0.00  0.00     0.000 A 
ATOM      5  C5  BNZ d   1       1.415   0.679  -1.805  0.00  0.00     0.000 A 
ATOM      6  C6  BNZ d   1       1.102  -0.611  -2.166  0.00  0.00     0.000 A 
ENDROOT
TORSDOF 0
ENDMDL
