MODEL 1
REMARK minimizedAffinity -5.20311642
REMARK minimizedRMSD -1
REMARK  0 active torsions:
REMARK  status: ('A' for Active; 'I' for Inactive)
ROOT
ATOM      1  C1  BNZ d   1       2.699  -1.073  -2.672  0.00  0.00     0.000 A 
ATOM      2  C2  BNZ d   1       1.986   0.093  -2.587  0.00  0.00     0.000 A 
ATOM      3  C3  BNZ d   1       0.766   0.125  -1.970  0.00  0.00     0.000 A 
ATOM      4  C4  BNZ d   1       0.243  -1.016  -1.477  0.00  0.00     0.000 A 
ATOM      5  C5  BNZ d   1       0.945  -2.202  -1.563  0.00  0.00     0.000 A 
ATOM      6  C6  BNZ d   1       2.190  -2.222  -2.150  0.00  0.00     0.000 A 
ENDROOT
TORSDOF 0
ENDMDL
