MODEL 1
REMARK minimizedAffinity -4.26384497
REMARK minimizedRMSD -1
REMARK  0 active torsions:
REMARK  status: ('A' for Active; 'I' for Inactive)
ROOT
ATOM      1  C1  BNZ d   1       1.135   1.417  -0.383  0.00  0.00     0.000 A 
ATOM      2  C2  BNZ d   1       1.957   1.092  -1.429  0.00  0.00     0.000 A 
ATOM      3  C3  BNZ d   1       1.843  -0.115  -2.060  0.00  0.00     0.000 A 
ATOM      4  C4  BNZ d   1       0.934  -1.010  -1.621  0.00  0.00     0.000 A 
ATOM      5  C5  BNZ d   1       0.104  -0.700  -0.562  0.00  0.00     0.000 A 
ATOM      6  C6  BNZ d   1       0.196   0.531   0.046  0.00  0.00     0.000 A 
ENDROOT
TORSDOF 0
ENDMDL
