MODEL 1
REMARK minimizedAffinity -4.01145172
REMARK minimizedRMSD -1
REMARK  0 active torsions:
REMARK  status: ('A' for Active; 'I' for Inactive)
ROOT
ATOM      1  C1  BNZ d   1       0.153  -1.846  -0.769  0.00  0.00     0.000 A 
ATOM      2  C2  BNZ d   1      -0.348  -1.351   0.406  0.00  0.00     0.000 A 
ATOM      3  C3  BNZ d   1      -0.223  -0.026   0.716  0.00  0.00     0.000 A 
ATOM      4  C4  BNZ d   1       0.435   0.794  -0.128  0.00  0.00     0.000 A 
ATOM      5  C5  BNZ d   1       0.953   0.308  -1.312  0.00  0.00     0.000 A 
ATOM      6  C6  BNZ d   1       0.792  -1.019  -1.639  0.00  0.00     0.000 A 
ENDROOT
TORSDOF 0
ENDMDL
