MODEL 1
REMARK minimizedAffinity -4.23157454
REMARK minimizedRMSD -1
REMARK  0 active torsions:
REMARK  status: ('A' for Active; 'I' for Inactive)
ROOT
ATOM      1  C1  BNZ d   1       1.582   1.162  -0.612  0.00  0.00     0.000 A 
ATOM      2  C2  BNZ d   1       0.440   0.930   0.107  0.00  0.00     0.000 A 
ATOM      3  C3  BNZ d   1      -0.540   0.111  -0.382  0.00  0.00     0.000 A 
ATOM      4  C4  BNZ d   1      -0.395  -0.440  -1.604  0.00  0.00     0.000 A 
ATOM      5  C5  BNZ d   1       0.746  -0.208  -2.345  0.00  0.00     0.000 A 
ATOM      6  C6  BNZ d   1       1.748   0.585  -1.833  0.00  0.00     0.000 A 
ENDROOT
TORSDOF 0
ENDMDL
