MODEL 1
REMARK minimizedAffinity -4.32027435
REMARK minimizedRMSD -1
REMARK  0 active torsions:
REMARK  status: ('A' for Active; 'I' for Inactive)
ROOT
ATOM      1  C1  BNZ d   1      -0.260  -0.662  -1.965  0.00  0.00     0.000 A 
ATOM      2  C2  BNZ d   1      -0.673  -0.224  -0.735  0.00  0.00     0.000 A 
ATOM      3  C3  BNZ d   1      -0.051   0.827  -0.121  0.00  0.00     0.000 A 
ATOM      4  C4  BNZ d   1       1.007   1.412  -0.718  0.00  0.00     0.000 A 
ATOM      5  C5  BNZ d   1       1.442   0.976  -1.954  0.00  0.00     0.000 A 
ATOM      6  C6  BNZ d   1       0.788  -0.057  -2.587  0.00  0.00     0.000 A 
ENDROOT
TORSDOF 0
ENDMDL
