MODEL 1
REMARK minimizedAffinity -2.10922194
REMARK minimizedRMSD -1
REMARK  0 active torsions:
REMARK  status: ('A' for Active; 'I' for Inactive)
ROOT
ATOM      1  C1  BNZ d   1      -0.770  -0.012   0.928  0.00  0.00     0.000 A 
ATOM      2  C2  BNZ d   1      -0.517  -0.859  -0.117  0.00  0.00     0.000 A 
ATOM      3  C3  BNZ d   1       0.364  -0.510  -1.103  0.00  0.00     0.000 A 
ATOM      4  C4  BNZ d   1       0.959   0.700  -1.062  0.00  0.00     0.000 A 
ATOM      5  C5  BNZ d   1       0.707   1.568  -0.019  0.00  0.00     0.000 A 
ATOM      6  C6  BNZ d   1      -0.151   1.198   0.991  0.00  0.00     0.000 A 
ENDROOT
TORSDOF 0
ENDMDL
