MODEL 1
REMARK minimizedAffinity -2.18355894
REMARK minimizedRMSD -1
REMARK  0 active torsions:
REMARK  status: ('A' for Active; 'I' for Inactive)
ROOT
ATOM      1  C1  BNZ d   1      -2.325  -1.217   0.326  0.00  0.00     0.000 A 
ATOM      2  C2  BNZ d   1      -3.482  -0.683   0.829  0.00  0.00     0.000 A 
ATOM      3  C3  BNZ d   1      -3.450   0.411   1.648  0.00  0.00     0.000 A 
ATOM      4  C4  BNZ d   1      -2.261   0.944   1.996  0.00  0.00     0.000 A 
ATOM      5  C5  BNZ d   1      -1.086   0.411   1.506  0.00  0.00     0.000 A 
ATOM      6  C6  BNZ d   1      -1.124  -0.666   0.650  0.00  0.00     0.000 A 
ENDROOT
TORSDOF 0
ENDMDL
