MODEL 1
REMARK minimizedAffinity -4.57827711
REMARK minimizedRMSD -1
REMARK  0 active torsions:
REMARK  status: ('A' for Active; 'I' for Inactive)
ROOT
ATOM      1  C1  BNZ d   1       1.072   1.165  -0.423  0.00  0.00     0.000 A 
ATOM      2  C2  BNZ d   1       1.698   1.080  -1.638  0.00  0.00     0.000 A 
ATOM      3  C3  BNZ d   1       1.385   0.081  -2.517  0.00  0.00     0.000 A 
ATOM      4  C4  BNZ d   1       0.478  -0.852  -2.165  0.00  0.00     0.000 A 
ATOM      5  C5  BNZ d   1      -0.156  -0.785  -0.940  0.00  0.00     0.000 A 
ATOM      6  C6  BNZ d   1       0.133   0.244  -0.073  0.00  0.00     0.000 A 
ENDROOT
TORSDOF 0
ENDMDL
