MODEL 1
REMARK minimizedAffinity -2.19017744
REMARK minimizedRMSD -1
REMARK  0 active torsions:
REMARK  status: ('A' for Active; 'I' for Inactive)
ROOT
ATOM      1  C1  BNZ d   1      -0.797  -0.367   1.455  0.00  0.00     0.000 A 
ATOM      2  C2  BNZ d   1      -0.448   0.563   0.512  0.00  0.00     0.000 A 
ATOM      3  C3  BNZ d   1       0.116   0.181  -0.673  0.00  0.00     0.000 A 
ATOM      4  C4  BNZ d   1       0.366  -1.125  -0.898  0.00  0.00     0.000 A 
ATOM      5  C5  BNZ d   1       0.029  -2.074   0.047  0.00  0.00     0.000 A 
ATOM      6  C6  BNZ d   1      -0.574  -1.689   1.222  0.00  0.00     0.000 A 
ENDROOT
TORSDOF 0
ENDMDL
