MODEL 1
REMARK minimizedAffinity -4.30356264
REMARK minimizedRMSD -1
REMARK  0 active torsions:
REMARK  status: ('A' for Active; 'I' for Inactive)
ROOT
ATOM      1  C1  BNZ d   1       0.610  -1.125  -1.071  0.00  0.00     0.000 A 
ATOM      2  C2  BNZ d   1       1.427  -2.046  -1.670  0.00  0.00     0.000 A 
ATOM      3  C3  BNZ d   1       2.351  -1.662  -2.601  0.00  0.00     0.000 A 
ATOM      4  C4  BNZ d   1       2.428  -0.365  -2.963  0.00  0.00     0.000 A 
ATOM      5  C5  BNZ d   1       1.604   0.574  -2.376  0.00  0.00     0.000 A 
ATOM      6  C6  BNZ d   1       0.702   0.190  -1.410  0.00  0.00     0.000 A 
ENDROOT
TORSDOF 0
ENDMDL
