MODEL 1
REMARK minimizedAffinity -4.4234581
REMARK minimizedRMSD -1
REMARK  0 active torsions:
REMARK  status: ('A' for Active; 'I' for Inactive)
ROOT
ATOM      1  C1  BNZ d   1       0.414  -0.725  -1.871  0.00  0.00     0.000 A 
ATOM      2  C2  BNZ d   1       0.074  -0.783  -0.546  0.00  0.00     0.000 A 
ATOM      3  C3  BNZ d   1       0.315   0.275   0.285  0.00  0.00     0.000 A 
ATOM      4  C4  BNZ d   1       0.931   1.373  -0.200  0.00  0.00     0.000 A 
ATOM      5  C5  BNZ d   1       1.287   1.443  -1.532  0.00  0.00     0.000 A 
ATOM      6  C6  BNZ d   1       1.008   0.391  -2.374  0.00  0.00     0.000 A 
ENDROOT
TORSDOF 0
ENDMDL
