MODEL 1
REMARK minimizedAffinity 7.4049592
REMARK minimizedRMSD -1
REMARK  1 active torsions:
REMARK  status: ('A' for Active; 'I' for Inactive)
REMARK    1  A    between atoms: C1_2  and  C2_3 
ROOT
ATOM      1  C2  UNL d   1      -4.264   0.168   4.005  0.00  0.00    -0.073 A 
ATOM      2  C3  UNL d   1      -3.619  -0.633   4.955  0.00  0.00    -0.002 A 
ATOM      3  C4  UNL d   1      -3.751  -2.021   4.912  0.00  0.00     0.004 A 
ATOM      4  C5  UNL d   1      -4.522  -2.623   3.918  0.00  0.00    -0.004 A 
ATOM      5  C6  UNL d   1      -5.165  -1.841   2.953  0.00  0.00    -0.075 A 
ATOM      6  C7  UNL d   1      -6.000  -2.473   1.878  0.00  0.00     0.076 C 
ATOM      7  C8  UNL d   1      -5.030  -0.447   3.004  0.00  0.00     0.001 A 
ENDROOT
BRANCH   1   8
ATOM      8  C1  UNL d   1      -4.120   1.667   4.043  0.00  0.00     0.053 C 
ATOM      9  C   UNL d   1      -5.466   2.368   4.129  0.00  0.00     0.018 C 
ENDBRANCH   1   8
TORSDOF 1
ENDMDL
