MODEL 1
REMARK minimizedAffinity 20.9972973
REMARK minimizedRMSD -1
REMARK  1 active torsions:
REMARK  status: ('A' for Active; 'I' for Inactive)
REMARK    1  A    between atoms: C1_2  and  C2_3 
ROOT
ATOM      1  C2  UNL d   1       3.021   0.328  -0.498  0.00  0.00    -0.073 A 
ATOM      2  C3  UNL d   1       2.668   0.659  -1.811  0.00  0.00    -0.002 A 
ATOM      3  C4  UNL d   1       1.894  -0.215  -2.575  0.00  0.00     0.004 A 
ATOM      4  C5  UNL d   1       1.460  -1.425  -2.033  0.00  0.00    -0.004 A 
ATOM      5  C6  UNL d   1       1.793  -1.769  -0.718  0.00  0.00    -0.075 A 
ATOM      6  C7  UNL d   1       1.336  -3.068  -0.121  0.00  0.00     0.076 C 
ATOM      7  C8  UNL d   1       2.573  -0.887   0.041  0.00  0.00     0.001 A 
ENDROOT
BRANCH   1   8
ATOM      8  C1  UNL d   1       3.851   1.271   0.333  0.00  0.00     0.053 C 
ATOM      9  C   UNL d   1       3.059   1.859   1.490  0.00  0.00     0.018 C 
ENDBRANCH   1   8
TORSDOF 1
ENDMDL
