MODEL 1
REMARK minimizedAffinity 9.65847111
REMARK minimizedRMSD -1
REMARK  1 active torsions:
REMARK  status: ('A' for Active; 'I' for Inactive)
REMARK    1  A    between atoms: C1_2  and  C2_3 
ROOT
ATOM      1  C2  UNL d   1      -1.975   2.749  -4.855  0.00  0.00    -0.073 A 
ATOM      2  C3  UNL d   1      -1.111   3.811  -5.146  0.00  0.00    -0.002 A 
ATOM      3  C4  UNL d   1      -1.604   4.984  -5.718  0.00  0.00     0.004 A 
ATOM      4  C5  UNL d   1      -2.965   5.111  -5.997  0.00  0.00    -0.004 A 
ATOM      5  C6  UNL d   1      -3.846   4.065  -5.702  0.00  0.00    -0.075 A 
ATOM      6  C7  UNL d   1      -5.312   4.185  -5.999  0.00  0.00     0.076 C 
ATOM      7  C8  UNL d   1      -3.342   2.889  -5.131  0.00  0.00     0.001 A 
ENDROOT
BRANCH   1   8
ATOM      8  C1  UNL d   1      -1.448   1.482  -4.231  0.00  0.00     0.053 C 
ATOM      9  C   UNL d   1      -2.520   0.744  -3.446  0.00  0.00     0.018 C 
ENDBRANCH   1   8
TORSDOF 1
ENDMDL
