MODEL 1
REMARK minimizedAffinity 13.0626822
REMARK minimizedRMSD -1
REMARK  1 active torsions:
REMARK  status: ('A' for Active; 'I' for Inactive)
REMARK    1  A    between atoms: C1_2  and  C2_3 
ROOT
ATOM      1  C2  UNL d   1      -3.677   1.307   3.732  0.00  0.00    -0.073 A 
ATOM      2  C3  UNL d   1      -2.438   1.450   3.099  0.00  0.00    -0.002 A 
ATOM      3  C4  UNL d   1      -2.013   0.508   2.160  0.00  0.00     0.004 A 
ATOM      4  C5  UNL d   1      -2.825  -0.580   1.841  0.00  0.00    -0.004 A 
ATOM      5  C6  UNL d   1      -4.072  -0.734   2.455  0.00  0.00    -0.075 A 
ATOM      6  C7  UNL d   1      -4.957  -1.900   2.124  0.00  0.00     0.076 C 
ATOM      7  C8  UNL d   1      -4.490   0.214   3.398  0.00  0.00     0.001 A 
ENDROOT
BRANCH   1   8
ATOM      8  C1  UNL d   1      -4.143   2.324   4.741  0.00  0.00     0.053 C 
ATOM      9  C   UNL d   1      -5.292   3.168   4.212  0.00  0.00     0.018 C 
ENDBRANCH   1   8
TORSDOF 1
ENDMDL
