MODEL 1
REMARK minimizedAffinity 8.63523006
REMARK minimizedRMSD -1
REMARK  1 active torsions:
REMARK  status: ('A' for Active; 'I' for Inactive)
REMARK    1  A    between atoms: C1_2  and  C2_3 
ROOT
ATOM      1  C2  UNL d   1      -2.618   2.920  -4.700  0.00  0.00    -0.073 A 
ATOM      2  C3  UNL d   1      -2.540   2.263  -5.933  0.00  0.00    -0.002 A 
ATOM      3  C4  UNL d   1      -2.167   0.920  -5.995  0.00  0.00     0.004 A 
ATOM      4  C5  UNL d   1      -1.874   0.219  -4.826  0.00  0.00    -0.004 A 
ATOM      5  C6  UNL d   1      -1.957   0.854  -3.582  0.00  0.00    -0.075 A 
ATOM      6  C7  UNL d   1      -1.644   0.113  -2.315  0.00  0.00     0.076 C 
ATOM      7  C8  UNL d   1      -2.330   2.203  -3.529  0.00  0.00     0.001 A 
ENDROOT
BRANCH   1   8
ATOM      8  C1  UNL d   1      -3.027   4.368  -4.628  0.00  0.00     0.053 C 
ATOM      9  C   UNL d   1      -3.036   5.027  -5.998  0.00  0.00     0.018 C 
ENDBRANCH   1   8
TORSDOF 1
ENDMDL
