MODEL 1
REMARK minimizedAffinity 12.9930315
REMARK minimizedRMSD -1
REMARK  1 active torsions:
REMARK  status: ('A' for Active; 'I' for Inactive)
REMARK    1  A    between atoms: C1_2  and  C2_3 
ROOT
ATOM      1  C2  UNL d   1      -4.056  -1.317   4.089  0.00  0.00    -0.073 A 
ATOM      2  C3  UNL d   1      -4.902  -1.714   3.048  0.00  0.00    -0.002 A 
ATOM      3  C4  UNL d   1      -4.870  -1.049   1.821  0.00  0.00     0.004 A 
ATOM      4  C5  UNL d   1      -3.988   0.014   1.622  0.00  0.00    -0.004 A 
ATOM      5  C6  UNL d   1      -3.126   0.417   2.647  0.00  0.00    -0.075 A 
ATOM      6  C7  UNL d   1      -2.173   1.559   2.449  0.00  0.00     0.076 C 
ATOM      7  C8  UNL d   1      -3.166  -0.254   3.876  0.00  0.00     0.001 A 
ENDROOT
BRANCH   1   8
ATOM      8  C1  UNL d   1      -4.083  -2.036   5.413  0.00  0.00     0.053 C 
ATOM      9  C   UNL d   1      -3.832  -3.528   5.257  0.00  0.00     0.018 C 
ENDBRANCH   1   8
TORSDOF 1
ENDMDL
