MODEL 1
REMARK minimizedAffinity 11.9133091
REMARK minimizedRMSD -1
REMARK  1 active torsions:
REMARK  status: ('A' for Active; 'I' for Inactive)
REMARK    1  A    between atoms: C1_2  and  C2_3 
ROOT
ATOM      1  C2  UNL d   1       2.533  -1.479  -0.576  0.00  0.00    -0.073 A 
ATOM      2  C3  UNL d   1       1.742  -0.884  -1.565  0.00  0.00    -0.002 A 
ATOM      3  C4  UNL d   1       2.060   0.383  -2.056  0.00  0.00     0.004 A 
ATOM      4  C5  UNL d   1       3.174   1.065  -1.568  0.00  0.00    -0.004 A 
ATOM      5  C6  UNL d   1       3.984   0.483  -0.588  0.00  0.00    -0.075 A 
ATOM      6  C7  UNL d   1       5.185   1.204  -0.051  0.00  0.00     0.076 C 
ATOM      7  C8  UNL d   1       3.657  -0.789  -0.098  0.00  0.00     0.001 A 
ENDROOT
BRANCH   1   8
ATOM      8  C1  UNL d   1       2.197  -2.849  -0.048  0.00  0.00     0.053 C 
ATOM      9  C   UNL d   1       3.436  -3.716   0.116  0.00  0.00     0.018 C 
ENDBRANCH   1   8
TORSDOF 1
ENDMDL
