MODEL 1
REMARK minimizedAffinity 12.6611042
REMARK minimizedRMSD -1
REMARK  1 active torsions:
REMARK  status: ('A' for Active; 'I' for Inactive)
REMARK    1  A    between atoms: C1_2  and  C2_3 
ROOT
ATOM      1  C2  UNL d   1      -4.470  -4.070  -5.415  0.00  0.00    -0.073 A 
ATOM      2  C3  UNL d   1      -3.437  -4.811  -5.999  0.00  0.00    -0.002 A 
ATOM      3  C4  UNL d   1      -2.113  -4.384  -5.886  0.00  0.00     0.004 A 
ATOM      4  C5  UNL d   1      -1.809  -3.218  -5.184  0.00  0.00    -0.004 A 
ATOM      5  C6  UNL d   1      -2.827  -2.470  -4.584  0.00  0.00    -0.075 A 
ATOM      6  C7  UNL d   1      -2.516  -1.212  -3.827  0.00  0.00     0.076 C 
ATOM      7  C8  UNL d   1      -4.154  -2.904  -4.704  0.00  0.00     0.001 A 
ENDROOT
BRANCH   1   8
ATOM      8  C1  UNL d   1      -5.901  -4.530  -5.529  0.00  0.00     0.053 C 
ATOM      9  C   UNL d   1      -5.998  -5.996  -5.923  0.00  0.00     0.018 C 
ENDBRANCH   1   8
TORSDOF 1
ENDMDL
