MODEL 1
REMARK minimizedAffinity 4.59918785
REMARK minimizedRMSD -1
REMARK  1 active torsions:
REMARK  status: ('A' for Active; 'I' for Inactive)
REMARK    1  A    between atoms: C1_2  and  C2_3 
ROOT
ATOM      1  C2  UNL d   1       2.558  -3.631  -1.107  0.00  0.00    -0.073 A 
ATOM      2  C3  UNL d   1       2.228  -3.603  -2.467  0.00  0.00    -0.002 A 
ATOM      3  C4  UNL d   1       2.135  -2.387  -3.145  0.00  0.00     0.004 A 
ATOM      4  C5  UNL d   1       2.376  -1.188  -2.474  0.00  0.00    -0.004 A 
ATOM      5  C6  UNL d   1       2.718  -1.196  -1.118  0.00  0.00    -0.075 A 
ATOM      6  C7  UNL d   1       2.978   0.085  -0.381  0.00  0.00     0.076 C 
ATOM      7  C8  UNL d   1       2.807  -2.421  -0.443  0.00  0.00     0.001 A 
ENDROOT
BRANCH   1   8
ATOM      8  C1  UNL d   1       2.666  -4.942  -0.372  0.00  0.00     0.053 C 
ATOM      9  C   UNL d   1       3.385  -5.999  -1.196  0.00  0.00     0.018 C 
ENDBRANCH   1   8
TORSDOF 1
ENDMDL
