MODEL 1
REMARK minimizedAffinity 7.01663351
REMARK minimizedRMSD -1
REMARK  1 active torsions:
REMARK  status: ('A' for Active; 'I' for Inactive)
REMARK    1  A    between atoms: C1_2  and  C2_3 
ROOT
ATOM      1  C2  UNL d   1       3.638   0.317  -0.492  0.00  0.00    -0.073 A 
ATOM      2  C3  UNL d   1       2.772   0.710  -1.519  0.00  0.00    -0.002 A 
ATOM      3  C4  UNL d   1       1.895  -0.212  -2.092  0.00  0.00     0.004 A 
ATOM      4  C5  UNL d   1       1.869  -1.531  -1.641  0.00  0.00    -0.004 A 
ATOM      5  C6  UNL d   1       2.718  -1.940  -0.607  0.00  0.00    -0.075 A 
ATOM      6  C7  UNL d   1       2.705  -3.356  -0.111  0.00  0.00     0.076 C 
ATOM      7  C8  UNL d   1       3.598  -1.009  -0.038  0.00  0.00     0.001 A 
ENDROOT
BRANCH   1   8
ATOM      8  C1  UNL d   1       4.582   1.311   0.134  0.00  0.00     0.053 C 
ATOM      9  C   UNL d   1       3.918   2.104   1.248  0.00  0.00     0.018 C 
ENDBRANCH   1   8
TORSDOF 1
ENDMDL
