MODEL 1
REMARK minimizedAffinity 4.23269653
REMARK minimizedRMSD -1
REMARK  1 active torsions:
REMARK  status: ('A' for Active; 'I' for Inactive)
REMARK    1  A    between atoms: C1_2  and  C2_3 
ROOT
ATOM      1  C2  UNL d   1       1.101  -2.811  -2.105  0.00  0.00    -0.073 A 
ATOM      2  C3  UNL d   1       1.647  -3.663  -1.137  0.00  0.00    -0.002 A 
ATOM      3  C4  UNL d   1       2.613  -3.192  -0.247  0.00  0.00     0.004 A 
ATOM      4  C5  UNL d   1       3.038  -1.865  -0.311  0.00  0.00    -0.004 A 
ATOM      5  C6  UNL d   1       2.496  -0.995  -1.263  0.00  0.00    -0.075 A 
ATOM      6  C7  UNL d   1       2.944   0.435  -1.345  0.00  0.00     0.076 C 
ATOM      7  C8  UNL d   1       1.528  -1.476  -2.155  0.00  0.00     0.001 A 
ENDROOT
BRANCH   1   8
ATOM      8  C1  UNL d   1       0.053  -3.314  -3.063  0.00  0.00     0.053 C 
ATOM      9  C   UNL d   1      -0.931  -4.257  -2.390  0.00  0.00     0.018 C 
ENDBRANCH   1   8
TORSDOF 1
ENDMDL
