MODEL 1
REMARK minimizedAffinity 8.67470074
REMARK minimizedRMSD -1
REMARK  1 active torsions:
REMARK  status: ('A' for Active; 'I' for Inactive)
REMARK    1  A    between atoms: C1_2  and  C2_3 
ROOT
ATOM      1  C2  UNL d   1       3.243  -2.559  -0.967  0.00  0.00    -0.073 A 
ATOM      2  C3  UNL d   1       2.701  -1.309  -0.646  0.00  0.00    -0.002 A 
ATOM      3  C4  UNL d   1       2.138  -0.508  -1.641  0.00  0.00     0.004 A 
ATOM      4  C5  UNL d   1       2.106  -0.951  -2.964  0.00  0.00    -0.004 A 
ATOM      5  C6  UNL d   1       2.632  -2.202  -3.302  0.00  0.00    -0.075 A 
ATOM      6  C7  UNL d   1       2.607  -2.692  -4.720  0.00  0.00     0.076 C 
ATOM      7  C8  UNL d   1       3.197  -2.999  -2.297  0.00  0.00     0.001 A 
ENDROOT
BRANCH   1   8
ATOM      8  C1  UNL d   1       3.846  -3.429   0.105  0.00  0.00     0.053 C 
ATOM      9  C   UNL d   1       5.363  -3.477   0.015  0.00  0.00     0.018 C 
ENDBRANCH   1   8
TORSDOF 1
ENDMDL
