MODEL 1
REMARK minimizedAffinity 12.2002811
REMARK minimizedRMSD -1
REMARK  1 active torsions:
REMARK  status: ('A' for Active; 'I' for Inactive)
REMARK    1  A    between atoms: C1_2  and  C2_3 
ROOT
ATOM      1  C2  UNL d   1       2.758  -0.619  -0.297  0.00  0.00    -0.073 A 
ATOM      2  C3  UNL d   1       2.965  -1.821   0.390  0.00  0.00    -0.002 A 
ATOM      3  C4  UNL d   1       2.660  -3.041  -0.216  0.00  0.00     0.004 A 
ATOM      4  C5  UNL d   1       2.154  -3.072  -1.515  0.00  0.00    -0.004 A 
ATOM      5  C6  UNL d   1       1.951  -1.883  -2.222  0.00  0.00    -0.075 A 
ATOM      6  C7  UNL d   1       1.405  -1.900  -3.620  0.00  0.00     0.076 C 
ATOM      7  C8  UNL d   1       2.257  -0.662  -1.606  0.00  0.00     0.001 A 
ENDROOT
BRANCH   1   8
ATOM      8  C1  UNL d   1       3.090   0.700   0.350  0.00  0.00     0.053 C 
ATOM      9  C   UNL d   1       4.501   1.159   0.017  0.00  0.00     0.018 C 
ENDBRANCH   1   8
TORSDOF 1
ENDMDL
