MODEL 1
REMARK minimizedAffinity 11.0771561
REMARK minimizedRMSD -1
REMARK  1 active torsions:
REMARK  status: ('A' for Active; 'I' for Inactive)
REMARK    1  A    between atoms: C1_2  and  C2_3 
ROOT
ATOM      1  C2  UNL d   1      -2.325   0.668   3.611  0.00  0.00    -0.073 A 
ATOM      2  C3  UNL d   1      -1.597   1.676   4.252  0.00  0.00    -0.002 A 
ATOM      3  C4  UNL d   1      -1.166   2.796   3.539  0.00  0.00     0.004 A 
ATOM      4  C5  UNL d   1      -1.465   2.923   2.183  0.00  0.00    -0.004 A 
ATOM      5  C6  UNL d   1      -2.203   1.931   1.528  0.00  0.00    -0.075 A 
ATOM      6  C7  UNL d   1      -2.531   2.051   0.068  0.00  0.00     0.076 C 
ATOM      7  C8  UNL d   1      -2.629   0.808   2.250  0.00  0.00     0.001 A 
ENDROOT
BRANCH   1   8
ATOM      8  C1  UNL d   1      -2.798  -0.540   4.378  0.00  0.00     0.053 C 
ATOM      9  C   UNL d   1      -1.896  -1.744   4.158  0.00  0.00     0.018 C 
ENDBRANCH   1   8
TORSDOF 1
ENDMDL
