MODEL 1
REMARK minimizedAffinity -3.193681
REMARK minimizedRMSD -1
REMARK  0 active torsions:
REMARK  status: ('A' for Active; 'I' for Inactive)
ROOT
ATOM      1  C1  BNZ d   1       0.457  -1.060   0.406  0.00  0.00     0.000 A 
ATOM      2  C2  BNZ d   1      -0.212  -0.695   1.543  0.00  0.00     0.000 A 
ATOM      3  C3  BNZ d   1      -0.978   0.437   1.572  0.00  0.00     0.000 A 
ATOM      4  C4  BNZ d   1      -1.042   1.222   0.477  0.00  0.00     0.000 A 
ATOM      5  C5  BNZ d   1      -0.366   0.872  -0.675  0.00  0.00     0.000 A 
ATOM      6  C6  BNZ d   1       0.373  -0.288  -0.712  0.00  0.00     0.000 A 
ENDROOT
TORSDOF 0
ENDMDL
