MODEL 1
REMARK minimizedAffinity -2.08269405
REMARK minimizedRMSD -1
REMARK  0 active torsions:
REMARK  status: ('A' for Active; 'I' for Inactive)
ROOT
ATOM      1  C1  BNZ d   1      -0.529   0.603   0.223  0.00  0.00     0.000 A 
ATOM      2  C2  BNZ d   1      -0.886   0.320   1.514  0.00  0.00     0.000 A 
ATOM      3  C3  BNZ d   1      -0.263  -0.679   2.209  0.00  0.00     0.000 A 
ATOM      4  C4  BNZ d   1       0.687  -1.418   1.600  0.00  0.00     0.000 A 
ATOM      5  C5  BNZ d   1       1.051  -1.151   0.295  0.00  0.00     0.000 A 
ATOM      6  C6  BNZ d   1       0.449  -0.120  -0.388  0.00  0.00     0.000 A 
ENDROOT
TORSDOF 0
ENDMDL
