MODEL 1
REMARK minimizedAffinity -4.49645472
REMARK minimizedRMSD -1
REMARK  0 active torsions:
REMARK  status: ('A' for Active; 'I' for Inactive)
ROOT
ATOM      1  C1  BNZ d   1      -1.391   1.524   0.768  0.00  0.00     0.000 A 
ATOM      2  C2  BNZ d   1      -0.622   1.319  -0.347  0.00  0.00     0.000 A 
ATOM      3  C3  BNZ d   1       0.209   0.237  -0.434  0.00  0.00     0.000 A 
ATOM      4  C4  BNZ d   1       0.300  -0.615   0.607  0.00  0.00     0.000 A 
ATOM      5  C5  BNZ d   1      -0.462  -0.417   1.742  0.00  0.00     0.000 A 
ATOM      6  C6  BNZ d   1      -1.326   0.652   1.810  0.00  0.00     0.000 A 
ENDROOT
TORSDOF 0
ENDMDL
