MODEL 1
REMARK minimizedAffinity -2.15094829
REMARK minimizedRMSD -1
REMARK  0 active torsions:
REMARK  status: ('A' for Active; 'I' for Inactive)
ROOT
ATOM      1  C1  BNZ d   1       0.401  -3.920  -1.476  0.00  0.00     0.000 A 
ATOM      2  C2  BNZ d   1       0.967  -2.822  -0.885  0.00  0.00     0.000 A 
ATOM      3  C3  BNZ d   1       0.973  -1.611  -1.520  0.00  0.00     0.000 A 
ATOM      4  C4  BNZ d   1       0.450  -1.509  -2.759  0.00  0.00     0.000 A 
ATOM      5  C5  BNZ d   1      -0.115  -2.610  -3.372  0.00  0.00     0.000 A 
ATOM      6  C6  BNZ d   1      -0.154  -3.818  -2.714  0.00  0.00     0.000 A 
ENDROOT
TORSDOF 0
ENDMDL
