MODEL 1
REMARK minimizedAffinity -4.22083235
REMARK minimizedRMSD -1
REMARK  0 active torsions:
REMARK  status: ('A' for Active; 'I' for Inactive)
ROOT
ATOM      1  C1  BNZ d   1      -1.704   1.667   0.101  0.00  0.00     0.000 A 
ATOM      2  C2  BNZ d   1      -1.009   0.648  -0.494  0.00  0.00     0.000 A 
ATOM      3  C3  BNZ d   1      -0.288  -0.239   0.255  0.00  0.00     0.000 A 
ATOM      4  C4  BNZ d   1      -0.230  -0.083   1.593  0.00  0.00     0.000 A 
ATOM      5  C5  BNZ d   1      -0.917   0.944   2.208  0.00  0.00     0.000 A 
ATOM      6  C6  BNZ d   1      -1.674   1.812   1.454  0.00  0.00     0.000 A 
ENDROOT
TORSDOF 0
ENDMDL
