MODEL 1
REMARK minimizedAffinity -3.92893076
REMARK minimizedRMSD -1
REMARK  0 active torsions:
REMARK  status: ('A' for Active; 'I' for Inactive)
ROOT
ATOM      1  C1  BNZ d   1       0.730  -0.725   0.609  0.00  0.00     0.000 A 
ATOM      2  C2  BNZ d   1      -0.326   0.077   0.950  0.00  0.00     0.000 A 
ATOM      3  C3  BNZ d   1      -0.666   1.153   0.179  0.00  0.00     0.000 A 
ATOM      4  C4  BNZ d   1       0.075   1.449  -0.909  0.00  0.00     0.000 A 
ATOM      5  C5  BNZ d   1       1.148   0.655  -1.261  0.00  0.00     0.000 A 
ATOM      6  C6  BNZ d   1       1.463  -0.450  -0.504  0.00  0.00     0.000 A 
ENDROOT
TORSDOF 0
ENDMDL
