MODEL 1
REMARK minimizedAffinity -3.97485638
REMARK minimizedRMSD -1
REMARK  0 active torsions:
REMARK  status: ('A' for Active; 'I' for Inactive)
ROOT
ATOM      1  C1  BNZ d   1       1.208  -1.234  -0.346  0.00  0.00     0.000 A 
ATOM      2  C2  BNZ d   1       1.536  -2.315  -1.120  0.00  0.00     0.000 A 
ATOM      3  C3  BNZ d   1       0.631  -2.852  -1.992  0.00  0.00     0.000 A 
ATOM      4  C4  BNZ d   1      -0.612  -2.333  -2.061  0.00  0.00     0.000 A 
ATOM      5  C5  BNZ d   1      -0.961  -1.249  -1.280  0.00  0.00     0.000 A 
ATOM      6  C6  BNZ d   1      -0.035  -0.687  -0.432  0.00  0.00     0.000 A 
ENDROOT
TORSDOF 0
ENDMDL
