MODEL 1
REMARK minimizedAffinity -4.3990798
REMARK minimizedRMSD -1
REMARK  0 active torsions:
REMARK  status: ('A' for Active; 'I' for Inactive)
ROOT
ATOM      1  C1  BNZ d   1       0.524  -0.602   1.206  0.00  0.00     0.000 A 
ATOM      2  C2  BNZ d   1       1.110  -0.734  -0.026  0.00  0.00     0.000 A 
ATOM      3  C3  BNZ d   1       0.550  -0.158  -1.132  0.00  0.00     0.000 A 
ATOM      4  C4  BNZ d   1      -0.614   0.514  -1.012  0.00  0.00     0.000 A 
ATOM      5  C5  BNZ d   1      -1.221   0.647   0.220  0.00  0.00     0.000 A 
ATOM      6  C6  BNZ d   1      -0.634   0.099   1.338  0.00  0.00     0.000 A 
ENDROOT
TORSDOF 0
ENDMDL
