MODEL 1
REMARK minimizedAffinity -2.33936548
REMARK minimizedRMSD -1
REMARK  0 active torsions:
REMARK  status: ('A' for Active; 'I' for Inactive)
ROOT
ATOM      1  C1  BNZ d   1      -0.113  -0.641   1.186  0.00  0.00     0.000 A 
ATOM      2  C2  BNZ d   1      -0.919  -0.039   2.116  0.00  0.00     0.000 A 
ATOM      3  C3  BNZ d   1      -1.573   1.125   1.826  0.00  0.00     0.000 A 
ATOM      4  C4  BNZ d   1      -1.391   1.706   0.622  0.00  0.00     0.000 A 
ATOM      5  C5  BNZ d   1      -0.574   1.117  -0.322  0.00  0.00     0.000 A 
ATOM      6  C6  BNZ d   1       0.052  -0.076  -0.040  0.00  0.00     0.000 A 
ENDROOT
TORSDOF 0
ENDMDL
