MODEL 1
REMARK minimizedAffinity -4.3568573
REMARK minimizedRMSD -1
REMARK  0 active torsions:
REMARK  status: ('A' for Active; 'I' for Inactive)
ROOT
ATOM      1  C1  BNZ d   1      -1.445   1.059   1.803  0.00  0.00     0.000 A 
ATOM      2  C2  BNZ d   1      -0.730  -0.079   1.540  0.00  0.00     0.000 A 
ATOM      3  C3  BNZ d   1       0.049  -0.174   0.421  0.00  0.00     0.000 A 
ATOM      4  C4  BNZ d   1       0.079   0.852  -0.454  0.00  0.00     0.000 A 
ATOM      5  C5  BNZ d   1      -0.644   2.003  -0.208  0.00  0.00     0.000 A 
ATOM      6  C6  BNZ d   1      -1.396   2.109   0.940  0.00  0.00     0.000 A 
ENDROOT
TORSDOF 0
ENDMDL
