MODEL 1
REMARK minimizedAffinity -4.11874723
REMARK minimizedRMSD -1
REMARK  0 active torsions:
REMARK  status: ('A' for Active; 'I' for Inactive)
ROOT
ATOM      1  C1  BNZ d   1      -0.247   0.414  -0.286  0.00  0.00     0.000 A 
ATOM      2  C2  BNZ d   1       0.137   1.561  -0.927  0.00  0.00     0.000 A 
ATOM      3  C3  BNZ d   1      -0.192   2.788  -0.423  0.00  0.00     0.000 A 
ATOM      4  C4  BNZ d   1      -0.938   2.866   0.698  0.00  0.00     0.000 A 
ATOM      5  C5  BNZ d   1      -1.341   1.719   1.351  0.00  0.00     0.000 A 
ATOM      6  C6  BNZ d   1      -0.974   0.486   0.862  0.00  0.00     0.000 A 
ENDROOT
TORSDOF 0
ENDMDL
