MODEL 1
REMARK minimizedAffinity -4.2503376
REMARK minimizedRMSD -1
REMARK  0 active torsions:
REMARK  status: ('A' for Active; 'I' for Inactive)
ROOT
ATOM      1  C1  BNZ d   1      -1.271   0.677   1.781  0.00  0.00     0.000 A 
ATOM      2  C2  BNZ d   1      -0.425  -0.400   1.746  0.00  0.00     0.000 A 
ATOM      3  C3  BNZ d   1       0.375  -0.627   0.662  0.00  0.00     0.000 A 
ATOM      4  C4  BNZ d   1       0.299   0.198  -0.403  0.00  0.00     0.000 A 
ATOM      5  C5  BNZ d   1      -0.556   1.282  -0.387  0.00  0.00     0.000 A 
ATOM      6  C6  BNZ d   1      -1.332   1.530   0.722  0.00  0.00     0.000 A 
ENDROOT
TORSDOF 0
ENDMDL
