MODEL 1
REMARK minimizedAffinity -4.15999317
REMARK minimizedRMSD -1
REMARK  0 active torsions:
REMARK  status: ('A' for Active; 'I' for Inactive)
ROOT
ATOM      1  C1  BNZ d   1       0.030  -0.100   1.492  0.00  0.00     0.000 A 
ATOM      2  C2  BNZ d   1      -0.797   0.762   2.162  0.00  0.00     0.000 A 
ATOM      3  C3  BNZ d   1      -1.607   1.626   1.480  0.00  0.00     0.000 A 
ATOM      4  C4  BNZ d   1      -1.561   1.655   0.132  0.00  0.00     0.000 A 
ATOM      5  C5  BNZ d   1      -0.725   0.799  -0.557  0.00  0.00     0.000 A 
ATOM      6  C6  BNZ d   1       0.060  -0.097   0.132  0.00  0.00     0.000 A 
ENDROOT
TORSDOF 0
ENDMDL
