MODEL 1
REMARK minimizedAffinity -4.62488127
REMARK minimizedRMSD -1
REMARK  0 active torsions:
REMARK  status: ('A' for Active; 'I' for Inactive)
ROOT
ATOM      1  C1  BNZ d   1       0.209  -0.329   0.698  0.00  0.00     0.000 A 
ATOM      2  C2  BNZ d   1      -0.640  -0.337   1.773  0.00  0.00     0.000 A 
ATOM      3  C3  BNZ d   1      -1.610   0.617   1.906  0.00  0.00     0.000 A 
ATOM      4  C4  BNZ d   1      -1.705   1.599   0.986  0.00  0.00     0.000 A 
ATOM      5  C5  BNZ d   1      -0.850   1.626  -0.098  0.00  0.00     0.000 A 
ATOM      6  C6  BNZ d   1       0.100   0.643  -0.249  0.00  0.00     0.000 A 
ENDROOT
TORSDOF 0
ENDMDL
