MODEL 1
REMARK minimizedAffinity -4.35719252
REMARK minimizedRMSD -1
REMARK  0 active torsions:
REMARK  status: ('A' for Active; 'I' for Inactive)
ROOT
ATOM      1  C1  BNZ d   1      -1.139   1.660  -0.019  0.00  0.00     0.000 A 
ATOM      2  C2  BNZ d   1      -1.810   1.716   1.173  0.00  0.00     0.000 A 
ATOM      3  C3  BNZ d   1      -1.627   0.753   2.125  0.00  0.00     0.000 A 
ATOM      4  C4  BNZ d   1      -0.805  -0.285   1.869  0.00  0.00     0.000 A 
ATOM      5  C5  BNZ d   1      -0.129  -0.362   0.668  0.00  0.00     0.000 A 
ATOM      6  C6  BNZ d   1      -0.286   0.630  -0.273  0.00  0.00     0.000 A 
ENDROOT
TORSDOF 0
ENDMDL
