MODEL 1
REMARK minimizedAffinity -4.99388218
REMARK minimizedRMSD -1
REMARK  0 active torsions:
REMARK  status: ('A' for Active; 'I' for Inactive)
ROOT
ATOM      1  C1  BNZ d   1      -1.008   0.873   2.282  0.00  0.00     0.000 A 
ATOM      2  C2  BNZ d   1      -1.806   1.757   1.606  0.00  0.00     0.000 A 
ATOM      3  C3  BNZ d   1      -1.896   1.719   0.243  0.00  0.00     0.000 A 
ATOM      4  C4  BNZ d   1      -1.157   0.824  -0.445  0.00  0.00     0.000 A 
ATOM      5  C5  BNZ d   1      -0.341  -0.068   0.221  0.00  0.00     0.000 A 
ATOM      6  C6  BNZ d   1      -0.283  -0.052   1.596  0.00  0.00     0.000 A 
ENDROOT
TORSDOF 0
ENDMDL
