MODEL 1
REMARK minimizedAffinity -2.80355239
REMARK minimizedRMSD -1
REMARK  0 active torsions:
REMARK  status: ('A' for Active; 'I' for Inactive)
ROOT
ATOM      1  C1  BNZ d   1       0.049   2.469  -1.526  0.00  0.00     0.000 A 
ATOM      2  C2  BNZ d   1       0.738   1.299  -1.702  0.00  0.00     0.000 A 
ATOM      3  C3  BNZ d   1       0.464   0.203  -0.933  0.00  0.00     0.000 A 
ATOM      4  C4  BNZ d   1      -0.469   0.290   0.037  0.00  0.00     0.000 A 
ATOM      5  C5  BNZ d   1      -1.165   1.466   0.233  0.00  0.00     0.000 A 
ATOM      6  C6  BNZ d   1      -0.914   2.555  -0.569  0.00  0.00     0.000 A 
ENDROOT
TORSDOF 0
ENDMDL
