MODEL 1
REMARK minimizedAffinity -2.84310651
REMARK minimizedRMSD -1
REMARK  0 active torsions:
REMARK  status: ('A' for Active; 'I' for Inactive)
ROOT
ATOM      1  C   UNL d   1      -0.753  -0.000   0.122  0.00  0.00     0.172 C 
ATOM      2  N   UNL d   1      -1.209  -0.104   1.489  0.00  0.00    -0.070 N 
ATOM      3  C1  UNL d   1      -2.475   0.171   1.931  0.00  0.00    -0.004 A 
ATOM      4  C2  UNL d   1      -2.504  -0.049   3.291  0.00  0.00    -0.047 A 
ATOM      5  C3  UNL d   1      -1.210  -0.471   3.680  0.00  0.00    -0.047 A 
ATOM      6  C4  UNL d   1      -0.428  -0.496   2.544  0.00  0.00    -0.004 A 
ENDROOT
TORSDOF 0
ENDMDL
