MODEL 1
REMARK minimizedAffinity -1.32196569
REMARK minimizedRMSD -1
REMARK  0 active torsions:
REMARK  status: ('A' for Active; 'I' for Inactive)
ROOT
ATOM      1  C   UNL d   1       0.010   0.703  -0.213  0.00  0.00     0.172 C 
ATOM      2  N   UNL d   1      -0.250   0.356   1.165  0.00  0.00    -0.070 N 
ATOM      3  C1  UNL d   1      -1.394  -0.230   1.638  0.00  0.00    -0.004 A 
ATOM      4  C2  UNL d   1      -1.251  -0.396   2.999  0.00  0.00    -0.047 A 
ATOM      5  C3  UNL d   1       0.022   0.109   3.356  0.00  0.00    -0.047 A 
ATOM      6  C4  UNL d   1       0.620   0.568   2.201  0.00  0.00    -0.004 A 
ENDROOT
TORSDOF 0
ENDMDL
