MODEL 1
REMARK minimizedAffinity -2.46042156
REMARK minimizedRMSD -1
REMARK  0 active torsions:
REMARK  status: ('A' for Active; 'I' for Inactive)
ROOT
ATOM      1  C   UNL d   1       4.484  -5.596   6.000  0.00  0.00     0.172 C 
ATOM      2  N   UNL d   1       4.872  -5.179   4.673  0.00  0.00    -0.070 N 
ATOM      3  C1  UNL d   1       4.437  -5.738   3.501  0.00  0.00    -0.004 A 
ATOM      4  C2  UNL d   1       5.035  -5.059   2.462  0.00  0.00    -0.047 A 
ATOM      5  C3  UNL d   1       5.859  -4.058   3.028  0.00  0.00    -0.047 A 
ATOM      6  C4  UNL d   1       5.740  -4.155   4.398  0.00  0.00    -0.004 A 
ENDROOT
TORSDOF 0
ENDMDL
