MODEL 1
REMARK minimizedAffinity 6.46513319
REMARK minimizedRMSD -1
REMARK  0 active torsions:
REMARK  status: ('A' for Active; 'I' for Inactive)
ROOT
ATOM      1  C   UNL d   1      -1.976   0.451   0.010  0.00  0.00     0.172 C 
ATOM      2  N   UNL d   1      -1.357   0.229   1.296  0.00  0.00    -0.070 N 
ATOM      3  C1  UNL d   1      -0.371   1.001   1.850  0.00  0.00    -0.004 A 
ATOM      4  C2  UNL d   1      -0.053   0.461   3.078  0.00  0.00    -0.047 A 
ATOM      5  C3  UNL d   1      -0.875  -0.675   3.267  0.00  0.00    -0.047 A 
ATOM      6  C4  UNL d   1      -1.673  -0.796   2.149  0.00  0.00    -0.004 A 
ENDROOT
TORSDOF 0
ENDMDL
