MODEL 1
REMARK minimizedAffinity 5.51120186
REMARK minimizedRMSD -1
REMARK  0 active torsions:
REMARK  status: ('A' for Active; 'I' for Inactive)
ROOT
ATOM      1  C   UNL d   1       3.086  -0.089   1.485  0.00  0.00     0.172 C 
ATOM      2  N   UNL d   1       1.681   0.008   1.801  0.00  0.00    -0.070 N 
ATOM      3  C1  UNL d   1       0.738   0.662   1.054  0.00  0.00    -0.004 A 
ATOM      4  C2  UNL d   1      -0.476   0.523   1.691  0.00  0.00    -0.047 A 
ATOM      5  C3  UNL d   1      -0.255  -0.239   2.862  0.00  0.00    -0.047 A 
ATOM      6  C4  UNL d   1       1.089  -0.545   2.906  0.00  0.00    -0.004 A 
ENDROOT
TORSDOF 0
ENDMDL
