MODEL 1
REMARK minimizedAffinity 3.74743676
REMARK minimizedRMSD -1
REMARK  0 active torsions:
REMARK  status: ('A' for Active; 'I' for Inactive)
ROOT
ATOM      1  C   UNL d   1      -2.263  -0.147  -0.707  0.00  0.00     0.172 C 
ATOM      2  N   UNL d   1      -2.336   0.250   0.679  0.00  0.00    -0.070 N 
ATOM      3  C1  UNL d   1      -3.442   0.760   1.306  0.00  0.00    -0.004 A 
ATOM      4  C2  UNL d   1      -3.105   1.010   2.619  0.00  0.00    -0.047 A 
ATOM      5  C3  UNL d   1      -1.749   0.639   2.786  0.00  0.00    -0.047 A 
ATOM      6  C4  UNL d   1      -1.298   0.172   1.570  0.00  0.00    -0.004 A 
ENDROOT
TORSDOF 0
ENDMDL
