MODEL 1
REMARK minimizedAffinity 0.959006846
REMARK minimizedRMSD -1
REMARK  0 active torsions:
REMARK  status: ('A' for Active; 'I' for Inactive)
ROOT
ATOM      1  C   UNL d   1      -3.020  -0.134   0.570  0.00  0.00     0.172 C 
ATOM      2  N   UNL d   1      -2.179  -0.905  -0.315  0.00  0.00    -0.070 N 
ATOM      3  C1  UNL d   1      -1.228  -0.396  -1.158  0.00  0.00    -0.004 A 
ATOM      4  C2  UNL d   1      -0.648  -1.452  -1.827  0.00  0.00    -0.047 A 
ATOM      5  C3  UNL d   1      -1.273  -2.637  -1.371  0.00  0.00    -0.047 A 
ATOM      6  C4  UNL d   1      -2.217  -2.270  -0.435  0.00  0.00    -0.004 A 
ENDROOT
TORSDOF 0
ENDMDL
