MODEL 1
REMARK minimizedAffinity 0.753079653
REMARK minimizedRMSD -1
REMARK  0 active torsions:
REMARK  status: ('A' for Active; 'I' for Inactive)
ROOT
ATOM      1  C   UNL d   1      -1.284   2.355   3.949  0.00  0.00     0.172 C 
ATOM      2  N   UNL d   1      -1.217   0.914   4.015  0.00  0.00    -0.070 N 
ATOM      3  C1  UNL d   1      -2.196   0.091   4.505  0.00  0.00    -0.004 A 
ATOM      4  C2  UNL d   1      -1.751  -1.208   4.393  0.00  0.00    -0.047 A 
ATOM      5  C3  UNL d   1      -0.459  -1.164   3.816  0.00  0.00    -0.047 A 
ATOM      6  C4  UNL d   1      -0.154   0.162   3.592  0.00  0.00    -0.004 A 
ENDROOT
TORSDOF 0
ENDMDL
