MODEL 1
REMARK minimizedAffinity -0.880235374
REMARK minimizedRMSD -1
REMARK  0 active torsions:
REMARK  status: ('A' for Active; 'I' for Inactive)
ROOT
ATOM      1  C   UNL d   1       2.444   3.432  -1.637  0.00  0.00     0.172 C 
ATOM      2  N   UNL d   1       3.159   3.808  -2.834  0.00  0.00    -0.070 N 
ATOM      3  C1  UNL d   1       2.800   4.810  -3.696  0.00  0.00    -0.004 A 
ATOM      4  C2  UNL d   1       3.736   4.851  -4.707  0.00  0.00    -0.047 A 
ATOM      5  C3  UNL d   1       4.689   3.839  -4.444  0.00  0.00    -0.047 A 
ATOM      6  C4  UNL d   1       4.308   3.209  -3.278  0.00  0.00    -0.004 A 
ENDROOT
TORSDOF 0
ENDMDL
