MODEL 1
REMARK minimizedAffinity 8.63986206
REMARK minimizedRMSD -1
REMARK  0 active torsions:
REMARK  status: ('A' for Active; 'I' for Inactive)
ROOT
ATOM      1  C   UNL d   1       2.555   1.367  -6.000  0.00  0.00     0.172 C 
ATOM      2  N   UNL d   1       2.536   2.705  -5.457  0.00  0.00    -0.070 N 
ATOM      3  C1  UNL d   1       3.535   3.282  -4.720  0.00  0.00    -0.004 A 
ATOM      4  C2  UNL d   1       3.135   4.560  -4.393  0.00  0.00    -0.047 A 
ATOM      5  C3  UNL d   1       1.850   4.757  -4.952  0.00  0.00    -0.047 A 
ATOM      6  C4  UNL d   1       1.504   3.593  -5.606  0.00  0.00    -0.004 A 
ENDROOT
TORSDOF 0
ENDMDL
