MODEL 1
REMARK minimizedAffinity -0.173382342
REMARK minimizedRMSD -1
REMARK  0 active torsions:
REMARK  status: ('A' for Active; 'I' for Inactive)
ROOT
ATOM      1  C   UNL d   1      -3.101  -0.218   1.445  0.00  0.00     0.172 C 
ATOM      2  N   UNL d   1      -2.061  -0.535   2.395  0.00  0.00    -0.070 N 
ATOM      3  C1  UNL d   1      -2.234  -0.702   3.743  0.00  0.00    -0.004 A 
ATOM      4  C2  UNL d   1      -1.005  -0.995   4.294  0.00  0.00    -0.047 A 
ATOM      5  C3  UNL d   1      -0.060  -1.003   3.240  0.00  0.00    -0.047 A 
ATOM      6  C4  UNL d   1      -0.740  -0.716   2.076  0.00  0.00    -0.004 A 
ENDROOT
TORSDOF 0
ENDMDL
