MODEL 1
REMARK minimizedAffinity 3.81885266
REMARK minimizedRMSD -1
REMARK  0 active torsions:
REMARK  status: ('A' for Active; 'I' for Inactive)
ROOT
ATOM      1  C   UNL d   1       0.145  -2.952   3.376  0.00  0.00     0.172 C 
ATOM      2  N   UNL d   1      -0.343  -1.612   3.151  0.00  0.00    -0.070 N 
ATOM      3  C1  UNL d   1      -1.626  -1.278   2.806  0.00  0.00    -0.004 A 
ATOM      4  C2  UNL d   1      -1.686   0.093   2.685  0.00  0.00    -0.047 A 
ATOM      5  C3  UNL d   1      -0.395   0.601   2.965  0.00  0.00    -0.047 A 
ATOM      6  C4  UNL d   1       0.417  -0.477   3.250  0.00  0.00    -0.004 A 
ENDROOT
TORSDOF 0
ENDMDL
