MODEL 1
REMARK minimizedAffinity 1.26253164
REMARK minimizedRMSD -1
REMARK  0 active torsions:
REMARK  status: ('A' for Active; 'I' for Inactive)
ROOT
ATOM      1  C   UNL d   1      -1.748   0.038   0.156  0.00  0.00     0.172 C 
ATOM      2  N   UNL d   1      -1.406  -0.333   1.508  0.00  0.00    -0.070 N 
ATOM      3  C1  UNL d   1      -0.363   0.175   2.236  0.00  0.00    -0.004 A 
ATOM      4  C2  UNL d   1      -0.376  -0.433   3.473  0.00  0.00    -0.047 A 
ATOM      5  C3  UNL d   1      -1.463  -1.338   3.489  0.00  0.00    -0.047 A 
ATOM      6  C4  UNL d   1      -2.084  -1.256   2.260  0.00  0.00    -0.004 A 
ENDROOT
TORSDOF 0
ENDMDL
