MODEL 1
REMARK minimizedAffinity 4.06085777
REMARK minimizedRMSD -1
REMARK  0 active torsions:
REMARK  status: ('A' for Active; 'I' for Inactive)
ROOT
ATOM      1  C   UNL d   1      -1.947  -0.281   0.587  0.00  0.00     0.172 C 
ATOM      2  N   UNL d   1      -1.434  -0.347   1.935  0.00  0.00    -0.070 N 
ATOM      3  C1  UNL d   1      -1.934  -1.129   2.942  0.00  0.00    -0.004 A 
ATOM      4  C2  UNL d   1      -1.171  -0.907   4.067  0.00  0.00    -0.047 A 
ATOM      5  C3  UNL d   1      -0.178   0.041   3.725  0.00  0.00    -0.047 A 
ATOM      6  C4  UNL d   1      -0.364   0.371   2.399  0.00  0.00    -0.004 A 
ENDROOT
TORSDOF 0
ENDMDL
