MODEL 1
REMARK minimizedAffinity 3.40154576
REMARK minimizedRMSD -1
REMARK  0 active torsions:
REMARK  status: ('A' for Active; 'I' for Inactive)
ROOT
ATOM      1  C   UNL d   1       1.815  -0.510   0.316  0.00  0.00     0.172 C 
ATOM      2  N   UNL d   1       0.783   0.045   1.161  0.00  0.00    -0.070 N 
ATOM      3  C1  UNL d   1      -0.371   0.640   0.726  0.00  0.00    -0.004 A 
ATOM      4  C2  UNL d   1      -1.086   1.035   1.836  0.00  0.00    -0.047 A 
ATOM      5  C3  UNL d   1      -0.336   0.665   2.977  0.00  0.00    -0.047 A 
ATOM      6  C4  UNL d   1       0.817   0.055   2.530  0.00  0.00    -0.004 A 
ENDROOT
TORSDOF 0
ENDMDL
