MODEL 1
REMARK minimizedAffinity 5.66254425
REMARK minimizedRMSD -1
REMARK  0 active torsions:
REMARK  status: ('A' for Active; 'I' for Inactive)
ROOT
ATOM      1  C   UNL d   1       1.079   1.896   3.949  0.00  0.00     0.172 C 
ATOM      2  N   UNL d   1       1.452   2.115   2.571  0.00  0.00    -0.070 N 
ATOM      3  C1  UNL d   1       0.590   2.163   1.509  0.00  0.00    -0.004 A 
ATOM      4  C2  UNL d   1       1.334   2.391   0.371  0.00  0.00    -0.047 A 
ATOM      5  C3  UNL d   1       2.690   2.482   0.764  0.00  0.00    -0.047 A 
ATOM      6  C4  UNL d   1       2.735   2.308   2.131  0.00  0.00    -0.004 A 
ENDROOT
TORSDOF 0
ENDMDL
