MODEL 1
REMARK minimizedAffinity 6.42754221
REMARK minimizedRMSD -1
REMARK  0 active torsions:
REMARK  status: ('A' for Active; 'I' for Inactive)
ROOT
ATOM      1  C2' OXE d   1       5.962  -1.576   4.403  0.00  0.00     0.078 C 
ATOM      2  C1' OXE d   1       4.239  -3.641   5.211  0.00  0.00     0.078 C 
ATOM      3  C1  OXE d   1       4.572  -3.535   3.743  0.00  0.00    -0.078 A 
ATOM      4  C2  OXE d   1       5.378  -2.494   3.351  0.00  0.00    -0.078 A 
ATOM      5  C3  OXE d   1       5.760  -2.383   2.017  0.00  0.00     0.003 A 
ATOM      6  C4  OXE d   1       5.208  -3.230   1.048  0.00  0.00    -0.002 A 
ATOM      7  C5  OXE d   1       4.353  -4.272   1.421  0.00  0.00    -0.002 A 
ATOM      8  C6  OXE d   1       4.059  -4.465   2.767  0.00  0.00     0.003 A 
ENDROOT
TORSDOF 0
ENDMDL
