MODEL 1
REMARK minimizedAffinity -4.24985504
REMARK minimizedRMSD -1
REMARK  0 active torsions:
REMARK  status: ('A' for Active; 'I' for Inactive)
ROOT
ATOM      1  C2' OXE d   1      -1.780   1.570  -5.134  0.00  0.00     0.078 C 
ATOM      2  C1' OXE d   1      -2.188   1.971  -2.386  0.00  0.00     0.078 C 
ATOM      3  C1  OXE d   1      -2.646   0.663  -2.982  0.00  0.00    -0.078 A 
ATOM      4  C2  OXE d   1      -2.485   0.495  -4.336  0.00  0.00    -0.078 A 
ATOM      5  C3  OXE d   1      -2.841  -0.714  -4.927  0.00  0.00     0.003 A 
ATOM      6  C4  OXE d   1      -3.502  -1.700  -4.184  0.00  0.00    -0.002 A 
ATOM      7  C5  OXE d   1      -3.711  -1.532  -2.811  0.00  0.00    -0.002 A 
ATOM      8  C6  OXE d   1      -3.253  -0.377  -2.188  0.00  0.00     0.003 A 
ENDROOT
TORSDOF 0
ENDMDL
