MODEL 1
REMARK minimizedAffinity 4.7748456
REMARK minimizedRMSD -1
REMARK  0 active torsions:
REMARK  status: ('A' for Active; 'I' for Inactive)
ROOT
ATOM      1  C2' OXE d   1      -4.349   0.099  -6.000  0.00  0.00     0.078 C 
ATOM      2  C1' OXE d   1      -3.086  -0.959  -3.728  0.00  0.00     0.078 C 
ATOM      3  C1  OXE d   1      -3.294   0.534  -3.786  0.00  0.00    -0.078 A 
ATOM      4  C2  OXE d   1      -3.871   1.048  -4.922  0.00  0.00    -0.078 A 
ATOM      5  C3  OXE d   1      -4.135   2.412  -5.004  0.00  0.00     0.003 A 
ATOM      6  C4  OXE d   1      -3.681   3.283  -4.007  0.00  0.00    -0.002 A 
ATOM      7  C5  OXE d   1      -3.055   2.785  -2.859  0.00  0.00    -0.002 A 
ATOM      8  C6  OXE d   1      -2.893   1.411  -2.714  0.00  0.00     0.003 A 
ENDROOT
TORSDOF 0
ENDMDL
