MODEL 1
REMARK minimizedAffinity 2.7475059
REMARK minimizedRMSD -1
REMARK  0 active torsions:
REMARK  status: ('A' for Active; 'I' for Inactive)
ROOT
ATOM      1  C2' OXE d   1      -2.380  -1.285  -5.478  0.00  0.00     0.078 C 
ATOM      2  C1' OXE d   1      -4.839  -2.265  -4.544  0.00  0.00     0.078 C 
ATOM      3  C1  OXE d   1      -4.746  -0.795  -4.871  0.00  0.00    -0.078 A 
ATOM      4  C2  OXE d   1      -3.526  -0.316  -5.283  0.00  0.00    -0.078 A 
ATOM      5  C3  OXE d   1      -3.399   1.021  -5.650  0.00  0.00     0.003 A 
ATOM      6  C4  OXE d   1      -4.461   1.913  -5.457  0.00  0.00    -0.002 A 
ATOM      7  C5  OXE d   1      -5.700   1.453  -5.001  0.00  0.00    -0.002 A 
ATOM      8  C6  OXE d   1      -5.872   0.097  -4.745  0.00  0.00     0.003 A 
ENDROOT
TORSDOF 0
ENDMDL
