MODEL 1
REMARK minimizedAffinity 1.18969226
REMARK minimizedRMSD -1
REMARK  0 active torsions:
REMARK  status: ('A' for Active; 'I' for Inactive)
ROOT
ATOM      1  C2' OXE d   1      -3.372   1.972  -4.341  0.00  0.00     0.078 C 
ATOM      2  C1' OXE d   1      -3.848   0.485  -2.008  0.00  0.00     0.078 C 
ATOM      3  C1  OXE d   1      -4.016  -0.214  -3.334  0.00  0.00    -0.078 A 
ATOM      4  C2  OXE d   1      -3.826   0.534  -4.471  0.00  0.00    -0.078 A 
ATOM      5  C3  OXE d   1      -3.914  -0.076  -5.720  0.00  0.00     0.003 A 
ATOM      6  C4  OXE d   1      -4.344  -1.403  -5.832  0.00  0.00    -0.002 A 
ATOM      7  C5  OXE d   1      -4.581  -2.172  -4.687  0.00  0.00    -0.002 A 
ATOM      8  C6  OXE d   1      -4.381  -1.605  -3.433  0.00  0.00     0.003 A 
ENDROOT
TORSDOF 0
ENDMDL
