MODEL 1
REMARK minimizedAffinity -4.54085016
REMARK minimizedRMSD -1
REMARK  0 active torsions:
REMARK  status: ('A' for Active; 'I' for Inactive)
ROOT
ATOM      1  C2' OXE d   1      -1.894   1.333  -5.044  0.00  0.00     0.078 C 
ATOM      2  C1' OXE d   1      -1.799  -0.283  -2.751  0.00  0.00     0.078 C 
ATOM      3  C1  OXE d   1      -3.039  -0.349  -3.607  0.00  0.00    -0.078 A 
ATOM      4  C2  OXE d   1      -3.096   0.480  -4.702  0.00  0.00    -0.078 A 
ATOM      5  C3  OXE d   1      -4.193   0.419  -5.556  0.00  0.00     0.003 A 
ATOM      6  C4  OXE d   1      -5.305  -0.366  -5.226  0.00  0.00    -0.002 A 
ATOM      7  C5  OXE d   1      -5.284  -1.188  -4.094  0.00  0.00    -0.002 A 
ATOM      8  C6  OXE d   1      -4.144  -1.223  -3.299  0.00  0.00     0.003 A 
ENDROOT
TORSDOF 0
ENDMDL
