MODEL 1
REMARK minimizedAffinity -0.326964706
REMARK minimizedRMSD -1
REMARK  0 active torsions:
REMARK  status: ('A' for Active; 'I' for Inactive)
ROOT
ATOM      1  C2' OXE d   1      -4.126  -1.690  -2.582  0.00  0.00     0.078 C 
ATOM      2  C1' OXE d   1      -2.459  -1.696  -4.841  0.00  0.00     0.078 C 
ATOM      3  C1  OXE d   1      -3.684  -0.816  -4.873  0.00  0.00    -0.078 A 
ATOM      4  C2  OXE d   1      -4.519  -0.855  -3.781  0.00  0.00    -0.078 A 
ATOM      5  C3  OXE d   1      -5.633  -0.022  -3.736  0.00  0.00     0.003 A 
ATOM      6  C4  OXE d   1      -5.995   0.739  -4.854  0.00  0.00    -0.002 A 
ATOM      7  C5  OXE d   1      -5.181   0.762  -5.991  0.00  0.00    -0.002 A 
ATOM      8  C6  OXE d   1      -4.002   0.025  -6.000  0.00  0.00     0.003 A 
ENDROOT
TORSDOF 0
ENDMDL
