MODEL 1
REMARK minimizedAffinity 1.05478096
REMARK minimizedRMSD -1
REMARK  0 active torsions:
REMARK  status: ('A' for Active; 'I' for Inactive)
ROOT
ATOM      1  C2' OXE d   1      -2.957   1.718  -4.512  0.00  0.00     0.078 C 
ATOM      2  C1' OXE d   1      -1.162   3.282  -6.000  0.00  0.00     0.078 C 
ATOM      3  C1  OXE d   1      -2.492   3.893  -5.635  0.00  0.00    -0.078 A 
ATOM      4  C2  OXE d   1      -3.382   3.104  -4.947  0.00  0.00    -0.078 A 
ATOM      5  C3  OXE d   1      -4.601   3.637  -4.538  0.00  0.00     0.003 A 
ATOM      6  C4  OXE d   1      -4.991   4.916  -4.953  0.00  0.00    -0.002 A 
ATOM      7  C5  OXE d   1      -4.115   5.721  -5.688  0.00  0.00    -0.002 A 
ATOM      8  C6  OXE d   1      -2.848   5.242  -6.000  0.00  0.00     0.003 A 
ENDROOT
TORSDOF 0
ENDMDL
