MODEL 1
REMARK minimizedAffinity 0.43667388
REMARK minimizedRMSD -1
REMARK  0 active torsions:
REMARK  status: ('A' for Active; 'I' for Inactive)
ROOT
ATOM      1  C2' OXE d   1      -1.804  -1.245  -4.555  0.00  0.00     0.078 C 
ATOM      2  C1' OXE d   1      -2.300   1.150  -5.932  0.00  0.00     0.078 C 
ATOM      3  C1  OXE d   1      -3.473   0.451  -5.292  0.00  0.00    -0.078 A 
ATOM      4  C2  OXE d   1      -3.228  -0.744  -4.659  0.00  0.00    -0.078 A 
ATOM      5  C3  OXE d   1      -4.265  -1.403  -4.005  0.00  0.00     0.003 A 
ATOM      6  C4  OXE d   1      -5.582  -0.938  -4.115  0.00  0.00    -0.002 A 
ATOM      7  C5  OXE d   1      -5.859   0.257  -4.788  0.00  0.00    -0.002 A 
ATOM      8  C6  OXE d   1      -4.812   0.984  -5.344  0.00  0.00     0.003 A 
ENDROOT
TORSDOF 0
ENDMDL
