MODEL 1
REMARK minimizedAffinity 10.3114691
REMARK minimizedRMSD -1
REMARK  0 active torsions:
REMARK  status: ('A' for Active; 'I' for Inactive)
ROOT
ATOM      1  C2' OXE d   1      -3.214   3.570  -4.121  0.00  0.00     0.078 C 
ATOM      2  C1' OXE d   1      -5.919   3.605  -4.874  0.00  0.00     0.078 C 
ATOM      3  C1  OXE d   1      -5.132   2.345  -5.135  0.00  0.00    -0.078 A 
ATOM      4  C2  OXE d   1      -3.797   2.353  -4.806  0.00  0.00    -0.078 A 
ATOM      5  C3  OXE d   1      -3.038   1.199  -4.976  0.00  0.00     0.003 A 
ATOM      6  C4  OXE d   1      -3.583   0.081  -5.619  0.00  0.00    -0.002 A 
ATOM      7  C5  OXE d   1      -4.929   0.065  -5.998  0.00  0.00    -0.002 A 
ATOM      8  C6  OXE d   1      -5.727   1.171  -5.725  0.00  0.00     0.003 A 
ENDROOT
TORSDOF 0
ENDMDL
