MODEL 1
REMARK minimizedAffinity 9.8368187
REMARK minimizedRMSD -1
REMARK  0 active torsions:
REMARK  status: ('A' for Active; 'I' for Inactive)
ROOT
ATOM      1  C   UNL d   1       2.680  -3.604   0.001  0.00  0.00     0.077 C 
ATOM      2  C1  UNL d   1       2.444  -2.356  -0.796  0.00  0.00    -0.074 A 
ATOM      3  C2  UNL d   1       2.617  -1.093  -0.222  0.00  0.00    -0.005 A 
ATOM      4  C3  UNL d   1       2.403   0.059  -0.979  0.00  0.00     0.006 A 
ATOM      5  C4  UNL d   1       2.016  -0.041  -2.316  0.00  0.00    -0.005 A 
ATOM      6  C5  UNL d   1       1.839  -1.295  -2.908  0.00  0.00    -0.074 A 
ATOM      7  C6  UNL d   1       1.432  -1.420  -4.346  0.00  0.00     0.077 C 
ATOM      8  C7  UNL d   1       2.062  -2.448  -2.142  0.00  0.00    -0.001 A 
ENDROOT
TORSDOF 0
ENDMDL
