MODEL 1
REMARK minimizedAffinity 5.49528646
REMARK minimizedRMSD -1
REMARK  0 active torsions:
REMARK  status: ('A' for Active; 'I' for Inactive)
ROOT
ATOM      1  C   UNL d   1       4.501  -4.290  -1.039  0.00  0.00     0.077 C 
ATOM      2  C1  UNL d   1       3.308  -3.512  -1.508  0.00  0.00    -0.074 A 
ATOM      3  C2  UNL d   1       2.507  -3.985  -2.553  0.00  0.00    -0.005 A 
ATOM      4  C3  UNL d   1       1.395  -3.255  -2.972  0.00  0.00     0.006 A 
ATOM      5  C4  UNL d   1       1.073  -2.047  -2.352  0.00  0.00    -0.005 A 
ATOM      6  C5  UNL d   1       1.862  -1.559  -1.305  0.00  0.00    -0.074 A 
ATOM      7  C6  UNL d   1       1.524  -0.267  -0.621  0.00  0.00     0.077 C 
ATOM      8  C7  UNL d   1       2.974  -2.302  -0.885  0.00  0.00    -0.001 A 
ENDROOT
TORSDOF 0
ENDMDL
