MODEL 1
REMARK minimizedAffinity 5.62222576
REMARK minimizedRMSD -1
REMARK  0 active torsions:
REMARK  status: ('A' for Active; 'I' for Inactive)
ROOT
ATOM      1  C   UNL d   1       2.035  -0.064  -1.415  0.00  0.00     0.077 C 
ATOM      2  C1  UNL d   1       1.956  -1.560  -1.347  0.00  0.00    -0.074 A 
ATOM      3  C2  UNL d   1       2.912  -2.300  -0.644  0.00  0.00    -0.005 A 
ATOM      4  C3  UNL d   1       2.820  -3.690  -0.583  0.00  0.00     0.006 A 
ATOM      5  C4  UNL d   1       1.773  -4.354  -1.222  0.00  0.00    -0.005 A 
ATOM      6  C5  UNL d   1       0.807  -3.631  -1.930  0.00  0.00    -0.074 A 
ATOM      7  C6  UNL d   1      -0.331  -4.329  -2.615  0.00  0.00     0.077 C 
ATOM      8  C7  UNL d   1       0.902  -2.234  -1.981  0.00  0.00    -0.001 A 
ENDROOT
TORSDOF 0
ENDMDL
