MODEL 1
REMARK minimizedAffinity 10.3815899
REMARK minimizedRMSD -1
REMARK  0 active torsions:
REMARK  status: ('A' for Active; 'I' for Inactive)
ROOT
ATOM      1  C   UNL d   1       1.595  -1.900  -2.648  0.00  0.00     0.077 C 
ATOM      2  C1  UNL d   1       2.449  -2.567  -3.685  0.00  0.00    -0.074 A 
ATOM      3  C2  UNL d   1       2.263  -2.307  -5.046  0.00  0.00    -0.005 A 
ATOM      4  C3  UNL d   1       3.071  -2.928  -5.999  0.00  0.00     0.006 A 
ATOM      5  C4  UNL d   1       4.072  -3.814  -5.600  0.00  0.00    -0.005 A 
ATOM      6  C5  UNL d   1       4.274  -4.087  -4.243  0.00  0.00    -0.074 A 
ATOM      7  C6  UNL d   1       5.351  -5.030  -3.797  0.00  0.00     0.077 C 
ATOM      8  C7  UNL d   1       3.462  -3.453  -3.292  0.00  0.00    -0.001 A 
ENDROOT
TORSDOF 0
ENDMDL
