MODEL 1
REMARK minimizedAffinity 5.45410442
REMARK minimizedRMSD -1
REMARK  0 active torsions:
REMARK  status: ('A' for Active; 'I' for Inactive)
ROOT
ATOM      1  C   UNL d   1       4.534   0.415  -0.091  0.00  0.00     0.077 C 
ATOM      2  C1  UNL d   1       3.506  -0.582  -0.536  0.00  0.00    -0.074 A 
ATOM      3  C2  UNL d   1       2.426  -0.193  -1.334  0.00  0.00    -0.005 A 
ATOM      4  C3  UNL d   1       1.483  -1.133  -1.749  0.00  0.00     0.006 A 
ATOM      5  C4  UNL d   1       1.610  -2.470  -1.370  0.00  0.00    -0.005 A 
ATOM      6  C5  UNL d   1       2.684  -2.878  -0.573  0.00  0.00    -0.074 A 
ATOM      7  C6  UNL d   1       2.841  -4.313  -0.166  0.00  0.00     0.077 C 
ATOM      8  C7  UNL d   1       3.631  -1.929  -0.167  0.00  0.00    -0.001 A 
ENDROOT
TORSDOF 0
ENDMDL
