MODEL 1
REMARK minimizedAffinity 6.22551203
REMARK minimizedRMSD -1
REMARK  0 active torsions:
REMARK  status: ('A' for Active; 'I' for Inactive)
ROOT
ATOM      1  C   UNL d   1       3.814   0.812  -1.332  0.00  0.00     0.077 C 
ATOM      2  C1  UNL d   1       3.381  -0.621  -1.246  0.00  0.00    -0.074 A 
ATOM      3  C2  UNL d   1       4.319  -1.648  -1.097  0.00  0.00    -0.005 A 
ATOM      4  C3  UNL d   1       3.901  -2.975  -1.008  0.00  0.00     0.006 A 
ATOM      5  C4  UNL d   1       2.542  -3.289  -1.068  0.00  0.00    -0.005 A 
ATOM      6  C5  UNL d   1       1.590  -2.276  -1.216  0.00  0.00    -0.074 A 
ATOM      7  C6  UNL d   1       0.125  -2.595  -1.272  0.00  0.00     0.077 C 
ATOM      8  C7  UNL d   1       2.018  -0.944  -1.297  0.00  0.00    -0.001 A 
ENDROOT
TORSDOF 0
ENDMDL
