MODEL 1
REMARK minimizedAffinity 8.36738491
REMARK minimizedRMSD -1
REMARK  0 active torsions:
REMARK  status: ('A' for Active; 'I' for Inactive)
ROOT
ATOM      1  C   UNL d   1       1.869   2.409  -1.039  0.00  0.00     0.077 C 
ATOM      2  C1  UNL d   1       1.921   1.019  -1.598  0.00  0.00    -0.074 A 
ATOM      3  C2  UNL d   1       1.464   0.747  -2.892  0.00  0.00    -0.005 A 
ATOM      4  C3  UNL d   1       1.528  -0.550  -3.402  0.00  0.00     0.006 A 
ATOM      5  C4  UNL d   1       2.050  -1.586  -2.626  0.00  0.00    -0.005 A 
ATOM      6  C5  UNL d   1       2.512  -1.332  -1.331  0.00  0.00    -0.074 A 
ATOM      7  C6  UNL d   1       3.085  -2.432  -0.486  0.00  0.00     0.077 C 
ATOM      8  C7  UNL d   1       2.451  -0.026  -0.827  0.00  0.00    -0.001 A 
ENDROOT
TORSDOF 0
ENDMDL
