MODEL 1
REMARK minimizedAffinity 4.36372471
REMARK minimizedRMSD -1
REMARK  0 active torsions:
REMARK  status: ('A' for Active; 'I' for Inactive)
ROOT
ATOM      1  C   UNL d   1      -0.817  -1.859   1.196  0.00  0.00     0.077 C 
ATOM      2  C1  UNL d   1       0.207  -2.293   0.190  0.00  0.00    -0.074 A 
ATOM      3  C2  UNL d   1       0.167  -1.820  -1.126  0.00  0.00    -0.005 A 
ATOM      4  C3  UNL d   1       1.132  -2.225  -2.048  0.00  0.00     0.006 A 
ATOM      5  C4  UNL d   1       2.144  -3.106  -1.665  0.00  0.00    -0.005 A 
ATOM      6  C5  UNL d   1       2.201  -3.589  -0.354  0.00  0.00    -0.074 A 
ATOM      7  C6  UNL d   1       3.288  -4.528   0.077  0.00  0.00     0.077 C 
ATOM      8  C7  UNL d   1       1.232  -3.171   0.569  0.00  0.00    -0.001 A 
ENDROOT
TORSDOF 0
ENDMDL
