MODEL 1
REMARK minimizedAffinity 9.00223637
REMARK minimizedRMSD -1
REMARK  0 active torsions:
REMARK  status: ('A' for Active; 'I' for Inactive)
ROOT
ATOM      1  C   UNL d   1      -2.277  -5.525   1.504  0.00  0.00     0.077 C 
ATOM      2  C1  UNL d   1      -3.390  -5.697   0.514  0.00  0.00    -0.074 A 
ATOM      3  C2  UNL d   1      -4.714  -5.849   0.940  0.00  0.00    -0.005 A 
ATOM      4  C3  UNL d   1      -5.740  -5.999   0.007  0.00  0.00     0.006 A 
ATOM      5  C4  UNL d   1      -5.454  -5.997  -1.359  0.00  0.00    -0.005 A 
ATOM      6  C5  UNL d   1      -4.137  -5.845  -1.803  0.00  0.00    -0.074 A 
ATOM      7  C6  UNL d   1      -3.813  -5.831  -3.268  0.00  0.00     0.077 C 
ATOM      8  C7  UNL d   1      -3.112  -5.689  -0.860  0.00  0.00    -0.001 A 
ENDROOT
TORSDOF 0
ENDMDL
