MODEL 1
REMARK minimizedAffinity 9.58579445
REMARK minimizedRMSD -1
REMARK  0 active torsions:
REMARK  status: ('A' for Active; 'I' for Inactive)
ROOT
ATOM      1  C   UNL d   1       0.133  -0.324   2.236  0.00  0.00     0.077 C 
ATOM      2  C1  UNL d   1      -1.218   0.225   2.588  0.00  0.00    -0.074 A 
ATOM      3  C2  UNL d   1      -1.344   1.427   3.291  0.00  0.00    -0.005 A 
ATOM      4  C3  UNL d   1      -2.608   1.930   3.603  0.00  0.00     0.006 A 
ATOM      5  C4  UNL d   1      -3.755   1.237   3.215  0.00  0.00    -0.005 A 
ATOM      6  C5  UNL d   1      -3.648   0.034   2.511  0.00  0.00    -0.074 A 
ATOM      7  C6  UNL d   1      -4.871  -0.718   2.078  0.00  0.00     0.077 C 
ATOM      8  C7  UNL d   1      -2.375  -0.461   2.195  0.00  0.00    -0.001 A 
ENDROOT
TORSDOF 0
ENDMDL
