MODEL 1
REMARK minimizedAffinity 12.1669083
REMARK minimizedRMSD -1
REMARK  0 active torsions:
REMARK  status: ('A' for Active; 'I' for Inactive)
ROOT
ATOM      1  C   UNL d   1       2.709  -2.215  -0.313  0.00  0.00     0.077 C 
ATOM      2  C1  UNL d   1       2.309  -1.169  -1.310  0.00  0.00    -0.074 A 
ATOM      3  C2  UNL d   1       1.866  -1.525  -2.588  0.00  0.00    -0.005 A 
ATOM      4  C3  UNL d   1       1.488  -0.541  -3.501  0.00  0.00     0.006 A 
ATOM      5  C4  UNL d   1       1.550   0.808  -3.146  0.00  0.00    -0.005 A 
ATOM      6  C5  UNL d   1       1.989   1.183  -1.873  0.00  0.00    -0.074 A 
ATOM      7  C6  UNL d   1       2.052   2.627  -1.472  0.00  0.00     0.077 C 
ATOM      8  C7  UNL d   1       2.360   0.188  -0.958  0.00  0.00    -0.001 A 
ENDROOT
TORSDOF 0
ENDMDL
