MODEL 1
REMARK minimizedAffinity 5.55886793
REMARK minimizedRMSD -1
REMARK  0 active torsions:
REMARK  status: ('A' for Active; 'I' for Inactive)
ROOT
ATOM      1  C   UNL d   1      -0.973  -5.506  -3.710  0.00  0.00     0.077 C 
ATOM      2  C1  UNL d   1      -2.096  -4.894  -4.493  0.00  0.00    -0.074 A 
ATOM      3  C2  UNL d   1      -2.059  -3.548  -4.871  0.00  0.00    -0.005 A 
ATOM      4  C3  UNL d   1      -3.107  -2.995  -5.607  0.00  0.00     0.006 A 
ATOM      5  C4  UNL d   1      -4.200  -3.781  -5.973  0.00  0.00    -0.005 A 
ATOM      6  C5  UNL d   1      -4.254  -5.129  -5.605  0.00  0.00    -0.074 A 
ATOM      7  C6  UNL d   1      -5.417  -5.990  -5.999  0.00  0.00     0.077 C 
ATOM      8  C7  UNL d   1      -3.195  -5.679  -4.871  0.00  0.00    -0.001 A 
ENDROOT
TORSDOF 0
ENDMDL
