MODEL 1
REMARK minimizedAffinity 6.06745338
REMARK minimizedRMSD -1
REMARK  0 active torsions:
REMARK  status: ('A' for Active; 'I' for Inactive)
ROOT
ATOM      1  C   UNL d   1       1.502   0.267  -4.744  0.00  0.00     0.077 C 
ATOM      2  C1  UNL d   1       1.849   0.180  -3.288  0.00  0.00    -0.074 A 
ATOM      3  C2  UNL d   1       2.254   1.314  -2.576  0.00  0.00    -0.005 A 
ATOM      4  C3  UNL d   1       2.565   1.220  -1.220  0.00  0.00     0.006 A 
ATOM      5  C4  UNL d   1       2.474  -0.008  -0.562  0.00  0.00    -0.005 A 
ATOM      6  C5  UNL d   1       2.070  -1.152  -1.257  0.00  0.00    -0.074 A 
ATOM      7  C6  UNL d   1       1.957  -2.477  -0.562  0.00  0.00     0.077 C 
ATOM      8  C7  UNL d   1       1.753  -1.048  -2.618  0.00  0.00    -0.001 A 
ENDROOT
TORSDOF 0
ENDMDL
