MODEL 1
REMARK minimizedAffinity 5.19759035
REMARK minimizedRMSD -1
REMARK  0 active torsions:
REMARK  status: ('A' for Active; 'I' for Inactive)
ROOT
ATOM      1  C   UNL d   1       2.821  -5.904  -0.393  0.00  0.00     0.077 C 
ATOM      2  C1  UNL d   1       2.539  -4.459  -0.681  0.00  0.00    -0.074 A 
ATOM      3  C2  UNL d   1       3.556  -3.501  -0.616  0.00  0.00    -0.005 A 
ATOM      4  C3  UNL d   1       3.280  -2.163  -0.896  0.00  0.00     0.006 A 
ATOM      5  C4  UNL d   1       1.987  -1.769  -1.243  0.00  0.00    -0.005 A 
ATOM      6  C5  UNL d   1       0.958  -2.713  -1.314  0.00  0.00    -0.074 A 
ATOM      7  C6  UNL d   1      -0.435  -2.308  -1.695  0.00  0.00     0.077 C 
ATOM      8  C7  UNL d   1       1.244  -4.057  -1.038  0.00  0.00    -0.001 A 
ENDROOT
TORSDOF 0
ENDMDL
