MODEL 1
REMARK minimizedAffinity 1.96051204
REMARK minimizedRMSD -1
REMARK  0 active torsions:
REMARK  status: ('A' for Active; 'I' for Inactive)
ROOT
ATOM      1  C   UNL d   1       1.657  -0.800  -4.128  0.00  0.00     0.077 C 
ATOM      2  C1  UNL d   1       1.391  -1.573  -2.871  0.00  0.00    -0.074 A 
ATOM      3  C2  UNL d   1       0.084  -1.877  -2.476  0.00  0.00    -0.005 A 
ATOM      4  C3  UNL d   1      -0.147  -2.605  -1.309  0.00  0.00     0.006 A 
ATOM      5  C4  UNL d   1       0.925  -3.037  -0.527  0.00  0.00    -0.005 A 
ATOM      6  C5  UNL d   1       2.239  -2.743  -0.906  0.00  0.00    -0.074 A 
ATOM      7  C6  UNL d   1       3.402  -3.207  -0.081  0.00  0.00     0.077 C 
ATOM      8  C7  UNL d   1       2.463  -2.017  -2.083  0.00  0.00    -0.001 A 
ENDROOT
TORSDOF 0
ENDMDL
