MODEL 1
REMARK minimizedAffinity 7.92785931
REMARK minimizedRMSD -1
REMARK  0 active torsions:
REMARK  status: ('A' for Active; 'I' for Inactive)
ROOT
ATOM      1  C   UNL d   1      -5.028  -1.821   2.348  0.00  0.00     0.077 C 
ATOM      2  C1  UNL d   1      -4.323  -0.572   2.787  0.00  0.00    -0.074 A 
ATOM      3  C2  UNL d   1      -3.065  -0.239   2.276  0.00  0.00    -0.005 A 
ATOM      4  C3  UNL d   1      -2.426   0.931   2.687  0.00  0.00     0.006 A 
ATOM      5  C4  UNL d   1      -3.037   1.778   3.611  0.00  0.00    -0.005 A 
ATOM      6  C5  UNL d   1      -4.296   1.462   4.133  0.00  0.00    -0.074 A 
ATOM      7  C6  UNL d   1      -4.972   2.367   5.120  0.00  0.00     0.077 C 
ATOM      8  C7  UNL d   1      -4.935   0.288   3.710  0.00  0.00    -0.001 A 
ENDROOT
TORSDOF 0
ENDMDL
