MODEL 1
REMARK minimizedAffinity 7.65535116
REMARK minimizedRMSD -1
REMARK  0 active torsions:
REMARK  status: ('A' for Active; 'I' for Inactive)
ROOT
ATOM      1  C   UNL d   1      -1.556  -3.652  -2.440  0.00  0.00     0.077 C 
ATOM      2  C1  UNL d   1      -0.227  -3.326  -1.825  0.00  0.00    -0.074 A 
ATOM      3  C2  UNL d   1       0.217  -2.003  -1.733  0.00  0.00    -0.005 A 
ATOM      4  C3  UNL d   1       1.450  -1.714  -1.149  0.00  0.00     0.006 A 
ATOM      5  C4  UNL d   1       2.251  -2.743  -0.653  0.00  0.00    -0.005 A 
ATOM      6  C5  UNL d   1       1.823  -4.072  -0.736  0.00  0.00    -0.074 A 
ATOM      7  C6  UNL d   1       2.667  -5.190  -0.199  0.00  0.00     0.077 C 
ATOM      8  C7  UNL d   1       0.579  -4.354  -1.317  0.00  0.00    -0.001 A 
ENDROOT
TORSDOF 0
ENDMDL
