MODEL 1
REMARK minimizedAffinity -6.01632261
REMARK minimizedRMSD -1
REMARK  0 active torsions:
REMARK  status: ('A' for Active; 'I' for Inactive)
ROOT
ATOM      1  C4' PXY d   1       1.469   2.617  -0.556  0.00  0.00     0.077 C 
ATOM      2  C1' PXY d   1       0.240  -2.700   1.348  0.00  0.00     0.077 C 
ATOM      3  C1  PXY d   1       0.573  -1.306   0.856  0.00  0.00    -0.082 A 
ATOM      4  C2  PXY d   1      -0.401  -0.498   0.471  0.00  0.00     0.003 A 
ATOM      5  C3  PXY d   1      -0.115   0.755  -0.007  0.00  0.00     0.003 A 
ATOM      6  C4  PXY d   1       1.178   1.204  -0.043  0.00  0.00    -0.082 A 
ATOM      7  C5  PXY d   1       2.177   0.390   0.358  0.00  0.00     0.003 A 
ATOM      8  C6  PXY d   1       1.869  -0.893   0.801  0.00  0.00     0.003 A 
ENDROOT
TORSDOF 0
ENDMDL
