MODEL 1
REMARK minimizedAffinity -2.31012225
REMARK minimizedRMSD -1
REMARK  0 active torsions:
REMARK  status: ('A' for Active; 'I' for Inactive)
ROOT
ATOM      1  C4' PXY d   1       2.525   1.048   0.823  0.00  0.00     0.077 C 
ATOM      2  C1' PXY d   1      -2.567  -1.236  -0.685  0.00  0.00     0.077 C 
ATOM      3  C1  PXY d   1      -1.234  -0.627  -0.297  0.00  0.00    -0.082 A 
ATOM      4  C2  PXY d   1      -0.257  -1.409   0.134  0.00  0.00     0.003 A 
ATOM      5  C3  PXY d   1       0.944  -0.871   0.519  0.00  0.00     0.003 A 
ATOM      6  C4  PXY d   1       1.166   0.476   0.412  0.00  0.00    -0.082 A 
ATOM      7  C5  PXY d   1       0.178   1.279  -0.037  0.00  0.00     0.003 A 
ATOM      8  C6  PXY d   1      -1.048   0.719  -0.384  0.00  0.00     0.003 A 
ENDROOT
TORSDOF 0
ENDMDL
