MODEL 1
REMARK minimizedAffinity -1.32319915
REMARK minimizedRMSD -1
REMARK  0 active torsions:
REMARK  status: ('A' for Active; 'I' for Inactive)
ROOT
ATOM      1  C4' PXY d   1      -2.010   0.057  -1.983  0.00  0.00     0.077 C 
ATOM      2  C1' PXY d   1       2.297   1.170   1.710  0.00  0.00     0.077 C 
ATOM      3  C1  PXY d   1       1.168   0.865   0.745  0.00  0.00    -0.082 A 
ATOM      4  C2  PXY d   1       0.967   1.655  -0.297  0.00  0.00     0.003 A 
ATOM      5  C3  PXY d   1      -0.070   1.413  -1.162  0.00  0.00     0.003 A 
ATOM      6  C4  PXY d   1      -0.876   0.320  -0.988  0.00  0.00    -0.082 A 
ATOM      7  C5  PXY d   1      -0.671  -0.497   0.067  0.00  0.00     0.003 A 
ATOM      8  C6  PXY d   1       0.361  -0.210   0.956  0.00  0.00     0.003 A 
ENDROOT
TORSDOF 0
ENDMDL
