MODEL 1
REMARK minimizedAffinity -1.28774369
REMARK minimizedRMSD -1
REMARK  0 active torsions:
REMARK  status: ('A' for Active; 'I' for Inactive)
ROOT
ATOM      1  C4' PXY d   1      -1.946   0.422  -2.450  0.00  0.00     0.077 C 
ATOM      2  C1' PXY d   1       2.214   0.614   1.559  0.00  0.00     0.077 C 
ATOM      3  C1  PXY d   1       1.119   0.552   0.512  0.00  0.00    -0.082 A 
ATOM      4  C2  PXY d   1       1.236   1.261  -0.599  0.00  0.00     0.003 A 
ATOM      5  C3  PXY d   1       0.241   1.242  -1.542  0.00  0.00     0.003 A 
ATOM      6  C4  PXY d   1      -0.861   0.447  -1.370  0.00  0.00    -0.082 A 
ATOM      7  C5  PXY d   1      -0.982  -0.287  -0.244  0.00  0.00     0.003 A 
ATOM      8  C6  PXY d   1       0.020  -0.222   0.720  0.00  0.00     0.003 A 
ENDROOT
TORSDOF 0
ENDMDL
