MODEL 1
REMARK minimizedAffinity -5.12530565
REMARK minimizedRMSD -1
REMARK  0 active torsions:
REMARK  status: ('A' for Active; 'I' for Inactive)
ROOT
ATOM      1  C4' PXY d   1      -1.416  -0.119  -0.225  0.00  0.00     0.077 C 
ATOM      2  C1' PXY d   1       3.952  -1.056   1.703  0.00  0.00     0.077 C 
ATOM      3  C1  PXY d   1       2.545  -0.798   1.200  0.00  0.00    -0.082 A 
ATOM      4  C2  PXY d   1       1.654  -1.775   1.219  0.00  0.00     0.003 A 
ATOM      5  C3  PXY d   1       0.387  -1.568   0.738  0.00  0.00     0.003 A 
ATOM      6  C4  PXY d   1       0.013  -0.332   0.282  0.00  0.00    -0.082 A 
ATOM      7  C5  PXY d   1       0.914   0.673   0.269  0.00  0.00     0.003 A 
ATOM      8  C6  PXY d   1       2.207   0.431   0.723  0.00  0.00     0.003 A 
ENDROOT
TORSDOF 0
ENDMDL
