MODEL 1
REMARK minimizedAffinity -3.35131955
REMARK minimizedRMSD -1
REMARK  0 active torsions:
REMARK  status: ('A' for Active; 'I' for Inactive)
ROOT
ATOM      1  C4' PXY d   1      -1.825  -0.015  -0.933  0.00  0.00     0.077 C 
ATOM      2  C1' PXY d   1       2.883  -0.786   2.333  0.00  0.00     0.077 C 
ATOM      3  C1  PXY d   1       1.646  -0.597   1.477  0.00  0.00    -0.082 A 
ATOM      4  C2  PXY d   1       1.570   0.439   0.657  0.00  0.00     0.003 A 
ATOM      5  C3  PXY d   1       0.445   0.643  -0.100  0.00  0.00     0.003 A 
ATOM      6  C4  PXY d   1      -0.591  -0.251  -0.057  0.00  0.00    -0.082 A 
ATOM      7  C5  PXY d   1      -0.517  -1.316   0.769  0.00  0.00     0.003 A 
ATOM      8  C6  PXY d   1       0.616  -1.483   1.560  0.00  0.00     0.003 A 
ENDROOT
TORSDOF 0
ENDMDL
