MODEL 1
REMARK minimizedAffinity 10.2022648
REMARK minimizedRMSD -1
REMARK  0 active torsions:
REMARK  status: ('A' for Active; 'I' for Inactive)
ROOT
ATOM      1  C4' PXY d   1      -3.432  -1.078   3.741  0.00  0.00     0.077 C 
ATOM      2  C1' PXY d   1      -1.099   0.776  -1.213  0.00  0.00     0.077 C 
ATOM      3  C1  PXY d   1      -1.700   0.294   0.093  0.00  0.00    -0.082 A 
ATOM      4  C2  PXY d   1      -2.631  -0.646   0.076  0.00  0.00     0.003 A 
ATOM      5  C3  PXY d   1      -3.208  -1.071   1.245  0.00  0.00     0.003 A 
ATOM      6  C4  PXY d   1      -2.790  -0.567   2.448  0.00  0.00    -0.082 A 
ATOM      7  C5  PXY d   1      -1.832   0.384   2.474  0.00  0.00     0.003 A 
ATOM      8  C6  PXY d   1      -1.288   0.832   1.273  0.00  0.00     0.003 A 
ENDROOT
TORSDOF 0
ENDMDL
