MODEL 1
REMARK minimizedAffinity 6.44507647
REMARK minimizedRMSD -1
REMARK  0 active torsions:
REMARK  status: ('A' for Active; 'I' for Inactive)
ROOT
ATOM      1  C4' PXY d   1       1.805  -0.367   0.791  0.00  0.00     0.077 C 
ATOM      2  C1' PXY d   1      -3.764   0.586  -0.431  0.00  0.00     0.077 C 
ATOM      3  C1  PXY d   1      -2.303   0.347  -0.103  0.00  0.00    -0.082 A 
ATOM      4  C2  PXY d   1      -1.554  -0.361  -0.933  0.00  0.00     0.003 A 
ATOM      5  C3  PXY d   1      -0.239  -0.613  -0.636  0.00  0.00     0.003 A 
ATOM      6  C4  PXY d   1       0.328  -0.092   0.496  0.00  0.00    -0.082 A 
ATOM      7  C5  PXY d   1      -0.427   0.640   1.342  0.00  0.00     0.003 A 
ATOM      8  C6  PXY d   1      -1.770   0.851   1.043  0.00  0.00     0.003 A 
ENDROOT
TORSDOF 0
ENDMDL
