MODEL 1
REMARK minimizedAffinity 5.42166996
REMARK minimizedRMSD -1
REMARK  0 active torsions:
REMARK  status: ('A' for Active; 'I' for Inactive)
ROOT
ATOM      1  C4' PXY d   1      -2.627   1.557  -0.510  0.00  0.00     0.077 C 
ATOM      2  C1' PXY d   1      -0.353  -0.919   4.193  0.00  0.00     0.077 C 
ATOM      3  C1  PXY d   1      -0.937  -0.264   2.957  0.00  0.00    -0.082 A 
ATOM      4  C2  PXY d   1      -2.239  -0.033   2.893  0.00  0.00     0.003 A 
ATOM      5  C3  PXY d   1      -2.789   0.529   1.769  0.00  0.00     0.003 A 
ATOM      6  C4  PXY d   1      -1.991   0.907   0.722  0.00  0.00    -0.082 A 
ATOM      7  C5  PXY d   1      -0.661   0.685   0.785  0.00  0.00     0.003 A 
ATOM      8  C6  PXY d   1      -0.128   0.075   1.917  0.00  0.00     0.003 A 
ENDROOT
TORSDOF 0
ENDMDL
