MODEL 1
REMARK minimizedAffinity -0.0303075202
REMARK minimizedRMSD -1
REMARK  0 active torsions:
REMARK  status: ('A' for Active; 'I' for Inactive)
ROOT
ATOM      1  C4' PXY d   1      -1.121  -3.375   6.000  0.00  0.00     0.077 C 
ATOM      2  C1' PXY d   1      -1.514   0.784   2.004  0.00  0.00     0.077 C 
ATOM      3  C1  PXY d   1      -1.399  -0.310   3.048  0.00  0.00    -0.082 A 
ATOM      4  C2  PXY d   1      -2.495  -0.878   3.523  0.00  0.00     0.003 A 
ATOM      5  C3  PXY d   1      -2.410  -1.846   4.491  0.00  0.00     0.003 A 
ATOM      6  C4  PXY d   1      -1.189  -2.274   4.938  0.00  0.00    -0.082 A 
ATOM      7  C5  PXY d   1      -0.066  -1.706   4.451  0.00  0.00     0.003 A 
ATOM      8  C6  PXY d   1      -0.175  -0.696   3.499  0.00  0.00     0.003 A 
ENDROOT
TORSDOF 0
ENDMDL
