MODEL 1
REMARK minimizedAffinity -1.58094168
REMARK minimizedRMSD -1
REMARK  0 active torsions:
REMARK  status: ('A' for Active; 'I' for Inactive)
ROOT
ATOM      1  C4' PXY d   1       1.559  -0.200   1.871  0.00  0.00     0.077 C 
ATOM      2  C1' PXY d   1      -3.731  -0.823   4.116  0.00  0.00     0.077 C 
ATOM      3  C1  PXY d   1      -2.339  -0.663   3.539  0.00  0.00    -0.082 A 
ATOM      4  C2  PXY d   1      -2.160   0.078   2.457  0.00  0.00     0.003 A 
ATOM      5  C3  PXY d   1      -0.913   0.208   1.904  0.00  0.00     0.003 A 
ATOM      6  C4  PXY d   1       0.172  -0.383   2.494  0.00  0.00    -0.082 A 
ATOM      7  C5  PXY d   1       0.000  -1.131   3.604  0.00  0.00     0.003 A 
ATOM      8  C6  PXY d   1      -1.281  -1.285   4.127  0.00  0.00     0.003 A 
ENDROOT
TORSDOF 0
ENDMDL
