MODEL 1
REMARK minimizedAffinity 0.646299958
REMARK minimizedRMSD -1
REMARK  0 active torsions:
REMARK  status: ('A' for Active; 'I' for Inactive)
ROOT
ATOM      1  C4' PXY d   1       0.377  -1.133   4.506  0.00  0.00     0.077 C 
ATOM      2  C1' PXY d   1      -1.499   0.362  -0.753  0.00  0.00     0.077 C 
ATOM      3  C1  PXY d   1      -1.017  -0.024   0.631  0.00  0.00    -0.082 A 
ATOM      4  C2  PXY d   1       0.269  -0.256   0.835  0.00  0.00     0.003 A 
ATOM      5  C3  PXY d   1       0.717  -0.638   2.074  0.00  0.00     0.003 A 
ATOM      6  C4  PXY d   1      -0.153  -0.731   3.127  0.00  0.00    -0.082 A 
ATOM      7  C5  PXY d   1      -1.466  -0.485   2.929  0.00  0.00     0.003 A 
ATOM      8  C6  PXY d   1      -1.906  -0.140   1.655  0.00  0.00     0.003 A 
ENDROOT
TORSDOF 0
ENDMDL
