MODEL 1
REMARK minimizedAffinity -1.39923298
REMARK minimizedRMSD -1
REMARK  0 active torsions:
REMARK  status: ('A' for Active; 'I' for Inactive)
ROOT
ATOM      1  C4' PXY d   1      -2.675   0.542  -0.178  0.00  0.00     0.077 C 
ATOM      2  C1' PXY d   1       0.846  -0.866   4.185  0.00  0.00     0.077 C 
ATOM      3  C1  PXY d   1      -0.067  -0.492   3.034  0.00  0.00    -0.082 A 
ATOM      4  C2  PXY d   1      -1.354  -0.286   3.261  0.00  0.00     0.003 A 
ATOM      5  C3  PXY d   1      -2.200   0.021   2.226  0.00  0.00     0.003 A 
ATOM      6  C4  PXY d   1      -1.714   0.172   0.955  0.00  0.00    -0.082 A 
ATOM      7  C5  PXY d   1      -0.400  -0.026   0.718  0.00  0.00     0.003 A 
ATOM      8  C6  PXY d   1       0.435  -0.378   1.774  0.00  0.00     0.003 A 
ENDROOT
TORSDOF 0
ENDMDL
