MODEL 1
REMARK minimizedAffinity 4.08518648
REMARK minimizedRMSD -1
REMARK  0 active torsions:
REMARK  status: ('A' for Active; 'I' for Inactive)
ROOT
ATOM      1  C4' PXY d   1       0.580  -0.728   4.366  0.00  0.00     0.077 C 
ATOM      2  C1' PXY d   1      -2.464   1.021  -0.227  0.00  0.00     0.077 C 
ATOM      3  C1  PXY d   1      -1.658   0.555   0.970  0.00  0.00    -0.082 A 
ATOM      4  C2  PXY d   1      -2.208   0.566   2.173  0.00  0.00     0.003 A 
ATOM      5  C3  PXY d   1      -1.483   0.178   3.271  0.00  0.00     0.003 A 
ATOM      6  C4  PXY d   1      -0.199  -0.275   3.128  0.00  0.00    -0.082 A 
ATOM      7  C5  PXY d   1       0.366  -0.299   1.902  0.00  0.00     0.003 A 
ATOM      8  C6  PXY d   1      -0.373   0.137   0.806  0.00  0.00     0.003 A 
ENDROOT
TORSDOF 0
ENDMDL
