MODEL 1
REMARK minimizedAffinity 2.75501871
REMARK minimizedRMSD -1
REMARK  0 active torsions:
REMARK  status: ('A' for Active; 'I' for Inactive)
ROOT
ATOM      1  C4' PXY d   1       1.878  -1.023   3.160  0.00  0.00     0.077 C 
ATOM      2  C1' PXY d   1      -2.502   0.323  -0.364  0.00  0.00     0.077 C 
ATOM      3  C1  PXY d   1      -1.346  -0.033   0.550  0.00  0.00    -0.082 A 
ATOM      4  C2  PXY d   1      -1.586  -0.366   1.808  0.00  0.00     0.003 A 
ATOM      5  C3  PXY d   1      -0.549  -0.660   2.657  0.00  0.00     0.003 A 
ATOM      6  C4  PXY d   1       0.741  -0.665   2.199  0.00  0.00    -0.082 A 
ATOM      7  C5  PXY d   1       0.992  -0.337   0.914  0.00  0.00     0.003 A 
ATOM      8  C6  PXY d   1      -0.070  -0.002   0.079  0.00  0.00     0.003 A 
ENDROOT
TORSDOF 0
ENDMDL
