MODEL 1
REMARK minimizedAffinity 2.50533938
REMARK minimizedRMSD -1
REMARK  0 active torsions:
REMARK  status: ('A' for Active; 'I' for Inactive)
ROOT
ATOM      1  C4' PXY d   1      -1.468   0.725  -0.499  0.00  0.00     0.077 C 
ATOM      2  C1' PXY d   1       0.033  -0.875   4.849  0.00  0.00     0.077 C 
ATOM      3  C1  PXY d   1      -0.348  -0.452   3.444  0.00  0.00    -0.082 A 
ATOM      4  C2  PXY d   1      -1.599  -0.112   3.181  0.00  0.00     0.003 A 
ATOM      5  C3  PXY d   1      -1.968   0.242   1.908  0.00  0.00     0.003 A 
ATOM      6  C4  PXY d   1      -1.036   0.301   0.907  0.00  0.00    -0.082 A 
ATOM      7  C5  PXY d   1       0.245  -0.034   1.171  0.00  0.00     0.003 A 
ATOM      8  C6  PXY d   1       0.591  -0.430   2.460  0.00  0.00     0.003 A 
ENDROOT
TORSDOF 0
ENDMDL
