MODEL 1
REMARK minimizedAffinity -2.04198718
REMARK minimizedRMSD -1
REMARK  0 active torsions:
REMARK  status: ('A' for Active; 'I' for Inactive)
ROOT
ATOM      1  C1  BNZ d   1      -5.321  -5.999  -3.697  0.00  0.00     0.000 A 
ATOM      2  C2  BNZ d   1      -5.304  -4.885  -2.902  0.00  0.00     0.000 A 
ATOM      3  C3  BNZ d   1      -5.657  -3.663  -3.402  0.00  0.00     0.000 A 
ATOM      4  C4  BNZ d   1      -5.987  -3.550  -4.705  0.00  0.00     0.000 A 
ATOM      5  C5  BNZ d   1      -6.000  -4.662  -5.522  0.00  0.00     0.000 A 
ATOM      6  C6  BNZ d   1      -5.682  -5.898  -5.005  0.00  0.00     0.000 A 
ENDROOT
TORSDOF 0
ENDMDL
