MODEL 1
REMARK minimizedAffinity 3.028162
REMARK minimizedRMSD -1
REMARK  0 active torsions:
REMARK  status: ('A' for Active; 'I' for Inactive)
ROOT
ATOM      1  C1  BNZ d   1      -5.231  -3.713  -3.052  0.00  0.00     0.000 A 
ATOM      2  C2  BNZ d   1      -4.592  -4.852  -2.639  0.00  0.00     0.000 A 
ATOM      3  C3  BNZ d   1      -4.630  -5.989  -3.397  0.00  0.00     0.000 A 
ATOM      4  C4  BNZ d   1      -5.338  -5.999  -4.544  0.00  0.00     0.000 A 
ATOM      5  C5  BNZ d   1      -5.996  -4.862  -4.969  0.00  0.00     0.000 A 
ATOM      6  C6  BNZ d   1      -5.924  -3.707  -4.224  0.00  0.00     0.000 A 
ENDROOT
TORSDOF 0
ENDMDL
