MODEL 1
REMARK minimizedAffinity -1.03978431
REMARK minimizedRMSD -1
REMARK  0 active torsions:
REMARK  status: ('A' for Active; 'I' for Inactive)
ROOT
ATOM      1  C1  BNZ d   1      -5.970  -3.964  -6.000  0.00  0.00     0.000 A 
ATOM      2  C2  BNZ d   1      -5.861  -5.329  -5.970  0.00  0.00     0.000 A 
ATOM      3  C3  BNZ d   1      -5.788  -6.000  -4.781  0.00  0.00     0.000 A 
ATOM      4  C4  BNZ d   1      -5.785  -5.303  -3.626  0.00  0.00     0.000 A 
ATOM      5  C5  BNZ d   1      -5.886  -3.926  -3.640  0.00  0.00     0.000 A 
ATOM      6  C6  BNZ d   1      -5.998  -3.258  -4.837  0.00  0.00     0.000 A 
ENDROOT
TORSDOF 0
ENDMDL
