MODEL 1
REMARK minimizedAffinity -2.82877278
REMARK minimizedRMSD -1
REMARK  0 active torsions:
REMARK  status: ('A' for Active; 'I' for Inactive)
ROOT
ATOM      1  C1  BNZ d   1      -5.613  -3.905  -3.553  0.00  0.00     0.000 A 
ATOM      2  C2  BNZ d   1      -4.873  -4.949  -3.064  0.00  0.00     0.000 A 
ATOM      3  C3  BNZ d   1      -4.506  -5.987  -3.873  0.00  0.00     0.000 A 
ATOM      4  C4  BNZ d   1      -4.911  -6.000  -5.160  0.00  0.00     0.000 A 
ATOM      5  C5  BNZ d   1      -5.665  -4.959  -5.666  0.00  0.00     0.000 A 
ATOM      6  C6  BNZ d   1      -6.000  -3.897  -4.858  0.00  0.00     0.000 A 
ENDROOT
TORSDOF 0
ENDMDL
