MODEL 1
REMARK minimizedAffinity -2.83492589
REMARK minimizedRMSD -1
REMARK  0 active torsions:
REMARK  status: ('A' for Active; 'I' for Inactive)
ROOT
ATOM      1  C1  BNZ d   1      -4.956  -4.825  -3.472  0.00  0.00     0.000 A 
ATOM      2  C2  BNZ d   1      -5.402  -5.989  -4.041  0.00  0.00     0.000 A 
ATOM      3  C3  BNZ d   1      -5.905  -5.998  -5.312  0.00  0.00     0.000 A 
ATOM      4  C4  BNZ d   1      -5.999  -4.840  -5.997  0.00  0.00     0.000 A 
ATOM      5  C5  BNZ d   1      -5.563  -3.657  -5.433  0.00  0.00     0.000 A 
ATOM      6  C6  BNZ d   1      -5.021  -3.658  -4.169  0.00  0.00     0.000 A 
ENDROOT
TORSDOF 0
ENDMDL
