MODEL 1
REMARK minimizedAffinity -0.0709135681
REMARK minimizedRMSD -1
REMARK  0 active torsions:
REMARK  status: ('A' for Active; 'I' for Inactive)
ROOT
ATOM      1  C1  BNZ d   1      -3.495  -0.218   3.126  0.00  0.00     0.000 A 
ATOM      2  C2  BNZ d   1      -4.469  -0.191   4.088  0.00  0.00     0.000 A 
ATOM      3  C3  BNZ d   1      -5.705  -0.723   3.848  0.00  0.00     0.000 A 
ATOM      4  C4  BNZ d   1      -5.978  -1.244   2.635  0.00  0.00     0.000 A 
ATOM      5  C5  BNZ d   1      -5.010  -1.270   1.651  0.00  0.00     0.000 A 
ATOM      6  C6  BNZ d   1      -3.755  -0.768   1.909  0.00  0.00     0.000 A 
ENDROOT
TORSDOF 0
ENDMDL
