MODEL 1
REMARK minimizedAffinity 5.19989824
REMARK minimizedRMSD -1
REMARK  0 active torsions:
REMARK  status: ('A' for Active; 'I' for Inactive)
ROOT
ATOM      1  C1  BNZ d   1      -5.999  -1.856   3.148  0.00  0.00     0.000 A 
ATOM      2  C2  BNZ d   1      -5.038  -1.416   4.020  0.00  0.00     0.000 A 
ATOM      3  C3  BNZ d   1      -4.001  -0.639   3.584  0.00  0.00     0.000 A 
ATOM      4  C4  BNZ d   1      -3.904  -0.337   2.273  0.00  0.00     0.000 A 
ATOM      5  C5  BNZ d   1      -4.859  -0.781   1.381  0.00  0.00     0.000 A 
ATOM      6  C6  BNZ d   1      -5.923  -1.530   1.829  0.00  0.00     0.000 A 
ENDROOT
TORSDOF 0
ENDMDL
