MODEL 1
REMARK minimizedAffinity -1.192554
REMARK minimizedRMSD -1
REMARK  0 active torsions:
REMARK  status: ('A' for Active; 'I' for Inactive)
ROOT
ATOM      1  C1  BNZ d   1      -6.000  -3.865  -5.867  0.00  0.00     0.000 A 
ATOM      2  C2  BNZ d   1      -5.567  -3.290  -4.701  0.00  0.00     0.000 A 
ATOM      3  C3  BNZ d   1      -5.121  -4.061  -3.664  0.00  0.00     0.000 A 
ATOM      4  C4  BNZ d   1      -5.146  -5.404  -3.778  0.00  0.00     0.000 A 
ATOM      5  C5  BNZ d   1      -5.588  -5.999  -4.943  0.00  0.00     0.000 A 
ATOM      6  C6  BNZ d   1      -5.999  -5.219  -5.999  0.00  0.00     0.000 A 
ENDROOT
TORSDOF 0
ENDMDL
