MODEL 1
REMARK minimizedAffinity -0.759876668
REMARK minimizedRMSD -1
REMARK  0 active torsions:
REMARK  status: ('A' for Active; 'I' for Inactive)
ROOT
ATOM      1  C1  BNZ d   1      -5.997  -4.007  -5.993  0.00  0.00     0.000 A 
ATOM      2  C2  BNZ d   1      -6.000  -5.373  -5.897  0.00  0.00     0.000 A 
ATOM      3  C3  BNZ d   1      -5.595  -5.995  -4.749  0.00  0.00     0.000 A 
ATOM      4  C4  BNZ d   1      -5.150  -5.252  -3.714  0.00  0.00     0.000 A 
ATOM      5  C5  BNZ d   1      -5.132  -3.874  -3.800  0.00  0.00     0.000 A 
ATOM      6  C6  BNZ d   1      -5.577  -3.251  -4.942  0.00  0.00     0.000 A 
ENDROOT
TORSDOF 0
ENDMDL
