MODEL 1
REMARK minimizedAffinity -2.65315509
REMARK minimizedRMSD -1
REMARK  0 active torsions:
REMARK  status: ('A' for Active; 'I' for Inactive)
ROOT
ATOM      1  C1  BNZ d   1      -4.962  -4.875  -2.885  0.00  0.00     0.000 A 
ATOM      2  C2  BNZ d   1      -4.865  -6.000  -3.659  0.00  0.00     0.000 A 
ATOM      3  C3  BNZ d   1      -5.309  -6.000  -4.952  0.00  0.00     0.000 A 
ATOM      4  C4  BNZ d   1      -5.886  -4.890  -5.455  0.00  0.00     0.000 A 
ATOM      5  C5  BNZ d   1      -6.000  -3.750  -4.684  0.00  0.00     0.000 A 
ATOM      6  C6  BNZ d   1      -5.517  -3.742  -3.395  0.00  0.00     0.000 A 
ENDROOT
TORSDOF 0
ENDMDL
