MODEL 1
REMARK minimizedAffinity -0.360408664
REMARK minimizedRMSD -1
REMARK  0 active torsions:
REMARK  status: ('A' for Active; 'I' for Inactive)
ROOT
ATOM      1  C1  BNZ d   1       2.597  -0.169  -1.783  0.00  0.00     0.000 A 
ATOM      2  C2  BNZ d   1       2.476  -1.051  -0.742  0.00  0.00     0.000 A 
ATOM      3  C3  BNZ d   1       1.930  -2.289  -0.934  0.00  0.00     0.000 A 
ATOM      4  C4  BNZ d   1       1.470  -2.629  -2.155  0.00  0.00     0.000 A 
ATOM      5  C5  BNZ d   1       1.576  -1.748  -3.212  0.00  0.00     0.000 A 
ATOM      6  C6  BNZ d   1       2.161  -0.517  -3.024  0.00  0.00     0.000 A 
ENDROOT
TORSDOF 0
ENDMDL
