MODEL 1
REMARK minimizedAffinity -2.10908389
REMARK minimizedRMSD -1
REMARK  0 active torsions:
REMARK  status: ('A' for Active; 'I' for Inactive)
ROOT
ATOM      1  C1  BNZ d   1      -5.093  -3.891  -3.809  0.00  0.00     0.000 A 
ATOM      2  C2  BNZ d   1      -5.096  -5.259  -3.759  0.00  0.00     0.000 A 
ATOM      3  C3  BNZ d   1      -5.524  -5.998  -4.827  0.00  0.00     0.000 A 
ATOM      4  C4  BNZ d   1      -5.985  -5.368  -5.926  0.00  0.00     0.000 A 
ATOM      5  C5  BNZ d   1      -5.998  -3.989  -5.989  0.00  0.00     0.000 A 
ATOM      6  C6  BNZ d   1      -5.530  -3.249  -4.927  0.00  0.00     0.000 A 
ENDROOT
TORSDOF 0
ENDMDL
