MODEL 1
REMARK minimizedAffinity 1.95492899
REMARK minimizedRMSD -1
REMARK  0 active torsions:
REMARK  status: ('A' for Active; 'I' for Inactive)
ROOT
ATOM      1  C1  BNZ d   1      -5.192  -3.311  -4.479  0.00  0.00     0.000 A 
ATOM      2  C2  BNZ d   1      -5.904  -4.231  -5.202  0.00  0.00     0.000 A 
ATOM      3  C3  BNZ d   1      -5.834  -5.563  -4.902  0.00  0.00     0.000 A 
ATOM      4  C4  BNZ d   1      -5.022  -5.977  -3.908  0.00  0.00     0.000 A 
ATOM      5  C5  BNZ d   1      -4.291  -5.063  -3.176  0.00  0.00     0.000 A 
ATOM      6  C6  BNZ d   1      -4.394  -3.720  -3.455  0.00  0.00     0.000 A 
ENDROOT
TORSDOF 0
ENDMDL
