MODEL 1
REMARK minimizedAffinity -1.59220874
REMARK minimizedRMSD -1
REMARK  0 active torsions:
REMARK  status: ('A' for Active; 'I' for Inactive)
ROOT
ATOM      1  C1  BNZ d   1      -5.990  -4.399  -3.736  0.00  0.00     0.000 A 
ATOM      2  C2  BNZ d   1      -5.981  -5.547  -2.989  0.00  0.00     0.000 A 
ATOM      3  C3  BNZ d   1      -4.826  -6.000  -2.416  0.00  0.00     0.000 A 
ATOM      4  C4  BNZ d   1      -3.675  -5.328  -2.623  0.00  0.00     0.000 A 
ATOM      5  C5  BNZ d   1      -3.666  -4.174  -3.381  0.00  0.00     0.000 A 
ATOM      6  C6  BNZ d   1      -4.838  -3.700  -3.925  0.00  0.00     0.000 A 
ENDROOT
TORSDOF 0
ENDMDL
