MODEL 1
REMARK minimizedAffinity 3.94358015
REMARK minimizedRMSD -1
REMARK  0 active torsions:
REMARK  status: ('A' for Active; 'I' for Inactive)
ROOT
ATOM      1  C1  BNZ d   1      -5.487  -3.265  -3.382  0.00  0.00     0.000 A 
ATOM      2  C2  BNZ d   1      -4.945  -3.944  -2.323  0.00  0.00     0.000 A 
ATOM      3  C3  BNZ d   1      -4.902  -5.310  -2.317  0.00  0.00     0.000 A 
ATOM      4  C4  BNZ d   1      -5.434  -5.995  -3.349  0.00  0.00     0.000 A 
ATOM      5  C5  BNZ d   1      -5.992  -5.325  -4.419  0.00  0.00     0.000 A 
ATOM      6  C6  BNZ d   1      -5.999  -3.949  -4.441  0.00  0.00     0.000 A 
ENDROOT
TORSDOF 0
ENDMDL
