MODEL 1
REMARK minimizedAffinity 1.10406017
REMARK minimizedRMSD -1
REMARK  0 active torsions:
REMARK  status: ('A' for Active; 'I' for Inactive)
ROOT
ATOM      1  C1  BNZ d   1      -6.000  -4.829  -5.518  0.00  0.00     0.000 A 
ATOM      2  C2  BNZ d   1      -5.553  -5.989  -4.942  0.00  0.00     0.000 A 
ATOM      3  C3  BNZ d   1      -5.094  -6.000  -3.655  0.00  0.00     0.000 A 
ATOM      4  C4  BNZ d   1      -5.045  -4.846  -2.958  0.00  0.00     0.000 A 
ATOM      5  C5  BNZ d   1      -5.483  -3.667  -3.528  0.00  0.00     0.000 A 
ATOM      6  C6  BNZ d   1      -5.981  -3.667  -4.811  0.00  0.00     0.000 A 
ENDROOT
TORSDOF 0
ENDMDL
