MODEL 1
REMARK minimizedAffinity 0.185955256
REMARK minimizedRMSD -1
REMARK  0 active torsions:
REMARK  status: ('A' for Active; 'I' for Inactive)
ROOT
ATOM      1  C1  BNZ d   1      -5.634  -3.375  -4.756  0.00  0.00     0.000 A 
ATOM      2  C2  BNZ d   1      -5.229  -3.696  -3.487  0.00  0.00     0.000 A 
ATOM      3  C3  BNZ d   1      -5.174  -4.999  -3.079  0.00  0.00     0.000 A 
ATOM      4  C4  BNZ d   1      -5.560  -5.976  -3.925  0.00  0.00     0.000 A 
ATOM      5  C5  BNZ d   1      -5.980  -5.668  -5.204  0.00  0.00     0.000 A 
ATOM      6  C6  BNZ d   1      -5.997  -4.358  -5.624  0.00  0.00     0.000 A 
ENDROOT
TORSDOF 0
ENDMDL
