MODEL 1
REMARK minimizedAffinity 11.0313587
REMARK minimizedRMSD -1
REMARK  1 active torsions:
REMARK  status: ('A' for Active; 'I' for Inactive)
REMARK    1  A    between atoms: C1_2  and  C2_3 
ROOT
ATOM      1  C2  UNL d   1      -5.619   4.819   3.345  0.00  0.00    -0.081 A 
ATOM      2  C3  UNL d   1      -4.838   3.678   3.129  0.00  0.00     0.006 A 
ATOM      3  C4  UNL d   1      -4.436   3.328   1.838  0.00  0.00     0.002 A 
ATOM      4  C5  UNL d   1      -4.802   4.118   0.743  0.00  0.00    -0.080 A 
ATOM      5  C6  UNL d   1      -4.352   3.771  -0.645  0.00  0.00     0.076 C 
ATOM      6  C7  UNL d   1      -5.597   5.249   0.956  0.00  0.00     0.002 A 
ATOM      7  C8  UNL d   1      -6.000   5.599   2.247  0.00  0.00     0.006 A 
ENDROOT
BRANCH   1   8
ATOM      8  C1  UNL d   1      -6.000   5.235   4.743  0.00  0.00     0.054 C 
ATOM      9  C   UNL d   1      -4.865   5.985   5.426  0.00  0.00     0.018 C 
ENDBRANCH   1   8
TORSDOF 1
ENDMDL
