MODEL 1
REMARK minimizedAffinity 13.6393499
REMARK minimizedRMSD -1
REMARK  1 active torsions:
REMARK  status: ('A' for Active; 'I' for Inactive)
REMARK    1  A    between atoms: C1_2  and  C2_3 
ROOT
ATOM      1  C2  UNL d   1       3.438   1.350   1.096  0.00  0.00    -0.081 A 
ATOM      2  C3  UNL d   1       3.127   0.073   1.580  0.00  0.00     0.006 A 
ATOM      3  C4  UNL d   1       2.514  -0.869   0.751  0.00  0.00     0.002 A 
ATOM      4  C5  UNL d   1       2.208  -0.552  -0.578  0.00  0.00    -0.080 A 
ATOM      5  C6  UNL d   1       1.577  -1.564  -1.487  0.00  0.00     0.076 C 
ATOM      6  C7  UNL d   1       2.503   0.729  -1.056  0.00  0.00     0.002 A 
ATOM      7  C8  UNL d   1       3.116   1.671  -0.227  0.00  0.00     0.006 A 
ENDROOT
BRANCH   1   8
ATOM      8  C1  UNL d   1       4.159   2.345   1.969  0.00  0.00     0.054 C 
ATOM      9  C   UNL d   1       3.340   3.616   2.151  0.00  0.00     0.018 C 
ENDBRANCH   1   8
TORSDOF 1
ENDMDL
