MODEL 1
REMARK minimizedAffinity 10.7645855
REMARK minimizedRMSD -1
REMARK  1 active torsions:
REMARK  status: ('A' for Active; 'I' for Inactive)
REMARK    1  A    between atoms: C1_2  and  C2_3 
ROOT
ATOM      1  C2  UNL d   1       2.511  -0.711  -1.310  0.00  0.00    -0.081 A 
ATOM      2  C3  UNL d   1       2.710   0.599  -1.761  0.00  0.00     0.006 A 
ATOM      3  C4  UNL d   1       3.130   1.596  -0.877  0.00  0.00     0.002 A 
ATOM      4  C5  UNL d   1       3.365   1.298   0.469  0.00  0.00    -0.080 A 
ATOM      5  C6  UNL d   1       3.845   2.353   1.422  0.00  0.00     0.076 C 
ATOM      6  C7  UNL d   1       3.150  -0.007   0.924  0.00  0.00     0.002 A 
ATOM      7  C8  UNL d   1       2.729  -1.004   0.041  0.00  0.00     0.006 A 
ENDROOT
BRANCH   1   8
ATOM      8  C1  UNL d   1       2.121  -1.803  -2.274  0.00  0.00     0.054 C 
ATOM      9  C   UNL d   1       1.993  -3.145  -1.567  0.00  0.00     0.018 C 
ENDBRANCH   1   8
TORSDOF 1
ENDMDL
