MODEL 1
REMARK minimizedAffinity 8.45352554
REMARK minimizedRMSD -1
REMARK  1 active torsions:
REMARK  status: ('A' for Active; 'I' for Inactive)
REMARK    1  A    between atoms: C1_2  and  C2_3 
ROOT
ATOM      1  C2  UNL d   1       3.406   1.015   0.825  0.00  0.00    -0.081 A 
ATOM      2  C3  UNL d   1       3.215  -0.175   1.538  0.00  0.00     0.006 A 
ATOM      3  C4  UNL d   1       2.637  -1.286   0.921  0.00  0.00     0.002 A 
ATOM      4  C5  UNL d   1       2.248  -1.229  -0.422  0.00  0.00    -0.080 A 
ATOM      5  C6  UNL d   1       1.654  -2.425  -1.105  0.00  0.00     0.076 C 
ATOM      6  C7  UNL d   1       2.422  -0.036  -1.130  0.00  0.00     0.002 A 
ATOM      7  C8  UNL d   1       2.999   1.076  -0.512  0.00  0.00     0.006 A 
ENDROOT
BRANCH   1   8
ATOM      8  C1  UNL d   1       4.088   2.195   1.469  0.00  0.00     0.054 C 
ATOM      9  C   UNL d   1       3.279   2.729   2.643  0.00  0.00     0.018 C 
ENDBRANCH   1   8
TORSDOF 1
ENDMDL
