MODEL 1
REMARK minimizedAffinity 9.40228558
REMARK minimizedRMSD -1
REMARK  1 active torsions:
REMARK  status: ('A' for Active; 'I' for Inactive)
REMARK    1  A    between atoms: C1_2  and  C2_3 
ROOT
ATOM      1  C2  UNL d   1      -5.318   0.746  -3.107  0.00  0.00    -0.081 A 
ATOM      2  C3  UNL d   1      -4.976  -0.457  -2.476  0.00  0.00     0.006 A 
ATOM      3  C4  UNL d   1      -4.411  -0.451  -1.199  0.00  0.00     0.002 A 
ATOM      4  C5  UNL d   1      -4.186   0.755  -0.528  0.00  0.00    -0.080 A 
ATOM      5  C6  UNL d   1      -3.608   0.773   0.856  0.00  0.00     0.076 C 
ATOM      6  C7  UNL d   1      -4.511   1.958  -1.164  0.00  0.00     0.002 A 
ATOM      7  C8  UNL d   1      -5.075   1.953  -2.442  0.00  0.00     0.006 A 
ENDROOT
BRANCH   1   8
ATOM      8  C1  UNL d   1      -5.986   0.740  -4.458  0.00  0.00     0.054 C 
ATOM      9  C   UNL d   1      -5.549   1.933  -5.296  0.00  0.00     0.018 C 
ENDBRANCH   1   8
TORSDOF 1
ENDMDL
