MODEL 1
REMARK minimizedAffinity 8.57259846
REMARK minimizedRMSD -1
REMARK  1 active torsions:
REMARK  status: ('A' for Active; 'I' for Inactive)
REMARK    1  A    between atoms: C1_2  and  C2_3 
ROOT
ATOM      1  C2  UNL d   1       1.176   0.701  -0.854  0.00  0.00    -0.081 A 
ATOM      2  C3  UNL d   1       2.379   0.445  -1.522  0.00  0.00     0.006 A 
ATOM      3  C4  UNL d   1       3.488  -0.039  -0.824  0.00  0.00     0.002 A 
ATOM      4  C5  UNL d   1       3.411  -0.282   0.551  0.00  0.00    -0.080 A 
ATOM      5  C6  UNL d   1       4.584  -0.830   1.307  0.00  0.00     0.076 C 
ATOM      6  C7  UNL d   1       2.214  -0.009   1.223  0.00  0.00     0.002 A 
ATOM      7  C8  UNL d   1       1.105   0.475   0.525  0.00  0.00     0.006 A 
ENDROOT
BRANCH   1   8
ATOM      8  C1  UNL d   1      -0.041   1.161  -1.615  0.00  0.00     0.054 C 
ATOM      9  C   UNL d   1      -1.205   0.198  -1.433  0.00  0.00     0.018 C 
ENDBRANCH   1   8
TORSDOF 1
ENDMDL
