MODEL 1
REMARK minimizedAffinity 23.2030678
REMARK minimizedRMSD -1
REMARK  3 active torsions:
REMARK  status: ('A' for Active; 'I' for Inactive)
REMARK    1  A    between atoms: C3'_2  and  C2'_3 
REMARK    2  A    between atoms: C2'_3  and  C1'_4 
REMARK    3  A    between atoms: C1'_4  and  C1_5 
ROOT
ATOM      1  C1  N4B d   1       0.150   1.655   3.816  0.00  0.00    -0.075 A 
ATOM      2  C2  N4B d   1      -0.896   2.604   3.797  0.00  0.00     0.002 A 
ATOM      3  C3  N4B d   1      -1.102   3.420   4.882  0.00  0.00     0.002 A 
ATOM      4  C4  N4B d   1      -0.290   3.293   6.000  0.00  0.00    -0.004 A 
ATOM      5  C5  N4B d   1       0.733   2.391   6.000  0.00  0.00     0.002 A 
ATOM      6  C6  N4B d   1       0.955   1.567   4.915  0.00  0.00     0.002 A 
ENDROOT
BRANCH   1   7
ATOM      7  C1' N4B d   1       0.360   0.683   2.687  0.00  0.00     0.057 C 
BRANCH   7   8
ATOM      8  C2' N4B d   1       1.521  -0.244   3.035  0.00  0.00     0.009 C 
BRANCH   8   9
ATOM      9  C3' N4B d   1       1.046  -1.529   3.690  0.00  0.00     0.004 C 
ATOM     10  C4' N4B d   1       1.853  -1.897   4.899  0.00  0.00     0.003 C 
ENDBRANCH   8   9
ENDBRANCH   7   8
ENDBRANCH   1   7
TORSDOF 3
ENDMDL
