MODEL 1
REMARK minimizedAffinity 10.7813892
REMARK minimizedRMSD -1
REMARK  3 active torsions:
REMARK  status: ('A' for Active; 'I' for Inactive)
REMARK    1  A    between atoms: C3'_2  and  C2'_3 
REMARK    2  A    between atoms: C2'_3  and  C1'_4 
REMARK    3  A    between atoms: C1'_4  and  C1_5 
ROOT
ATOM      1  C1  N4B d   1       2.135   0.292   3.547  0.00  0.00    -0.075 A 
ATOM      2  C2  N4B d   1       2.474   0.189   4.914  0.00  0.00     0.002 A 
ATOM      3  C3  N4B d   1       3.684   0.662   5.359  0.00  0.00     0.002 A 
ATOM      4  C4  N4B d   1       4.576   1.223   4.456  0.00  0.00    -0.004 A 
ATOM      5  C5  N4B d   1       4.230   1.341   3.141  0.00  0.00     0.002 A 
ATOM      6  C6  N4B d   1       3.016   0.874   2.681  0.00  0.00     0.002 A 
ENDROOT
BRANCH   1   7
ATOM      7  C1' N4B d   1       0.860  -0.288   2.999  0.00  0.00     0.057 C 
BRANCH   7   8
ATOM      8  C2' N4B d   1       0.084   0.805   2.271  0.00  0.00     0.009 C 
BRANCH   8   9
ATOM      9  C3' N4B d   1      -0.666   1.708   3.235  0.00  0.00     0.004 C 
ATOM     10  C4' N4B d   1      -1.682   2.572   2.550  0.00  0.00     0.003 C 
ENDBRANCH   8   9
ENDBRANCH   7   8
ENDBRANCH   1   7
TORSDOF 3
ENDMDL
