MODEL 1
REMARK minimizedAffinity 12.0967245
REMARK minimizedRMSD -1
REMARK  3 active torsions:
REMARK  status: ('A' for Active; 'I' for Inactive)
REMARK    1  A    between atoms: C3'_2  and  C2'_3 
REMARK    2  A    between atoms: C2'_3  and  C1'_4 
REMARK    3  A    between atoms: C1'_4  and  C1_5 
ROOT
ATOM      1  C1  N4B d   1       0.770  -1.621   3.864  0.00  0.00    -0.075 A 
ATOM      2  C2  N4B d   1       0.028  -1.478   2.671  0.00  0.00     0.002 A 
ATOM      3  C3  N4B d   1      -0.317  -0.227   2.223  0.00  0.00     0.002 A 
ATOM      4  C4  N4B d   1       0.051   0.891   2.958  0.00  0.00    -0.004 A 
ATOM      5  C5  N4B d   1       0.790   0.745   4.095  0.00  0.00     0.002 A 
ATOM      6  C6  N4B d   1       1.147  -0.506   4.555  0.00  0.00     0.002 A 
ENDROOT
BRANCH   1   7
ATOM      7  C1' N4B d   1       1.097  -2.972   4.439  0.00  0.00     0.057 C 
BRANCH   7   8
ATOM      8  C2' N4B d   1       1.599  -2.800   5.869  0.00  0.00     0.009 C 
BRANCH   8   9
ATOM      9  C3' N4B d   1       3.073  -3.144   6.000  0.00  0.00     0.004 C 
ATOM     10  C4' N4B d   1       3.326  -4.622   5.999  0.00  0.00     0.003 C 
ENDBRANCH   8   9
ENDBRANCH   7   8
ENDBRANCH   1   7
TORSDOF 3
ENDMDL
