MODEL 1
REMARK minimizedAffinity 20.2446003
REMARK minimizedRMSD -1
REMARK  3 active torsions:
REMARK  status: ('A' for Active; 'I' for Inactive)
REMARK    1  A    between atoms: C3'_2  and  C2'_3 
REMARK    2  A    between atoms: C2'_3  and  C1'_4 
REMARK    3  A    between atoms: C1'_4  and  C1_5 
ROOT
ATOM      1  C1  N4B d   1       0.734  -2.219  -4.563  0.00  0.00    -0.075 A 
ATOM      2  C2  N4B d   1       2.093  -2.587  -4.462  0.00  0.00     0.002 A 
ATOM      3  C3  N4B d   1       2.556  -3.694  -5.130  0.00  0.00     0.002 A 
ATOM      4  C4  N4B d   1       1.678  -4.456  -5.886  0.00  0.00    -0.004 A 
ATOM      5  C5  N4B d   1       0.372  -4.079  -5.999  0.00  0.00     0.002 A 
ATOM      6  C6  N4B d   1      -0.106  -2.966  -5.337  0.00  0.00     0.002 A 
ENDROOT
BRANCH   1   7
ATOM      7  C1' N4B d   1       0.163  -1.066  -3.783  0.00  0.00     0.057 C 
BRANCH   7   8
ATOM      8  C2' N4B d   1      -1.143  -1.504  -3.126  0.00  0.00     0.009 C 
BRANCH   8   9
ATOM      9  C3' N4B d   1      -0.904  -2.245  -1.822  0.00  0.00     0.004 C 
ATOM     10  C4' N4B d   1      -2.098  -2.227  -0.916  0.00  0.00     0.003 C 
ENDBRANCH   8   9
ENDBRANCH   7   8
ENDBRANCH   1   7
TORSDOF 3
ENDMDL
