MODEL 1
REMARK minimizedAffinity 18.3388844
REMARK minimizedRMSD -1
REMARK  3 active torsions:
REMARK  status: ('A' for Active; 'I' for Inactive)
REMARK    1  A    between atoms: C3'_2  and  C2'_3 
REMARK    2  A    between atoms: C2'_3  and  C1'_4 
REMARK    3  A    between atoms: C1'_4  and  C1_5 
ROOT
ATOM      1  C1  N4B d   1      -0.098  -0.979   1.517  0.00  0.00    -0.075 A 
ATOM      2  C2  N4B d   1      -0.296   0.380   1.847  0.00  0.00     0.002 A 
ATOM      3  C3  N4B d   1       0.448   0.959   2.845  0.00  0.00     0.002 A 
ATOM      4  C4  N4B d   1       1.379   0.199   3.536  0.00  0.00    -0.004 A 
ATOM      5  C5  N4B d   1       1.583  -1.106   3.194  0.00  0.00     0.002 A 
ATOM      6  C6  N4B d   1       0.845  -1.701   2.191  0.00  0.00     0.002 A 
ENDROOT
BRANCH   1   7
ATOM      7  C1' N4B d   1      -0.947  -1.680   0.492  0.00  0.00     0.057 C 
BRANCH   7   8
ATOM      8  C2' N4B d   1      -0.086  -2.032  -0.717  0.00  0.00     0.009 C 
BRANCH   8   9
ATOM      9  C3' N4B d   1      -0.908  -2.138  -1.989  0.00  0.00     0.004 C 
ATOM     10  C4' N4B d   1      -0.338  -1.331  -3.118  0.00  0.00     0.003 C 
ENDBRANCH   8   9
ENDBRANCH   7   8
ENDBRANCH   1   7
TORSDOF 3
ENDMDL
