MODEL 1
REMARK minimizedAffinity 19.39114
REMARK minimizedRMSD -1
REMARK  3 active torsions:
REMARK  status: ('A' for Active; 'I' for Inactive)
REMARK    1  A    between atoms: C3'_2  and  C2'_3 
REMARK    2  A    between atoms: C2'_3  and  C1'_4 
REMARK    3  A    between atoms: C1'_4  and  C1_5 
ROOT
ATOM      1  C1  N4B d   1      -4.301   1.099   0.240  0.00  0.00    -0.075 A 
ATOM      2  C2  N4B d   1      -3.870  -0.246   0.258  0.00  0.00     0.002 A 
ATOM      3  C3  N4B d   1      -2.992  -0.672   1.224  0.00  0.00     0.002 A 
ATOM      4  C4  N4B d   1      -2.519   0.228   2.167  0.00  0.00    -0.004 A 
ATOM      5  C5  N4B d   1      -2.959   1.519   2.157  0.00  0.00     0.002 A 
ATOM      6  C6  N4B d   1      -3.845   1.961   1.195  0.00  0.00     0.002 A 
ENDROOT
BRANCH   1   7
ATOM      7  C1' N4B d   1      -5.192   1.633  -0.848  0.00  0.00     0.057 C 
BRANCH   7   8
ATOM      8  C2' N4B d   1      -4.892   3.113  -1.061  0.00  0.00     0.009 C 
BRANCH   8   9
ATOM      9  C3' N4B d   1      -5.963   3.796  -1.894  0.00  0.00     0.004 C 
ATOM     10  C4' N4B d   1      -5.994   5.282  -1.694  0.00  0.00     0.003 C 
ENDBRANCH   8   9
ENDBRANCH   7   8
ENDBRANCH   1   7
TORSDOF 3
ENDMDL
