MODEL 1
REMARK minimizedAffinity -4.30800581
REMARK minimizedRMSD -1
REMARK  0 active torsions:
REMARK  status: ('A' for Active; 'I' for Inactive)
ROOT
ATOM      1  C   UNL d   1      -2.949  -2.449   0.300  0.00  0.00    -0.002 A 
ATOM      2  C1  UNL d   1      -1.974  -2.789   1.228  0.00  0.00     0.010 A 
ATOM      3  C2  UNL d   1      -0.753  -2.114   1.254  0.00  0.00     0.041 A 
ATOM      4  C3  UNL d   1      -0.525  -1.080   0.325  0.00  0.00    -0.075 A 
ATOM      5  S   UNL d   1       0.895  -0.114   0.171  0.00  0.00     0.015 SA
ATOM      6  C4  UNL d   1       0.242   0.773  -1.129  0.00  0.00     0.022 A 
ATOM      7  C5  UNL d   1      -1.028   0.356  -1.451  0.00  0.00     0.026 A 
ATOM      8  C6  UNL d   1      -1.491  -0.718  -0.618  0.00  0.00    -0.082 A 
ATOM      9  C7  UNL d   1      -2.719  -1.422  -0.620  0.00  0.00     0.045 A 
ENDROOT
TORSDOF 0
ENDMDL
