MODEL 1
REMARK minimizedAffinity 0.220487908
REMARK minimizedRMSD -1
REMARK  0 active torsions:
REMARK  status: ('A' for Active; 'I' for Inactive)
ROOT
ATOM      1  C   UNL d   1      -3.183  -2.279  -1.050  0.00  0.00    -0.002 A 
ATOM      2  C1  UNL d   1      -2.590  -3.083  -0.088  0.00  0.00     0.010 A 
ATOM      3  C2  UNL d   1      -1.360  -2.731   0.473  0.00  0.00     0.041 A 
ATOM      4  C3  UNL d   1      -0.732  -1.545   0.047  0.00  0.00    -0.075 A 
ATOM      5  S   UNL d   1       0.776  -0.913   0.594  0.00  0.00     0.015 SA
ATOM      6  C4  UNL d   1       0.669   0.440  -0.436  0.00  0.00     0.022 A 
ATOM      7  C5  UNL d   1      -0.483   0.426  -1.187  0.00  0.00     0.026 A 
ATOM      8  C6  UNL d   1      -1.309  -0.718  -0.920  0.00  0.00    -0.082 A 
ATOM      9  C7  UNL d   1      -2.556  -1.102  -1.470  0.00  0.00     0.045 A 
ENDROOT
TORSDOF 0
ENDMDL
