MODEL 1
REMARK minimizedAffinity -3.84154272
REMARK minimizedRMSD -1
REMARK  0 active torsions:
REMARK  status: ('A' for Active; 'I' for Inactive)
ROOT
ATOM      1  C   UNL d   1      -2.308  -0.180  -1.395  0.00  0.00    -0.002 A 
ATOM      2  C1  UNL d   1      -2.381  -1.341  -0.638  0.00  0.00     0.010 A 
ATOM      3  C2  UNL d   1      -1.287  -1.765   0.119  0.00  0.00     0.041 A 
ATOM      4  C3  UNL d   1      -0.108  -0.995   0.104  0.00  0.00    -0.075 A 
ATOM      5  S   UNL d   1       1.356  -1.319   0.953  0.00  0.00     0.015 SA
ATOM      6  C4  UNL d   1       2.113   0.076   0.332  0.00  0.00     0.022 A 
ATOM      7  C5  UNL d   1       1.283   0.783  -0.505  0.00  0.00     0.026 A 
ATOM      8  C6  UNL d   1      -0.011   0.178  -0.650  0.00  0.00    -0.082 A 
ATOM      9  C7  UNL d   1      -1.137   0.581  -1.408  0.00  0.00     0.045 A 
ENDROOT
TORSDOF 0
ENDMDL
