MODEL 1
REMARK minimizedAffinity -3.34124875
REMARK minimizedRMSD -1
REMARK  0 active torsions:
REMARK  status: ('A' for Active; 'I' for Inactive)
ROOT
ATOM      1  C   UNL d   1      -2.055  -2.934   0.842  0.00  0.00    -0.002 A 
ATOM      2  C1  UNL d   1      -0.873  -2.795   1.556  0.00  0.00     0.010 A 
ATOM      3  C2  UNL d   1      -0.013  -1.725   1.303  0.00  0.00     0.041 A 
ATOM      4  C3  UNL d   1      -0.364  -0.787   0.312  0.00  0.00    -0.075 A 
ATOM      5  S   UNL d   1       0.535   0.603  -0.169  0.00  0.00     0.015 SA
ATOM      6  C4  UNL d   1      -0.629   1.045  -1.333  0.00  0.00     0.022 A 
ATOM      7  C5  UNL d   1      -1.684   0.165  -1.367  0.00  0.00     0.026 A 
ATOM      8  C6  UNL d   1      -1.549  -0.906  -0.420  0.00  0.00    -0.082 A 
ATOM      9  C7  UNL d   1      -2.400  -2.002  -0.140  0.00  0.00     0.045 A 
ENDROOT
TORSDOF 0
ENDMDL
