MODEL 1
REMARK minimizedAffinity -2.01290154
REMARK minimizedRMSD -1
REMARK  0 active torsions:
REMARK  status: ('A' for Active; 'I' for Inactive)
ROOT
ATOM      1  C   UNL d   1      -2.169  -0.045  -1.504  0.00  0.00    -0.002 A 
ATOM      2  C1  UNL d   1      -2.231  -1.282  -0.878  0.00  0.00     0.010 A 
ATOM      3  C2  UNL d   1      -1.204  -1.701  -0.029  0.00  0.00     0.041 A 
ATOM      4  C3  UNL d   1      -0.105  -0.846   0.185  0.00  0.00    -0.075 A 
ATOM      5  S   UNL d   1       1.267  -1.147   1.183  0.00  0.00     0.015 SA
ATOM      6  C4  UNL d   1       1.967   0.360   0.804  0.00  0.00     0.022 A 
ATOM      7  C5  UNL d   1       1.186   1.088  -0.062  0.00  0.00     0.026 A 
ATOM      8  C6  UNL d   1      -0.021   0.405  -0.433  0.00  0.00    -0.082 A 
ATOM      9  C7  UNL d   1      -1.077   0.800  -1.289  0.00  0.00     0.045 A 
ENDROOT
TORSDOF 0
ENDMDL
