MODEL 1
REMARK minimizedAffinity -3.41166162
REMARK minimizedRMSD -1
REMARK  0 active torsions:
REMARK  status: ('A' for Active; 'I' for Inactive)
ROOT
ATOM      1  C   UNL d   1      -1.565   0.109  -1.832  0.00  0.00    -0.002 A 
ATOM      2  C1  UNL d   1      -0.441   0.567  -1.160  0.00  0.00     0.010 A 
ATOM      3  C2  UNL d   1       0.063  -0.130  -0.061  0.00  0.00     0.041 A 
ATOM      4  C3  UNL d   1      -0.587  -1.309   0.355  0.00  0.00    -0.075 A 
ATOM      5  S   UNL d   1      -0.147  -2.328   1.674  0.00  0.00     0.015 SA
ATOM      6  C4  UNL d   1      -1.441  -3.397   1.376  0.00  0.00     0.022 A 
ATOM      7  C5  UNL d   1      -2.200  -3.001   0.300  0.00  0.00     0.026 A 
ATOM      8  C6  UNL d   1      -1.720  -1.791  -0.306  0.00  0.00    -0.082 A 
ATOM      9  C7  UNL d   1      -2.207  -1.061  -1.417  0.00  0.00     0.045 A 
ENDROOT
TORSDOF 0
ENDMDL
