MODEL 1
REMARK minimizedAffinity -0.450351626
REMARK minimizedRMSD -1
REMARK  0 active torsions:
REMARK  status: ('A' for Active; 'I' for Inactive)
ROOT
ATOM      1  C   UNL d   1       3.381   3.152   0.677  0.00  0.00    -0.002 A 
ATOM      2  C1  UNL d   1       2.405   3.664   1.520  0.00  0.00     0.010 A 
ATOM      3  C2  UNL d   1       1.204   2.980   1.714  0.00  0.00     0.041 A 
ATOM      4  C3  UNL d   1       0.998   1.760   1.040  0.00  0.00    -0.075 A 
ATOM      5  S   UNL d   1      -0.395   0.747   1.125  0.00  0.00     0.015 SA
ATOM      6  C4  UNL d   1       0.273  -0.389   0.044  0.00  0.00     0.022 A 
ATOM      7  C5  UNL d   1       1.527  -0.020  -0.381  0.00  0.00     0.026 A 
ATOM      8  C6  UNL d   1       1.966   1.224   0.186  0.00  0.00    -0.082 A 
ATOM      9  C7  UNL d   1       3.173   1.942   0.010  0.00  0.00     0.045 A 
ENDROOT
TORSDOF 0
ENDMDL
