MODEL 1
REMARK minimizedAffinity -2.21321344
REMARK minimizedRMSD -1
REMARK  0 active torsions:
REMARK  status: ('A' for Active; 'I' for Inactive)
ROOT
ATOM      1  C   UNL d   1       0.782  -0.776   1.496  0.00  0.00    -0.002 A 
ATOM      2  C1  UNL d   1       0.962   0.048   0.394  0.00  0.00     0.010 A 
ATOM      3  C2  UNL d   1      -0.045   0.184  -0.563  0.00  0.00     0.041 A 
ATOM      4  C3  UNL d   1      -1.249  -0.528  -0.392  0.00  0.00    -0.075 A 
ATOM      5  S   UNL d   1      -2.621  -0.515  -1.435  0.00  0.00     0.015 SA
ATOM      6  C4  UNL d   1      -3.479  -1.603  -0.442  0.00  0.00     0.022 A 
ATOM      7  C5  UNL d   1      -2.751  -1.977   0.662  0.00  0.00     0.026 A 
ATOM      8  C6  UNL d   1      -1.454  -1.363   0.710  0.00  0.00    -0.082 A 
ATOM      9  C7  UNL d   1      -0.413  -1.481   1.662  0.00  0.00     0.045 A 
ENDROOT
TORSDOF 0
ENDMDL
