MODEL 1
REMARK minimizedAffinity 9.90233135
REMARK minimizedRMSD -1
REMARK  0 active torsions:
REMARK  status: ('A' for Active; 'I' for Inactive)
ROOT
ATOM      1  C   UNL d   1      -2.282  -3.777   1.806  0.00  0.00    -0.002 A 
ATOM      2  C1  UNL d   1      -0.905  -3.633   1.908  0.00  0.00     0.010 A 
ATOM      3  C2  UNL d   1      -0.239  -2.642   1.184  0.00  0.00     0.041 A 
ATOM      4  C3  UNL d   1      -0.988  -1.788   0.350  0.00  0.00    -0.075 A 
ATOM      5  S   UNL d   1      -0.387  -0.502  -0.628  0.00  0.00     0.015 SA
ATOM      6  C4  UNL d   1      -1.943  -0.113  -1.204  0.00  0.00     0.022 A 
ATOM      7  C5  UNL d   1      -2.909  -0.934  -0.673  0.00  0.00     0.026 A 
ATOM      8  C6  UNL d   1      -2.375  -1.913   0.232  0.00  0.00    -0.082 A 
ATOM      9  C7  UNL d   1      -3.021  -2.928   0.978  0.00  0.00     0.045 A 
ENDROOT
TORSDOF 0
ENDMDL
