MODEL 1
REMARK minimizedAffinity -4.42683268
REMARK minimizedRMSD -1
REMARK  0 active torsions:
REMARK  status: ('A' for Active; 'I' for Inactive)
ROOT
ATOM      1  C   UNL d   1      -3.744  -1.519  -0.326  0.00  0.00    -0.002 A 
ATOM      2  C1  UNL d   1      -3.255  -0.494  -1.124  0.00  0.00     0.010 A 
ATOM      3  C2  UNL d   1      -1.910  -0.124  -1.060  0.00  0.00     0.041 A 
ATOM      4  C3  UNL d   1      -1.056  -0.809  -0.173  0.00  0.00    -0.075 A 
ATOM      5  S   UNL d   1       0.627  -0.528   0.074  0.00  0.00     0.015 SA
ATOM      6  C4  UNL d   1       0.737  -1.763   1.243  0.00  0.00     0.022 A 
ATOM      7  C5  UNL d   1      -0.472  -2.385   1.453  0.00  0.00     0.026 A 
ATOM      8  C6  UNL d   1      -1.525  -1.845   0.639  0.00  0.00    -0.082 A 
ATOM      9  C7  UNL d   1      -2.894  -2.196   0.552  0.00  0.00     0.045 A 
ENDROOT
TORSDOF 0
ENDMDL
