MODEL 1
REMARK minimizedAffinity -1.60362875
REMARK minimizedRMSD -1
REMARK  0 active torsions:
REMARK  status: ('A' for Active; 'I' for Inactive)
ROOT
ATOM      1  C   UNL d   1      -2.664  -2.744  -0.331  0.00  0.00    -0.002 A 
ATOM      2  C1  UNL d   1      -1.909  -3.316   0.683  0.00  0.00     0.010 A 
ATOM      3  C2  UNL d   1      -0.777  -2.666   1.179  0.00  0.00     0.041 A 
ATOM      4  C3  UNL d   1      -0.415  -1.419   0.635  0.00  0.00    -0.075 A 
ATOM      5  S   UNL d   1       0.930  -0.439   1.086  0.00  0.00     0.015 SA
ATOM      6  C4  UNL d   1       0.534   0.762  -0.056  0.00  0.00     0.022 A 
ATOM      7  C5  UNL d   1      -0.594   0.440  -0.773  0.00  0.00     0.026 A 
ATOM      8  C6  UNL d   1      -1.160  -0.822  -0.386  0.00  0.00    -0.082 A 
ATOM      9  C7  UNL d   1      -2.302  -1.506  -0.868  0.00  0.00     0.045 A 
ENDROOT
TORSDOF 0
ENDMDL
