MODEL 1
REMARK minimizedAffinity -0.834597766
REMARK minimizedRMSD -1
REMARK  0 active torsions:
REMARK  status: ('A' for Active; 'I' for Inactive)
ROOT
ATOM      1  C   UNL d   1      -2.827  -2.232  -0.307  0.00  0.00    -0.002 A 
ATOM      2  C1  UNL d   1      -2.233  -2.937   0.730  0.00  0.00     0.010 A 
ATOM      3  C2  UNL d   1      -1.039  -2.491   1.300  0.00  0.00     0.041 A 
ATOM      4  C3  UNL d   1      -0.447  -1.312   0.806  0.00  0.00    -0.075 A 
ATOM      5  S   UNL d   1       1.014  -0.576   1.351  0.00  0.00     0.015 SA
ATOM      6  C4  UNL d   1       0.885   0.692   0.219  0.00  0.00     0.022 A 
ATOM      7  C5  UNL d   1      -0.240   0.573  -0.563  0.00  0.00     0.026 A 
ATOM      8  C6  UNL d   1      -1.026  -0.584  -0.237  0.00  0.00    -0.082 A 
ATOM      9  C7  UNL d   1      -2.236  -1.063  -0.794  0.00  0.00     0.045 A 
ENDROOT
TORSDOF 0
ENDMDL
