MODEL 1
REMARK minimizedAffinity 0.233221382
REMARK minimizedRMSD -1
REMARK  0 active torsions:
REMARK  status: ('A' for Active; 'I' for Inactive)
ROOT
ATOM      1  C   UNL d   1       2.657   3.610   0.327  0.00  0.00    -0.002 A 
ATOM      2  C1  UNL d   1       3.526   3.017   1.231  0.00  0.00     0.010 A 
ATOM      3  C2  UNL d   1       3.406   1.662   1.548  0.00  0.00     0.041 A 
ATOM      4  C3  UNL d   1       2.388   0.907   0.933  0.00  0.00    -0.075 A 
ATOM      5  S   UNL d   1       2.052  -0.768   1.167  0.00  0.00     0.015 SA
ATOM      6  C4  UNL d   1       0.747  -0.735   0.072  0.00  0.00     0.022 A 
ATOM      7  C5  UNL d   1       0.558   0.515  -0.469  0.00  0.00     0.026 A 
ATOM      8  C6  UNL d   1       1.502   1.482   0.019  0.00  0.00    -0.082 A 
ATOM      9  C7  UNL d   1       1.649   2.857  -0.281  0.00  0.00     0.045 A 
ENDROOT
TORSDOF 0
ENDMDL
