MODEL 1
REMARK minimizedAffinity -2.81171632
REMARK minimizedRMSD -1
REMARK  0 active torsions:
REMARK  status: ('A' for Active; 'I' for Inactive)
ROOT
ATOM      1  C   UNL d   1      -2.835  -2.565   0.218  0.00  0.00    -0.002 A 
ATOM      2  C1  UNL d   1      -1.925  -2.906   1.210  0.00  0.00     0.010 A 
ATOM      3  C2  UNL d   1      -0.743  -2.181   1.368  0.00  0.00     0.041 A 
ATOM      4  C3  UNL d   1      -0.487  -1.096   0.507  0.00  0.00    -0.075 A 
ATOM      5  S   UNL d   1       0.894  -0.065   0.515  0.00  0.00     0.015 SA
ATOM      6  C4  UNL d   1       0.309   0.854  -0.796  0.00  0.00     0.022 A 
ATOM      7  C5  UNL d   1      -0.908   0.398  -1.242  0.00  0.00     0.026 A 
ATOM      8  C6  UNL d   1      -1.388  -0.733  -0.498  0.00  0.00    -0.082 A 
ATOM      9  C7  UNL d   1      -2.578  -1.488  -0.634  0.00  0.00     0.045 A 
ENDROOT
TORSDOF 0
ENDMDL
