MODEL 1
REMARK minimizedAffinity 0.657974839
REMARK minimizedRMSD -1
REMARK  1 active torsions:
REMARK  status: ('A' for Active; 'I' for Inactive)
REMARK    1  A    between atoms: C1_2  and  C2_3 
ROOT
ATOM      1  C2  UNL d   1       5.560  -4.092   4.416  0.00  0.00    -0.073 A 
ATOM      2  C3  UNL d   1       5.681  -5.474   4.231  0.00  0.00    -0.002 A 
ATOM      3  C4  UNL d   1       5.896  -5.998   2.956  0.00  0.00     0.004 A 
ATOM      4  C5  UNL d   1       6.000  -5.147   1.855  0.00  0.00    -0.004 A 
ATOM      5  C6  UNL d   1       5.893  -3.762   2.022  0.00  0.00    -0.075 A 
ATOM      6  C7  UNL d   1       6.000  -2.833   0.848  0.00  0.00     0.076 C 
ATOM      7  C8  UNL d   1       5.674  -3.244   3.305  0.00  0.00     0.001 A 
ENDROOT
BRANCH   1   8
ATOM      8  C1  UNL d   1       5.334  -3.521   5.792  0.00  0.00     0.053 C 
ATOM      9  C   UNL d   1       3.935  -2.945   5.948  0.00  0.00     0.018 C 
ENDBRANCH   1   8
TORSDOF 1
ENDMDL
