MODEL 1
REMARK minimizedAffinity -2.4390502
REMARK minimizedRMSD -1
REMARK  1 active torsions:
REMARK  status: ('A' for Active; 'I' for Inactive)
REMARK    1  A    between atoms: C1_2  and  C2_3 
ROOT
ATOM      1  C2  UNL d   1       5.358  -3.368   4.937  0.00  0.00    -0.073 A 
ATOM      2  C3  UNL d   1       5.435  -4.724   5.273  0.00  0.00    -0.002 A 
ATOM      3  C4  UNL d   1       5.686  -5.681   4.288  0.00  0.00     0.004 A 
ATOM      4  C5  UNL d   1       5.869  -5.291   2.962  0.00  0.00    -0.004 A 
ATOM      5  C6  UNL d   1       5.808  -3.939   2.608  0.00  0.00    -0.075 A 
ATOM      6  C7  UNL d   1       6.000  -3.504   1.185  0.00  0.00     0.076 C 
ATOM      7  C8  UNL d   1       5.553  -2.985   3.603  0.00  0.00     0.001 A 
ENDROOT
BRANCH   1   8
ATOM      8  C1  UNL d   1       5.094  -2.331   5.998  0.00  0.00     0.053 C 
ATOM      9  C   UNL d   1       5.997  -1.117   5.847  0.00  0.00     0.018 C 
ENDBRANCH   1   8
TORSDOF 1
ENDMDL
