MODEL 1
REMARK minimizedAffinity -2.66677856
REMARK minimizedRMSD -1
REMARK  1 active torsions:
REMARK  status: ('A' for Active; 'I' for Inactive)
REMARK    1  A    between atoms: C1_2  and  C2_3 
ROOT
ATOM      1  C2  UNL d   1       5.107  -3.694   4.344  0.00  0.00    -0.073 A 
ATOM      2  C3  UNL d   1       6.000  -4.684   4.771  0.00  0.00    -0.002 A 
ATOM      3  C4  UNL d   1       5.562  -5.719   5.597  0.00  0.00     0.004 A 
ATOM      4  C5  UNL d   1       4.228  -5.780   6.000  0.00  0.00    -0.004 A 
ATOM      5  C6  UNL d   1       3.318  -4.806   5.574  0.00  0.00    -0.075 A 
ATOM      6  C7  UNL d   1       1.880  -4.856   6.000  0.00  0.00     0.076 C 
ATOM      7  C8  UNL d   1       3.766  -3.768   4.746  0.00  0.00     0.001 A 
ENDROOT
BRANCH   1   8
ATOM      8  C1  UNL d   1       5.574  -2.578   3.446  0.00  0.00     0.053 C 
ATOM      9  C   UNL d   1       5.979  -3.084   2.070  0.00  0.00     0.018 C 
ENDBRANCH   1   8
TORSDOF 1
ENDMDL
