MODEL 1
REMARK minimizedAffinity -3.26003027
REMARK minimizedRMSD -1
REMARK  1 active torsions:
REMARK  status: ('A' for Active; 'I' for Inactive)
REMARK    1  A    between atoms: C1_2  and  C2_3 
ROOT
ATOM      1  C2  UNL d   1       5.994  -4.203   3.082  0.00  0.00    -0.073 A 
ATOM      2  C3  UNL d   1       5.961  -5.358   3.873  0.00  0.00    -0.002 A 
ATOM      3  C4  UNL d   1       5.949  -5.258   5.265  0.00  0.00     0.004 A 
ATOM      4  C5  UNL d   1       5.963  -4.006   5.880  0.00  0.00    -0.004 A 
ATOM      5  C6  UNL d   1       5.983  -2.841   5.107  0.00  0.00    -0.075 A 
ATOM      6  C7  UNL d   1       6.000  -1.487   5.752  0.00  0.00     0.076 C 
ATOM      7  C8  UNL d   1       5.998  -2.949   3.709  0.00  0.00     0.001 A 
ENDROOT
BRANCH   1   8
ATOM      8  C1  UNL d   1       6.000  -4.305   1.579  0.00  0.00     0.053 C 
ATOM      9  C   UNL d   1       5.926  -5.748   1.105  0.00  0.00     0.018 C 
ENDBRANCH   1   8
TORSDOF 1
ENDMDL
