MODEL 1
REMARK minimizedAffinity -1.60111833
REMARK minimizedRMSD -1
REMARK  1 active torsions:
REMARK  status: ('A' for Active; 'I' for Inactive)
REMARK    1  A    between atoms: C1_2  and  C2_3 
ROOT
ATOM      1  C2  UNL d   1       5.722  -4.933   3.594  0.00  0.00    -0.073 A 
ATOM      2  C3  UNL d   1       5.208  -5.569   4.729  0.00  0.00    -0.002 A 
ATOM      3  C4  UNL d   1       4.959  -4.841   5.893  0.00  0.00     0.004 A 
ATOM      4  C5  UNL d   1       5.213  -3.471   5.932  0.00  0.00    -0.004 A 
ATOM      5  C6  UNL d   1       5.715  -2.814   4.804  0.00  0.00    -0.075 A 
ATOM      6  C7  UNL d   1       5.997  -1.340   4.830  0.00  0.00     0.076 C 
ATOM      7  C8  UNL d   1       5.966  -3.552   3.640  0.00  0.00     0.001 A 
ENDROOT
BRANCH   1   8
ATOM      8  C1  UNL d   1       5.987  -5.713   2.333  0.00  0.00     0.053 C 
ATOM      9  C   UNL d   1       6.000  -4.820   1.102  0.00  0.00     0.018 C 
ENDBRANCH   1   8
TORSDOF 1
ENDMDL
