MODEL 1
REMARK minimizedAffinity -2.56263065
REMARK minimizedRMSD -1
REMARK  1 active torsions:
REMARK  status: ('A' for Active; 'I' for Inactive)
REMARK    1  A    between atoms: C1_2  and  C2_3 
ROOT
ATOM      1  C2  UNL d   1       5.612  -3.435   3.017  0.00  0.00    -0.073 A 
ATOM      2  C3  UNL d   1       4.916  -2.417   3.680  0.00  0.00    -0.002 A 
ATOM      3  C4  UNL d   1       4.564  -2.563   5.023  0.00  0.00     0.004 A 
ATOM      4  C5  UNL d   1       4.909  -3.723   5.717  0.00  0.00    -0.004 A 
ATOM      5  C6  UNL d   1       5.615  -4.746   5.075  0.00  0.00    -0.075 A 
ATOM      6  C7  UNL d   1       5.992  -6.000   5.807  0.00  0.00     0.076 C 
ATOM      7  C8  UNL d   1       5.963  -4.593   3.726  0.00  0.00     0.001 A 
ENDROOT
BRANCH   1   8
ATOM      8  C1  UNL d   1       6.000  -3.279   1.570  0.00  0.00     0.053 C 
ATOM      9  C   UNL d   1       5.984  -1.824   1.129  0.00  0.00     0.018 C 
ENDBRANCH   1   8
TORSDOF 1
ENDMDL
