MODEL 1
REMARK minimizedAffinity -2.66946006
REMARK minimizedRMSD -1
REMARK  1 active torsions:
REMARK  status: ('A' for Active; 'I' for Inactive)
REMARK    1  A    between atoms: C1_2  and  C2_3 
ROOT
ATOM      1  C2  UNL d   1       5.786  -5.183   3.125  0.00  0.00    -0.073 A 
ATOM      2  C3  UNL d   1       5.890  -5.983   4.268  0.00  0.00    -0.002 A 
ATOM      3  C4  UNL d   1       5.687  -5.433   5.534  0.00  0.00     0.004 A 
ATOM      4  C5  UNL d   1       5.372  -4.081   5.670  0.00  0.00    -0.004 A 
ATOM      5  C6  UNL d   1       5.252  -3.268   4.539  0.00  0.00    -0.075 A 
ATOM      6  C7  UNL d   1       4.917  -1.811   4.668  0.00  0.00     0.076 C 
ATOM      7  C8  UNL d   1       5.460  -3.827   3.271  0.00  0.00     0.001 A 
ENDROOT
BRANCH   1   8
ATOM      8  C1  UNL d   1       5.998  -5.774   1.755  0.00  0.00     0.053 C 
ATOM      9  C   UNL d   1       5.998  -4.710   0.669  0.00  0.00     0.018 C 
ENDBRANCH   1   8
TORSDOF 1
ENDMDL
