MODEL 1
REMARK minimizedAffinity -3.21135259
REMARK minimizedRMSD -1
REMARK  1 active torsions:
REMARK  status: ('A' for Active; 'I' for Inactive)
REMARK    1  A    between atoms: C1_2  and  C2_3 
ROOT
ATOM      1  C2  UNL d   1       5.757  -3.272   3.208  0.00  0.00    -0.073 A 
ATOM      2  C3  UNL d   1       5.950  -2.151   4.024  0.00  0.00    -0.002 A 
ATOM      3  C4  UNL d   1       5.905  -2.275   5.413  0.00  0.00     0.004 A 
ATOM      4  C5  UNL d   1       5.675  -3.519   6.000  0.00  0.00    -0.004 A 
ATOM      5  C6  UNL d   1       5.491  -4.653   5.202  0.00  0.00    -0.075 A 
ATOM      6  C7  UNL d   1       5.240  -5.998   5.818  0.00  0.00     0.076 C 
ATOM      7  C8  UNL d   1       5.535  -4.520   3.807  0.00  0.00     0.001 A 
ENDROOT
BRANCH   1   8
ATOM      8  C1  UNL d   1       5.811  -3.145   1.707  0.00  0.00     0.053 C 
ATOM      9  C   UNL d   1       5.993  -4.492   1.027  0.00  0.00     0.018 C 
ENDBRANCH   1   8
TORSDOF 1
ENDMDL
