MODEL 1
REMARK minimizedAffinity 0.979336023
REMARK minimizedRMSD -1
REMARK  1 active torsions:
REMARK  status: ('A' for Active; 'I' for Inactive)
REMARK    1  A    between atoms: C1_2  and  C2_3 
ROOT
ATOM      1  C2  UNL d   1       5.104  -3.492   2.737  0.00  0.00    -0.073 A 
ATOM      2  C3  UNL d   1       4.819  -2.290   3.396  0.00  0.00    -0.002 A 
ATOM      3  C4  UNL d   1       3.994  -2.282   4.521  0.00  0.00     0.004 A 
ATOM      4  C5  UNL d   1       3.452  -3.473   5.003  0.00  0.00    -0.004 A 
ATOM      5  C6  UNL d   1       3.734  -4.686   4.366  0.00  0.00    -0.075 A 
ATOM      6  C7  UNL d   1       3.158  -5.976   4.871  0.00  0.00     0.076 C 
ATOM      7  C8  UNL d   1       4.562  -4.686   3.235  0.00  0.00     0.001 A 
ENDROOT
BRANCH   1   8
ATOM      8  C1  UNL d   1       5.999  -3.507   1.526  0.00  0.00     0.053 C 
ATOM      9  C   UNL d   1       5.999  -2.171   0.800  0.00  0.00     0.018 C 
ENDBRANCH   1   8
TORSDOF 1
ENDMDL
