MODEL 1
REMARK minimizedAffinity -1.08435965
REMARK minimizedRMSD -1
REMARK  1 active torsions:
REMARK  status: ('A' for Active; 'I' for Inactive)
REMARK    1  A    between atoms: C1_2  and  C2_3 
ROOT
ATOM      1  C2  UNL d   1       5.564  -4.225   5.281  0.00  0.00    -0.073 A 
ATOM      2  C3  UNL d   1       5.674  -3.030   6.000  0.00  0.00    -0.002 A 
ATOM      3  C4  UNL d   1       5.894  -1.824   5.333  0.00  0.00     0.004 A 
ATOM      4  C5  UNL d   1       6.000  -1.800   3.942  0.00  0.00    -0.004 A 
ATOM      5  C6  UNL d   1       5.881  -2.983   3.205  0.00  0.00    -0.075 A 
ATOM      6  C7  UNL d   1       5.995  -2.974   1.709  0.00  0.00     0.076 C 
ATOM      7  C8  UNL d   1       5.663  -4.190   3.882  0.00  0.00     0.001 A 
ENDROOT
BRANCH   1   8
ATOM      8  C1  UNL d   1       5.320  -5.529   5.996  0.00  0.00     0.053 C 
ATOM      9  C   UNL d   1       3.879  -5.994   5.857  0.00  0.00     0.018 C 
ENDBRANCH   1   8
TORSDOF 1
ENDMDL
