MODEL 1
REMARK minimizedAffinity -1.12190461
REMARK minimizedRMSD -1
REMARK  0 active torsions:
REMARK  status: ('A' for Active; 'I' for Inactive)
ROOT
ATOM      1  C   UNL d   1       1.144  -2.955  -0.328  0.00  0.00    -0.002 A 
ATOM      2  C1  UNL d   1       0.753  -1.648  -0.075  0.00  0.00     0.010 A 
ATOM      3  C2  UNL d   1       0.937  -1.083   1.189  0.00  0.00     0.041 A 
ATOM      4  C3  UNL d   1       1.529  -1.862   2.203  0.00  0.00    -0.075 A 
ATOM      5  S   UNL d   1       1.854  -1.381   3.826  0.00  0.00     0.015 SA
ATOM      6  C4  UNL d   1       2.521  -2.898   4.222  0.00  0.00     0.022 A 
ATOM      7  C5  UNL d   1       2.504  -3.763   3.153  0.00  0.00     0.026 A 
ATOM      8  C6  UNL d   1       1.932  -3.180   1.972  0.00  0.00    -0.082 A 
ATOM      9  C7  UNL d   1       1.731  -3.724   0.681  0.00  0.00     0.045 A 
ENDROOT
TORSDOF 0
ENDMDL
