MODEL 1
REMARK minimizedAffinity 12.2941189
REMARK minimizedRMSD -1
REMARK  0 active torsions:
REMARK  status: ('A' for Active; 'I' for Inactive)
ROOT
ATOM      1  C   UNL d   1       6.000  -0.975   1.943  0.00  0.00    -0.002 A 
ATOM      2  C1  UNL d   1       5.968  -1.875   2.998  0.00  0.00     0.010 A 
ATOM      3  C2  UNL d   1       4.760  -2.201   3.618  0.00  0.00     0.041 A 
ATOM      4  C3  UNL d   1       3.573  -1.602   3.154  0.00  0.00    -0.075 A 
ATOM      5  S   UNL d   1       1.978  -1.850   3.759  0.00  0.00     0.015 SA
ATOM      6  C4  UNL d   1       1.301  -0.768   2.631  0.00  0.00     0.022 A 
ATOM      7  C5  UNL d   1       2.254  -0.220   1.805  0.00  0.00     0.026 A 
ATOM      8  C6  UNL d   1       3.579  -0.693   2.092  0.00  0.00    -0.082 A 
ATOM      9  C7  UNL d   1       4.820  -0.382   1.485  0.00  0.00     0.045 A 
ENDROOT
TORSDOF 0
ENDMDL
