MODEL 1
REMARK minimizedAffinity 12.2301016
REMARK minimizedRMSD -1
REMARK  0 active torsions:
REMARK  status: ('A' for Active; 'I' for Inactive)
ROOT
ATOM      1  C   UNL d   1       2.869  -2.617   3.857  0.00  0.00    -0.002 A 
ATOM      2  C1  UNL d   1       1.814  -1.959   4.475  0.00  0.00     0.010 A 
ATOM      3  C2  UNL d   1       1.436  -0.680   4.062  0.00  0.00     0.041 A 
ATOM      4  C3  UNL d   1       2.141  -0.068   3.007  0.00  0.00    -0.075 A 
ATOM      5  S   UNL d   1       1.854   1.492   2.332  0.00  0.00     0.015 SA
ATOM      6  C4  UNL d   1       3.123   1.322   1.208  0.00  0.00     0.022 A 
ATOM      7  C5  UNL d   1       3.761   0.110   1.330  0.00  0.00     0.026 A 
ATOM      8  C6  UNL d   1       3.205  -0.711   2.369  0.00  0.00    -0.082 A 
ATOM      9  C7  UNL d   1       3.565  -2.007   2.811  0.00  0.00     0.045 A 
ENDROOT
TORSDOF 0
ENDMDL
