MODEL 1
REMARK minimizedAffinity 20.1614723
REMARK minimizedRMSD -1
REMARK  0 active torsions:
REMARK  status: ('A' for Active; 'I' for Inactive)
ROOT
ATOM      1  C   UNL d   1       2.799   0.219   2.273  0.00  0.00    -0.002 A 
ATOM      2  C1  UNL d   1       1.776  -0.710   2.148  0.00  0.00     0.010 A 
ATOM      3  C2  UNL d   1       1.503  -1.305   0.915  0.00  0.00     0.041 A 
ATOM      4  C3  UNL d   1       2.286  -0.949  -0.201  0.00  0.00    -0.075 A 
ATOM      5  S   UNL d   1       2.134  -1.550  -1.811  0.00  0.00     0.015 SA
ATOM      6  C4  UNL d   1       3.425  -0.588  -2.370  0.00  0.00     0.022 A 
ATOM      7  C5  UNL d   1       3.970   0.179  -1.367  0.00  0.00     0.026 A 
ATOM      8  C6  UNL d   1       3.322  -0.017  -0.101  0.00  0.00    -0.082 A 
ATOM      9  C7  UNL d   1       3.573   0.569   1.163  0.00  0.00     0.045 A 
ENDROOT
TORSDOF 0
ENDMDL
