MODEL 1
REMARK minimizedAffinity 20.0601406
REMARK minimizedRMSD -1
REMARK  0 active torsions:
REMARK  status: ('A' for Active; 'I' for Inactive)
ROOT
ATOM      1  C   UNL d   1       2.905  -4.166   5.211  0.00  0.00    -0.002 A 
ATOM      2  C1  UNL d   1       2.820  -4.818   3.989  0.00  0.00     0.010 A 
ATOM      3  C2  UNL d   1       2.514  -4.110   2.825  0.00  0.00     0.041 A 
ATOM      4  C3  UNL d   1       2.295  -2.721   2.910  0.00  0.00    -0.075 A 
ATOM      5  S   UNL d   1       1.909  -1.648   1.617  0.00  0.00     0.015 SA
ATOM      6  C4  UNL d   1       1.849  -0.298   2.656  0.00  0.00     0.022 A 
ATOM      7  C5  UNL d   1       2.114  -0.640   3.961  0.00  0.00     0.026 A 
ATOM      8  C6  UNL d   1       2.376  -2.042   4.129  0.00  0.00    -0.082 A 
ATOM      9  C7  UNL d   1       2.687  -2.788   5.291  0.00  0.00     0.045 A 
ENDROOT
TORSDOF 0
ENDMDL
