MODEL 1
REMARK minimizedAffinity 13.7582216
REMARK minimizedRMSD -1
REMARK  0 active torsions:
REMARK  status: ('A' for Active; 'I' for Inactive)
ROOT
ATOM      1  C   UNL d   1       1.831  -1.949   2.811  0.00  0.00    -0.002 A 
ATOM      2  C1  UNL d   1       2.413  -1.495   3.987  0.00  0.00     0.010 A 
ATOM      3  C2  UNL d   1       2.977  -0.220   4.053  0.00  0.00     0.041 A 
ATOM      4  C3  UNL d   1       2.946   0.600   2.907  0.00  0.00    -0.075 A 
ATOM      5  S   UNL d   1       3.575   2.198   2.755  0.00  0.00     0.015 SA
ATOM      6  C4  UNL d   1       3.085   2.316   1.127  0.00  0.00     0.022 A 
ATOM      7  C5  UNL d   1       2.456   1.173   0.694  0.00  0.00     0.026 A 
ATOM      8  C6  UNL d   1       2.365   0.165   1.713  0.00  0.00    -0.082 A 
ATOM      9  C7  UNL d   1       1.802  -1.133   1.677  0.00  0.00     0.045 A 
ENDROOT
TORSDOF 0
ENDMDL
