MODEL 1
REMARK minimizedAffinity 13.8143902
REMARK minimizedRMSD -1
REMARK  0 active torsions:
REMARK  status: ('A' for Active; 'I' for Inactive)
ROOT
ATOM      1  O1  BZF d   1      -0.813  -1.464   3.290  0.00  0.00    -0.204 OA
ATOM      2  C2  BZF d   1      -1.818  -2.412   3.257  0.00  0.00     0.174 A 
ATOM      3  C3  BZF d   1      -1.421  -3.506   2.573  0.00  0.00    -0.012 A 
ATOM      4  C3A BZF d   1      -0.053  -3.261   2.233  0.00  0.00    -0.107 A 
ATOM      5  C4  BZF d   1       0.893  -3.986   1.566  0.00  0.00     0.055 A 
ATOM      6  C5  BZF d   1       2.112  -3.430   1.339  0.00  0.00    -0.016 A 
ATOM      7  C6  BZF d   1       2.417  -2.152   1.759  0.00  0.00     0.022 A 
ATOM      8  C7  BZF d   1       1.513  -1.396   2.429  0.00  0.00     0.029 A 
ATOM      9  C7A BZF d   1       0.292  -1.967   2.689  0.00  0.00     0.058 A 
ENDROOT
TORSDOF 0
ENDMDL
