MODEL 1
REMARK minimizedAffinity 13.7849159
REMARK minimizedRMSD -1
REMARK  0 active torsions:
REMARK  status: ('A' for Active; 'I' for Inactive)
ROOT
ATOM      1  O1  BZF d   1       0.823  -4.908   0.309  0.00  0.00    -0.204 OA
ATOM      2  C2  BZF d   1       2.004  -5.556   0.004  0.00  0.00     0.174 A 
ATOM      3  C3  BZF d   1       3.054  -4.717   0.120  0.00  0.00    -0.012 A 
ATOM      4  C3A BZF d   1       2.504  -3.491   0.611  0.00  0.00    -0.107 A 
ATOM      5  C4  BZF d   1       3.049  -2.284   0.943  0.00  0.00     0.055 A 
ATOM      6  C5  BZF d   1       2.227  -1.270   1.321  0.00  0.00    -0.016 A 
ATOM      7  C6  BZF d   1       0.857  -1.426   1.375  0.00  0.00     0.022 A 
ATOM      8  C7  BZF d   1       0.271  -2.607   1.060  0.00  0.00     0.029 A 
ATOM      9  C7A BZF d   1       1.101  -3.643   0.709  0.00  0.00     0.058 A 
ENDROOT
TORSDOF 0
ENDMDL
