MODEL 1
REMARK minimizedAffinity 2.80845165
REMARK minimizedRMSD -1
REMARK  0 active torsions:
REMARK  status: ('A' for Active; 'I' for Inactive)
ROOT
ATOM      1  O1  BZF d   1      -0.796  -3.182   2.882  0.00  0.00    -0.204 OA
ATOM      2  C2  BZF d   1      -0.955  -1.870   3.285  0.00  0.00     0.174 A 
ATOM      3  C3  BZF d   1       0.066  -1.107   2.844  0.00  0.00    -0.012 A 
ATOM      4  C3A BZF d   1       0.868  -1.979   2.042  0.00  0.00    -0.107 A 
ATOM      5  C4  BZF d   1       2.013  -1.802   1.319  0.00  0.00     0.055 A 
ATOM      6  C5  BZF d   1       2.581  -2.874   0.708  0.00  0.00    -0.016 A 
ATOM      7  C6  BZF d   1       2.036  -4.138   0.803  0.00  0.00     0.022 A 
ATOM      8  C7  BZF d   1       0.898  -4.362   1.505  0.00  0.00     0.029 A 
ATOM      9  C7A BZF d   1       0.303  -3.274   2.096  0.00  0.00     0.058 A 
ENDROOT
TORSDOF 0
ENDMDL
