MODEL 1
REMARK minimizedAffinity 11.650918
REMARK minimizedRMSD -1
REMARK  0 active torsions:
REMARK  status: ('A' for Active; 'I' for Inactive)
ROOT
ATOM      1  O1  BZF d   1      -2.948   3.137   3.761  0.00  0.00    -0.204 OA
ATOM      2  C2  BZF d   1      -2.236   3.354   4.925  0.00  0.00     0.174 A 
ATOM      3  C3  BZF d   1      -2.856   2.786   5.979  0.00  0.00    -0.012 A 
ATOM      4  C3A BZF d   1      -3.982   2.098   5.426  0.00  0.00    -0.107 A 
ATOM      5  C4  BZF d   1      -4.973   1.331   5.970  0.00  0.00     0.055 A 
ATOM      6  C5  BZF d   1      -5.964   0.866   5.165  0.00  0.00    -0.016 A 
ATOM      7  C6  BZF d   1      -5.999   1.151   3.816  0.00  0.00     0.022 A 
ATOM      8  C7  BZF d   1      -5.035   1.904   3.230  0.00  0.00     0.029 A 
ATOM      9  C7A BZF d   1      -4.014   2.348   4.035  0.00  0.00     0.058 A 
ENDROOT
TORSDOF 0
ENDMDL
