MODEL 1
REMARK minimizedAffinity 14.9004726
REMARK minimizedRMSD -1
REMARK  0 active torsions:
REMARK  status: ('A' for Active; 'I' for Inactive)
ROOT
ATOM      1  O1  BZF d   1       1.540  -3.619  -0.128  0.00  0.00    -0.204 OA
ATOM      2  C2  BZF d   1       2.909  -3.697   0.044  0.00  0.00     0.174 A 
ATOM      3  C3  BZF d   1       3.329  -2.791   0.950  0.00  0.00    -0.012 A 
ATOM      4  C3A BZF d   1       2.139  -2.167   1.439  0.00  0.00    -0.107 A 
ATOM      5  C4  BZF d   1       1.902  -1.195   2.368  0.00  0.00     0.055 A 
ATOM      6  C5  BZF d   1       0.629  -0.758   2.558  0.00  0.00    -0.016 A 
ATOM      7  C6  BZF d   1      -0.429  -1.268   1.834  0.00  0.00     0.022 A 
ATOM      8  C7  BZF d   1      -0.244  -2.237   0.905  0.00  0.00     0.029 A 
ATOM      9  C7A BZF d   1       1.036  -2.703   0.734  0.00  0.00     0.058 A 
ENDROOT
TORSDOF 0
ENDMDL
