MODEL 1
REMARK minimizedAffinity 14.5455818
REMARK minimizedRMSD -1
REMARK  0 active torsions:
REMARK  status: ('A' for Active; 'I' for Inactive)
ROOT
ATOM      1  O1  BZF d   1      -2.594   2.677  -2.070  0.00  0.00    -0.204 OA
ATOM      2  C2  BZF d   1      -2.679   1.300  -1.985  0.00  0.00     0.174 A 
ATOM      3  C3  BZF d   1      -3.585   0.823  -2.863  0.00  0.00    -0.012 A 
ATOM      4  C3A BZF d   1      -4.031   1.964  -3.602  0.00  0.00    -0.107 A 
ATOM      5  C4  BZF d   1      -4.919   2.130  -4.626  0.00  0.00     0.055 A 
ATOM      6  C5  BZF d   1      -5.182   3.386  -5.074  0.00  0.00    -0.016 A 
ATOM      7  C6  BZF d   1      -4.581   4.496  -4.518  0.00  0.00     0.022 A 
ATOM      8  C7  BZF d   1      -3.689   4.381  -3.504  0.00  0.00     0.029 A 
ATOM      9  C7A BZF d   1      -3.396   3.110  -3.071  0.00  0.00     0.058 A 
ENDROOT
TORSDOF 0
ENDMDL
