MODEL 1
REMARK minimizedAffinity 15.870121
REMARK minimizedRMSD -1
REMARK  0 active torsions:
REMARK  status: ('A' for Active; 'I' for Inactive)
ROOT
ATOM      1  O1  BZF d   1       1.134  -3.901   0.465  0.00  0.00    -0.204 OA
ATOM      2  C2  BZF d   1       2.483  -3.976   0.178  0.00  0.00     0.174 A 
ATOM      3  C3  BZF d   1       3.142  -2.921   0.699  0.00  0.00    -0.012 A 
ATOM      4  C3A BZF d   1       2.157  -2.186   1.431  0.00  0.00    -0.107 A 
ATOM      5  C4  BZF d   1       2.202  -1.046   2.182  0.00  0.00     0.055 A 
ATOM      6  C5  BZF d   1       1.048  -0.553   2.703  0.00  0.00    -0.016 A 
ATOM      7  C6  BZF d   1      -0.167  -1.169   2.488  0.00  0.00     0.022 A 
ATOM      8  C7  BZF d   1      -0.262  -2.304   1.754  0.00  0.00     0.029 A 
ATOM      9  C7A BZF d   1       0.907  -2.824   1.254  0.00  0.00     0.058 A 
ENDROOT
TORSDOF 0
ENDMDL
