MODEL 1
REMARK minimizedAffinity 12.1170244
REMARK minimizedRMSD -1
REMARK  0 active torsions:
REMARK  status: ('A' for Active; 'I' for Inactive)
ROOT
ATOM      1  O1  BZF d   1      -4.043  -2.387  -1.785  0.00  0.00    -0.204 OA
ATOM      2  C2  BZF d   1      -3.587  -1.400  -0.932  0.00  0.00     0.174 A 
ATOM      3  C3  BZF d   1      -3.931  -0.178  -1.387  0.00  0.00    -0.012 A 
ATOM      4  C3A BZF d   1      -4.726  -0.420  -2.551  0.00  0.00    -0.107 A 
ATOM      5  C4  BZF d   1      -5.372   0.399  -3.434  0.00  0.00     0.055 A 
ATOM      6  C5  BZF d   1      -6.000  -0.151  -4.506  0.00  0.00    -0.016 A 
ATOM      7  C6  BZF d   1      -5.998  -1.512  -4.730  0.00  0.00     0.022 A 
ATOM      8  C7  BZF d   1      -5.375  -2.364  -3.880  0.00  0.00     0.029 A 
ATOM      9  C7A BZF d   1      -4.767  -1.815  -2.777  0.00  0.00     0.058 A 
ENDROOT
TORSDOF 0
ENDMDL
