MODEL 1
REMARK minimizedAffinity 1.98373449
REMARK minimizedRMSD -1
REMARK  0 active torsions:
REMARK  status: ('A' for Active; 'I' for Inactive)
ROOT
ATOM      1  O1  BZF d   1      -1.825   3.616  -4.509  0.00  0.00    -0.204 OA
ATOM      2  C2  BZF d   1      -1.788   2.250  -4.711  0.00  0.00     0.174 A 
ATOM      3  C3  BZF d   1      -2.949   1.814  -5.242  0.00  0.00    -0.012 A 
ATOM      4  C3A BZF d   1      -3.727   2.993  -5.466  0.00  0.00    -0.107 A 
ATOM      5  C4  BZF d   1      -4.970   3.213  -5.989  0.00  0.00     0.055 A 
ATOM      6  C5  BZF d   1      -5.467   4.477  -6.000  0.00  0.00    -0.016 A 
ATOM      7  C6  BZF d   1      -4.754   5.543  -5.492  0.00  0.00     0.022 A 
ATOM      8  C7  BZF d   1      -3.515   5.375  -4.968  0.00  0.00     0.029 A 
ATOM      9  C7A BZF d   1      -2.996   4.104  -4.986  0.00  0.00     0.058 A 
ENDROOT
TORSDOF 0
ENDMDL
