MODEL 1
REMARK minimizedAffinity 17.1458797
REMARK minimizedRMSD -1
REMARK  0 active torsions:
REMARK  status: ('A' for Active; 'I' for Inactive)
ROOT
ATOM      1  O1  BZF d   1      -2.533   2.952  -2.739  0.00  0.00    -0.204 OA
ATOM      2  C2  BZF d   1      -1.613   2.772  -3.754  0.00  0.00     0.174 A 
ATOM      3  C3  BZF d   1      -1.188   1.493  -3.793  0.00  0.00    -0.012 A 
ATOM      4  C3A BZF d   1      -1.955   0.810  -2.797  0.00  0.00    -0.107 A 
ATOM      5  C4  BZF d   1      -2.000  -0.486  -2.371  0.00  0.00     0.055 A 
ATOM      6  C5  BZF d   1      -2.807  -0.811  -1.327  0.00  0.00    -0.016 A 
ATOM      7  C6  BZF d   1      -3.577   0.134  -0.683  0.00  0.00     0.022 A 
ATOM      8  C7  BZF d   1      -3.570   1.433  -1.073  0.00  0.00     0.029 A 
ATOM      9  C7A BZF d   1      -2.780   1.758  -2.148  0.00  0.00     0.058 A 
ENDROOT
TORSDOF 0
ENDMDL
