MODEL 1
REMARK minimizedAffinity 13.5115423
REMARK minimizedRMSD -1
REMARK  0 active torsions:
REMARK  status: ('A' for Active; 'I' for Inactive)
ROOT
ATOM      1  O1  BZF d   1       5.537  -5.216   5.928  0.00  0.00    -0.204 OA
ATOM      2  C2  BZF d   1       4.394  -5.990   5.991  0.00  0.00     0.174 A 
ATOM      3  C3  BZF d   1       3.300  -5.250   5.716  0.00  0.00    -0.012 A 
ATOM      4  C3A BZF d   1       3.798  -3.953   5.376  0.00  0.00    -0.107 A 
ATOM      5  C4  BZF d   1       3.198  -2.787   4.994  0.00  0.00     0.055 A 
ATOM      6  C5  BZF d   1       3.965  -1.680   4.808  0.00  0.00    -0.016 A 
ATOM      7  C6  BZF d   1       5.331  -1.702   4.998  0.00  0.00     0.022 A 
ATOM      8  C7  BZF d   1       5.971  -2.836   5.372  0.00  0.00     0.029 A 
ATOM      9  C7A BZF d   1       5.204  -3.965   5.530  0.00  0.00     0.058 A 
ENDROOT
TORSDOF 0
ENDMDL
