MODEL 1
REMARK minimizedAffinity 8.40555859
REMARK minimizedRMSD -1
REMARK  0 active torsions:
REMARK  status: ('A' for Active; 'I' for Inactive)
ROOT
ATOM      1  C   UNL d   1       5.625   3.000  -0.963  0.00  0.00     0.078 C 
ATOM      2  C1  UNL d   1       5.116   1.608  -0.736  0.00  0.00    -0.077 A 
ATOM      3  C2  UNL d   1       6.000   0.537  -0.557  0.00  0.00    -0.001 A 
ATOM      4  C3  UNL d   1       5.512  -0.755  -0.356  0.00  0.00     0.003 A 
ATOM      5  C4  UNL d   1       4.138  -0.989  -0.334  0.00  0.00    -0.005 A 
ATOM      6  C5  UNL d   1       3.251   0.070  -0.514  0.00  0.00     0.003 A 
ATOM      7  C6  UNL d   1       3.737   1.363  -0.715  0.00  0.00    -0.001 A 
ENDROOT
TORSDOF 0
ENDMDL
