MODEL 1
REMARK minimizedAffinity 4.04615402
REMARK minimizedRMSD -1
REMARK  0 active torsions:
REMARK  status: ('A' for Active; 'I' for Inactive)
ROOT
ATOM      1  C   UNL d   1       0.677   0.269   3.030  0.00  0.00     0.078 C 
ATOM      2  C1  UNL d   1       0.592  -1.066   3.707  0.00  0.00    -0.077 A 
ATOM      3  C2  UNL d   1      -0.146  -2.114   3.144  0.00  0.00    -0.001 A 
ATOM      4  C3  UNL d   1      -0.224  -3.349   3.790  0.00  0.00     0.003 A 
ATOM      5  C4  UNL d   1       0.431  -3.546   5.004  0.00  0.00    -0.005 A 
ATOM      6  C5  UNL d   1       1.165  -2.508   5.574  0.00  0.00     0.003 A 
ATOM      7  C6  UNL d   1       1.245  -1.273   4.929  0.00  0.00    -0.001 A 
ENDROOT
TORSDOF 0
ENDMDL
