MODEL 1
REMARK minimizedAffinity 2.11313319
REMARK minimizedRMSD -1
REMARK  0 active torsions:
REMARK  status: ('A' for Active; 'I' for Inactive)
ROOT
ATOM      1  C   UNL d   1       4.122   0.976  -0.464  0.00  0.00     0.078 C 
ATOM      2  C1  UNL d   1       3.946  -0.401  -1.031  0.00  0.00    -0.077 A 
ATOM      3  C2  UNL d   1       4.334  -0.695  -2.344  0.00  0.00    -0.001 A 
ATOM      4  C3  UNL d   1       4.155  -1.979  -2.862  0.00  0.00     0.003 A 
ATOM      5  C4  UNL d   1       3.586  -2.978  -2.075  0.00  0.00    -0.005 A 
ATOM      6  C5  UNL d   1       3.195  -2.694  -0.768  0.00  0.00     0.003 A 
ATOM      7  C6  UNL d   1       3.373  -1.411  -0.248  0.00  0.00    -0.001 A 
ENDROOT
TORSDOF 0
ENDMDL
