MODEL 1
REMARK minimizedAffinity 4.368927
REMARK minimizedRMSD -1
REMARK  0 active torsions:
REMARK  status: ('A' for Active; 'I' for Inactive)
ROOT
ATOM      1  C   UNL d   1       4.924   2.827  -1.757  0.00  0.00     0.078 C 
ATOM      2  C1  UNL d   1       4.863   1.455  -1.153  0.00  0.00    -0.077 A 
ATOM      3  C2  UNL d   1       6.000   0.866  -0.587  0.00  0.00    -0.001 A 
ATOM      4  C3  UNL d   1       5.931  -0.415  -0.037  0.00  0.00     0.003 A 
ATOM      5  C4  UNL d   1       4.728  -1.119  -0.050  0.00  0.00    -0.005 A 
ATOM      6  C5  UNL d   1       3.592  -0.541  -0.614  0.00  0.00     0.003 A 
ATOM      7  C6  UNL d   1       3.659   0.740  -1.164  0.00  0.00    -0.001 A 
ENDROOT
TORSDOF 0
ENDMDL
