MODEL 1
REMARK minimizedAffinity 3.90443301
REMARK minimizedRMSD -1
REMARK  0 active torsions:
REMARK  status: ('A' for Active; 'I' for Inactive)
ROOT
ATOM      1  C   UNL d   1       2.308  -0.768  -0.752  0.00  0.00     0.078 C 
ATOM      2  C1  UNL d   1       3.589   0.007  -0.658  0.00  0.00    -0.077 A 
ATOM      3  C2  UNL d   1       3.599   1.402  -0.781  0.00  0.00    -0.001 A 
ATOM      4  C3  UNL d   1       4.800   2.109  -0.701  0.00  0.00     0.003 A 
ATOM      5  C4  UNL d   1       6.000   1.429  -0.498  0.00  0.00    -0.005 A 
ATOM      6  C5  UNL d   1       6.000   0.041  -0.376  0.00  0.00     0.003 A 
ATOM      7  C6  UNL d   1       4.800  -0.667  -0.456  0.00  0.00    -0.001 A 
ENDROOT
TORSDOF 0
ENDMDL
