MODEL 1
REMARK minimizedAffinity -2.17714763
REMARK minimizedRMSD -1
REMARK  0 active torsions:
REMARK  status: ('A' for Active; 'I' for Inactive)
ROOT
ATOM      1  C   UNL d   1       5.996   5.375  -0.193  0.00  0.00     0.078 C 
ATOM      2  C1  UNL d   1       5.950   5.000   1.258  0.00  0.00    -0.077 A 
ATOM      3  C2  UNL d   1       5.930   3.657   1.655  0.00  0.00    -0.001 A 
ATOM      4  C3  UNL d   1       5.877   3.323   3.010  0.00  0.00     0.003 A 
ATOM      5  C4  UNL d   1       5.843   4.325   3.977  0.00  0.00    -0.005 A 
ATOM      6  C5  UNL d   1       5.860   5.664   3.591  0.00  0.00     0.003 A 
ATOM      7  C6  UNL d   1       5.913   6.000   2.237  0.00  0.00    -0.001 A 
ENDROOT
TORSDOF 0
ENDMDL
