MODEL 1
REMARK minimizedAffinity -5.16343641
REMARK minimizedRMSD -1
REMARK  1 active torsions:
REMARK  status: ('A' for Active; 'I' for Inactive)
REMARK    1  A    between atoms: C3_4  and  O_7 
ROOT
ATOM      1  C   UNL d   1      -0.446  -0.315  -0.084  0.00  0.00    -0.033 A 
ATOM      2  C1  UNL d   1       0.944  -0.356   0.042  0.00  0.00     0.039 A 
ATOM      3  C2  UNL d   1       1.539  -0.170   1.291  0.00  0.00    -0.080 A 
ATOM      4  C3  UNL d   1       0.734   0.056   2.404  0.00  0.00     0.150 A 
ATOM      5  C4  UNL d   1      -0.651   0.095   2.287  0.00  0.00    -0.007 A 
ATOM      6  C5  UNL d   1      -1.244  -0.091   1.038  0.00  0.00     0.039 A 
ENDROOT
BRANCH   4   7
ATOM      7  O   UNL d   1       1.270   0.248   3.643  0.00  0.00    -0.526 OA
ATOM      8  H5  UNL d   1       2.238   0.224   3.567  0.00  0.00     0.418 HD
ENDBRANCH   4   7
TORSDOF 1
ENDMDL
