MODEL 1
REMARK minimizedAffinity -4.70092678
REMARK minimizedRMSD -1
REMARK  1 active torsions:
REMARK  status: ('A' for Active; 'I' for Inactive)
REMARK    1  A    between atoms: C3_4  and  O_7 
ROOT
ATOM      1  C   UNL d   1      -0.747  -0.393  -0.070  0.00  0.00    -0.033 A 
ATOM      2  C1  UNL d   1       0.362   0.454  -0.115  0.00  0.00     0.039 A 
ATOM      3  C2  UNL d   1       1.224   0.539   0.980  0.00  0.00    -0.080 A 
ATOM      4  C3  UNL d   1       0.966  -0.229   2.112  0.00  0.00     0.150 A 
ATOM      5  C4  UNL d   1      -0.134  -1.078   2.163  0.00  0.00    -0.007 A 
ATOM      6  C5  UNL d   1      -0.994  -1.160   1.069  0.00  0.00     0.039 A 
ENDROOT
BRANCH   4   7
ATOM      7  O   UNL d   1       1.776  -0.176   3.208  0.00  0.00    -0.526 OA
ATOM      8  H5  UNL d   1       2.479   0.474   3.040  0.00  0.00     0.418 HD
ENDBRANCH   4   7
TORSDOF 1
ENDMDL
