MODEL 1
REMARK minimizedAffinity -4.38079357
REMARK minimizedRMSD -1
REMARK  1 active torsions:
REMARK  status: ('A' for Active; 'I' for Inactive)
REMARK    1  A    between atoms: C3_4  and  O_7 
ROOT
ATOM      1  C   UNL d   1      -0.626  -0.439  -0.118  0.00  0.00    -0.033 A 
ATOM      2  C1  UNL d   1      -1.294  -0.444   1.108  0.00  0.00     0.039 A 
ATOM      3  C2  UNL d   1      -0.573  -0.574   2.297  0.00  0.00    -0.080 A 
ATOM      4  C3  UNL d   1       0.812  -0.696   2.247  0.00  0.00     0.150 A 
ATOM      5  C4  UNL d   1       1.485  -0.688   1.029  0.00  0.00    -0.007 A 
ATOM      6  C5  UNL d   1       0.764  -0.560  -0.157  0.00  0.00     0.039 A 
ENDROOT
BRANCH   4   7
ATOM      7  O   UNL d   1       1.558  -0.829   3.381  0.00  0.00    -0.526 OA
ATOM      8  H5  UNL d   1       0.956  -0.847   4.144  0.00  0.00     0.418 HD
ENDBRANCH   4   7
TORSDOF 1
ENDMDL
