MODEL 1
REMARK minimizedAffinity -3.0815928
REMARK minimizedRMSD -1
REMARK  1 active torsions:
REMARK  status: ('A' for Active; 'I' for Inactive)
REMARK    1  A    between atoms: C3_4  and  O_7 
ROOT
ATOM      1  C   UNL d   1      -0.012   0.058  -0.789  0.00  0.00    -0.033 A 
ATOM      2  C1  UNL d   1      -1.213  -0.501  -0.349  0.00  0.00     0.039 A 
ATOM      3  C2  UNL d   1      -1.292  -1.083   0.918  0.00  0.00    -0.080 A 
ATOM      4  C3  UNL d   1      -0.164  -1.100   1.734  0.00  0.00     0.150 A 
ATOM      5  C4  UNL d   1       1.035  -0.542   1.303  0.00  0.00    -0.007 A 
ATOM      6  C5  UNL d   1       1.112   0.039   0.038  0.00  0.00     0.039 A 
ENDROOT
BRANCH   4   7
ATOM      7  O   UNL d   1      -0.191  -1.661   2.976  0.00  0.00    -0.526 OA
ATOM      8  H5  UNL d   1      -1.077  -2.032   3.126  0.00  0.00     0.418 HD
ENDBRANCH   4   7
TORSDOF 1
ENDMDL
