MODEL 1
REMARK minimizedAffinity -3.63841009
REMARK minimizedRMSD -1
REMARK  1 active torsions:
REMARK  status: ('A' for Active; 'I' for Inactive)
REMARK    1  A    between atoms: C3_4  and  O_7 
ROOT
ATOM      1  C   UNL d   1      -0.735   0.084  -0.332  0.00  0.00    -0.033 A 
ATOM      2  C1  UNL d   1       0.639  -0.135  -0.445  0.00  0.00     0.039 A 
ATOM      3  C2  UNL d   1       1.390  -0.465   0.685  0.00  0.00    -0.080 A 
ATOM      4  C3  UNL d   1       0.756  -0.574   1.920  0.00  0.00     0.150 A 
ATOM      5  C4  UNL d   1      -0.614  -0.360   2.039  0.00  0.00    -0.007 A 
ATOM      6  C5  UNL d   1      -1.362  -0.030   0.910  0.00  0.00     0.039 A 
ENDROOT
BRANCH   4   7
ATOM      7  O   UNL d   1       1.448  -0.889   3.051  0.00  0.00    -0.526 OA
ATOM      8  H5  UNL d   1       2.388  -0.979   2.822  0.00  0.00     0.418 HD
ENDBRANCH   4   7
TORSDOF 1
ENDMDL
