MODEL 1
REMARK minimizedAffinity -4.20476484
REMARK minimizedRMSD -1
REMARK  1 active torsions:
REMARK  status: ('A' for Active; 'I' for Inactive)
REMARK    1  A    between atoms: C3_4  and  O_7 
ROOT
ATOM      1  C   UNL d   1      -0.359  -0.135  -0.371  0.00  0.00    -0.033 A 
ATOM      2  C1  UNL d   1       1.004  -0.427  -0.290  0.00  0.00     0.039 A 
ATOM      3  C2  UNL d   1       1.605  -0.621   0.955  0.00  0.00    -0.080 A 
ATOM      4  C3  UNL d   1       0.834  -0.521   2.109  0.00  0.00     0.150 A 
ATOM      5  C4  UNL d   1      -0.525  -0.234   2.036  0.00  0.00    -0.007 A 
ATOM      6  C5  UNL d   1      -1.124  -0.040   0.792  0.00  0.00     0.039 A 
ENDROOT
BRANCH   4   7
ATOM      7  O   UNL d   1       1.377  -0.697   3.347  0.00  0.00    -0.526 OA
ATOM      8  H5  UNL d   1       2.330  -0.861   3.244  0.00  0.00     0.418 HD
ENDBRANCH   4   7
TORSDOF 1
ENDMDL
