MODEL 1
REMARK minimizedAffinity -4.69361544
REMARK minimizedRMSD -1
REMARK  1 active torsions:
REMARK  status: ('A' for Active; 'I' for Inactive)
REMARK    1  A    between atoms: C3_4  and  O_7 
ROOT
ATOM      1  C   UNL d   1      -0.387  -0.620  -0.160  0.00  0.00    -0.033 A 
ATOM      2  C1  UNL d   1       0.982  -0.349  -0.134  0.00  0.00     0.039 A 
ATOM      3  C2  UNL d   1       1.691  -0.437   1.066  0.00  0.00    -0.080 A 
ATOM      4  C3  UNL d   1       1.019  -0.797   2.231  0.00  0.00     0.150 A 
ATOM      5  C4  UNL d   1      -0.345  -1.072   2.212  0.00  0.00    -0.007 A 
ATOM      6  C5  UNL d   1      -1.050  -0.983   1.013  0.00  0.00     0.039 A 
ENDROOT
BRANCH   4   7
ATOM      7  O   UNL d   1       1.667  -0.892   3.427  0.00  0.00    -0.526 OA
ATOM      8  H5  UNL d   1       2.597  -0.646   3.293  0.00  0.00     0.418 HD
ENDBRANCH   4   7
TORSDOF 1
ENDMDL
