MODEL 1
REMARK minimizedAffinity -5.44528055
REMARK minimizedRMSD -1
REMARK  1 active torsions:
REMARK  status: ('A' for Active; 'I' for Inactive)
REMARK    1  A    between atoms: C3_4  and  O_7 
ROOT
ATOM      1  C   UNL d   1      -0.491   0.279   0.483  0.00  0.00    -0.033 A 
ATOM      2  C1  UNL d   1      -0.911  -0.788   1.279  0.00  0.00     0.039 A 
ATOM      3  C2  UNL d   1      -0.155  -1.176   2.386  0.00  0.00    -0.080 A 
ATOM      4  C3  UNL d   1       1.017  -0.489   2.688  0.00  0.00     0.150 A 
ATOM      5  C4  UNL d   1       1.440   0.578   1.902  0.00  0.00    -0.007 A 
ATOM      6  C5  UNL d   1       0.684   0.964   0.795  0.00  0.00     0.039 A 
ENDROOT
BRANCH   4   7
ATOM      7  O   UNL d   1       1.791  -0.834   3.756  0.00  0.00    -0.526 OA
ATOM      8  H5  UNL d   1       1.391  -1.605   4.189  0.00  0.00     0.418 HD
ENDBRANCH   4   7
TORSDOF 1
ENDMDL
