MODEL 1
REMARK minimizedAffinity 11.6429024
REMARK minimizedRMSD -1
REMARK  0 active torsions:
REMARK  status: ('A' for Active; 'I' for Inactive)
ROOT
ATOM      1  N1  IND d   1       2.156  -5.856  -0.052  0.00  0.00    -0.196 N 
ATOM      2  C2  IND d   1       2.627  -5.903  -1.334  0.00  0.00     0.054 A 
ATOM      3  C3  IND d   1       1.601  -5.996  -2.209  0.00  0.00    -0.031 A 
ATOM      4  C4  IND d   1      -0.935  -5.984  -1.764  0.00  0.00     0.051 A 
ATOM      5  C5  IND d   1      -1.850  -5.994  -0.749  0.00  0.00    -0.031 A 
ATOM      6  C6  IND d   1      -1.470  -5.954   0.577  0.00  0.00     0.015 A 
ATOM      7  C7  IND d   1      -0.154  -5.891   0.939  0.00  0.00    -0.016 A 
ATOM      8  C8  IND d   1       0.779  -5.889  -0.089  0.00  0.00    -0.047 A 
ATOM      9  C9  IND d   1       0.400  -5.972  -1.435  0.00  0.00    -0.096 A 
ATOM     10  HN1 IND d   1       2.638  -5.812   0.659  0.00  0.00     0.298 HD
ENDROOT
TORSDOF 0
ENDMDL
