MODEL 1
REMARK minimizedAffinity 14.9138155
REMARK minimizedRMSD -1
REMARK  0 active torsions:
REMARK  status: ('A' for Active; 'I' for Inactive)
ROOT
ATOM      1  N1  IND d   1      -3.083   1.028   0.991  0.00  0.00    -0.196 N 
ATOM      2  C2  IND d   1      -1.959   1.350   0.283  0.00  0.00     0.054 A 
ATOM      3  C3  IND d   1      -2.132   2.522  -0.368  0.00  0.00    -0.031 A 
ATOM      4  C4  IND d   1      -4.142   4.131  -0.332  0.00  0.00     0.051 A 
ATOM      5  C5  IND d   1      -5.418   4.251   0.142  0.00  0.00    -0.031 A 
ATOM      6  C6  IND d   1      -5.991   3.284   0.942  0.00  0.00     0.015 A 
ATOM      7  C7  IND d   1      -5.303   2.162   1.309  0.00  0.00    -0.016 A 
ATOM      8  C8  IND d   1      -4.010   2.034   0.823  0.00  0.00    -0.047 A 
ATOM      9  C9  IND d   1      -3.437   2.991  -0.024  0.00  0.00    -0.096 A 
ATOM     10  HN1 IND d   1      -3.193   0.318   1.462  0.00  0.00     0.298 HD
ENDROOT
TORSDOF 0
ENDMDL
