MODEL 1
REMARK minimizedAffinity 2.63650084
REMARK minimizedRMSD -1
REMARK  0 active torsions:
REMARK  status: ('A' for Active; 'I' for Inactive)
ROOT
ATOM      1  N1  IND d   1       0.849  -0.863   2.846  0.00  0.00    -0.196 N 
ATOM      2  C2  IND d   1       1.770  -0.225   2.062  0.00  0.00     0.054 A 
ATOM      3  C3  IND d   1       2.944  -0.895   2.075  0.00  0.00    -0.031 A 
ATOM      4  C4  IND d   1       3.547  -3.115   3.231  0.00  0.00     0.051 A 
ATOM      5  C5  IND d   1       3.046  -4.054   4.089  0.00  0.00    -0.031 A 
ATOM      6  C6  IND d   1       1.760  -3.976   4.584  0.00  0.00     0.015 A 
ATOM      7  C7  IND d   1       0.920  -2.959   4.229  0.00  0.00    -0.016 A 
ATOM      8  C8  IND d   1       1.428  -2.001   3.364  0.00  0.00    -0.047 A 
ATOM      9  C9  IND d   1       2.746  -2.051   2.892  0.00  0.00    -0.096 A 
ATOM     10  HN1 IND d   1       0.044  -0.598   2.991  0.00  0.00     0.298 HD
ENDROOT
TORSDOF 0
ENDMDL
