MODEL 1
REMARK minimizedAffinity 1.08896005
REMARK minimizedRMSD -1
REMARK  0 active torsions:
REMARK  status: ('A' for Active; 'I' for Inactive)
ROOT
ATOM      1  N1  IND d   1       1.196  -5.993  -4.707  0.00  0.00    -0.196 N 
ATOM      2  C2  IND d   1       1.665  -6.000  -5.991  0.00  0.00     0.054 A 
ATOM      3  C3  IND d   1       3.017  -5.965  -5.998  0.00  0.00    -0.031 A 
ATOM      4  C4  IND d   1       4.664  -5.996  -4.020  0.00  0.00     0.051 A 
ATOM      5  C5  IND d   1       4.708  -5.953  -2.654  0.00  0.00    -0.031 A 
ATOM      6  C6  IND d   1       3.561  -5.923  -1.888  0.00  0.00     0.015 A 
ATOM      7  C7  IND d   1       2.321  -5.947  -2.461  0.00  0.00    -0.016 A 
ATOM      8  C8  IND d   1       2.272  -5.984  -3.847  0.00  0.00    -0.047 A 
ATOM      9  C9  IND d   1       3.433  -5.971  -4.631  0.00  0.00    -0.096 A 
ATOM     10  HN1 IND d   1       0.368  -5.995  -4.476  0.00  0.00     0.298 HD
ENDROOT
TORSDOF 0
ENDMDL
