MODEL 1
REMARK minimizedAffinity 8.5968647
REMARK minimizedRMSD -1
REMARK  0 active torsions:
REMARK  status: ('A' for Active; 'I' for Inactive)
ROOT
ATOM      1  N1  IND d   1      -3.988  -2.601  -5.378  0.00  0.00    -0.196 N 
ATOM      2  C2  IND d   1      -5.075  -3.149  -6.000  0.00  0.00     0.054 A 
ATOM      3  C3  IND d   1      -5.998  -3.527  -5.087  0.00  0.00    -0.031 A 
ATOM      4  C4  IND d   1      -5.976  -3.250  -2.528  0.00  0.00     0.051 A 
ATOM      5  C5  IND d   1      -5.180  -2.839  -1.496  0.00  0.00    -0.031 A 
ATOM      6  C6  IND d   1      -3.922  -2.315  -1.710  0.00  0.00     0.015 A 
ATOM      7  C7  IND d   1      -3.415  -2.171  -2.970  0.00  0.00    -0.016 A 
ATOM      8  C8  IND d   1      -4.217  -2.594  -4.020  0.00  0.00    -0.047 A 
ATOM      9  C9  IND d   1      -5.478  -3.166  -3.807  0.00  0.00    -0.096 A 
ATOM     10  HN1 IND d   1      -3.280  -2.311  -5.770  0.00  0.00     0.298 HD
ENDROOT
TORSDOF 0
ENDMDL
