MODEL 1
REMARK minimizedAffinity 3.15660453
REMARK minimizedRMSD -1
REMARK  0 active torsions:
REMARK  status: ('A' for Active; 'I' for Inactive)
ROOT
ATOM      1  N1  IND d   1       3.509  -5.968  -5.926  0.00  0.00    -0.196 N 
ATOM      2  C2  IND d   1       2.144  -5.967  -5.999  0.00  0.00     0.054 A 
ATOM      3  C3  IND d   1       1.607  -5.992  -4.758  0.00  0.00    -0.031 A 
ATOM      4  C4  IND d   1       2.780  -5.933  -2.467  0.00  0.00     0.051 A 
ATOM      5  C5  IND d   1       4.018  -5.965  -1.889  0.00  0.00    -0.031 A 
ATOM      6  C6  IND d   1       5.173  -5.999  -2.643  0.00  0.00     0.015 A 
ATOM      7  C7  IND d   1       5.134  -5.989  -4.008  0.00  0.00    -0.016 A 
ATOM      8  C8  IND d   1       3.878  -5.963  -4.598  0.00  0.00    -0.047 A 
ATOM      9  C9  IND d   1       2.701  -5.972  -3.839  0.00  0.00    -0.096 A 
ATOM     10  HN1 IND d   1       4.048  -5.972  -6.597  0.00  0.00     0.298 HD
ENDROOT
TORSDOF 0
ENDMDL
