MODEL 1
REMARK minimizedAffinity -0.642563641
REMARK minimizedRMSD -1
REMARK  0 active torsions:
REMARK  status: ('A' for Active; 'I' for Inactive)
ROOT
ATOM      1  N1  IND d   1       0.606  -2.224   2.102  0.00  0.00    -0.196 N 
ATOM      2  C2  IND d   1       1.121  -1.332   1.204  0.00  0.00     0.054 A 
ATOM      3  C3  IND d   1       2.413  -1.060   1.497  0.00  0.00    -0.031 A 
ATOM      4  C4  IND d   1       3.912  -2.044   3.345  0.00  0.00     0.051 A 
ATOM      5  C5  IND d   1       3.878  -2.869   4.434  0.00  0.00    -0.031 A 
ATOM      6  C6  IND d   1       2.729  -3.537   4.807  0.00  0.00     0.015 A 
ATOM      7  C7  IND d   1       1.570  -3.413   4.096  0.00  0.00    -0.016 A 
ATOM      8  C8  IND d   1       1.598  -2.570   2.993  0.00  0.00    -0.047 A 
ATOM      9  C9  IND d   1       2.749  -1.857   2.634  0.00  0.00    -0.096 A 
ATOM     10  HN1 IND d   1      -0.201  -2.519   2.110  0.00  0.00     0.298 HD
ENDROOT
TORSDOF 0
ENDMDL
