MODEL 1
REMARK minimizedAffinity -5.0113225
REMARK minimizedRMSD -1
REMARK  0 active torsions:
REMARK  status: ('A' for Active; 'I' for Inactive)
ROOT
ATOM      1  C   UNL d   1       0.168   3.778  -1.150  0.00  0.00     0.078 C 
ATOM      2  C1  UNL d   1      -0.411   2.734  -0.243  0.00  0.00    -0.077 A 
ATOM      3  C2  UNL d   1      -0.076   1.383  -0.393  0.00  0.00    -0.001 A 
ATOM      4  C3  UNL d   1      -0.631   0.421   0.453  0.00  0.00     0.003 A 
ATOM      5  C4  UNL d   1      -1.523   0.799   1.453  0.00  0.00    -0.005 A 
ATOM      6  C5  UNL d   1      -1.864   2.141   1.609  0.00  0.00     0.003 A 
ATOM      7  C6  UNL d   1      -1.311   3.105   0.764  0.00  0.00    -0.001 A 
ENDROOT
TORSDOF 0
ENDMDL
