MODEL 1
REMARK minimizedAffinity -5.54473543
REMARK minimizedRMSD -1
REMARK  0 active torsions:
REMARK  status: ('A' for Active; 'I' for Inactive)
ROOT
ATOM      1  C   UNL d   1      -0.357  -0.750   0.793  0.00  0.00     0.078 C 
ATOM      2  C1  UNL d   1      -0.551   0.719   0.562  0.00  0.00    -0.077 A 
ATOM      3  C2  UNL d   1      -1.052   1.548   1.574  0.00  0.00    -0.001 A 
ATOM      4  C3  UNL d   1      -1.236   2.912   1.343  0.00  0.00     0.003 A 
ATOM      5  C4  UNL d   1      -0.925   3.459   0.100  0.00  0.00    -0.005 A 
ATOM      6  C5  UNL d   1      -0.428   2.642  -0.914  0.00  0.00     0.003 A 
ATOM      7  C6  UNL d   1      -0.243   1.278  -0.684  0.00  0.00    -0.001 A 
ENDROOT
TORSDOF 0
ENDMDL
