MODEL 1
REMARK minimizedAffinity -3.64885998
REMARK minimizedRMSD -1
REMARK  0 active torsions:
REMARK  status: ('A' for Active; 'I' for Inactive)
ROOT
ATOM      1  C   UNL d   1       0.461   3.374  -1.369  0.00  0.00     0.078 C 
ATOM      2  C1  UNL d   1       0.475   2.063  -0.641  0.00  0.00    -0.077 A 
ATOM      3  C2  UNL d   1       1.272   1.001  -1.085  0.00  0.00    -0.001 A 
ATOM      4  C3  UNL d   1       1.268  -0.217  -0.404  0.00  0.00     0.003 A 
ATOM      5  C4  UNL d   1       0.467  -0.385   0.725  0.00  0.00    -0.005 A 
ATOM      6  C5  UNL d   1      -0.331   0.665   1.172  0.00  0.00     0.003 A 
ATOM      7  C6  UNL d   1      -0.328   1.884   0.492  0.00  0.00    -0.001 A 
ENDROOT
TORSDOF 0
ENDMDL
