MODEL 1
REMARK minimizedAffinity -2.54814434
REMARK minimizedRMSD -1
REMARK  0 active torsions:
REMARK  status: ('A' for Active; 'I' for Inactive)
ROOT
ATOM      1  C   UNL d   1      -0.985   2.742   2.226  0.00  0.00     0.078 C 
ATOM      2  C1  UNL d   1      -0.785   1.632   1.237  0.00  0.00    -0.077 A 
ATOM      3  C2  UNL d   1      -1.264   1.739  -0.074  0.00  0.00    -0.001 A 
ATOM      4  C3  UNL d   1      -1.079   0.694  -0.980  0.00  0.00     0.003 A 
ATOM      5  C4  UNL d   1      -0.415  -0.466  -0.585  0.00  0.00    -0.005 A 
ATOM      6  C5  UNL d   1       0.063  -0.582   0.718  0.00  0.00     0.003 A 
ATOM      7  C6  UNL d   1      -0.121   0.462   1.626  0.00  0.00    -0.001 A 
ENDROOT
TORSDOF 0
ENDMDL
