MODEL 1
REMARK minimizedAffinity -5.18117857
REMARK minimizedRMSD -1
REMARK  0 active torsions:
REMARK  status: ('A' for Active; 'I' for Inactive)
ROOT
ATOM      1  C   UNL d   1       0.968  -0.960  -0.720  0.00  0.00     0.078 C 
ATOM      2  C1  UNL d   1       0.145  -0.008   0.094  0.00  0.00    -0.077 A 
ATOM      3  C2  UNL d   1      -0.053  -0.215   1.465  0.00  0.00    -0.001 A 
ATOM      4  C3  UNL d   1      -0.830   0.674   2.208  0.00  0.00     0.003 A 
ATOM      5  C4  UNL d   1      -1.417   1.777   1.590  0.00  0.00    -0.005 A 
ATOM      6  C5  UNL d   1      -1.227   1.990   0.226  0.00  0.00     0.003 A 
ATOM      7  C6  UNL d   1      -0.451   1.102  -0.519  0.00  0.00    -0.001 A 
ENDROOT
TORSDOF 0
ENDMDL
