MODEL 1
REMARK minimizedAffinity -5.6936636
REMARK minimizedRMSD -1
REMARK  0 active torsions:
REMARK  status: ('A' for Active; 'I' for Inactive)
ROOT
ATOM      1  C   UNL d   1       0.616  -0.613  -0.603  0.00  0.00     0.078 C 
ATOM      2  C1  UNL d   1      -0.323   0.290   0.140  0.00  0.00    -0.077 A 
ATOM      3  C2  UNL d   1      -1.240  -0.227   1.065  0.00  0.00    -0.001 A 
ATOM      4  C3  UNL d   1      -2.115   0.624   1.742  0.00  0.00     0.003 A 
ATOM      5  C4  UNL d   1      -2.083   1.996   1.501  0.00  0.00    -0.005 A 
ATOM      6  C5  UNL d   1      -1.176   2.519   0.582  0.00  0.00     0.003 A 
ATOM      7  C6  UNL d   1      -0.300   1.670  -0.097  0.00  0.00    -0.001 A 
ENDROOT
TORSDOF 0
ENDMDL
