MODEL 1
REMARK minimizedAffinity -5.03429079
REMARK minimizedRMSD -1
REMARK  0 active torsions:
REMARK  status: ('A' for Active; 'I' for Inactive)
ROOT
ATOM      1  C   UNL d   1      -2.339   2.415   1.514  0.00  0.00     0.078 C 
ATOM      2  C1  UNL d   1      -1.307   1.438   1.037  0.00  0.00    -0.077 A 
ATOM      3  C2  UNL d   1      -0.923   1.394  -0.309  0.00  0.00    -0.001 A 
ATOM      4  C3  UNL d   1       0.032   0.472  -0.741  0.00  0.00     0.003 A 
ATOM      5  C4  UNL d   1       0.611  -0.413   0.166  0.00  0.00    -0.005 A 
ATOM      6  C5  UNL d   1       0.234  -0.378   1.507  0.00  0.00     0.003 A 
ATOM      7  C6  UNL d   1      -0.721   0.543   1.941  0.00  0.00    -0.001 A 
ENDROOT
TORSDOF 0
ENDMDL
