MODEL 1
REMARK minimizedAffinity -4.01325607
REMARK minimizedRMSD -1
REMARK  0 active torsions:
REMARK  status: ('A' for Active; 'I' for Inactive)
ROOT
ATOM      1  C   UNL d   1      -1.852   1.842   1.783  0.00  0.00     0.078 C 
ATOM      2  C1  UNL d   1      -0.880   1.034   0.976  0.00  0.00    -0.077 A 
ATOM      3  C2  UNL d   1      -0.263  -0.101   1.517  0.00  0.00    -0.001 A 
ATOM      4  C3  UNL d   1       0.647  -0.839   0.757  0.00  0.00     0.003 A 
ATOM      5  C4  UNL d   1       0.949  -0.449  -0.546  0.00  0.00    -0.005 A 
ATOM      6  C5  UNL d   1       0.342   0.681  -1.091  0.00  0.00     0.003 A 
ATOM      7  C6  UNL d   1      -0.568   1.419  -0.333  0.00  0.00    -0.001 A 
ENDROOT
TORSDOF 0
ENDMDL
