MODEL 1
REMARK minimizedAffinity -5.09563255
REMARK minimizedRMSD -1
REMARK  0 active torsions:
REMARK  status: ('A' for Active; 'I' for Inactive)
ROOT
ATOM      1  C   UNL d   1       0.645  -0.338  -0.415  0.00  0.00     0.078 C 
ATOM      2  C1  UNL d   1      -0.150   0.790   0.172  0.00  0.00    -0.077 A 
ATOM      3  C2  UNL d   1       0.026   2.105  -0.275  0.00  0.00    -0.001 A 
ATOM      4  C3  UNL d   1      -0.714   3.147   0.288  0.00  0.00     0.003 A 
ATOM      5  C4  UNL d   1      -1.634   2.884   1.301  0.00  0.00    -0.005 A 
ATOM      6  C5  UNL d   1      -1.814   1.579   1.753  0.00  0.00     0.003 A 
ATOM      7  C6  UNL d   1      -1.076   0.536   1.192  0.00  0.00    -0.001 A 
ENDROOT
TORSDOF 0
ENDMDL
