MODEL 1
REMARK minimizedAffinity -5.70256472
REMARK minimizedRMSD -1
REMARK  0 active torsions:
REMARK  status: ('A' for Active; 'I' for Inactive)
ROOT
ATOM      1  C   UNL d   1       0.194   2.942  -1.208  0.00  0.00     0.078 C 
ATOM      2  C1  UNL d   1      -0.157   1.882  -0.207  0.00  0.00    -0.077 A 
ATOM      3  C2  UNL d   1      -1.089   2.128   0.808  0.00  0.00    -0.001 A 
ATOM      4  C3  UNL d   1      -1.399   1.135   1.738  0.00  0.00     0.003 A 
ATOM      5  C4  UNL d   1      -0.781  -0.112   1.663  0.00  0.00    -0.005 A 
ATOM      6  C5  UNL d   1       0.150  -0.366   0.658  0.00  0.00     0.003 A 
ATOM      7  C6  UNL d   1       0.461   0.627  -0.273  0.00  0.00    -0.001 A 
ENDROOT
TORSDOF 0
ENDMDL
