MODEL 1
REMARK minimizedAffinity -4.25503826
REMARK minimizedRMSD -1
REMARK  0 active torsions:
REMARK  status: ('A' for Active; 'I' for Inactive)
ROOT
ATOM      1  C   UNL d   1       0.942  -0.572  -0.600  0.00  0.00     0.078 C 
ATOM      2  C1  UNL d   1      -0.066   0.252   0.145  0.00  0.00    -0.077 A 
ATOM      3  C2  UNL d   1      -0.607  -0.193   1.357  0.00  0.00    -0.001 A 
ATOM      4  C3  UNL d   1      -1.551   0.579   2.035  0.00  0.00     0.003 A 
ATOM      5  C4  UNL d   1      -1.964   1.801   1.507  0.00  0.00    -0.005 A 
ATOM      6  C5  UNL d   1      -1.434   2.251   0.300  0.00  0.00     0.003 A 
ATOM      7  C6  UNL d   1      -0.489   1.480  -0.379  0.00  0.00    -0.001 A 
ENDROOT
TORSDOF 0
ENDMDL
