MODEL 1
REMARK minimizedAffinity -3.49507141
REMARK minimizedRMSD -1
REMARK  0 active torsions:
REMARK  status: ('A' for Active; 'I' for Inactive)
ROOT
ATOM      1  C   UNL d   1       0.571   2.320  -1.516  0.00  0.00     0.078 C 
ATOM      2  C1  UNL d   1       0.274   1.309  -0.449  0.00  0.00    -0.077 A 
ATOM      3  C2  UNL d   1      -0.482   1.652   0.679  0.00  0.00    -0.001 A 
ATOM      4  C3  UNL d   1      -0.742   0.703   1.669  0.00  0.00     0.003 A 
ATOM      5  C4  UNL d   1      -0.249  -0.594   1.542  0.00  0.00    -0.005 A 
ATOM      6  C5  UNL d   1       0.506  -0.943   0.425  0.00  0.00     0.003 A 
ATOM      7  C6  UNL d   1       0.768   0.004  -0.566  0.00  0.00    -0.001 A 
ENDROOT
TORSDOF 0
ENDMDL
