MODEL 1
REMARK minimizedAffinity -1.78130007
REMARK minimizedRMSD -1
REMARK  1 active torsions:
REMARK  status: ('A' for Active; 'I' for Inactive)
REMARK    1  A    between atoms: C3_4  and  O_7 
ROOT
ATOM      1  C   UNL d   1      -1.182   0.246  -0.584  0.00  0.00    -0.033 A 
ATOM      2  C1  UNL d   1      -1.004  -0.870  -1.404  0.00  0.00     0.039 A 
ATOM      3  C2  UNL d   1       0.151  -1.646  -1.288  0.00  0.00    -0.080 A 
ATOM      4  C3  UNL d   1       1.118  -1.297  -0.350  0.00  0.00     0.150 A 
ATOM      5  C4  UNL d   1       0.945  -0.188   0.473  0.00  0.00    -0.007 A 
ATOM      6  C5  UNL d   1      -0.209   0.586   0.355  0.00  0.00     0.039 A 
ENDROOT
BRANCH   4   7
ATOM      7  O   UNL d   1       2.264  -2.021  -0.204  0.00  0.00    -0.526 OA
ATOM      8  H5  UNL d   1       2.259  -2.740  -0.857  0.00  0.00     0.418 HD
ENDBRANCH   4   7
TORSDOF 1
ENDMDL
