MODEL 1
REMARK minimizedAffinity -4.5519352
REMARK minimizedRMSD -1
REMARK  1 active torsions:
REMARK  status: ('A' for Active; 'I' for Inactive)
REMARK    1  A    between atoms: C3_4  and  O_7 
ROOT
ATOM      1  C   UNL d   1      -0.287   0.111  -0.711  0.00  0.00    -0.033 A 
ATOM      2  C1  UNL d   1       0.148  -1.175  -1.037  0.00  0.00     0.039 A 
ATOM      3  C2  UNL d   1       1.413  -1.608  -0.638  0.00  0.00    -0.080 A 
ATOM      4  C3  UNL d   1       2.233  -0.748   0.088  0.00  0.00     0.150 A 
ATOM      5  C4  UNL d   1       1.804   0.533   0.420  0.00  0.00    -0.007 A 
ATOM      6  C5  UNL d   1       0.541   0.964   0.019  0.00  0.00     0.039 A 
ENDROOT
BRANCH   4   7
ATOM      7  O   UNL d   1       3.478  -1.124   0.495  0.00  0.00    -0.526 OA
ATOM      8  H5  UNL d   1       3.649  -2.024   0.170  0.00  0.00     0.418 HD
ENDBRANCH   4   7
TORSDOF 1
ENDMDL
