MODEL 1
REMARK minimizedAffinity -3.82280469
REMARK minimizedRMSD -1
REMARK  1 active torsions:
REMARK  status: ('A' for Active; 'I' for Inactive)
REMARK    1  A    between atoms: C3_4  and  O_7 
ROOT
ATOM      1  C   UNL d   1      -0.469  -1.945  -0.211  0.00  0.00    -0.033 A 
ATOM      2  C1  UNL d   1      -0.875  -0.620  -0.044  0.00  0.00     0.039 A 
ATOM      3  C2  UNL d   1       0.077   0.396   0.060  0.00  0.00    -0.080 A 
ATOM      4  C3  UNL d   1       1.430   0.074  -0.006  0.00  0.00     0.150 A 
ATOM      5  C4  UNL d   1       1.841  -1.243  -0.176  0.00  0.00    -0.007 A 
ATOM      6  C5  UNL d   1       0.889  -2.257  -0.279  0.00  0.00     0.039 A 
ENDROOT
BRANCH   4   7
ATOM      7  O   UNL d   1       2.395   1.031   0.095  0.00  0.00    -0.526 OA
ATOM      8  H5  UNL d   1       1.964   1.890   0.238  0.00  0.00     0.418 HD
ENDBRANCH   4   7
TORSDOF 1
ENDMDL
