MODEL 1
REMARK minimizedAffinity -3.33260274
REMARK minimizedRMSD -1
REMARK  1 active torsions:
REMARK  status: ('A' for Active; 'I' for Inactive)
REMARK    1  A    between atoms: C3_4  and  O_7 
ROOT
ATOM      1  C   UNL d   1      -0.306  -0.169  -0.384  0.00  0.00    -0.033 A 
ATOM      2  C1  UNL d   1      -0.024  -1.480  -0.772  0.00  0.00     0.039 A 
ATOM      3  C2  UNL d   1       1.133  -2.112  -0.312  0.00  0.00    -0.080 A 
ATOM      4  C3  UNL d   1       1.997  -1.424   0.535  0.00  0.00     0.150 A 
ATOM      5  C4  UNL d   1       1.720  -0.118   0.929  0.00  0.00    -0.007 A 
ATOM      6  C5  UNL d   1       0.565   0.512   0.467  0.00  0.00     0.039 A 
ENDROOT
BRANCH   4   7
ATOM      7  O   UNL d   1       3.141  -1.997   1.006  0.00  0.00    -0.526 OA
ATOM      8  H5  UNL d   1       3.216  -2.889   0.628  0.00  0.00     0.418 HD
ENDBRANCH   4   7
TORSDOF 1
ENDMDL
