MODEL 1
REMARK minimizedAffinity 0.363005936
REMARK minimizedRMSD -1
REMARK  1 active torsions:
REMARK  status: ('A' for Active; 'I' for Inactive)
REMARK    1  A    between atoms: C3_4  and  O_7 
ROOT
ATOM      1  C   UNL d   1       3.174   1.474  -0.485  0.00  0.00    -0.033 A 
ATOM      2  C1  UNL d   1       4.061   0.476  -0.892  0.00  0.00     0.039 A 
ATOM      3  C2  UNL d   1       3.670  -0.864  -0.857  0.00  0.00    -0.080 A 
ATOM      4  C3  UNL d   1       2.391  -1.192  -0.415  0.00  0.00     0.150 A 
ATOM      5  C4  UNL d   1       1.501  -0.202  -0.012  0.00  0.00    -0.007 A 
ATOM      6  C5  UNL d   1       1.893   1.135  -0.046  0.00  0.00     0.039 A 
ENDROOT
BRANCH   4   7
ATOM      7  O   UNL d   1       1.966  -2.486  -0.359  0.00  0.00    -0.526 OA
ATOM      8  H5  UNL d   1       2.696  -3.062  -0.640  0.00  0.00     0.418 HD
ENDBRANCH   4   7
TORSDOF 1
ENDMDL
