MODEL 1
REMARK minimizedAffinity -5.30991745
REMARK minimizedRMSD -1
REMARK  1 active torsions:
REMARK  status: ('A' for Active; 'I' for Inactive)
REMARK    1  A    between atoms: C3_4  and  O_7 
ROOT
ATOM      1  C   UNL d   1      -0.229   1.768  -1.516  0.00  0.00    -0.033 A 
ATOM      2  C1  UNL d   1      -0.104   0.753  -0.565  0.00  0.00     0.039 A 
ATOM      3  C2  UNL d   1      -0.295   1.035   0.789  0.00  0.00    -0.080 A 
ATOM      4  C3  UNL d   1      -0.611   2.334   1.179  0.00  0.00     0.150 A 
ATOM      5  C4  UNL d   1      -0.741   3.349   0.236  0.00  0.00    -0.007 A 
ATOM      6  C5  UNL d   1      -0.550   3.065  -1.115  0.00  0.00     0.039 A 
ENDROOT
BRANCH   4   7
ATOM      7  O   UNL d   1      -0.802   2.659   2.489  0.00  0.00    -0.526 OA
ATOM      8  H5  UNL d   1      -0.651   1.864   3.028  0.00  0.00     0.418 HD
ENDBRANCH   4   7
TORSDOF 1
ENDMDL
