MODEL 1
REMARK minimizedAffinity -4.39738703
REMARK minimizedRMSD -1
REMARK  1 active torsions:
REMARK  status: ('A' for Active; 'I' for Inactive)
REMARK    1  A    between atoms: C3_4  and  O_7 
ROOT
ATOM      1  C   UNL d   1       0.478  -0.148  -0.177  0.00  0.00    -0.033 A 
ATOM      2  C1  UNL d   1      -0.418   0.650  -0.893  0.00  0.00     0.039 A 
ATOM      3  C2  UNL d   1      -1.124   1.664  -0.244  0.00  0.00    -0.080 A 
ATOM      4  C3  UNL d   1      -0.925   1.872   1.118  0.00  0.00     0.150 A 
ATOM      5  C4  UNL d   1      -0.032   1.084   1.836  0.00  0.00    -0.007 A 
ATOM      6  C5  UNL d   1       0.672   0.071   1.187  0.00  0.00     0.039 A 
ENDROOT
BRANCH   4   7
ATOM      7  O   UNL d   1      -1.595   2.847   1.795  0.00  0.00    -0.526 OA
ATOM      8  H5  UNL d   1      -2.199   3.292   1.177  0.00  0.00     0.418 HD
ENDBRANCH   4   7
TORSDOF 1
ENDMDL
