MODEL 1
REMARK minimizedAffinity 6.00715637
REMARK minimizedRMSD -1
REMARK  2 active torsions:
REMARK  status: ('A' for Active; 'I' for Inactive)
REMARK    1  A    between atoms: C2'_3  and  C1'_4 
REMARK    2  A    between atoms: C1'_4  and  C1_5 
ROOT
ATOM      1  C1  I4B d   1       0.416   1.109   0.777  0.00  0.00    -0.075 A 
ATOM      2  C2  I4B d   1      -0.925   0.816   0.809  0.00  0.00     0.003 A 
ATOM      3  C3  I4B d   1      -1.611   0.753   2.047  0.00  0.00     0.002 A 
ATOM      4  C4  I4B d   1      -0.911   0.939   3.222  0.00  0.00    -0.004 A 
ATOM      5  C5  I4B d   1       0.443   1.258   3.185  0.00  0.00     0.002 A 
ATOM      6  C6  I4B d   1       1.109   1.356   1.955  0.00  0.00     0.003 A 
ENDROOT
BRANCH   1   7
ATOM      7  C1' I4B d   1       1.116   1.135  -0.545  0.00  0.00     0.060 C 
BRANCH   7   8
ATOM      8  C2' I4B d   1       1.998  -0.095  -0.630  0.00  0.00    -0.013 C 
ATOM      9  C4' I4B d   1       1.757  -0.851  -1.910  0.00  0.00     0.013 C 
ATOM     10  C3' I4B d   1       3.425   0.352  -0.525  0.00  0.00     0.013 C 
ENDBRANCH   7   8
ENDBRANCH   1   7
TORSDOF 2
ENDMDL
