MODEL 1
REMARK minimizedAffinity 4.11436033
REMARK minimizedRMSD -1
REMARK  2 active torsions:
REMARK  status: ('A' for Active; 'I' for Inactive)
REMARK    1  A    between atoms: C2'_3  and  C1'_4 
REMARK    2  A    between atoms: C1'_4  and  C1_5 
ROOT
ATOM      1  C1  I4B d   1      -0.204   2.789   1.302  0.00  0.00    -0.075 A 
ATOM      2  C2  I4B d   1       1.032   2.242   1.545  0.00  0.00     0.003 A 
ATOM      3  C3  I4B d   1       1.159   1.116   2.394  0.00  0.00     0.002 A 
ATOM      4  C4  I4B d   1       0.038   0.605   3.017  0.00  0.00    -0.004 A 
ATOM      5  C5  I4B d   1      -1.216   1.146   2.752  0.00  0.00     0.002 A 
ATOM      6  C6  I4B d   1      -1.340   2.237   1.880  0.00  0.00     0.003 A 
ENDROOT
BRANCH   1   7
ATOM      7  C1' I4B d   1      -0.298   3.997   0.426  0.00  0.00     0.060 C 
BRANCH   7   8
ATOM      8  C2' I4B d   1      -1.270   3.687  -0.694  0.00  0.00    -0.013 C 
ATOM      9  C4' I4B d   1      -2.015   4.922  -1.127  0.00  0.00     0.013 C 
ATOM     10  C3' I4B d   1      -0.491   3.098  -1.833  0.00  0.00     0.013 C 
ENDBRANCH   7   8
ENDBRANCH   1   7
TORSDOF 2
ENDMDL
