MODEL 1
REMARK minimizedAffinity 6.65197182
REMARK minimizedRMSD -1
REMARK  2 active torsions:
REMARK  status: ('A' for Active; 'I' for Inactive)
REMARK    1  A    between atoms: C2'_3  and  C1'_4 
REMARK    2  A    between atoms: C1'_4  and  C1_5 
ROOT
ATOM      1  C1  I4B d   1      -1.749  -0.702  -0.009  0.00  0.00    -0.075 A 
ATOM      2  C2  I4B d   1      -0.432  -0.703   0.375  0.00  0.00     0.003 A 
ATOM      3  C3  I4B d   1       0.056   0.297   1.251  0.00  0.00     0.002 A 
ATOM      4  C4  I4B d   1      -0.791   1.301   1.675  0.00  0.00    -0.004 A 
ATOM      5  C5  I4B d   1      -2.132   1.287   1.302  0.00  0.00     0.002 A 
ATOM      6  C6  I4B d   1      -2.618   0.272   0.465  0.00  0.00     0.003 A 
ENDROOT
BRANCH   1   7
ATOM      7  C1' I4B d   1      -2.223  -1.754  -0.962  0.00  0.00     0.060 C 
BRANCH   7   8
ATOM      8  C2' I4B d   1      -2.676  -1.064  -2.232  0.00  0.00    -0.013 C 
ATOM      9  C4' I4B d   1      -1.502  -0.684  -3.095  0.00  0.00     0.013 C 
ATOM     10  C3' I4B d   1      -3.603  -1.993  -2.958  0.00  0.00     0.013 C 
ENDBRANCH   7   8
ENDBRANCH   1   7
TORSDOF 2
ENDMDL
