MODEL 1
REMARK minimizedAffinity 13.0114355
REMARK minimizedRMSD -1
REMARK  2 active torsions:
REMARK  status: ('A' for Active; 'I' for Inactive)
REMARK    1  A    between atoms: C2'_3  and  C1'_4 
REMARK    2  A    between atoms: C1'_4  and  C1_5 
ROOT
ATOM      1  C1  I4B d   1      -1.613   2.786   1.047  0.00  0.00    -0.075 A 
ATOM      2  C2  I4B d   1      -2.038   1.601   1.593  0.00  0.00     0.003 A 
ATOM      3  C3  I4B d   1      -1.223   0.912   2.525  0.00  0.00     0.002 A 
ATOM      4  C4  I4B d   1       0.022   1.416   2.841  0.00  0.00    -0.004 A 
ATOM      5  C5  I4B d   1       0.442   2.629   2.304  0.00  0.00     0.002 A 
ATOM      6  C6  I4B d   1      -0.386   3.326   1.411  0.00  0.00     0.003 A 
ENDROOT
BRANCH   1   7
ATOM      7  C1' I4B d   1      -2.484   3.470   0.042  0.00  0.00     0.060 C 
BRANCH   7   8
ATOM      8  C2' I4B d   1      -1.585   4.137  -0.978  0.00  0.00    -0.013 C 
ATOM      9  C4' I4B d   1      -1.231   3.191  -2.095  0.00  0.00     0.013 C 
ATOM     10  C3' I4B d   1      -2.296   5.349  -1.501  0.00  0.00     0.013 C 
ENDBRANCH   7   8
ENDBRANCH   1   7
TORSDOF 2
ENDMDL
