MODEL 1
REMARK minimizedAffinity 4.0166297
REMARK minimizedRMSD -1
REMARK  2 active torsions:
REMARK  status: ('A' for Active; 'I' for Inactive)
REMARK    1  A    between atoms: C2'_3  and  C1'_4 
REMARK    2  A    between atoms: C1'_4  and  C1_5 
ROOT
ATOM      1  C1  I4B d   1       1.586   0.068  -0.569  0.00  0.00    -0.075 A 
ATOM      2  C2  I4B d   1       0.538   0.440  -1.373  0.00  0.00     0.003 A 
ATOM      3  C3  I4B d   1       0.636   0.305  -2.779  0.00  0.00     0.002 A 
ATOM      4  C4  I4B d   1       1.810  -0.157  -3.338  0.00  0.00    -0.004 A 
ATOM      5  C5  I4B d   1       2.863  -0.556  -2.519  0.00  0.00     0.002 A 
ATOM      6  C6  I4B d   1       2.747  -0.455  -1.125  0.00  0.00     0.003 A 
ENDROOT
BRANCH   1   7
ATOM      7  C1' I4B d   1       1.462   0.256   0.910  0.00  0.00     0.060 C 
BRANCH   7   8
ATOM      8  C2' I4B d   1       0.741   1.566   1.155  0.00  0.00    -0.013 C 
ATOM      9  C4' I4B d   1       0.137   1.606   2.534  0.00  0.00     0.013 C 
ATOM     10  C3' I4B d   1       1.727   2.679   0.964  0.00  0.00     0.013 C 
ENDBRANCH   7   8
ENDBRANCH   1   7
TORSDOF 2
ENDMDL
