MODEL 1
REMARK minimizedAffinity 2.61570525
REMARK minimizedRMSD -1
REMARK  2 active torsions:
REMARK  status: ('A' for Active; 'I' for Inactive)
REMARK    1  A    between atoms: C2'_3  and  C1'_4 
REMARK    2  A    between atoms: C1'_4  and  C1_5 
ROOT
ATOM      1  C1  I4B d   1       0.989   0.155   1.303  0.00  0.00    -0.075 A 
ATOM      2  C2  I4B d   1       2.157   0.826   1.568  0.00  0.00     0.003 A 
ATOM      3  C3  I4B d   1       3.243   0.750   0.662  0.00  0.00     0.002 A 
ATOM      4  C4  I4B d   1       3.137  -0.044  -0.462  0.00  0.00    -0.004 A 
ATOM      5  C5  I4B d   1       1.944  -0.704  -0.740  0.00  0.00     0.002 A 
ATOM      6  C6  I4B d   1       0.858  -0.595   0.141  0.00  0.00     0.003 A 
ENDROOT
BRANCH   1   7
ATOM      7  C1' I4B d   1      -0.127   0.231   2.297  0.00  0.00     0.060 C 
BRANCH   7   8
ATOM      8  C2' I4B d   1      -1.000   1.413   1.928  0.00  0.00    -0.013 C 
ATOM      9  C4' I4B d   1      -2.327   1.352   2.638  0.00  0.00     0.013 C 
ATOM     10  C3' I4B d   1      -0.256   2.667   2.278  0.00  0.00     0.013 C 
ENDBRANCH   7   8
ENDBRANCH   1   7
TORSDOF 2
ENDMDL
