MODEL 1
REMARK minimizedAffinity 5.12128973
REMARK minimizedRMSD -1
REMARK  2 active torsions:
REMARK  status: ('A' for Active; 'I' for Inactive)
REMARK    1  A    between atoms: C2'_3  and  C1'_4 
REMARK    2  A    between atoms: C1'_4  and  C1_5 
ROOT
ATOM      1  C1  I4B d   1      -3.986   3.953   1.201  0.00  0.00    -0.075 A 
ATOM      2  C2  I4B d   1      -4.512   5.103   0.668  0.00  0.00     0.003 A 
ATOM      3  C3  I4B d   1      -5.241   6.000   1.487  0.00  0.00     0.002 A 
ATOM      4  C4  I4B d   1      -5.462   5.683   2.812  0.00  0.00    -0.004 A 
ATOM      5  C5  I4B d   1      -4.909   4.528   3.356  0.00  0.00     0.002 A 
ATOM      6  C6  I4B d   1      -4.155   3.663   2.549  0.00  0.00     0.003 A 
ENDROOT
BRANCH   1   7
ATOM      7  C1' I4B d   1      -3.249   3.013   0.301  0.00  0.00     0.060 C 
BRANCH   7   8
ATOM      8  C2' I4B d   1      -1.797   3.443   0.264  0.00  0.00    -0.013 C 
ATOM      9  C4' I4B d   1      -0.956   2.605   1.191  0.00  0.00     0.013 C 
ATOM     10  C3' I4B d   1      -1.316   3.332  -1.152  0.00  0.00     0.013 C 
ENDBRANCH   7   8
ENDBRANCH   1   7
TORSDOF 2
ENDMDL
