MODEL 1
REMARK minimizedAffinity 1.94761908
REMARK minimizedRMSD -1
REMARK  2 active torsions:
REMARK  status: ('A' for Active; 'I' for Inactive)
REMARK    1  A    between atoms: C2'_3  and  C1'_4 
REMARK    2  A    between atoms: C1'_4  and  C1_5 
ROOT
ATOM      1  C1  I4B d   1      -0.843   1.349   1.260  0.00  0.00    -0.075 A 
ATOM      2  C2  I4B d   1      -0.247   0.382   0.490  0.00  0.00     0.003 A 
ATOM      3  C3  I4B d   1       1.071   0.569   0.007  0.00  0.00     0.002 A 
ATOM      4  C4  I4B d   1       1.732   1.750   0.274  0.00  0.00    -0.004 A 
ATOM      5  C5  I4B d   1       1.134   2.720   1.074  0.00  0.00     0.002 A 
ATOM      6  C6  I4B d   1      -0.157   2.513   1.581  0.00  0.00     0.003 A 
ENDROOT
BRANCH   1   7
ATOM      7  C1' I4B d   1      -2.248   1.134   1.726  0.00  0.00     0.060 C 
BRANCH   7   8
ATOM      8  C2' I4B d   1      -2.924   2.487   1.814  0.00  0.00    -0.013 C 
ATOM      9  C4' I4B d   1      -3.220   3.038   0.444  0.00  0.00     0.013 C 
ATOM     10  C3' I4B d   1      -4.180   2.327   2.616  0.00  0.00     0.013 C 
ENDBRANCH   7   8
ENDBRANCH   1   7
TORSDOF 2
ENDMDL
