MODEL 1
REMARK minimizedAffinity -3.6821034
REMARK minimizedRMSD -1
REMARK  0 active torsions:
REMARK  status: ('A' for Active; 'I' for Inactive)
ROOT
ATOM      1  C   UNL d   1      -4.094   0.810   2.278  0.00  0.00     0.172 C 
ATOM      2  N   UNL d   1      -3.488   1.739   3.203  0.00  0.00    -0.070 N 
ATOM      3  C1  UNL d   1      -4.124   2.787   3.814  0.00  0.00    -0.004 A 
ATOM      4  C2  UNL d   1      -3.205   3.427   4.617  0.00  0.00    -0.047 A 
ATOM      5  C3  UNL d   1      -1.974   2.741   4.483  0.00  0.00    -0.047 A 
ATOM      6  C4  UNL d   1      -2.178   1.701   3.602  0.00  0.00    -0.004 A 
ENDROOT
TORSDOF 0
ENDMDL
