MODEL 1
REMARK minimizedAffinity -2.68655419
REMARK minimizedRMSD -1
REMARK  0 active torsions:
REMARK  status: ('A' for Active; 'I' for Inactive)
ROOT
ATOM      1  C   UNL d   1       1.328   0.044  -2.651  0.00  0.00     0.172 C 
ATOM      2  N   UNL d   1       0.754   0.072  -1.326  0.00  0.00    -0.070 N 
ATOM      3  C1  UNL d   1       0.698   1.166  -0.504  0.00  0.00    -0.004 A 
ATOM      4  C2  UNL d   1       0.077   0.783   0.665  0.00  0.00    -0.047 A 
ATOM      5  C3  UNL d   1      -0.251  -0.588   0.541  0.00  0.00    -0.047 A 
ATOM      6  C4  UNL d   1       0.179  -1.003  -0.701  0.00  0.00    -0.004 A 
ENDROOT
TORSDOF 0
ENDMDL
