MODEL 1
REMARK minimizedAffinity -2.95525265
REMARK minimizedRMSD -1
REMARK  0 active torsions:
REMARK  status: ('A' for Active; 'I' for Inactive)
ROOT
ATOM      1  C   UNL d   1      -0.578  -0.758   1.222  0.00  0.00     0.172 C 
ATOM      2  N   UNL d   1      -1.757  -0.150   1.793  0.00  0.00    -0.070 N 
ATOM      3  C1  UNL d   1      -3.046  -0.566   1.593  0.00  0.00    -0.004 A 
ATOM      4  C2  UNL d   1      -3.875   0.271   2.309  0.00  0.00    -0.047 A 
ATOM      5  C3  UNL d   1      -3.056   1.223   2.960  0.00  0.00    -0.047 A 
ATOM      6  C4  UNL d   1      -1.749   0.939   2.624  0.00  0.00    -0.004 A 
ENDROOT
TORSDOF 0
ENDMDL
