MODEL 1
REMARK minimizedAffinity -1.607813
REMARK minimizedRMSD -1
REMARK  0 active torsions:
REMARK  status: ('A' for Active; 'I' for Inactive)
ROOT
ATOM      1  C   UNL d   1      -4.166   2.391  -5.871  0.00  0.00     0.172 C 
ATOM      2  N   UNL d   1      -4.614   3.763  -5.923  0.00  0.00    -0.070 N 
ATOM      3  C1  UNL d   1      -3.804   4.866  -5.951  0.00  0.00    -0.004 A 
ATOM      4  C2  UNL d   1      -4.611   5.982  -6.000  0.00  0.00    -0.047 A 
ATOM      5  C3  UNL d   1      -5.953   5.533  -6.000  0.00  0.00    -0.047 A 
ATOM      6  C4  UNL d   1      -5.926   4.156  -5.952  0.00  0.00    -0.004 A 
ENDROOT
TORSDOF 0
ENDMDL
