MODEL 1
REMARK minimizedAffinity -3.54286885
REMARK minimizedRMSD -1
REMARK  0 active torsions:
REMARK  status: ('A' for Active; 'I' for Inactive)
ROOT
ATOM      1  C   UNL d   1      -0.530  -0.736   1.144  0.00  0.00     0.172 C 
ATOM      2  N   UNL d   1       0.126  -0.487  -0.118  0.00  0.00    -0.070 N 
ATOM      3  C1  UNL d   1       0.854   0.629  -0.433  0.00  0.00    -0.004 A 
ATOM      4  C2  UNL d   1       1.313   0.484  -1.724  0.00  0.00    -0.047 A 
ATOM      5  C3  UNL d   1       0.844  -0.763  -2.203  0.00  0.00    -0.047 A 
ATOM      6  C4  UNL d   1       0.112  -1.343  -1.188  0.00  0.00    -0.004 A 
ENDROOT
TORSDOF 0
ENDMDL
