MODEL 1
REMARK minimizedAffinity -2.90041637
REMARK minimizedRMSD -1
REMARK  0 active torsions:
REMARK  status: ('A' for Active; 'I' for Inactive)
ROOT
ATOM      1  C   UNL d   1      -5.102   0.911  -5.638  0.00  0.00     0.172 C 
ATOM      2  N   UNL d   1      -4.987   2.346  -5.528  0.00  0.00    -0.070 N 
ATOM      3  C1  UNL d   1      -6.000   3.204  -5.193  0.00  0.00    -0.004 A 
ATOM      4  C2  UNL d   1      -5.487   4.483  -5.195  0.00  0.00    -0.047 A 
ATOM      5  C3  UNL d   1      -4.119   4.391  -5.545  0.00  0.00    -0.047 A 
ATOM      6  C4  UNL d   1      -3.836   3.056  -5.746  0.00  0.00    -0.004 A 
ENDROOT
TORSDOF 0
ENDMDL
