MODEL 1
REMARK minimizedAffinity -2.76259637
REMARK minimizedRMSD -1
REMARK  0 active torsions:
REMARK  status: ('A' for Active; 'I' for Inactive)
ROOT
ATOM      1  C   UNL d   1       0.418   1.166   0.174  0.00  0.00     0.172 C 
ATOM      2  N   UNL d   1       0.794   0.352  -0.958  0.00  0.00    -0.070 N 
ATOM      3  C1  UNL d   1       1.931   0.502  -1.706  0.00  0.00    -0.004 A 
ATOM      4  C2  UNL d   1       1.921  -0.466  -2.688  0.00  0.00    -0.047 A 
ATOM      5  C3  UNL d   1       0.737  -1.223  -2.523  0.00  0.00    -0.047 A 
ATOM      6  C4  UNL d   1       0.058  -0.696  -1.445  0.00  0.00    -0.004 A 
ENDROOT
TORSDOF 0
ENDMDL
