MODEL 1
REMARK minimizedAffinity 1.65705287
REMARK minimizedRMSD -1
REMARK  0 active torsions:
REMARK  status: ('A' for Active; 'I' for Inactive)
ROOT
ATOM      1  C   UNL d   1       0.403   0.849   1.641  0.00  0.00     0.172 C 
ATOM      2  N   UNL d   1       1.035   0.349   0.443  0.00  0.00    -0.070 N 
ATOM      3  C1  UNL d   1       2.009   0.991  -0.273  0.00  0.00    -0.004 A 
ATOM      4  C2  UNL d   1       2.347   0.187  -1.341  0.00  0.00    -0.047 A 
ATOM      5  C3  UNL d   1       1.547  -0.977  -1.264  0.00  0.00    -0.047 A 
ATOM      6  C4  UNL d   1       0.744  -0.851  -0.150  0.00  0.00    -0.004 A 
ENDROOT
TORSDOF 0
ENDMDL
