MODEL 1
REMARK minimizedAffinity -2.45846772
REMARK minimizedRMSD -1
REMARK  0 active torsions:
REMARK  status: ('A' for Active; 'I' for Inactive)
ROOT
ATOM      1  C   UNL d   1      -1.843   3.916  -5.996  0.00  0.00     0.172 C 
ATOM      2  N   UNL d   1      -3.285   3.835  -5.997  0.00  0.00    -0.070 N 
ATOM      3  C1  UNL d   1      -4.144   4.902  -5.999  0.00  0.00    -0.004 A 
ATOM      4  C2  UNL d   1      -5.430   4.407  -6.000  0.00  0.00    -0.047 A 
ATOM      5  C3  UNL d   1      -5.341   2.995  -5.997  0.00  0.00    -0.047 A 
ATOM      6  C4  UNL d   1      -4.001   2.668  -5.995  0.00  0.00    -0.004 A 
ENDROOT
TORSDOF 0
ENDMDL
