MODEL 1
REMARK minimizedAffinity -3.63072038
REMARK minimizedRMSD -1
REMARK  0 active torsions:
REMARK  status: ('A' for Active; 'I' for Inactive)
ROOT
ATOM      1  C   UNL d   1       1.509   0.025  -2.579  0.00  0.00     0.172 C 
ATOM      2  N   UNL d   1       0.807  -0.100  -1.323  0.00  0.00    -0.070 N 
ATOM      3  C1  UNL d   1       0.226  -1.244  -0.844  0.00  0.00    -0.004 A 
ATOM      4  C2  UNL d   1      -0.338  -0.950   0.379  0.00  0.00    -0.047 A 
ATOM      5  C3  UNL d   1      -0.087   0.417   0.643  0.00  0.00    -0.047 A 
ATOM      6  C4  UNL d   1       0.623   0.919  -0.427  0.00  0.00    -0.004 A 
ENDROOT
TORSDOF 0
ENDMDL
