MODEL 1
REMARK minimizedAffinity -3.03718328
REMARK minimizedRMSD -1
REMARK  0 active torsions:
REMARK  status: ('A' for Active; 'I' for Inactive)
ROOT
ATOM      1  C   UNL d   1       0.599  -2.400  -0.456  0.00  0.00     0.172 C 
ATOM      2  N   UNL d   1       0.395  -1.042  -0.008  0.00  0.00    -0.070 N 
ATOM      3  C1  UNL d   1       0.675   0.088  -0.729  0.00  0.00    -0.004 A 
ATOM      4  C2  UNL d   1       0.340   1.177   0.045  0.00  0.00    -0.047 A 
ATOM      5  C3  UNL d   1      -0.158   0.685   1.275  0.00  0.00    -0.047 A 
ATOM      6  C4  UNL d   1      -0.112  -0.692   1.216  0.00  0.00    -0.004 A 
ENDROOT
TORSDOF 0
ENDMDL
