MODEL 1
REMARK minimizedAffinity -1.86899149
REMARK minimizedRMSD -1
REMARK  0 active torsions:
REMARK  status: ('A' for Active; 'I' for Inactive)
ROOT
ATOM      1  C   UNL d   1       0.442  -0.984  -1.532  0.00  0.00     0.172 C 
ATOM      2  N   UNL d   1       0.088  -0.234  -0.350  0.00  0.00    -0.070 N 
ATOM      3  C1  UNL d   1      -0.676  -0.694   0.689  0.00  0.00    -0.004 A 
ATOM      4  C2  UNL d   1      -0.781   0.319   1.617  0.00  0.00    -0.047 A 
ATOM      5  C3  UNL d   1      -0.055   1.427   1.118  0.00  0.00    -0.047 A 
ATOM      6  C4  UNL d   1       0.473   1.057  -0.101  0.00  0.00    -0.004 A 
ENDROOT
TORSDOF 0
ENDMDL
