MODEL 1
REMARK minimizedAffinity -3.70999455
REMARK minimizedRMSD -1
REMARK  0 active torsions:
REMARK  status: ('A' for Active; 'I' for Inactive)
ROOT
ATOM      1  C   UNL d   1      -0.760  -0.099   0.431  0.00  0.00     0.172 C 
ATOM      2  N   UNL d   1       0.090   0.108  -0.718  0.00  0.00    -0.070 N 
ATOM      3  C1  UNL d   1       0.294  -0.790  -1.732  0.00  0.00    -0.004 A 
ATOM      4  C2  UNL d   1       1.166  -0.218  -2.633  0.00  0.00    -0.047 A 
ATOM      5  C3  UNL d   1       1.499   1.067  -2.142  0.00  0.00    -0.047 A 
ATOM      6  C4  UNL d   1       0.818   1.243  -0.956  0.00  0.00    -0.004 A 
ENDROOT
TORSDOF 0
ENDMDL
