MODEL 1
REMARK minimizedAffinity -2.6650331
REMARK minimizedRMSD -1
REMARK  0 active torsions:
REMARK  status: ('A' for Active; 'I' for Inactive)
ROOT
ATOM      1  C   UNL d   1      -5.097   1.095  -6.000  0.00  0.00     0.172 C 
ATOM      2  N   UNL d   1      -4.405   2.354  -5.852  0.00  0.00    -0.070 N 
ATOM      3  C1  UNL d   1      -4.978   3.595  -5.938  0.00  0.00    -0.004 A 
ATOM      4  C2  UNL d   1      -3.986   4.532  -5.741  0.00  0.00    -0.047 A 
ATOM      5  C3  UNL d   1      -2.776   3.830  -5.530  0.00  0.00    -0.047 A 
ATOM      6  C4  UNL d   1      -3.064   2.483  -5.604  0.00  0.00    -0.004 A 
ENDROOT
TORSDOF 0
ENDMDL
