MODEL 1
REMARK minimizedAffinity -3.62719154
REMARK minimizedRMSD -1
REMARK  0 active torsions:
REMARK  status: ('A' for Active; 'I' for Inactive)
ROOT
ATOM      1  C   UNL d   1       0.843   1.399   0.399  0.00  0.00     0.172 C 
ATOM      2  N   UNL d   1       1.192   0.562  -0.724  0.00  0.00    -0.070 N 
ATOM      3  C1  UNL d   1       2.216   0.791  -1.603  0.00  0.00    -0.004 A 
ATOM      4  C2  UNL d   1       2.218  -0.232  -2.526  0.00  0.00    -0.047 A 
ATOM      5  C3  UNL d   1       1.157  -1.106  -2.191  0.00  0.00    -0.047 A 
ATOM      6  C4  UNL d   1       0.538  -0.591  -1.072  0.00  0.00    -0.004 A 
ENDROOT
TORSDOF 0
ENDMDL
