MODEL 1
REMARK minimizedAffinity -0.623373508
REMARK minimizedRMSD -1
REMARK  0 active torsions:
REMARK  status: ('A' for Active; 'I' for Inactive)
ROOT
ATOM      1  C   UNL d   1      -0.029   2.704  -0.138  0.00  0.00    -0.002 A 
ATOM      2  C1  UNL d   1      -0.645   2.649   1.104  0.00  0.00     0.010 A 
ATOM      3  C2  UNL d   1      -0.663   1.461   1.837  0.00  0.00     0.041 A 
ATOM      4  C3  UNL d   1      -0.044   0.317   1.295  0.00  0.00    -0.075 A 
ATOM      5  S   UNL d   1       0.059  -1.247   2.013  0.00  0.00     0.015 SA
ATOM      6  C4  UNL d   1       0.924  -1.880   0.688  0.00  0.00     0.022 A 
ATOM      7  C5  UNL d   1       1.137  -0.935  -0.287  0.00  0.00     0.026 A 
ATOM      8  C6  UNL d   1       0.583   0.347   0.047  0.00  0.00    -0.082 A 
ATOM      9  C7  UNL d   1       0.584   1.567  -0.672  0.00  0.00     0.045 A 
ENDROOT
TORSDOF 0
ENDMDL
