MODEL 1
REMARK minimizedAffinity 3.64115858
REMARK minimizedRMSD -1
REMARK  0 active torsions:
REMARK  status: ('A' for Active; 'I' for Inactive)
ROOT
ATOM      1  C   UNL d   1       3.308  -4.821  -0.097  0.00  0.00    -0.002 A 
ATOM      2  C1  UNL d   1       2.551  -5.976  -0.238  0.00  0.00     0.010 A 
ATOM      3  C2  UNL d   1       1.445  -6.000  -1.090  0.00  0.00     0.041 A 
ATOM      4  C3  UNL d   1       1.111  -4.834  -1.807  0.00  0.00    -0.075 A 
ATOM      5  S   UNL d   1      -0.199  -4.630  -2.909  0.00  0.00     0.015 SA
ATOM      6  C4  UNL d   1       0.216  -3.006  -3.218  0.00  0.00     0.022 A 
ATOM      7  C5  UNL d   1       1.324  -2.612  -2.507  0.00  0.00     0.026 A 
ATOM      8  C6  UNL d   1       1.859  -3.659  -1.682  0.00  0.00    -0.082 A 
ATOM      9  C7  UNL d   1       2.973  -3.666  -0.809  0.00  0.00     0.045 A 
ENDROOT
TORSDOF 0
ENDMDL
