MODEL 1
REMARK minimizedAffinity -2.59422898
REMARK minimizedRMSD -1
REMARK  0 active torsions:
REMARK  status: ('A' for Active; 'I' for Inactive)
ROOT
ATOM      1  C   UNL d   1      -2.158   1.790   1.498  0.00  0.00    -0.002 A 
ATOM      2  C1  UNL d   1      -1.887   0.510   1.961  0.00  0.00     0.010 A 
ATOM      3  C2  UNL d   1      -0.966  -0.305   1.300  0.00  0.00     0.041 A 
ATOM      4  C3  UNL d   1      -0.314   0.193   0.155  0.00  0.00    -0.075 A 
ATOM      5  S   UNL d   1       0.852  -0.625  -0.816  0.00  0.00     0.015 SA
ATOM      6  C4  UNL d   1       1.019   0.706  -1.868  0.00  0.00     0.022 A 
ATOM      7  C5  UNL d   1       0.212   1.757  -1.502  0.00  0.00     0.026 A 
ATOM      8  C6  UNL d   1      -0.569   1.479  -0.330  0.00  0.00    -0.082 A 
ATOM      9  C7  UNL d   1      -1.509   2.281   0.362  0.00  0.00     0.045 A 
ENDROOT
TORSDOF 0
ENDMDL
