MODEL 1
REMARK minimizedAffinity -4.8727088
REMARK minimizedRMSD -1
REMARK  0 active torsions:
REMARK  status: ('A' for Active; 'I' for Inactive)
ROOT
ATOM      1  C   UNL d   1      -1.886   1.744   2.261  0.00  0.00    -0.002 A 
ATOM      2  C1  UNL d   1      -1.855   2.579   1.154  0.00  0.00     0.010 A 
ATOM      3  C2  UNL d   1      -1.136   2.219   0.012  0.00  0.00     0.041 A 
ATOM      4  C3  UNL d   1      -0.445   0.991   0.002  0.00  0.00    -0.075 A 
ATOM      5  S   UNL d   1       0.501   0.341  -1.285  0.00  0.00     0.015 SA
ATOM      6  C4  UNL d   1       0.884  -1.061  -0.396  0.00  0.00     0.022 A 
ATOM      7  C5  UNL d   1       0.313  -1.050   0.855  0.00  0.00     0.026 A 
ATOM      8  C6  UNL d   1      -0.462   0.132   1.105  0.00  0.00    -0.082 A 
ATOM      9  C7  UNL d   1      -1.199   0.527   2.247  0.00  0.00     0.045 A 
ENDROOT
TORSDOF 0
ENDMDL
