MODEL 1
REMARK minimizedAffinity -2.84165859
REMARK minimizedRMSD -1
REMARK  0 active torsions:
REMARK  status: ('A' for Active; 'I' for Inactive)
ROOT
ATOM      1  C   UNL d   1       1.674   0.201  -0.886  0.00  0.00    -0.002 A 
ATOM      2  C1  UNL d   1       0.382   0.073  -0.397  0.00  0.00     0.010 A 
ATOM      3  C2  UNL d   1      -0.446  -0.961  -0.839  0.00  0.00     0.041 A 
ATOM      4  C3  UNL d   1       0.053  -1.875  -1.788  0.00  0.00    -0.075 A 
ATOM      5  S   UNL d   1      -0.780  -3.220  -2.473  0.00  0.00     0.015 SA
ATOM      6  C4  UNL d   1       0.561  -3.658  -3.430  0.00  0.00     0.022 A 
ATOM      7  C5  UNL d   1       1.626  -2.809  -3.245  0.00  0.00     0.026 A 
ATOM      8  C6  UNL d   1       1.351  -1.767  -2.295  0.00  0.00    -0.082 A 
ATOM      9  C7  UNL d   1       2.165  -0.708  -1.828  0.00  0.00     0.045 A 
ENDROOT
TORSDOF 0
ENDMDL
