MODEL 1
REMARK minimizedAffinity -1.22011614
REMARK minimizedRMSD -1
REMARK  0 active torsions:
REMARK  status: ('A' for Active; 'I' for Inactive)
ROOT
ATOM      1  C   UNL d   1       1.911  -6.000  -0.143  0.00  0.00    -0.002 A 
ATOM      2  C1  UNL d   1       2.871  -5.003  -0.040  0.00  0.00     0.010 A 
ATOM      3  C2  UNL d   1       2.711  -3.790  -0.713  0.00  0.00     0.041 A 
ATOM      4  C3  UNL d   1       1.557  -3.594  -1.498  0.00  0.00    -0.075 A 
ATOM      5  S   UNL d   1       1.147  -2.189  -2.410  0.00  0.00     0.015 SA
ATOM      6  C4  UNL d   1      -0.312  -2.879  -2.957  0.00  0.00     0.022 A 
ATOM      7  C5  UNL d   1      -0.498  -4.150  -2.466  0.00  0.00     0.026 A 
ATOM      8  C6  UNL d   1       0.576  -4.582  -1.616  0.00  0.00    -0.082 A 
ATOM      9  C7  UNL d   1       0.768  -5.801  -0.922  0.00  0.00     0.045 A 
ENDROOT
TORSDOF 0
ENDMDL
