MODEL 1
REMARK minimizedAffinity -3.58259845
REMARK minimizedRMSD -1
REMARK  2 active torsions:
REMARK  status: ('A' for Active; 'I' for Inactive)
REMARK    1  A    between atoms: C1_2  and  C2_3 
REMARK    2  A    between atoms: C2_3  and  C3_4 
ROOT
ATOM      1  C3  UNL d   1      -4.909   3.645  -0.679  0.00  0.00    -0.075 A 
ATOM      2  C4  UNL d   1      -5.994   2.776  -0.497  0.00  0.00     0.002 A 
ATOM      3  C5  UNL d   1      -5.999   1.515  -1.095  0.00  0.00     0.002 A 
ATOM      4  C6  UNL d   1      -4.927   1.113  -1.889  0.00  0.00    -0.004 A 
ATOM      5  C7  UNL d   1      -3.852   1.975  -2.090  0.00  0.00     0.002 A 
ATOM      6  C8  UNL d   1      -3.842   3.235  -1.489  0.00  0.00     0.002 A 
ENDROOT
BRANCH   1   7
ATOM      7  C2  UNL d   1      -4.884   4.999  -0.011  0.00  0.00     0.056 C 
BRANCH   7   8
ATOM      8  C1  UNL d   1      -3.477   5.582   0.165  0.00  0.00     0.007 C 
ATOM      9  C   UNL d   1      -2.832   6.000  -1.149  0.00  0.00     0.009 C 
ENDBRANCH   7   8
ENDBRANCH   1   7
TORSDOF 2
ENDMDL
