MODEL 1
REMARK minimizedAffinity -2.92230654
REMARK minimizedRMSD -1
REMARK  2 active torsions:
REMARK  status: ('A' for Active; 'I' for Inactive)
REMARK    1  A    between atoms: C1_2  and  C2_3 
REMARK    2  A    between atoms: C2_3  and  C3_4 
ROOT
ATOM      1  C3  UNL d   1      -1.537   0.193   3.644  0.00  0.00    -0.075 A 
ATOM      2  C4  UNL d   1      -0.414  -0.292   4.331  0.00  0.00     0.002 A 
ATOM      3  C5  UNL d   1      -0.495  -1.465   5.082  0.00  0.00     0.002 A 
ATOM      4  C6  UNL d   1      -1.699  -2.161   5.164  0.00  0.00    -0.004 A 
ATOM      5  C7  UNL d   1      -2.825  -1.680   4.499  0.00  0.00     0.002 A 
ATOM      6  C8  UNL d   1      -2.746  -0.509   3.744  0.00  0.00     0.002 A 
ENDROOT
BRANCH   1   7
ATOM      7  C2  UNL d   1      -1.448   1.446   2.806  0.00  0.00     0.056 C 
BRANCH   7   8
ATOM      8  C1  UNL d   1      -1.377   1.184   1.298  0.00  0.00     0.007 C 
ATOM      9  C   UNL d   1      -2.605   0.464   0.756  0.00  0.00     0.009 C 
ENDBRANCH   7   8
ENDBRANCH   1   7
TORSDOF 2
ENDMDL
