MODEL 1
REMARK minimizedAffinity 5.45538425
REMARK minimizedRMSD -1
REMARK  2 active torsions:
REMARK  status: ('A' for Active; 'I' for Inactive)
REMARK    1  A    between atoms: C1_2  and  C2_3 
REMARK    2  A    between atoms: C2_3  and  C3_4 
ROOT
ATOM      1  C3  UNL d   1      -1.100   0.287   2.747  0.00  0.00    -0.075 A 
ATOM      2  C4  UNL d   1      -2.046  -0.748   2.726  0.00  0.00     0.002 A 
ATOM      3  C5  UNL d   1      -3.132  -0.699   1.852  0.00  0.00     0.002 A 
ATOM      4  C6  UNL d   1      -3.292   0.389   0.996  0.00  0.00    -0.004 A 
ATOM      5  C7  UNL d   1      -2.368   1.431   1.020  0.00  0.00     0.002 A 
ATOM      6  C8  UNL d   1      -1.278   1.382   1.890  0.00  0.00     0.002 A 
ENDROOT
BRANCH   1   7
ATOM      7  C2  UNL d   1       0.093   0.226   3.669  0.00  0.00     0.056 C 
BRANCH   7   8
ATOM      8  C1  UNL d   1       1.232  -0.663   3.158  0.00  0.00     0.007 C 
ATOM      9  C   UNL d   1       1.752  -0.243   1.789  0.00  0.00     0.009 C 
ENDBRANCH   7   8
ENDBRANCH   1   7
TORSDOF 2
ENDMDL
