MODEL 1
REMARK minimizedAffinity 0.10855034
REMARK minimizedRMSD -1
REMARK  2 active torsions:
REMARK  status: ('A' for Active; 'I' for Inactive)
REMARK    1  A    between atoms: C1_2  and  C2_3 
REMARK    2  A    between atoms: C2_3  and  C3_4 
ROOT
ATOM      1  C3  UNL d   1       0.686  -2.765  -3.841  0.00  0.00    -0.075 A 
ATOM      2  C4  UNL d   1      -0.568  -3.218  -4.276  0.00  0.00     0.002 A 
ATOM      3  C5  UNL d   1      -1.002  -4.507  -3.966  0.00  0.00     0.002 A 
ATOM      4  C6  UNL d   1      -0.186  -5.362  -3.229  0.00  0.00    -0.004 A 
ATOM      5  C7  UNL d   1       1.069  -4.929  -2.806  0.00  0.00     0.002 A 
ATOM      6  C8  UNL d   1       1.504  -3.638  -3.111  0.00  0.00     0.002 A 
ENDROOT
BRANCH   1   7
ATOM      7  C2  UNL d   1       1.150  -1.361  -4.148  0.00  0.00     0.056 C 
BRANCH   7   8
ATOM      8  C1  UNL d   1       2.036  -0.745  -3.060  0.00  0.00     0.007 C 
ATOM      9  C   UNL d   1       2.460   0.684  -3.369  0.00  0.00     0.009 C 
ENDBRANCH   7   8
ENDBRANCH   1   7
TORSDOF 2
ENDMDL
