MODEL 1
REMARK minimizedAffinity 0.886697292
REMARK minimizedRMSD -1
REMARK  2 active torsions:
REMARK  status: ('A' for Active; 'I' for Inactive)
REMARK    1  A    between atoms: C1_2  and  C2_3 
REMARK    2  A    between atoms: C2_3  and  C3_4 
ROOT
ATOM      1  C3  UNL d   1      -1.993   0.688   1.761  0.00  0.00    -0.075 A 
ATOM      2  C4  UNL d   1      -1.458   1.374   2.861  0.00  0.00     0.002 A 
ATOM      3  C5  UNL d   1      -0.110   1.239   3.193  0.00  0.00     0.002 A 
ATOM      4  C6  UNL d   1       0.717   0.410   2.437  0.00  0.00    -0.004 A 
ATOM      5  C7  UNL d   1       0.193  -0.289   1.352  0.00  0.00     0.002 A 
ATOM      6  C8  UNL d   1      -1.155  -0.152   1.015  0.00  0.00     0.002 A 
ENDROOT
BRANCH   1   7
ATOM      7  C2  UNL d   1      -3.445   0.853   1.379  0.00  0.00     0.056 C 
BRANCH   7   8
ATOM      8  C1  UNL d   1      -3.668   1.164  -0.105  0.00  0.00     0.007 C 
ATOM      9  C   UNL d   1      -5.139   1.273  -0.481  0.00  0.00     0.009 C 
ENDBRANCH   7   8
ENDBRANCH   1   7
TORSDOF 2
ENDMDL
