MODEL 1
REMARK minimizedAffinity 5.86822891
REMARK minimizedRMSD -1
REMARK  2 active torsions:
REMARK  status: ('A' for Active; 'I' for Inactive)
REMARK    1  A    between atoms: C1_2  and  C2_3 
REMARK    2  A    between atoms: C2_3  and  C3_4 
ROOT
ATOM      1  C3  UNL d   1      -0.763  -3.037  -4.282  0.00  0.00    -0.075 A 
ATOM      2  C4  UNL d   1      -1.939  -3.687  -4.683  0.00  0.00     0.002 A 
ATOM      3  C5  UNL d   1      -1.940  -5.059  -4.937  0.00  0.00     0.002 A 
ATOM      4  C6  UNL d   1      -0.765  -5.795  -4.804  0.00  0.00    -0.004 A 
ATOM      5  C7  UNL d   1       0.414  -5.157  -4.422  0.00  0.00     0.002 A 
ATOM      6  C8  UNL d   1       0.416  -3.786  -4.163  0.00  0.00     0.002 A 
ENDROOT
BRANCH   1   7
ATOM      7  C2  UNL d   1      -0.763  -1.558  -3.977  0.00  0.00     0.056 C 
BRANCH   7   8
ATOM      8  C1  UNL d   1      -0.194  -0.689  -5.103  0.00  0.00     0.007 C 
ATOM      9  C   UNL d   1       0.902   0.259  -4.635  0.00  0.00     0.009 C 
ENDBRANCH   7   8
ENDBRANCH   1   7
TORSDOF 2
ENDMDL
