MODEL 1
REMARK minimizedAffinity 0.866151869
REMARK minimizedRMSD -1
REMARK  2 active torsions:
REMARK  status: ('A' for Active; 'I' for Inactive)
REMARK    1  A    between atoms: C1_2  and  C2_3 
REMARK    2  A    between atoms: C2_3  and  C3_4 
ROOT
ATOM      1  C3  UNL d   1      -1.718  -3.355  -3.206  0.00  0.00    -0.075 A 
ATOM      2  C4  UNL d   1      -0.327  -3.495  -3.320  0.00  0.00     0.002 A 
ATOM      3  C5  UNL d   1       0.222  -4.353  -4.273  0.00  0.00     0.002 A 
ATOM      4  C6  UNL d   1      -0.610  -5.089  -5.115  0.00  0.00    -0.004 A 
ATOM      5  C7  UNL d   1      -1.993  -4.970  -4.998  0.00  0.00     0.002 A 
ATOM      6  C8  UNL d   1      -2.546  -4.109  -4.049  0.00  0.00     0.002 A 
ENDROOT
BRANCH   1   7
ATOM      7  C2  UNL d   1      -2.318  -2.406  -2.196  0.00  0.00     0.056 C 
BRANCH   7   8
ATOM      8  C1  UNL d   1      -1.705  -2.514  -0.796  0.00  0.00     0.007 C 
ATOM      9  C   UNL d   1      -2.708  -2.256   0.320  0.00  0.00     0.009 C 
ENDBRANCH   7   8
ENDBRANCH   1   7
TORSDOF 2
ENDMDL
