MODEL 1
REMARK minimizedAffinity 2.06235075
REMARK minimizedRMSD -1
REMARK  2 active torsions:
REMARK  status: ('A' for Active; 'I' for Inactive)
REMARK    1  A    between atoms: C1_2  and  C2_3 
REMARK    2  A    between atoms: C2_3  and  C3_4 
ROOT
ATOM      1  C3  UNL d   1      -0.751  -2.217  -5.260  0.00  0.00    -0.075 A 
ATOM      2  C4  UNL d   1      -1.506  -3.154  -4.540  0.00  0.00     0.002 A 
ATOM      3  C5  UNL d   1      -1.148  -4.502  -4.540  0.00  0.00     0.002 A 
ATOM      4  C6  UNL d   1      -0.040  -4.932  -5.266  0.00  0.00    -0.004 A 
ATOM      5  C7  UNL d   1       0.707  -4.013  -5.999  0.00  0.00     0.002 A 
ATOM      6  C8  UNL d   1       0.354  -2.662  -5.998  0.00  0.00     0.002 A 
ENDROOT
BRANCH   1   7
ATOM      7  C2  UNL d   1      -1.115  -0.752  -5.241  0.00  0.00     0.056 C 
BRANCH   7   8
ATOM      8  C1  UNL d   1       0.040   0.183  -5.613  0.00  0.00     0.007 C 
ATOM      9  C   UNL d   1       1.144   0.220  -4.564  0.00  0.00     0.009 C 
ENDBRANCH   7   8
ENDBRANCH   1   7
TORSDOF 2
ENDMDL
