MODEL 1
REMARK minimizedAffinity 5.66770077
REMARK minimizedRMSD -1
REMARK  2 active torsions:
REMARK  status: ('A' for Active; 'I' for Inactive)
REMARK    1  A    between atoms: C2'_3  and  C1'_4 
REMARK    2  A    between atoms: C1'_4  and  C1_5 
ROOT
ATOM      1  C1  I4B d   1      -0.187   1.794  -1.284  0.00  0.00    -0.075 A 
ATOM      2  C2  I4B d   1      -0.087   1.764   0.085  0.00  0.00     0.003 A 
ATOM      3  C3  I4B d   1      -0.439   2.902   0.851  0.00  0.00     0.002 A 
ATOM      4  C4  I4B d   1      -0.835   4.057   0.209  0.00  0.00    -0.004 A 
ATOM      5  C5  I4B d   1      -0.958   4.079  -1.178  0.00  0.00     0.002 A 
ATOM      6  C6  I4B d   1      -0.644   2.936  -1.928  0.00  0.00     0.003 A 
ENDROOT
BRANCH   1   7
ATOM      7  C1' I4B d   1       0.224   0.586  -2.063  0.00  0.00     0.060 C 
BRANCH   7   8
ATOM      8  C2' I4B d   1      -0.997   0.064  -2.794  0.00  0.00    -0.013 C 
ATOM      9  C4' I4B d   1      -0.811   0.136  -4.287  0.00  0.00     0.013 C 
ATOM     10  C3' I4B d   1      -1.237  -1.347  -2.346  0.00  0.00     0.013 C 
ENDBRANCH   7   8
ENDBRANCH   1   7
TORSDOF 2
ENDMDL
