MODEL 1
REMARK minimizedAffinity 13.1552162
REMARK minimizedRMSD -1
REMARK  2 active torsions:
REMARK  status: ('A' for Active; 'I' for Inactive)
REMARK    1  A    between atoms: C2'_3  and  C1'_4 
REMARK    2  A    between atoms: C1'_4  and  C1_5 
ROOT
ATOM      1  C1  I4B d   1      -0.265   1.710  -1.471  0.00  0.00    -0.075 A 
ATOM      2  C2  I4B d   1      -0.972   0.667  -0.928  0.00  0.00     0.003 A 
ATOM      3  C3  I4B d   1      -1.623  -0.267  -1.769  0.00  0.00     0.002 A 
ATOM      4  C4  I4B d   1      -1.583  -0.093  -3.138  0.00  0.00    -0.004 A 
ATOM      5  C5  I4B d   1      -0.847   0.953  -3.687  0.00  0.00     0.002 A 
ATOM      6  C6  I4B d   1      -0.173   1.853  -2.849  0.00  0.00     0.003 A 
ENDROOT
BRANCH   1   7
ATOM      7  C1' I4B d   1       0.383   2.697  -0.552  0.00  0.00     0.060 C 
BRANCH   7   8
ATOM      8  C2' I4B d   1       0.418   2.090   0.836  0.00  0.00    -0.013 C 
ATOM      9  C4' I4B d   1       1.619   2.566   1.610  0.00  0.00     0.013 C 
ATOM     10  C3' I4B d   1      -0.857   2.458   1.534  0.00  0.00     0.013 C 
ENDBRANCH   7   8
ENDBRANCH   1   7
TORSDOF 2
ENDMDL
