MODEL 1
REMARK minimizedAffinity -3.69475245
REMARK minimizedRMSD -1
REMARK  1 active torsions:
REMARK  status: ('A' for Active; 'I' for Inactive)
REMARK    1  A    between atoms: N_2  and  C1_3 
ROOT
ATOM      1  C1  UNL d   1       2.889  -0.823  -0.950  0.00  0.00     0.143 A 
ATOM      2  C2  UNL d   1       2.288  -1.763  -0.107  0.00  0.00    -0.057 A 
ATOM      3  C3  UNL d   1       1.271  -1.396   0.783  0.00  0.00     0.033 A 
ATOM      4  C4  UNL d   1       0.856  -0.071   0.866  0.00  0.00    -0.042 A 
ATOM      5  C5  UNL d   1       1.457   0.886   0.055  0.00  0.00     0.033 A 
ATOM      6  C6  UNL d   1       2.467   0.511  -0.836  0.00  0.00    -0.057 A 
ENDROOT
BRANCH   1   7
ATOM      7  N   UNL d   1       3.973  -1.106  -1.785  0.00  0.00    -0.732 N 
ATOM      8  C   UNL d   1       4.740  -0.037  -2.386  0.00  0.00     0.284 C 
ATOM      9  H3  UNL d   1       4.537  -1.880  -1.440  0.00  0.00     0.395 HD
ENDBRANCH   1   7
TORSDOF 1
ENDMDL
