MODEL 1
REMARK minimizedAffinity -3.35536432
REMARK minimizedRMSD -1
REMARK  1 active torsions:
REMARK  status: ('A' for Active; 'I' for Inactive)
REMARK    1  A    between atoms: N_2  and  C1_3 
ROOT
ATOM      1  C1  UNL d   1       0.721  -0.214   1.335  0.00  0.00     0.143 A 
ATOM      2  C2  UNL d   1       1.176   0.768   0.449  0.00  0.00    -0.057 A 
ATOM      3  C3  UNL d   1       2.046   0.452  -0.601  0.00  0.00     0.033 A 
ATOM      4  C4  UNL d   1       2.502  -0.852  -0.766  0.00  0.00    -0.042 A 
ATOM      5  C5  UNL d   1       2.083  -1.840   0.118  0.00  0.00     0.033 A 
ATOM      6  C6  UNL d   1       1.208  -1.519   1.160  0.00  0.00    -0.057 A 
ENDROOT
BRANCH   1   7
ATOM      7  N   UNL d   1      -0.066   0.055   2.457  0.00  0.00    -0.732 N 
ATOM      8  C   UNL d   1       0.523   0.095   3.779  0.00  0.00     0.284 C 
ATOM      9  H3  UNL d   1      -0.750   0.788   2.285  0.00  0.00     0.395 HD
ENDBRANCH   1   7
TORSDOF 1
ENDMDL
