MODEL 1
REMARK minimizedAffinity -2.86402154
REMARK minimizedRMSD -1
REMARK  1 active torsions:
REMARK  status: ('A' for Active; 'I' for Inactive)
REMARK    1  A    between atoms: N_2  and  C1_3 
ROOT
ATOM      1  C1  UNL d   1       3.384  -0.301  -1.674  0.00  0.00     0.143 A 
ATOM      2  C2  UNL d   1       3.576  -1.413  -0.848  0.00  0.00    -0.057 A 
ATOM      3  C3  UNL d   1       2.755  -1.643   0.263  0.00  0.00     0.033 A 
ATOM      4  C4  UNL d   1       1.742  -0.745   0.585  0.00  0.00    -0.042 A 
ATOM      5  C5  UNL d   1       1.549   0.381  -0.208  0.00  0.00     0.033 A 
ATOM      6  C6  UNL d   1       2.368   0.601  -1.319  0.00  0.00    -0.057 A 
ENDROOT
BRANCH   1   7
ATOM      7  N   UNL d   1       4.228   0.035  -2.735  0.00  0.00    -0.732 N 
ATOM      8  C   UNL d   1       5.623  -0.349  -2.717  0.00  0.00     0.284 C 
ATOM      9  H3  UNL d   1       3.778  -0.077  -3.640  0.00  0.00     0.395 HD
ENDBRANCH   1   7
TORSDOF 1
ENDMDL
