MODEL 1
REMARK minimizedAffinity -2.25437713
REMARK minimizedRMSD -1
REMARK  1 active torsions:
REMARK  status: ('A' for Active; 'I' for Inactive)
REMARK    1  A    between atoms: N_2  and  C1_3 
ROOT
ATOM      1  C1  UNL d   1       1.582   0.960  -0.271  0.00  0.00     0.143 A 
ATOM      2  C2  UNL d   1       2.576   0.092  -0.734  0.00  0.00    -0.057 A 
ATOM      3  C3  UNL d   1       2.655  -1.230  -0.279  0.00  0.00     0.033 A 
ATOM      4  C4  UNL d   1       1.755  -1.699   0.672  0.00  0.00    -0.042 A 
ATOM      5  C5  UNL d   1       0.774  -0.846   1.165  0.00  0.00     0.033 A 
ATOM      6  C6  UNL d   1       0.696   0.471   0.701  0.00  0.00    -0.057 A 
ENDROOT
BRANCH   1   7
ATOM      7  N   UNL d   1       1.511   2.313  -0.611  0.00  0.00    -0.732 N 
ATOM      8  C   UNL d   1       1.862   3.335   0.352  0.00  0.00     0.284 C 
ATOM      9  H3  UNL d   1       1.851   2.496  -1.553  0.00  0.00     0.395 HD
ENDBRANCH   1   7
TORSDOF 1
ENDMDL
