MODEL 1
REMARK minimizedAffinity 2.16394162
REMARK minimizedRMSD -1
REMARK  1 active torsions:
REMARK  status: ('A' for Active; 'I' for Inactive)
REMARK    1  A    between atoms: N_2  and  C1_3 
ROOT
ATOM      1  C1  UNL d   1       2.987  -1.145  -1.077  0.00  0.00     0.143 A 
ATOM      2  C2  UNL d   1       2.941   0.218  -0.764  0.00  0.00    -0.057 A 
ATOM      3  C3  UNL d   1       1.921   0.745   0.037  0.00  0.00     0.033 A 
ATOM      4  C4  UNL d   1       0.909  -0.080   0.518  0.00  0.00    -0.042 A 
ATOM      5  C5  UNL d   1       0.921  -1.433   0.199  0.00  0.00     0.033 A 
ATOM      6  C6  UNL d   1       1.946  -1.955  -0.596  0.00  0.00    -0.057 A 
ENDROOT
BRANCH   1   7
ATOM      7  N   UNL d   1       3.919  -1.712  -1.949  0.00  0.00    -0.732 N 
ATOM      8  C   UNL d   1       4.897  -0.884  -2.623  0.00  0.00     0.284 C 
ATOM      9  H3  UNL d   1       4.289  -2.594  -1.602  0.00  0.00     0.395 HD
ENDBRANCH   1   7
TORSDOF 1
ENDMDL
