MODEL 1
REMARK minimizedAffinity -1.97509313
REMARK minimizedRMSD -1
REMARK  1 active torsions:
REMARK  status: ('A' for Active; 'I' for Inactive)
REMARK    1  A    between atoms: N_2  and  C1_3 
ROOT
ATOM      1  C1  UNL d   1       0.024  -1.157   1.244  0.00  0.00     0.143 A 
ATOM      2  C2  UNL d   1       0.564  -2.438   1.399  0.00  0.00    -0.057 A 
ATOM      3  C3  UNL d   1       1.756  -2.806   0.764  0.00  0.00     0.033 A 
ATOM      4  C4  UNL d   1       2.416  -1.904  -0.065  0.00  0.00    -0.042 A 
ATOM      5  C5  UNL d   1       1.885  -0.634  -0.254  0.00  0.00     0.033 A 
ATOM      6  C6  UNL d   1       0.698  -0.270   0.389  0.00  0.00    -0.057 A 
ENDROOT
BRANCH   1   7
ATOM      7  N   UNL d   1      -1.209  -0.763   1.770  0.00  0.00    -0.732 N 
ATOM      8  C   UNL d   1      -2.409  -1.518   1.480  0.00  0.00     0.284 C 
ATOM      9  H3  UNL d   1      -1.137  -0.450   2.735  0.00  0.00     0.395 HD
ENDBRANCH   1   7
TORSDOF 1
ENDMDL
