MODEL 1
REMARK minimizedAffinity -4.21135616
REMARK minimizedRMSD -1
REMARK  1 active torsions:
REMARK  status: ('A' for Active; 'I' for Inactive)
REMARK    1  A    between atoms: N_2  and  C1_3 
ROOT
ATOM      1  C1  UNL d   1       1.255  -0.169   0.248  0.00  0.00     0.143 A 
ATOM      2  C2  UNL d   1       1.806   0.813  -0.583  0.00  0.00    -0.057 A 
ATOM      3  C3  UNL d   1       2.902   0.535  -1.408  0.00  0.00     0.033 A 
ATOM      4  C4  UNL d   1       3.487  -0.727  -1.395  0.00  0.00    -0.042 A 
ATOM      5  C5  UNL d   1       2.973  -1.711  -0.559  0.00  0.00     0.033 A 
ATOM      6  C6  UNL d   1       1.873  -1.429   0.257  0.00  0.00    -0.057 A 
ENDROOT
BRANCH   1   7
ATOM      7  N   UNL d   1       0.228   0.073   1.163  0.00  0.00    -0.732 N 
ATOM      8  C   UNL d   1      -0.113  -0.913   2.166  0.00  0.00     0.284 C 
ATOM      9  H3  UNL d   1       0.231   1.031   1.506  0.00  0.00     0.395 HD
ENDBRANCH   1   7
TORSDOF 1
ENDMDL
