MODEL 1
REMARK minimizedAffinity -3.90128613
REMARK minimizedRMSD -1
REMARK  1 active torsions:
REMARK  status: ('A' for Active; 'I' for Inactive)
REMARK    1  A    between atoms: N_2  and  C1_3 
ROOT
ATOM      1  C1  UNL d   1       3.099  -0.813  -0.993  0.00  0.00     0.143 A 
ATOM      2  C2  UNL d   1       2.395  -1.701  -0.174  0.00  0.00    -0.057 A 
ATOM      3  C3  UNL d   1       1.267  -1.287   0.545  0.00  0.00     0.033 A 
ATOM      4  C4  UNL d   1       0.840   0.036   0.480  0.00  0.00    -0.042 A 
ATOM      5  C5  UNL d   1       1.540   0.942  -0.308  0.00  0.00     0.033 A 
ATOM      6  C6  UNL d   1       2.662   0.521  -1.030  0.00  0.00    -0.057 A 
ENDROOT
BRANCH   1   7
ATOM      7  N   UNL d   1       4.285  -1.139  -1.656  0.00  0.00    -0.732 N 
ATOM      8  C   UNL d   1       4.970  -0.158  -2.469  0.00  0.00     0.284 C 
ATOM      9  H3  UNL d   1       4.904  -1.711  -1.085  0.00  0.00     0.395 HD
ENDBRANCH   1   7
TORSDOF 1
ENDMDL
