MODEL 1
REMARK minimizedAffinity -4.13257074
REMARK minimizedRMSD -1
REMARK  1 active torsions:
REMARK  status: ('A' for Active; 'I' for Inactive)
REMARK    1  A    between atoms: N_2  and  C1_3 
ROOT
ATOM      1  C1  UNL d   1       3.211  -0.428  -1.379  0.00  0.00     0.143 A 
ATOM      2  C2  UNL d   1       3.320  -1.698  -0.803  0.00  0.00    -0.057 A 
ATOM      3  C3  UNL d   1       2.418  -2.130   0.177  0.00  0.00     0.033 A 
ATOM      4  C4  UNL d   1       1.406  -1.285   0.621  0.00  0.00    -0.042 A 
ATOM      5  C5  UNL d   1       1.295  -0.009   0.081  0.00  0.00     0.033 A 
ATOM      6  C6  UNL d   1       2.194   0.414  -0.903  0.00  0.00    -0.057 A 
ENDROOT
BRANCH   1   7
ATOM      7  N   UNL d   1       4.136   0.096  -2.286  0.00  0.00    -0.732 N 
ATOM      8  C   UNL d   1       5.423  -0.537  -2.475  0.00  0.00     0.284 C 
ATOM      9  H3  UNL d   1       3.697   0.412  -3.148  0.00  0.00     0.395 HD
ENDBRANCH   1   7
TORSDOF 1
ENDMDL
