MODEL 1
REMARK minimizedAffinity -2.89751339
REMARK minimizedRMSD -1
REMARK  1 active torsions:
REMARK  status: ('A' for Active; 'I' for Inactive)
REMARK    1  A    between atoms: N_2  and  C1_3 
ROOT
ATOM      1  C1  UNL d   1       1.962  -1.005   0.136  0.00  0.00     0.143 A 
ATOM      2  C2  UNL d   1       3.052  -1.474  -0.606  0.00  0.00    -0.057 A 
ATOM      3  C3  UNL d   1       3.622  -0.702  -1.625  0.00  0.00     0.033 A 
ATOM      4  C4  UNL d   1       3.092   0.545  -1.941  0.00  0.00    -0.042 A 
ATOM      5  C5  UNL d   1       1.993   1.020  -1.234  0.00  0.00     0.033 A 
ATOM      6  C6  UNL d   1       1.432   0.247  -0.213  0.00  0.00    -0.057 A 
ENDROOT
BRANCH   1   7
ATOM      7  N   UNL d   1       1.289  -1.766   1.095  0.00  0.00    -0.732 N 
ATOM      8  C   UNL d   1      -0.036  -1.388   1.539  0.00  0.00     0.284 C 
ATOM      9  H3  UNL d   1       1.410  -2.766   0.952  0.00  0.00     0.395 HD
ENDBRANCH   1   7
TORSDOF 1
ENDMDL
