MODEL 1
REMARK minimizedAffinity -4.31850767
REMARK minimizedRMSD -1
REMARK  1 active torsions:
REMARK  status: ('A' for Active; 'I' for Inactive)
REMARK    1  A    between atoms: N_2  and  C1_3 
ROOT
ATOM      1  C1  UNL d   1       3.226  -0.791  -1.243  0.00  0.00     0.143 A 
ATOM      2  C2  UNL d   1       2.552  -1.675  -0.393  0.00  0.00    -0.057 A 
ATOM      3  C3  UNL d   1       1.425  -1.269   0.332  0.00  0.00     0.033 A 
ATOM      4  C4  UNL d   1       0.968   0.042   0.242  0.00  0.00    -0.042 A 
ATOM      5  C5  UNL d   1       1.637   0.945  -0.576  0.00  0.00     0.033 A 
ATOM      6  C6  UNL d   1       2.758   0.532  -1.303  0.00  0.00    -0.057 A 
ENDROOT
BRANCH   1   7
ATOM      7  N   UNL d   1       4.410  -1.106  -1.914  0.00  0.00    -0.732 N 
ATOM      8  C   UNL d   1       5.026  -0.152  -2.810  0.00  0.00     0.284 C 
ATOM      9  H3  UNL d   1       5.069  -1.608  -1.323  0.00  0.00     0.395 HD
ENDBRANCH   1   7
TORSDOF 1
ENDMDL
