MODEL 1
REMARK minimizedAffinity -5.1732192
REMARK minimizedRMSD -1
REMARK  1 active torsions:
REMARK  status: ('A' for Active; 'I' for Inactive)
REMARK    1  A    between atoms: N_2  and  C1_3 
ROOT
ATOM      1  C1  UNL d   1       3.101   0.115  -1.323  0.00  0.00     0.143 A 
ATOM      2  C2  UNL d   1       2.368   1.274  -1.049  0.00  0.00    -0.057 A 
ATOM      3  C3  UNL d   1       1.280   1.254  -0.168  0.00  0.00     0.033 A 
ATOM      4  C4  UNL d   1       0.887   0.063   0.434  0.00  0.00    -0.042 A 
ATOM      5  C5  UNL d   1       1.586  -1.107   0.158  0.00  0.00     0.033 A 
ATOM      6  C6  UNL d   1       2.675  -1.079  -0.718  0.00  0.00    -0.057 A 
ENDROOT
BRANCH   1   7
ATOM      7  N   UNL d   1       4.131   0.050  -2.264  0.00  0.00    -0.732 N 
ATOM      8  C   UNL d   1       5.456  -0.387  -1.879  0.00  0.00     0.284 C 
ATOM      9  H3  UNL d   1       3.816  -0.317  -3.160  0.00  0.00     0.395 HD
ENDBRANCH   1   7
TORSDOF 1
ENDMDL
