MODEL 1
REMARK minimizedAffinity 0.481310517
REMARK minimizedRMSD -1
REMARK  0 active torsions:
REMARK  status: ('A' for Active; 'I' for Inactive)
ROOT
ATOM      1  C1  DEN d   1      -5.124   0.008  -5.645  0.00  0.00     0.130 A 
ATOM      2  C2  DEN d   1      -4.113   1.000  -6.000  0.00  0.00    -0.031 A 
ATOM      3  C3  DEN d   1      -3.014   0.903  -5.019  0.00  0.00     0.027 A 
ATOM      4  C4  DEN d   1      -2.777  -0.682  -2.999  0.00  0.00     0.027 A 
ATOM      5  C5  DEN d   1      -3.386  -1.692  -2.287  0.00  0.00    -0.003 A 
ATOM      6  C6  DEN d   1      -4.621  -2.179  -2.622  0.00  0.00     0.001 A 
ATOM      7  C7  DEN d   1      -5.269  -1.687  -3.724  0.00  0.00     0.017 A 
ATOM      8  C8  DEN d   1      -4.665  -0.663  -4.442  0.00  0.00    -0.094 A 
ATOM      9  C9  DEN d   1      -3.410  -0.193  -4.095  0.00  0.00    -0.072 A 
ENDROOT
TORSDOF 0
ENDMDL
