MODEL 1
REMARK minimizedAffinity 6.77444458
REMARK minimizedRMSD -1
REMARK  0 active torsions:
REMARK  status: ('A' for Active; 'I' for Inactive)
ROOT
ATOM      1  C1  DEN d   1       4.417  -3.632   2.173  0.00  0.00     0.130 A 
ATOM      2  C2  DEN d   1       4.312  -4.878   1.419  0.00  0.00    -0.031 A 
ATOM      3  C3  DEN d   1       4.474  -6.000   2.366  0.00  0.00     0.027 A 
ATOM      4  C4  DEN d   1       4.870  -5.928   4.914  0.00  0.00     0.027 A 
ATOM      5  C5  DEN d   1       5.043  -5.099   6.000  0.00  0.00    -0.003 A 
ATOM      6  C6  DEN d   1       5.053  -3.734   5.882  0.00  0.00     0.001 A 
ATOM      7  C7  DEN d   1       4.842  -3.157   4.658  0.00  0.00     0.017 A 
ATOM      8  C8  DEN d   1       4.675  -3.986   3.557  0.00  0.00    -0.094 A 
ATOM      9  C9  DEN d   1       4.655  -5.363   3.698  0.00  0.00    -0.072 A 
ENDROOT
TORSDOF 0
ENDMDL
