MODEL 1
REMARK minimizedAffinity -0.460395485
REMARK minimizedRMSD -1
REMARK  0 active torsions:
REMARK  status: ('A' for Active; 'I' for Inactive)
ROOT
ATOM      1  C1  DEN d   1      -4.833   1.142  -5.988  0.00  0.00     0.130 A 
ATOM      2  C2  DEN d   1      -6.000   1.027  -5.118  0.00  0.00    -0.031 A 
ATOM      3  C3  DEN d   1      -5.691   0.035  -4.069  0.00  0.00     0.027 A 
ATOM      4  C4  DEN d   1      -3.528  -1.323  -3.705  0.00  0.00     0.027 A 
ATOM      5  C5  DEN d   1      -2.265  -1.574  -4.194  0.00  0.00    -0.003 A 
ATOM      6  C6  DEN d   1      -1.786  -0.968  -5.325  0.00  0.00     0.001 A 
ATOM      7  C7  DEN d   1      -2.558  -0.046  -5.980  0.00  0.00     0.017 A 
ATOM      8  C8  DEN d   1      -3.836   0.208  -5.498  0.00  0.00    -0.094 A 
ATOM      9  C9  DEN d   1      -4.297  -0.406  -4.346  0.00  0.00    -0.072 A 
ENDROOT
TORSDOF 0
ENDMDL
