MODEL 1
REMARK minimizedAffinity 5.60434484
REMARK minimizedRMSD -1
REMARK  3 active torsions:
REMARK  status: ('A' for Active; 'I' for Inactive)
REMARK    1  A    between atoms: C3'_2  and  C2'_3 
REMARK    2  A    between atoms: C2'_3  and  C1'_4 
REMARK    3  A    between atoms: C1'_4  and  C1_5 
ROOT
ATOM      1  C1  N4B d   1       4.621  -4.229   3.559  0.00  0.00    -0.075 A 
ATOM      2  C2  N4B d   1       4.356  -4.944   4.747  0.00  0.00     0.002 A 
ATOM      3  C3  N4B d   1       4.794  -4.457   5.954  0.00  0.00     0.002 A 
ATOM      4  C4  N4B d   1       5.514  -3.272   5.994  0.00  0.00    -0.004 A 
ATOM      5  C5  N4B d   1       5.744  -2.574   4.845  0.00  0.00     0.002 A 
ATOM      6  C6  N4B d   1       5.305  -3.050   3.625  0.00  0.00     0.002 A 
ENDROOT
BRANCH   1   7
ATOM      7  C1' N4B d   1       4.236  -4.766   2.207  0.00  0.00     0.057 C 
BRANCH   7   8
ATOM      8  C2' N4B d   1       3.546  -3.663   1.409  0.00  0.00     0.009 C 
BRANCH   8   9
ATOM      9  C3' N4B d   1       2.037  -3.700   1.577  0.00  0.00     0.004 C 
ATOM     10  C4' N4B d   1       1.466  -2.376   1.987  0.00  0.00     0.003 C 
ENDBRANCH   8   9
ENDBRANCH   7   8
ENDBRANCH   1   7
TORSDOF 3
ENDMDL
