MODEL 1
REMARK minimizedAffinity -2.22988415
REMARK minimizedRMSD -1
REMARK  3 active torsions:
REMARK  status: ('A' for Active; 'I' for Inactive)
REMARK    1  A    between atoms: C3'_2  and  C2'_3 
REMARK    2  A    between atoms: C2'_3  and  C1'_4 
REMARK    3  A    between atoms: C1'_4  and  C1_5 
ROOT
ATOM      1  C1  N4B d   1       2.707  -1.832  -0.132  0.00  0.00    -0.075 A 
ATOM      2  C2  N4B d   1       1.845  -2.319   0.875  0.00  0.00     0.002 A 
ATOM      3  C3  N4B d   1       2.133  -3.500   1.513  0.00  0.00     0.002 A 
ATOM      4  C4  N4B d   1       3.263  -4.218   1.151  0.00  0.00    -0.004 A 
ATOM      5  C5  N4B d   1       4.104  -3.728   0.195  0.00  0.00     0.002 A 
ATOM      6  C6  N4B d   1       3.829  -2.541  -0.452  0.00  0.00     0.002 A 
ENDROOT
BRANCH   1   7
ATOM      7  C1' N4B d   1       2.389  -0.590  -0.918  0.00  0.00     0.057 C 
BRANCH   7   8
ATOM      8  C2' N4B d   1       3.686   0.144  -1.242  0.00  0.00     0.009 C 
BRANCH   8   9
ATOM      9  C3' N4B d   1       3.568   1.639  -1.003  0.00  0.00     0.004 C 
ATOM     10  C4' N4B d   1       3.231   1.975   0.419  0.00  0.00     0.003 C 
ENDBRANCH   8   9
ENDBRANCH   7   8
ENDBRANCH   1   7
TORSDOF 3
ENDMDL
