MODEL 1
REMARK minimizedAffinity 7.82681942
REMARK minimizedRMSD -1
REMARK  3 active torsions:
REMARK  status: ('A' for Active; 'I' for Inactive)
REMARK    1  A    between atoms: C3'_2  and  C2'_3 
REMARK    2  A    between atoms: C2'_3  and  C1'_4 
REMARK    3  A    between atoms: C1'_4  and  C1_5 
ROOT
ATOM      1  C1  N4B d   1      -5.030   4.994   3.378  0.00  0.00    -0.075 A 
ATOM      2  C2  N4B d   1      -5.999   4.752   4.376  0.00  0.00     0.002 A 
ATOM      3  C3  N4B d   1      -5.760   5.135   5.673  0.00  0.00     0.002 A 
ATOM      4  C4  N4B d   1      -4.555   5.741   5.998  0.00  0.00    -0.004 A 
ATOM      5  C5  N4B d   1      -3.635   5.994   5.023  0.00  0.00     0.002 A 
ATOM      6  C6  N4B d   1      -3.864   5.618   3.715  0.00  0.00     0.002 A 
ENDROOT
BRANCH   1   7
ATOM      7  C1' N4B d   1      -5.211   4.517   1.963  0.00  0.00     0.057 C 
BRANCH   7   8
ATOM      8  C2' N4B d   1      -4.666   3.097   1.840  0.00  0.00     0.009 C 
BRANCH   8   9
ATOM      9  C3' N4B d   1      -4.293   2.754   0.408  0.00  0.00     0.004 C 
ATOM     10  C4' N4B d   1      -4.024   1.291   0.212  0.00  0.00     0.003 C 
ENDBRANCH   8   9
ENDBRANCH   7   8
ENDBRANCH   1   7
TORSDOF 3
ENDMDL
