MODEL 1
REMARK minimizedAffinity 6.61664677
REMARK minimizedRMSD -1
REMARK  3 active torsions:
REMARK  status: ('A' for Active; 'I' for Inactive)
REMARK    1  A    between atoms: C3'_2  and  C2'_3 
REMARK    2  A    between atoms: C2'_3  and  C1'_4 
REMARK    3  A    between atoms: C1'_4  and  C1_5 
ROOT
ATOM      1  C1  N4B d   1      -5.243   4.594   3.614  0.00  0.00    -0.075 A 
ATOM      2  C2  N4B d   1      -6.000   4.542   4.805  0.00  0.00     0.002 A 
ATOM      3  C3  N4B d   1      -5.571   5.219   5.920  0.00  0.00     0.002 A 
ATOM      4  C4  N4B d   1      -4.384   5.934   5.875  0.00  0.00    -0.004 A 
ATOM      5  C5  N4B d   1      -3.672   6.000   4.713  0.00  0.00     0.002 A 
ATOM      6  C6  N4B d   1      -4.093   5.328   3.583  0.00  0.00     0.002 A 
ENDROOT
BRANCH   1   7
ATOM      7  C1' N4B d   1      -5.626   3.801   2.394  0.00  0.00     0.057 C 
BRANCH   7   8
ATOM      8  C2' N4B d   1      -4.850   2.488   2.386  0.00  0.00     0.009 C 
BRANCH   8   9
ATOM      9  C3' N4B d   1      -4.098   2.281   1.083  0.00  0.00     0.004 C 
ATOM     10  C4' N4B d   1      -4.174   0.868   0.586  0.00  0.00     0.003 C 
ENDBRANCH   8   9
ENDBRANCH   7   8
ENDBRANCH   1   7
TORSDOF 3
ENDMDL
