MODEL 1
REMARK minimizedAffinity 7.80245256
REMARK minimizedRMSD -1
REMARK  3 active torsions:
REMARK  status: ('A' for Active; 'I' for Inactive)
REMARK    1  A    between atoms: C3'_2  and  C2'_3 
REMARK    2  A    between atoms: C2'_3  and  C1'_4 
REMARK    3  A    between atoms: C1'_4  and  C1_5 
ROOT
ATOM      1  C1  N4B d   1      -4.924   4.177   3.401  0.00  0.00    -0.075 A 
ATOM      2  C2  N4B d   1      -5.870   3.655   4.311  0.00  0.00     0.002 A 
ATOM      3  C3  N4B d   1      -6.000   4.209   5.561  0.00  0.00     0.002 A 
ATOM      4  C4  N4B d   1      -5.185   5.268   5.929  0.00  0.00    -0.004 A 
ATOM      5  C5  N4B d   1      -4.291   5.783   5.036  0.00  0.00     0.002 A 
ATOM      6  C6  N4B d   1      -4.153   5.239   3.775  0.00  0.00     0.002 A 
ENDROOT
BRANCH   1   7
ATOM      7  C1' N4B d   1      -4.687   3.550   2.055  0.00  0.00     0.057 C 
BRANCH   7   8
ATOM      8  C2' N4B d   1      -4.572   2.037   2.220  0.00  0.00     0.009 C 
BRANCH   8   9
ATOM      9  C3' N4B d   1      -3.757   1.404   1.105  0.00  0.00     0.004 C 
ATOM     10  C4' N4B d   1      -4.610   0.713   0.083  0.00  0.00     0.003 C 
ENDBRANCH   8   9
ENDBRANCH   7   8
ENDBRANCH   1   7
TORSDOF 3
ENDMDL
