MODEL 1
REMARK minimizedAffinity -4.42286873
REMARK minimizedRMSD -1
REMARK  1 active torsions:
REMARK  status: ('A' for Active; 'I' for Inactive)
REMARK    1  A    between atoms: C3_4  and  O_7 
ROOT
ATOM      1  C   UNL d   1      -0.566   0.528   0.661  0.00  0.00    -0.033 A 
ATOM      2  C1  UNL d   1      -1.265  -0.120   1.681  0.00  0.00     0.039 A 
ATOM      3  C2  UNL d   1      -1.092  -1.489   1.888  0.00  0.00    -0.080 A 
ATOM      4  C3  UNL d   1      -0.217  -2.199   1.070  0.00  0.00     0.150 A 
ATOM      5  C4  UNL d   1       0.486  -1.559   0.054  0.00  0.00    -0.007 A 
ATOM      6  C5  UNL d   1       0.311  -0.192  -0.151  0.00  0.00     0.039 A 
ENDROOT
BRANCH   4   7
ATOM      7  O   UNL d   1      -0.019  -3.538   1.231  0.00  0.00    -0.526 OA
ATOM      8  H5  UNL d   1      -0.592  -3.850   1.951  0.00  0.00     0.418 HD
ENDBRANCH   4   7
TORSDOF 1
ENDMDL
