MODEL 1
REMARK minimizedAffinity -4.27618837
REMARK minimizedRMSD -1
REMARK  1 active torsions:
REMARK  status: ('A' for Active; 'I' for Inactive)
REMARK    1  A    between atoms: C3_4  and  O_7 
ROOT
ATOM      1  C   UNL d   1       1.114  -1.411  -0.264  0.00  0.00    -0.033 A 
ATOM      2  C1  UNL d   1       0.940  -2.796  -0.240  0.00  0.00     0.039 A 
ATOM      3  C2  UNL d   1      -0.280  -3.341   0.165  0.00  0.00    -0.080 A 
ATOM      4  C3  UNL d   1      -1.317  -2.492   0.542  0.00  0.00     0.150 A 
ATOM      5  C4  UNL d   1      -1.151  -1.111   0.517  0.00  0.00    -0.007 A 
ATOM      6  C5  UNL d   1       0.068  -0.568   0.113  0.00  0.00     0.039 A 
ENDROOT
BRANCH   4   7
ATOM      7  O   UNL d   1      -2.523  -2.977   0.950  0.00  0.00    -0.526 OA
ATOM      8  H5  UNL d   1      -2.482  -3.948   0.944  0.00  0.00     0.418 HD
ENDBRANCH   4   7
TORSDOF 1
ENDMDL
