MODEL 1
REMARK minimizedAffinity -4.74726582
REMARK minimizedRMSD -1
REMARK  1 active torsions:
REMARK  status: ('A' for Active; 'I' for Inactive)
REMARK    1  A    between atoms: C3_4  and  O_7 
ROOT
ATOM      1  C   UNL d   1      -0.181  -3.081   0.868  0.00  0.00    -0.033 A 
ATOM      2  C1  UNL d   1      -1.018  -2.121   1.439  0.00  0.00     0.039 A 
ATOM      3  C2  UNL d   1      -0.970  -0.798   0.996  0.00  0.00    -0.080 A 
ATOM      4  C3  UNL d   1      -0.082  -0.449  -0.018  0.00  0.00     0.150 A 
ATOM      5  C4  UNL d   1       0.752  -1.402  -0.594  0.00  0.00    -0.007 A 
ATOM      6  C5  UNL d   1       0.703  -2.722  -0.149  0.00  0.00     0.039 A 
ENDROOT
BRANCH   4   7
ATOM      7  O   UNL d   1       0.005   0.830  -0.480  0.00  0.00    -0.526 OA
ATOM      8  H5  UNL d   1      -0.609   1.384   0.030  0.00  0.00     0.418 HD
ENDBRANCH   4   7
TORSDOF 1
ENDMDL
