MODEL 1
REMARK minimizedAffinity -1.05235612
REMARK minimizedRMSD -1
REMARK  1 active torsions:
REMARK  status: ('A' for Active; 'I' for Inactive)
REMARK    1  A    between atoms: C3_4  and  O_7 
ROOT
ATOM      1  C   UNL d   1      -1.046  -0.728   1.298  0.00  0.00    -0.033 A 
ATOM      2  C1  UNL d   1      -0.366  -0.531   0.094  0.00  0.00     0.039 A 
ATOM      3  C2  UNL d   1      -0.363  -1.531  -0.880  0.00  0.00    -0.080 A 
ATOM      4  C3  UNL d   1      -1.043  -2.721  -0.639  0.00  0.00     0.150 A 
ATOM      5  C4  UNL d   1      -1.725  -2.923   0.556  0.00  0.00    -0.007 A 
ATOM      6  C5  UNL d   1      -1.727  -1.924   1.528  0.00  0.00     0.039 A 
ENDROOT
BRANCH   4   7
ATOM      7  O   UNL d   1      -1.065  -3.728  -1.558  0.00  0.00    -0.526 OA
ATOM      8  H5  UNL d   1      -0.528  -3.460  -2.322  0.00  0.00     0.418 HD
ENDBRANCH   4   7
TORSDOF 1
ENDMDL
