MODEL 1
REMARK minimizedAffinity -3.91973305
REMARK minimizedRMSD -1
REMARK  1 active torsions:
REMARK  status: ('A' for Active; 'I' for Inactive)
REMARK    1  A    between atoms: C3_4  and  O_7 
ROOT
ATOM      1  C   UNL d   1       1.426   3.278   0.500  0.00  0.00    -0.033 A 
ATOM      2  C1  UNL d   1       2.473   2.663  -0.190  0.00  0.00     0.039 A 
ATOM      3  C2  UNL d   1       2.216   1.581  -1.033  0.00  0.00    -0.080 A 
ATOM      4  C3  UNL d   1       0.909   1.123  -1.178  0.00  0.00     0.150 A 
ATOM      5  C4  UNL d   1      -0.139   1.733  -0.497  0.00  0.00    -0.007 A 
ATOM      6  C5  UNL d   1       0.119   2.813   0.345  0.00  0.00     0.039 A 
ENDROOT
BRANCH   4   7
ATOM      7  O   UNL d   1       0.610   0.066  -1.986  0.00  0.00    -0.526 OA
ATOM      8  H5  UNL d   1       1.437  -0.272  -2.369  0.00  0.00     0.418 HD
ENDBRANCH   4   7
TORSDOF 1
ENDMDL
