MODEL 1
REMARK minimizedAffinity -0.619612515
REMARK minimizedRMSD -1
REMARK  1 active torsions:
REMARK  status: ('A' for Active; 'I' for Inactive)
REMARK    1  A    between atoms: C3_4  and  O_7 
ROOT
ATOM      1  C   UNL d   1       0.116   0.651  -0.646  0.00  0.00    -0.033 A 
ATOM      2  C1  UNL d   1      -0.847   0.887   0.338  0.00  0.00     0.039 A 
ATOM      3  C2  UNL d   1      -1.437  -0.185   1.010  0.00  0.00    -0.080 A 
ATOM      4  C3  UNL d   1      -1.055  -1.485   0.692  0.00  0.00     0.150 A 
ATOM      5  C4  UNL d   1      -0.094  -1.727  -0.284  0.00  0.00    -0.007 A 
ATOM      6  C5  UNL d   1       0.493  -0.655  -0.956  0.00  0.00     0.039 A 
ENDROOT
BRANCH   4   7
ATOM      7  O   UNL d   1      -1.606  -2.563   1.318  0.00  0.00    -0.526 OA
ATOM      8  H5  UNL d   1      -2.275  -2.245   1.947  0.00  0.00     0.418 HD
ENDBRANCH   4   7
TORSDOF 1
ENDMDL
