MODEL 1
REMARK minimizedAffinity -4.61326361
REMARK minimizedRMSD -1
REMARK  1 active torsions:
REMARK  status: ('A' for Active; 'I' for Inactive)
REMARK    1  A    between atoms: C3_4  and  O_7 
ROOT
ATOM      1  C   UNL d   1      -0.117   0.837  -0.851  0.00  0.00    -0.033 A 
ATOM      2  C1  UNL d   1       0.449  -0.101  -1.716  0.00  0.00     0.039 A 
ATOM      3  C2  UNL d   1       0.641  -1.417  -1.293  0.00  0.00    -0.080 A 
ATOM      4  C3  UNL d   1       0.262  -1.783  -0.004  0.00  0.00     0.150 A 
ATOM      5  C4  UNL d   1      -0.306  -0.854   0.862  0.00  0.00    -0.007 A 
ATOM      6  C5  UNL d   1      -0.496   0.460   0.438  0.00  0.00     0.039 A 
ENDROOT
BRANCH   4   7
ATOM      7  O   UNL d   1       0.434  -3.055   0.456  0.00  0.00    -0.526 OA
ATOM      8  H5  UNL d   1       0.863  -3.578  -0.241  0.00  0.00     0.418 HD
ENDBRANCH   4   7
TORSDOF 1
ENDMDL
