MODEL 1
REMARK minimizedAffinity -4.80368233
REMARK minimizedRMSD -1
REMARK  1 active torsions:
REMARK  status: ('A' for Active; 'I' for Inactive)
REMARK    1  A    between atoms: C3_4  and  O_7 
ROOT
ATOM      1  C   UNL d   1       0.565  -2.024  -1.974  0.00  0.00    -0.033 A 
ATOM      2  C1  UNL d   1       0.247  -3.258  -1.403  0.00  0.00     0.039 A 
ATOM      3  C2  UNL d   1      -0.228  -3.320  -0.092  0.00  0.00    -0.080 A 
ATOM      4  C3  UNL d   1      -0.382  -2.144   0.636  0.00  0.00     0.150 A 
ATOM      5  C4  UNL d   1      -0.071  -0.911   0.072  0.00  0.00    -0.007 A 
ATOM      6  C5  UNL d   1       0.405  -0.850  -1.237  0.00  0.00     0.039 A 
ENDROOT
BRANCH   4   7
ATOM      7  O   UNL d   1      -0.838  -2.155   1.921  0.00  0.00    -0.526 OA
ATOM      8  H5  UNL d   1      -0.985  -3.078   2.187  0.00  0.00     0.418 HD
ENDBRANCH   4   7
TORSDOF 1
ENDMDL
