MODEL 1
REMARK minimizedAffinity -3.6679256
REMARK minimizedRMSD -1
REMARK  1 active torsions:
REMARK  status: ('A' for Active; 'I' for Inactive)
REMARK    1  A    between atoms: C3_4  and  O_7 
ROOT
ATOM      1  C   UNL d   1      -1.558  -2.284   1.559  0.00  0.00    -0.033 A 
ATOM      2  C1  UNL d   1      -1.339  -0.905   1.567  0.00  0.00     0.039 A 
ATOM      3  C2  UNL d   1      -0.687  -0.294   0.495  0.00  0.00    -0.080 A 
ATOM      4  C3  UNL d   1      -0.261  -1.071  -0.579  0.00  0.00     0.150 A 
ATOM      5  C4  UNL d   1      -0.479  -2.445  -0.595  0.00  0.00    -0.007 A 
ATOM      6  C5  UNL d   1      -1.130  -3.054   0.478  0.00  0.00     0.039 A 
ENDROOT
BRANCH   4   7
ATOM      7  O   UNL d   1       0.384  -0.521  -1.646  0.00  0.00    -0.526 OA
ATOM      8  H5  UNL d   1       0.491   0.431  -1.483  0.00  0.00     0.418 HD
ENDBRANCH   4   7
TORSDOF 1
ENDMDL
