MODEL 1
REMARK minimizedAffinity -5.14358807
REMARK minimizedRMSD -1
REMARK  1 active torsions:
REMARK  status: ('A' for Active; 'I' for Inactive)
REMARK    1  A    between atoms: C3_4  and  O_7 
ROOT
ATOM      1  C   UNL d   1       0.417  -0.517  -1.387  0.00  0.00    -0.033 A 
ATOM      2  C1  UNL d   1       0.151  -0.393  -0.022  0.00  0.00     0.039 A 
ATOM      3  C2  UNL d   1      -0.120  -1.528   0.744  0.00  0.00    -0.080 A 
ATOM      4  C3  UNL d   1      -0.121  -2.780   0.134  0.00  0.00     0.150 A 
ATOM      5  C4  UNL d   1       0.147  -2.911  -1.225  0.00  0.00    -0.007 A 
ATOM      6  C5  UNL d   1       0.416  -1.776  -1.988  0.00  0.00     0.039 A 
ENDROOT
BRANCH   4   7
ATOM      7  O   UNL d   1      -0.384  -3.916   0.840  0.00  0.00    -0.526 OA
ATOM      8  H5  UNL d   1      -0.579  -3.669   1.759  0.00  0.00     0.418 HD
ENDBRANCH   4   7
TORSDOF 1
ENDMDL
