MODEL 1
REMARK minimizedAffinity -4.001647
REMARK minimizedRMSD -1
REMARK  1 active torsions:
REMARK  status: ('A' for Active; 'I' for Inactive)
REMARK    1  A    between atoms: C3_4  and  O_7 
ROOT
ATOM      1  C   UNL d   1       2.018   3.435   0.652  0.00  0.00    -0.033 A 
ATOM      2  C1  UNL d   1       0.940   3.332  -0.229  0.00  0.00     0.039 A 
ATOM      3  C2  UNL d   1       0.321   2.098  -0.436  0.00  0.00    -0.080 A 
ATOM      4  C3  UNL d   1       0.789   0.976   0.243  0.00  0.00     0.150 A 
ATOM      5  C4  UNL d   1       1.860   1.072   1.124  0.00  0.00    -0.007 A 
ATOM      6  C5  UNL d   1       2.478   2.305   1.329  0.00  0.00     0.039 A 
ENDROOT
BRANCH   4   7
ATOM      7  O   UNL d   1       0.220  -0.250   0.069  0.00  0.00    -0.526 OA
ATOM      8  H5  UNL d   1      -0.490  -0.170  -0.590  0.00  0.00     0.418 HD
ENDBRANCH   4   7
TORSDOF 1
ENDMDL
