MODEL 1
REMARK minimizedAffinity -3.75949216
REMARK minimizedRMSD -1
REMARK  1 active torsions:
REMARK  status: ('A' for Active; 'I' for Inactive)
REMARK    1  A    between atoms: C3_4  and  O_7 
ROOT
ATOM      1  C   UNL d   1      -0.442  -2.613   0.391  0.00  0.00    -0.033 A 
ATOM      2  C1  UNL d   1      -1.093  -1.787   1.309  0.00  0.00     0.039 A 
ATOM      3  C2  UNL d   1      -0.905  -0.404   1.264  0.00  0.00    -0.080 A 
ATOM      4  C3  UNL d   1      -0.065   0.139   0.296  0.00  0.00     0.150 A 
ATOM      5  C4  UNL d   1       0.585  -0.677  -0.624  0.00  0.00    -0.007 A 
ATOM      6  C5  UNL d   1       0.396  -2.058  -0.577  0.00  0.00     0.039 A 
ENDROOT
BRANCH   4   7
ATOM      7  O   UNL d   1       0.154   1.483   0.215  0.00  0.00    -0.526 OA
ATOM      8  H5  UNL d   1      -0.337   1.918   0.932  0.00  0.00     0.418 HD
ENDBRANCH   4   7
TORSDOF 1
ENDMDL
