MODEL 1
REMARK minimizedAffinity -2.72668767
REMARK minimizedRMSD -1
REMARK  1 active torsions:
REMARK  status: ('A' for Active; 'I' for Inactive)
REMARK    1  A    between atoms: C3_4  and  O_7 
ROOT
ATOM      1  C   UNL d   1       0.502   1.397  -1.273  0.00  0.00    -0.033 A 
ATOM      2  C1  UNL d   1       1.309   2.535  -1.334  0.00  0.00     0.039 A 
ATOM      3  C2  UNL d   1       1.532   3.297  -0.185  0.00  0.00    -0.080 A 
ATOM      4  C3  UNL d   1       0.944   2.910   1.016  0.00  0.00     0.150 A 
ATOM      5  C4  UNL d   1       0.142   1.776   1.084  0.00  0.00    -0.007 A 
ATOM      6  C5  UNL d   1      -0.080   1.016  -0.064  0.00  0.00     0.039 A 
ENDROOT
BRANCH   4   7
ATOM      7  O   UNL d   1       1.128   3.625   2.162  0.00  0.00    -0.526 OA
ATOM      8  H5  UNL d   1       1.680   4.398   1.957  0.00  0.00     0.418 HD
ENDBRANCH   4   7
TORSDOF 1
ENDMDL
