MODEL 1
REMARK minimizedAffinity -2.97019839
REMARK minimizedRMSD -1
REMARK  1 active torsions:
REMARK  status: ('A' for Active; 'I' for Inactive)
REMARK    1  A    between atoms: C3_4  and  O_7 
ROOT
ATOM      1  C   UNL d   1      -0.589  -0.827   1.429  0.00  0.00    -0.033 A 
ATOM      2  C1  UNL d   1      -0.130   0.009   0.409  0.00  0.00     0.039 A 
ATOM      3  C2  UNL d   1      -0.068  -0.459  -0.905  0.00  0.00    -0.080 A 
ATOM      4  C3  UNL d   1      -0.467  -1.763  -1.185  0.00  0.00     0.150 A 
ATOM      5  C4  UNL d   1      -0.929  -2.600  -0.175  0.00  0.00    -0.007 A 
ATOM      6  C5  UNL d   1      -0.990  -2.131   1.137  0.00  0.00     0.039 A 
ENDROOT
BRANCH   4   7
ATOM      7  O   UNL d   1      -0.420  -2.266  -2.451  0.00  0.00    -0.526 OA
ATOM      8  H5  UNL d   1      -0.053  -1.585  -3.039  0.00  0.00     0.418 HD
ENDBRANCH   4   7
TORSDOF 1
ENDMDL
