MODEL 1
REMARK minimizedAffinity -2.12505579
REMARK minimizedRMSD -1
REMARK  1 active torsions:
REMARK  status: ('A' for Active; 'I' for Inactive)
REMARK    1  A    between atoms: C3_4  and  O_7 
ROOT
ATOM      1  C   UNL d   1       2.336   3.466   1.474  0.00  0.00    -0.033 A 
ATOM      2  C1  UNL d   1       0.981   3.256   1.734  0.00  0.00     0.039 A 
ATOM      3  C2  UNL d   1       0.151   2.732   0.740  0.00  0.00    -0.080 A 
ATOM      4  C3  UNL d   1       0.689   2.422  -0.506  0.00  0.00     0.150 A 
ATOM      5  C4  UNL d   1       2.039   2.625  -0.770  0.00  0.00    -0.007 A 
ATOM      6  C5  UNL d   1       2.866   3.149   0.223  0.00  0.00     0.039 A 
ENDROOT
BRANCH   4   7
ATOM      7  O   UNL d   1      -0.083   1.913  -1.508  0.00  0.00    -0.526 OA
ATOM      8  H5  UNL d   1      -0.999   1.853  -1.191  0.00  0.00     0.418 HD
ENDBRANCH   4   7
TORSDOF 1
ENDMDL
