MODEL 1
REMARK minimizedAffinity 4.66104078
REMARK minimizedRMSD -1
REMARK  1 active torsions:
REMARK  status: ('A' for Active; 'I' for Inactive)
REMARK    1  A    between atoms: C3_4  and  O_7 
ROOT
ATOM      1  C   UNL d   1      -1.681   5.624   2.365  0.00  0.00    -0.033 A 
ATOM      2  C1  UNL d   1      -0.676   5.527   3.329  0.00  0.00     0.039 A 
ATOM      3  C2  UNL d   1       0.410   4.674   3.124  0.00  0.00    -0.080 A 
ATOM      4  C3  UNL d   1       0.480   3.926   1.952  0.00  0.00     0.150 A 
ATOM      5  C4  UNL d   1      -0.516   4.021   0.986  0.00  0.00    -0.007 A 
ATOM      6  C5  UNL d   1      -1.600   4.872   1.193  0.00  0.00     0.039 A 
ENDROOT
BRANCH   4   7
ATOM      7  O   UNL d   1       1.518   3.076   1.710  0.00  0.00    -0.526 OA
ATOM      8  H5  UNL d   1       2.115   3.093   2.477  0.00  0.00     0.418 HD
ENDBRANCH   4   7
TORSDOF 1
ENDMDL
