MODEL 1
REMARK minimizedAffinity -1.95986569
REMARK minimizedRMSD -1
REMARK  0 active torsions:
REMARK  status: ('A' for Active; 'I' for Inactive)
ROOT
ATOM      1  N1  IND d   1      -4.108  -4.294  -4.876  0.00  0.00    -0.196 N 
ATOM      2  C2  IND d   1      -4.250  -5.650  -4.783  0.00  0.00     0.054 A 
ATOM      3  C3  IND d   1      -4.621  -6.000  -3.531  0.00  0.00    -0.031 A 
ATOM      4  C4  IND d   1      -5.151  -4.504  -1.504  0.00  0.00     0.051 A 
ATOM      5  C5  IND d   1      -5.128  -3.201  -1.092  0.00  0.00    -0.031 A 
ATOM      6  C6  IND d   1      -4.759  -2.175  -1.937  0.00  0.00     0.015 A 
ATOM      7  C7  IND d   1      -4.409  -2.413  -3.236  0.00  0.00    -0.016 A 
ATOM      8  C8  IND d   1      -4.424  -3.736  -3.656  0.00  0.00    -0.047 A 
ATOM      9  C9  IND d   1      -4.757  -4.786  -2.791  0.00  0.00    -0.096 A 
ATOM     10  HN1 IND d   1      -3.863  -3.862  -5.577  0.00  0.00     0.298 HD
ENDROOT
TORSDOF 0
ENDMDL
