MODEL 1
REMARK minimizedAffinity 0.509418905
REMARK minimizedRMSD -1
REMARK  0 active torsions:
REMARK  status: ('A' for Active; 'I' for Inactive)
ROOT
ATOM      1  N1  IND d   1      -3.895  -5.998  -4.728  0.00  0.00    -0.196 N 
ATOM      2  C2  IND d   1      -3.720  -5.423  -5.956  0.00  0.00     0.054 A 
ATOM      3  C3  IND d   1      -4.318  -4.212  -5.998  0.00  0.00    -0.031 A 
ATOM      4  C4  IND d   1      -5.553  -2.932  -4.136  0.00  0.00     0.051 A 
ATOM      5  C5  IND d   1      -6.000  -3.065  -2.852  0.00  0.00    -0.031 A 
ATOM      6  C6  IND d   1      -5.760  -4.204  -2.110  0.00  0.00     0.015 A 
ATOM      7  C7  IND d   1      -5.052  -5.253  -2.625  0.00  0.00    -0.016 A 
ATOM      8  C8  IND d   1      -4.603  -5.125  -3.932  0.00  0.00    -0.047 A 
ATOM      9  C9  IND d   1      -4.880  -3.988  -4.703  0.00  0.00    -0.096 A 
ATOM     10  HN1 IND d   1      -3.610  -6.774  -4.492  0.00  0.00     0.298 HD
ENDROOT
TORSDOF 0
ENDMDL
