MODEL 1
REMARK minimizedAffinity 9.51089287
REMARK minimizedRMSD -1
REMARK  0 active torsions:
REMARK  status: ('A' for Active; 'I' for Inactive)
ROOT
ATOM      1  N1  IND d   1       4.423  -3.523   3.355  0.00  0.00    -0.196 N 
ATOM      2  C2  IND d   1       5.315  -3.259   2.353  0.00  0.00     0.054 A 
ATOM      3  C3  IND d   1       4.726  -2.528   1.380  0.00  0.00    -0.031 A 
ATOM      4  C4  IND d   1       2.340  -1.566   1.274  0.00  0.00     0.051 A 
ATOM      5  C5  IND d   1       1.147  -1.571   1.940  0.00  0.00    -0.031 A 
ATOM      6  C6  IND d   1       0.982  -2.237   3.137  0.00  0.00     0.015 A 
ATOM      7  C7  IND d   1       2.012  -2.918   3.721  0.00  0.00    -0.016 A 
ATOM      8  C8  IND d   1       3.224  -2.921   3.045  0.00  0.00    -0.047 A 
ATOM      9  C9  IND d   1       3.385  -2.283   1.808  0.00  0.00    -0.096 A 
ATOM     10  HN1 IND d   1       4.585  -3.986   4.061  0.00  0.00     0.298 HD
ENDROOT
TORSDOF 0
ENDMDL
