MODEL 1
REMARK minimizedAffinity -1.0218147
REMARK minimizedRMSD -1
REMARK  0 active torsions:
REMARK  status: ('A' for Active; 'I' for Inactive)
ROOT
ATOM      1  N1  IND d   1      -5.999  -5.128  -2.539  0.00  0.00    -0.196 N 
ATOM      2  C2  IND d   1      -6.000  -3.934  -1.874  0.00  0.00     0.054 A 
ATOM      3  C3  IND d   1      -5.397  -2.981  -2.619  0.00  0.00    -0.031 A 
ATOM      4  C4  IND d   1      -4.428  -3.134  -5.000  0.00  0.00     0.051 A 
ATOM      5  C5  IND d   1      -4.165  -4.028  -6.000  0.00  0.00    -0.031 A 
ATOM      6  C6  IND d   1      -4.509  -5.360  -5.897  0.00  0.00     0.015 A 
ATOM      7  C7  IND d   1      -5.142  -5.848  -4.789  0.00  0.00    -0.016 A 
ATOM      8  C8  IND d   1      -5.405  -4.946  -3.769  0.00  0.00    -0.047 A 
ATOM      9  C9  IND d   1      -5.020  -3.601  -3.850  0.00  0.00    -0.096 A 
ATOM     10  HN1 IND d   1      -6.317  -5.869  -2.240  0.00  0.00     0.298 HD
ENDROOT
TORSDOF 0
ENDMDL
