MODEL 1
REMARK minimizedAffinity 13.5302477
REMARK minimizedRMSD -1
REMARK  0 active torsions:
REMARK  status: ('A' for Active; 'I' for Inactive)
ROOT
ATOM      1  N1  IND d   1       0.746  -0.522   2.312  0.00  0.00    -0.196 N 
ATOM      2  C2  IND d   1       1.210   0.129   1.203  0.00  0.00     0.054 A 
ATOM      3  C3  IND d   1       1.464  -0.755   0.212  0.00  0.00    -0.031 A 
ATOM      4  C4  IND d   1       1.093  -3.302   0.156  0.00  0.00     0.051 A 
ATOM      5  C5  IND d   1       0.720  -4.353   0.945  0.00  0.00    -0.031 A 
ATOM      6  C6  IND d   1       0.327  -4.178   2.256  0.00  0.00     0.015 A 
ATOM      7  C7  IND d   1       0.280  -2.937   2.825  0.00  0.00    -0.016 A 
ATOM      8  C8  IND d   1       0.664  -1.868   2.029  0.00  0.00    -0.047 A 
ATOM      9  C9  IND d   1       1.105  -2.044   0.711  0.00  0.00    -0.096 A 
ATOM     10  HN1 IND d   1       0.539  -0.152   3.061  0.00  0.00     0.298 HD
ENDROOT
TORSDOF 0
ENDMDL
