MODEL 1
REMARK minimizedAffinity -0.129969984
REMARK minimizedRMSD -1
REMARK  0 active torsions:
REMARK  status: ('A' for Active; 'I' for Inactive)
ROOT
ATOM      1  N1  IND d   1      -5.994  -3.227  -4.760  0.00  0.00    -0.196 N 
ATOM      2  C2  IND d   1      -5.992  -3.808  -5.998  0.00  0.00     0.054 A 
ATOM      3  C3  IND d   1      -5.208  -4.909  -6.000  0.00  0.00    -0.031 A 
ATOM      4  C4  IND d   1      -3.914  -5.999  -4.060  0.00  0.00     0.051 A 
ATOM      5  C5  IND d   1      -3.581  -5.812  -2.747  0.00  0.00    -0.031 A 
ATOM      6  C6  IND d   1      -4.048  -4.734  -2.023  0.00  0.00     0.015 A 
ATOM      7  C7  IND d   1      -4.877  -3.804  -2.584  0.00  0.00    -0.016 A 
ATOM      8  C8  IND d   1      -5.211  -3.987  -3.919  0.00  0.00    -0.047 A 
ATOM      9  C9  IND d   1      -4.706  -5.056  -4.670  0.00  0.00    -0.096 A 
ATOM     10  HN1 IND d   1      -6.413  -2.508  -4.543  0.00  0.00     0.298 HD
ENDROOT
TORSDOF 0
ENDMDL
