MODEL 1
REMARK minimizedAffinity 0.796971202
REMARK minimizedRMSD -1
REMARK  0 active torsions:
REMARK  status: ('A' for Active; 'I' for Inactive)
ROOT
ATOM      1  N1  IND d   1      -4.709  -5.965  -2.634  0.00  0.00    -0.196 N 
ATOM      2  C2  IND d   1      -5.593  -5.247  -1.878  0.00  0.00     0.054 A 
ATOM      3  C3  IND d   1      -5.994  -4.142  -2.546  0.00  0.00    -0.031 A 
ATOM      4  C4  IND d   1      -5.407  -3.369  -4.931  0.00  0.00     0.051 A 
ATOM      5  C5  IND d   1      -4.610  -3.677  -5.997  0.00  0.00    -0.031 A 
ATOM      6  C6  IND d   1      -3.790  -4.788  -5.998  0.00  0.00     0.015 A 
ATOM      7  C7  IND d   1      -3.746  -5.641  -4.932  0.00  0.00    -0.016 A 
ATOM      8  C8  IND d   1      -4.549  -5.328  -3.845  0.00  0.00    -0.047 A 
ATOM      9  C9  IND d   1      -5.350  -4.179  -3.821  0.00  0.00    -0.096 A 
ATOM     10  HN1 IND d   1      -4.318  -6.692  -2.393  0.00  0.00     0.298 HD
ENDROOT
TORSDOF 0
ENDMDL
