MODEL 1
REMARK minimizedAffinity 10.8017654
REMARK minimizedRMSD -1
REMARK  0 active torsions:
REMARK  status: ('A' for Active; 'I' for Inactive)
ROOT
ATOM      1  N1  IND d   1      -4.513  -4.450  -2.102  0.00  0.00    -0.196 N 
ATOM      2  C2  IND d   1      -5.229  -3.310  -1.861  0.00  0.00     0.054 A 
ATOM      3  C3  IND d   1      -5.882  -2.919  -2.978  0.00  0.00    -0.031 A 
ATOM      4  C4  IND d   1      -6.000  -4.054  -5.286  0.00  0.00     0.051 A 
ATOM      5  C5  IND d   1      -5.483  -5.098  -6.000  0.00  0.00    -0.031 A 
ATOM      6  C6  IND d   1      -4.601  -6.000  -5.440  0.00  0.00     0.015 A 
ATOM      7  C7  IND d   1      -4.210  -5.896  -4.135  0.00  0.00    -0.016 A 
ATOM      8  C8  IND d   1      -4.727  -4.833  -3.408  0.00  0.00    -0.047 A 
ATOM      9  C9  IND d   1      -5.589  -3.890  -3.984  0.00  0.00    -0.096 A 
ATOM     10  HN1 IND d   1      -4.014  -4.858  -1.534  0.00  0.00     0.298 HD
ENDROOT
TORSDOF 0
ENDMDL
