MODEL 1
REMARK minimizedAffinity -3.04903126
REMARK minimizedRMSD -1
REMARK  0 active torsions:
REMARK  status: ('A' for Active; 'I' for Inactive)
ROOT
ATOM      1  N1  IND d   1      -5.940  -4.509  -2.300  0.00  0.00    -0.196 N 
ATOM      2  C2  IND d   1      -5.170  -5.276  -1.471  0.00  0.00     0.054 A 
ATOM      3  C3  IND d   1      -4.280  -5.998  -2.189  0.00  0.00    -0.031 A 
ATOM      4  C4  IND d   1      -3.845  -6.000  -4.726  0.00  0.00     0.051 A 
ATOM      5  C5  IND d   1      -4.321  -5.490  -5.902  0.00  0.00    -0.031 A 
ATOM      6  C6  IND d   1      -5.381  -4.607  -5.937  0.00  0.00     0.015 A 
ATOM      7  C7  IND d   1      -6.000  -4.191  -4.792  0.00  0.00    -0.016 A 
ATOM      8  C8  IND d   1      -5.523  -4.712  -3.597  0.00  0.00    -0.047 A 
ATOM      9  C9  IND d   1      -4.475  -5.641  -3.559  0.00  0.00    -0.096 A 
ATOM     10  HN1 IND d   1      -6.577  -3.988  -2.053  0.00  0.00     0.298 HD
ENDROOT
TORSDOF 0
ENDMDL
