MODEL 1
REMARK minimizedAffinity 1.15053582
REMARK minimizedRMSD -1
REMARK  0 active torsions:
REMARK  status: ('A' for Active; 'I' for Inactive)
ROOT
ATOM      1  N1  IND d   1      -4.498  -5.618  -2.329  0.00  0.00    -0.196 N 
ATOM      2  C2  IND d   1      -4.847  -4.559  -1.539  0.00  0.00     0.054 A 
ATOM      3  C3  IND d   1      -5.283  -3.529  -2.298  0.00  0.00    -0.031 A 
ATOM      4  C4  IND d   1      -5.602  -3.399  -4.849  0.00  0.00     0.051 A 
ATOM      5  C5  IND d   1      -5.385  -4.105  -5.999  0.00  0.00    -0.031 A 
ATOM      6  C6  IND d   1      -4.853  -5.378  -5.984  0.00  0.00     0.015 A 
ATOM      7  C7  IND d   1      -4.527  -6.000  -4.812  0.00  0.00    -0.016 A 
ATOM      8  C8  IND d   1      -4.740  -5.283  -3.643  0.00  0.00    -0.047 A 
ATOM      9  C9  IND d   1      -5.240  -3.975  -3.655  0.00  0.00    -0.096 A 
ATOM     10  HN1 IND d   1      -4.180  -6.368  -2.052  0.00  0.00     0.298 HD
ENDROOT
TORSDOF 0
ENDMDL
