MODEL 1
REMARK minimizedAffinity -1.20854056
REMARK minimizedRMSD -1
REMARK  0 active torsions:
REMARK  status: ('A' for Active; 'I' for Inactive)
ROOT
ATOM      1  N1  IND d   1      -5.319  -3.827  -2.231  0.00  0.00    -0.196 N 
ATOM      2  C2  IND d   1      -4.637  -4.800  -1.555  0.00  0.00     0.054 A 
ATOM      3  C3  IND d   1      -4.288  -5.800  -2.395  0.00  0.00    -0.031 A 
ATOM      4  C4  IND d   1      -4.642  -6.000  -4.937  0.00  0.00     0.051 A 
ATOM      5  C5  IND d   1      -5.247  -5.377  -5.992  0.00  0.00    -0.031 A 
ATOM      6  C6  IND d   1      -5.918  -4.180  -5.846  0.00  0.00     0.015 A 
ATOM      7  C7  IND d   1      -6.000  -3.553  -4.635  0.00  0.00    -0.016 A 
ATOM      8  C8  IND d   1      -5.393  -4.186  -3.559  0.00  0.00    -0.047 A 
ATOM      9  C9  IND d   1      -4.747  -5.422  -3.694  0.00  0.00    -0.096 A 
ATOM     10  HN1 IND d   1      -5.647  -3.111  -1.886  0.00  0.00     0.298 HD
ENDROOT
TORSDOF 0
ENDMDL
