MODEL 1
REMARK minimizedAffinity 1.06472921
REMARK minimizedRMSD -1
REMARK  0 active torsions:
REMARK  status: ('A' for Active; 'I' for Inactive)
ROOT
ATOM      1  C1  BNZ d   1       0.915  -4.323   4.284  0.00  0.00     0.000 A 
ATOM      2  C2  BNZ d   1       0.863  -2.967   4.464  0.00  0.00     0.000 A 
ATOM      3  C3  BNZ d   1       1.630  -2.129   3.703  0.00  0.00     0.000 A 
ATOM      4  C4  BNZ d   1       2.477  -2.651   2.792  0.00  0.00     0.000 A 
ATOM      5  C5  BNZ d   1       2.548  -4.017   2.605  0.00  0.00     0.000 A 
ATOM      6  C6  BNZ d   1       1.745  -4.854   3.345  0.00  0.00     0.000 A 
ENDROOT
TORSDOF 0
ENDMDL
