MODEL 1
REMARK minimizedAffinity 1.02691996
REMARK minimizedRMSD -1
REMARK  0 active torsions:
REMARK  status: ('A' for Active; 'I' for Inactive)
ROOT
ATOM      1  C1  BNZ d   1       4.876  -5.990  -3.475  0.00  0.00     0.000 A 
ATOM      2  C2  BNZ d   1       4.067  -5.999  -4.580  0.00  0.00     0.000 A 
ATOM      3  C3  BNZ d   1       2.707  -5.984  -4.453  0.00  0.00     0.000 A 
ATOM      4  C4  BNZ d   1       2.156  -5.999  -3.222  0.00  0.00     0.000 A 
ATOM      5  C5  BNZ d   1       2.957  -6.000  -2.097  0.00  0.00     0.000 A 
ATOM      6  C6  BNZ d   1       4.326  -5.976  -2.229  0.00  0.00     0.000 A 
ENDROOT
TORSDOF 0
ENDMDL
