MODEL 1
REMARK minimizedAffinity -1.4406023
REMARK minimizedRMSD -1
REMARK  0 active torsions:
REMARK  status: ('A' for Active; 'I' for Inactive)
ROOT
ATOM      1  C1  BNZ d   1       2.432  -5.999  -2.876  0.00  0.00     0.000 A 
ATOM      2  C2  BNZ d   1       2.032  -5.993  -4.185  0.00  0.00     0.000 A 
ATOM      3  C3  BNZ d   1       2.950  -5.992  -5.198  0.00  0.00     0.000 A 
ATOM      4  C4  BNZ d   1       4.265  -5.957  -4.900  0.00  0.00     0.000 A 
ATOM      5  C5  BNZ d   1       4.684  -5.954  -3.585  0.00  0.00     0.000 A 
ATOM      6  C6  BNZ d   1       3.757  -5.994  -2.568  0.00  0.00     0.000 A 
ENDROOT
TORSDOF 0
ENDMDL
