MODEL 1
REMARK minimizedAffinity 0.516458213
REMARK minimizedRMSD -1
REMARK  0 active torsions:
REMARK  status: ('A' for Active; 'I' for Inactive)
ROOT
ATOM      1  C1  BNZ d   1       2.218  -4.320   2.954  0.00  0.00     0.000 A 
ATOM      2  C2  BNZ d   1       3.338  -4.336   3.741  0.00  0.00     0.000 A 
ATOM      3  C3  BNZ d   1       3.682  -3.247   4.492  0.00  0.00     0.000 A 
ATOM      4  C4  BNZ d   1       2.928  -2.131   4.424  0.00  0.00     0.000 A 
ATOM      5  C5  BNZ d   1       1.801  -2.096   3.628  0.00  0.00     0.000 A 
ATOM      6  C6  BNZ d   1       1.436  -3.207   2.904  0.00  0.00     0.000 A 
ENDROOT
TORSDOF 0
ENDMDL
