MODEL 1
REMARK minimizedAffinity 1.94292152
REMARK minimizedRMSD -1
REMARK  0 active torsions:
REMARK  status: ('A' for Active; 'I' for Inactive)
ROOT
ATOM      1  C1  BNZ d   1      -4.879  -2.634  -2.673  0.00  0.00     0.000 A 
ATOM      2  C2  BNZ d   1      -3.756  -3.221  -3.193  0.00  0.00     0.000 A 
ATOM      3  C3  BNZ d   1      -3.740  -3.682  -4.480  0.00  0.00     0.000 A 
ATOM      4  C4  BNZ d   1      -4.857  -3.591  -5.231  0.00  0.00     0.000 A 
ATOM      5  C5  BNZ d   1      -6.000  -3.011  -4.717  0.00  0.00     0.000 A 
ATOM      6  C6  BNZ d   1      -6.000  -2.513  -3.434  0.00  0.00     0.000 A 
ENDROOT
TORSDOF 0
ENDMDL
