MODEL 1
REMARK minimizedAffinity 2.90488052
REMARK minimizedRMSD -1
REMARK  0 active torsions:
REMARK  status: ('A' for Active; 'I' for Inactive)
ROOT
ATOM      1  C1  BNZ d   1       2.832  -1.986   4.103  0.00  0.00     0.000 A 
ATOM      2  C2  BNZ d   1       3.362  -3.189   4.488  0.00  0.00     0.000 A 
ATOM      3  C3  BNZ d   1       2.805  -4.365   4.069  0.00  0.00     0.000 A 
ATOM      4  C4  BNZ d   1       1.697  -4.338   3.301  0.00  0.00     0.000 A 
ATOM      5  C5  BNZ d   1       1.145  -3.133   2.913  0.00  0.00     0.000 A 
ATOM      6  C6  BNZ d   1       1.731  -1.951   3.304  0.00  0.00     0.000 A 
ENDROOT
TORSDOF 0
ENDMDL
