MODEL 1
REMARK minimizedAffinity 1.51785278
REMARK minimizedRMSD -1
REMARK  0 active torsions:
REMARK  status: ('A' for Active; 'I' for Inactive)
ROOT
ATOM      1  C1  BNZ d   1       1.549  -3.748   3.375  0.00  0.00     0.000 A 
ATOM      2  C2  BNZ d   1       1.188  -2.486   2.985  0.00  0.00     0.000 A 
ATOM      3  C3  BNZ d   1       2.134  -1.529   2.748  0.00  0.00     0.000 A 
ATOM      4  C4  BNZ d   1       3.436  -1.822   2.940  0.00  0.00     0.000 A 
ATOM      5  C5  BNZ d   1       3.816  -3.087   3.342  0.00  0.00     0.000 A 
ATOM      6  C6  BNZ d   1       2.863  -4.059   3.542  0.00  0.00     0.000 A 
ENDROOT
TORSDOF 0
ENDMDL
