MODEL 1
REMARK minimizedAffinity -2.42035055
REMARK minimizedRMSD -1
REMARK  0 active torsions:
REMARK  status: ('A' for Active; 'I' for Inactive)
ROOT
ATOM      1  C1  BNZ d   1       1.054  -2.409   2.589  0.00  0.00     0.000 A 
ATOM      2  C2  BNZ d   1       1.590  -3.167   3.597  0.00  0.00     0.000 A 
ATOM      3  C3  BNZ d   1       2.908  -3.048   3.937  0.00  0.00     0.000 A 
ATOM      4  C4  BNZ d   1       3.698  -2.204   3.243  0.00  0.00     0.000 A 
ATOM      5  C5  BNZ d   1       3.176  -1.440   2.219  0.00  0.00     0.000 A 
ATOM      6  C6  BNZ d   1       1.839  -1.533   1.905  0.00  0.00     0.000 A 
ENDROOT
TORSDOF 0
ENDMDL
