MODEL 1
REMARK minimizedAffinity 11.5536737
REMARK minimizedRMSD -1
REMARK  1 active torsions:
REMARK  status: ('A' for Active; 'I' for Inactive)
REMARK    1  A    between atoms: C1_2  and  C2_3 
ROOT
ATOM      1  C2  UNL d   1      -0.620   2.394   0.620  0.00  0.00    -0.073 A 
ATOM      2  C3  UNL d   1      -1.831   1.776   0.288  0.00  0.00    -0.002 A 
ATOM      3  C4  UNL d   1      -2.088   0.466   0.696  0.00  0.00     0.004 A 
ATOM      4  C5  UNL d   1      -1.142  -0.235   1.444  0.00  0.00    -0.004 A 
ATOM      5  C6  UNL d   1       0.069   0.370   1.795  0.00  0.00    -0.075 A 
ATOM      6  C7  UNL d   1       1.098  -0.372   2.597  0.00  0.00     0.076 C 
ATOM      7  C8  UNL d   1       0.321   1.684   1.379  0.00  0.00     0.001 A 
ENDROOT
BRANCH   1   8
ATOM      8  C1  UNL d   1      -0.340   3.811   0.187  0.00  0.00     0.053 C 
ATOM      9  C   UNL d   1      -0.826   4.825   1.210  0.00  0.00     0.018 C 
ENDBRANCH   1   8
TORSDOF 1
ENDMDL
