MODEL 1
REMARK minimizedAffinity 7.52949524
REMARK minimizedRMSD -1
REMARK  1 active torsions:
REMARK  status: ('A' for Active; 'I' for Inactive)
REMARK    1  A    between atoms: C1_2  and  C2_3 
ROOT
ATOM      1  C2  UNL d   1       1.492  -2.948   4.509  0.00  0.00    -0.073 A 
ATOM      2  C3  UNL d   1       2.296  -3.823   3.769  0.00  0.00    -0.002 A 
ATOM      3  C4  UNL d   1       2.656  -3.510   2.458  0.00  0.00     0.004 A 
ATOM      4  C5  UNL d   1       2.223  -2.319   1.876  0.00  0.00    -0.004 A 
ATOM      5  C6  UNL d   1       1.429  -1.426   2.603  0.00  0.00    -0.075 A 
ATOM      6  C7  UNL d   1       0.954  -0.141   1.991  0.00  0.00     0.076 C 
ATOM      7  C8  UNL d   1       1.070  -1.748   3.919  0.00  0.00     0.001 A 
ENDROOT
BRANCH   1   8
ATOM      8  C1  UNL d   1       1.106  -3.278   5.928  0.00  0.00     0.053 C 
ATOM      9  C   UNL d   1       0.144  -4.454   5.998  0.00  0.00     0.018 C 
ENDBRANCH   1   8
TORSDOF 1
ENDMDL
