MODEL 1
REMARK minimizedAffinity 5.93486834
REMARK minimizedRMSD -1
REMARK  1 active torsions:
REMARK  status: ('A' for Active; 'I' for Inactive)
REMARK    1  A    between atoms: C1_2  and  C2_3 
ROOT
ATOM      1  C2  UNL d   1      -5.011   3.724  -3.595  0.00  0.00    -0.073 A 
ATOM      2  C3  UNL d   1      -5.363   4.869  -4.319  0.00  0.00    -0.002 A 
ATOM      3  C4  UNL d   1      -5.858   5.994  -3.660  0.00  0.00     0.004 A 
ATOM      4  C5  UNL d   1      -6.000   5.990  -2.272  0.00  0.00    -0.004 A 
ATOM      5  C6  UNL d   1      -5.642   4.860  -1.530  0.00  0.00    -0.075 A 
ATOM      6  C7  UNL d   1      -5.790   4.838  -0.037  0.00  0.00     0.076 C 
ATOM      7  C8  UNL d   1      -5.148   3.732  -2.200  0.00  0.00     0.001 A 
ENDROOT
BRANCH   1   8
ATOM      8  C1  UNL d   1      -4.469   2.508  -4.302  0.00  0.00     0.053 C 
ATOM      9  C   UNL d   1      -3.927   1.476  -3.326  0.00  0.00     0.018 C 
ENDBRANCH   1   8
TORSDOF 1
ENDMDL
