MODEL 1
REMARK minimizedAffinity 1.98947167
REMARK minimizedRMSD -1
REMARK  1 active torsions:
REMARK  status: ('A' for Active; 'I' for Inactive)
REMARK    1  A    between atoms: C1_2  and  C2_3 
ROOT
ATOM      1  C2  UNL d   1       1.366  -1.767   2.271  0.00  0.00    -0.073 A 
ATOM      2  C3  UNL d   1       0.480  -1.750   1.188  0.00  0.00    -0.002 A 
ATOM      3  C4  UNL d   1       0.177  -0.549   0.544  0.00  0.00     0.004 A 
ATOM      4  C5  UNL d   1       0.762   0.643   0.970  0.00  0.00    -0.004 A 
ATOM      5  C6  UNL d   1       1.659   0.645   2.043  0.00  0.00    -0.075 A 
ATOM      6  C7  UNL d   1       2.295   1.919   2.516  0.00  0.00     0.076 C 
ATOM      7  C8  UNL d   1       1.956  -0.564   2.687  0.00  0.00     0.001 A 
ENDROOT
BRANCH   1   8
ATOM      8  C1  UNL d   1       1.701  -3.062   2.965  0.00  0.00     0.053 C 
ATOM      9  C   UNL d   1       1.119  -3.122   4.369  0.00  0.00     0.018 C 
ENDBRANCH   1   8
TORSDOF 1
ENDMDL
