MODEL 1
REMARK minimizedAffinity 0.539123416
REMARK minimizedRMSD -1
REMARK  1 active torsions:
REMARK  status: ('A' for Active; 'I' for Inactive)
REMARK    1  A    between atoms: C1_2  and  C2_3 
ROOT
ATOM      1  C2  UNL d   1       1.179  -1.826   2.022  0.00  0.00    -0.073 A 
ATOM      2  C3  UNL d   1       0.117  -1.712   1.117  0.00  0.00    -0.002 A 
ATOM      3  C4  UNL d   1      -0.148  -0.494   0.490  0.00  0.00     0.004 A 
ATOM      4  C5  UNL d   1       0.650   0.619   0.755  0.00  0.00    -0.004 A 
ATOM      5  C6  UNL d   1       1.723   0.523   1.647  0.00  0.00    -0.075 A 
ATOM      6  C7  UNL d   1       2.588   1.712   1.944  0.00  0.00     0.076 C 
ATOM      7  C8  UNL d   1       1.980  -0.704   2.275  0.00  0.00     0.001 A 
ENDROOT
BRANCH   1   8
ATOM      8  C1  UNL d   1       1.472  -3.141   2.696  0.00  0.00     0.053 C 
ATOM      9  C   UNL d   1       1.114  -3.116   4.174  0.00  0.00     0.018 C 
ENDBRANCH   1   8
TORSDOF 1
ENDMDL
