MODEL 1
REMARK minimizedAffinity 6.02931833
REMARK minimizedRMSD -1
REMARK  1 active torsions:
REMARK  status: ('A' for Active; 'I' for Inactive)
REMARK    1  A    between atoms: C1_2  and  C2_3 
ROOT
ATOM      1  C2  UNL d   1       5.156  -3.472   5.814  0.00  0.00    -0.077 A 
ATOM      2  C3  UNL d   1       3.762  -3.577   5.925  0.00  0.00     0.002 A 
ATOM      3  C4  UNL d   1       3.151  -4.830   5.996  0.00  0.00     0.002 A 
ATOM      4  C5  UNL d   1       3.926  -5.988   5.961  0.00  0.00    -0.004 A 
ATOM      5  C6  UNL d   1       5.312  -5.895   5.849  0.00  0.00     0.002 A 
ATOM      6  C7  UNL d   1       5.925  -4.643   5.776  0.00  0.00     0.002 A 
ENDROOT
BRANCH   1   7
ATOM      7  C1  UNL d   1       5.820  -2.121   5.787  0.00  0.00     0.055 C 
ATOM      8  C   UNL d   1       5.912  -1.577   4.368  0.00  0.00     0.019 C 
ENDBRANCH   1   7
TORSDOF 1
ENDMDL
