MODEL 1
REMARK minimizedAffinity 7.66167736
REMARK minimizedRMSD -1
REMARK  1 active torsions:
REMARK  status: ('A' for Active; 'I' for Inactive)
REMARK    1  A    between atoms: C1_2  and  C2_3 
ROOT
ATOM      1  C2  UNL d   1      -3.586   2.223  -3.383  0.00  0.00    -0.077 A 
ATOM      2  C3  UNL d   1      -3.293   3.571  -3.634  0.00  0.00     0.002 A 
ATOM      3  C4  UNL d   1      -3.969   4.265  -4.639  0.00  0.00     0.002 A 
ATOM      4  C5  UNL d   1      -4.945   3.622  -5.398  0.00  0.00    -0.004 A 
ATOM      5  C6  UNL d   1      -5.243   2.281  -5.157  0.00  0.00     0.002 A 
ATOM      6  C7  UNL d   1      -4.567   1.585  -4.154  0.00  0.00     0.002 A 
ENDROOT
BRANCH   1   7
ATOM      7  C1  UNL d   1      -2.893   1.486  -2.267  0.00  0.00     0.055 C 
ATOM      8  C   UNL d   1      -3.646   0.219  -1.890  0.00  0.00     0.019 C 
ENDBRANCH   1   7
TORSDOF 1
ENDMDL
