MODEL 1
REMARK minimizedAffinity 5.15437508
REMARK minimizedRMSD -1
REMARK  1 active torsions:
REMARK  status: ('A' for Active; 'I' for Inactive)
REMARK    1  A    between atoms: C1_2  and  C2_3 
ROOT
ATOM      1  C2  UNL d   1       0.584  -2.437   1.398  0.00  0.00    -0.077 A 
ATOM      2  C3  UNL d   1       0.660  -3.692   0.779  0.00  0.00     0.002 A 
ATOM      3  C4  UNL d   1       1.895  -4.212   0.384  0.00  0.00     0.002 A 
ATOM      4  C5  UNL d   1       3.062  -3.485   0.607  0.00  0.00    -0.004 A 
ATOM      5  C6  UNL d   1       2.997  -2.234   1.220  0.00  0.00     0.002 A 
ATOM      6  C7  UNL d   1       1.764  -1.713   1.614  0.00  0.00     0.002 A 
ENDROOT
BRANCH   1   7
ATOM      7  C1  UNL d   1      -0.741  -1.896   1.869  0.00  0.00     0.055 C 
ATOM      8  C   UNL d   1      -1.708  -3.021   2.208  0.00  0.00     0.019 C 
ENDBRANCH   1   7
TORSDOF 1
ENDMDL
