MODEL 1
REMARK minimizedAffinity 3.66037703
REMARK minimizedRMSD -1
REMARK  1 active torsions:
REMARK  status: ('A' for Active; 'I' for Inactive)
REMARK    1  A    between atoms: C1_2  and  C2_3 
ROOT
ATOM      1  C2  UNL d   1       1.812  -2.303   1.315  0.00  0.00    -0.077 A 
ATOM      2  C3  UNL d   1       1.510  -3.489   0.632  0.00  0.00     0.002 A 
ATOM      3  C4  UNL d   1       2.500  -4.448   0.410  0.00  0.00     0.002 A 
ATOM      4  C5  UNL d   1       3.797  -4.233   0.872  0.00  0.00    -0.004 A 
ATOM      5  C6  UNL d   1       4.108  -3.055   1.551  0.00  0.00     0.002 A 
ATOM      6  C7  UNL d   1       3.119  -2.095   1.772  0.00  0.00     0.002 A 
ENDROOT
BRANCH   1   7
ATOM      7  C1  UNL d   1       0.734  -1.289   1.599  0.00  0.00     0.055 C 
ATOM      8  C   UNL d   1      -0.495  -1.945   2.210  0.00  0.00     0.019 C 
ENDBRANCH   1   7
TORSDOF 1
ENDMDL
