MODEL 1
REMARK minimizedAffinity 13.5644178
REMARK minimizedRMSD -1
REMARK  1 active torsions:
REMARK  status: ('A' for Active; 'I' for Inactive)
REMARK    1  A    between atoms: C1_2  and  C2_3 
ROOT
ATOM      1  C2  UNL d   1      -5.063  -1.785  -3.290  0.00  0.00    -0.077 A 
ATOM      2  C3  UNL d   1      -5.731  -0.614  -3.675  0.00  0.00     0.002 A 
ATOM      3  C4  UNL d   1      -5.974  -0.352  -5.025  0.00  0.00     0.002 A 
ATOM      4  C5  UNL d   1      -5.557  -1.256  -5.999  0.00  0.00    -0.004 A 
ATOM      5  C6  UNL d   1      -4.890  -2.422  -5.626  0.00  0.00     0.002 A 
ATOM      6  C7  UNL d   1      -4.644  -2.686  -4.277  0.00  0.00     0.002 A 
ENDROOT
BRANCH   1   7
ATOM      7  C1  UNL d   1      -4.842  -2.093  -1.832  0.00  0.00     0.055 C 
ATOM      8  C   UNL d   1      -3.971  -1.037  -1.168  0.00  0.00     0.019 C 
ENDBRANCH   1   7
TORSDOF 1
ENDMDL
