MODEL 1
REMARK minimizedAffinity 12.525074
REMARK minimizedRMSD -1
REMARK  1 active torsions:
REMARK  status: ('A' for Active; 'I' for Inactive)
REMARK    1  A    between atoms: C1_2  and  C2_3 
ROOT
ATOM      1  C2  UNL d   1       0.766  -1.555   1.396  0.00  0.00    -0.077 A 
ATOM      2  C3  UNL d   1       0.773  -1.412   0.001  0.00  0.00     0.002 A 
ATOM      3  C4  UNL d   1       1.872  -1.836  -0.747  0.00  0.00     0.002 A 
ATOM      4  C5  UNL d   1       2.971  -2.410  -0.110  0.00  0.00    -0.004 A 
ATOM      5  C6  UNL d   1       2.974  -2.555   1.276  0.00  0.00     0.002 A 
ATOM      6  C7  UNL d   1       1.876  -2.131   2.026  0.00  0.00     0.002 A 
ENDROOT
BRANCH   1   7
ATOM      7  C1  UNL d   1      -0.440  -1.143   2.199  0.00  0.00     0.055 C 
ATOM      8  C   UNL d   1      -1.627  -2.054   1.924  0.00  0.00     0.019 C 
ENDBRANCH   1   7
TORSDOF 1
ENDMDL
