MODEL 1
REMARK minimizedAffinity 5.42329311
REMARK minimizedRMSD -1
REMARK  1 active torsions:
REMARK  status: ('A' for Active; 'I' for Inactive)
REMARK    1  A    between atoms: C1_2  and  C2_3 
ROOT
ATOM      1  C2  UNL d   1      -2.698   1.698  -2.792  0.00  0.00    -0.077 A 
ATOM      2  C3  UNL d   1      -1.880   0.573  -2.970  0.00  0.00     0.002 A 
ATOM      3  C4  UNL d   1      -2.098  -0.584  -2.219  0.00  0.00     0.002 A 
ATOM      4  C5  UNL d   1      -3.134  -0.629  -1.289  0.00  0.00    -0.004 A 
ATOM      5  C6  UNL d   1      -3.951   0.486  -1.102  0.00  0.00     0.002 A 
ATOM      6  C7  UNL d   1      -3.734   1.643  -1.851  0.00  0.00     0.002 A 
ENDROOT
BRANCH   1   7
ATOM      7  C1  UNL d   1      -2.496   2.929  -3.635  0.00  0.00     0.055 C 
ATOM      8  C   UNL d   1      -1.018   3.243  -3.812  0.00  0.00     0.019 C 
ENDBRANCH   1   7
TORSDOF 1
ENDMDL
