MODEL 1
REMARK minimizedAffinity 2.74854136
REMARK minimizedRMSD -1
REMARK  1 active torsions:
REMARK  status: ('A' for Active; 'I' for Inactive)
REMARK    1  A    between atoms: C1_2  and  C2_3 
ROOT
ATOM      1  C2  UNL d   1       3.871  -1.892   4.038  0.00  0.00    -0.077 A 
ATOM      2  C3  UNL d   1       2.970  -0.848   4.290  0.00  0.00     0.002 A 
ATOM      3  C4  UNL d   1       2.043  -0.466   3.319  0.00  0.00     0.002 A 
ATOM      4  C5  UNL d   1       2.004  -1.124   2.092  0.00  0.00    -0.004 A 
ATOM      5  C6  UNL d   1       2.897  -2.162   1.831  0.00  0.00     0.002 A 
ATOM      6  C7  UNL d   1       3.826  -2.545   2.799  0.00  0.00     0.002 A 
ENDROOT
BRANCH   1   7
ATOM      7  C1  UNL d   1       4.840  -2.339   5.102  0.00  0.00     0.055 C 
ATOM      8  C   UNL d   1       4.224  -3.403   5.999  0.00  0.00     0.019 C 
ENDBRANCH   1   7
TORSDOF 1
ENDMDL
