MODEL 1
REMARK minimizedAffinity -4.89679146
REMARK minimizedRMSD -1
REMARK  1 active torsions:
REMARK  status: ('A' for Active; 'I' for Inactive)
REMARK    1  A    between atoms: C1_2  and  C2_3 
ROOT
ATOM      1  C2  UNL d   1       0.253   0.662  -0.095  0.00  0.00    -0.076 A 
ATOM      2  C3  UNL d   1       0.009   2.018  -0.376  0.00  0.00     0.004 A 
ATOM      3  C4  UNL d   1       1.005   2.977  -0.198  0.00  0.00    -0.003 A 
ATOM      4  C5  UNL d   1       2.261   2.595   0.261  0.00  0.00     0.000 A 
ATOM      5  C6  UNL d   1       2.525   1.252   0.527  0.00  0.00     0.000 A 
ATOM      6  C7  UNL d   1       1.537   0.271   0.338  0.00  0.00    -0.073 A 
ATOM      7  C8  UNL d   1       1.875  -1.162   0.647  0.00  0.00     0.078 C 
ENDROOT
BRANCH   1   8
ATOM      8  C1  UNL d   1      -0.874  -0.329  -0.281  0.00  0.00     0.053 C 
ATOM      9  C   UNL d   1      -0.620  -1.292  -1.430  0.00  0.00     0.018 C 
ENDBRANCH   1   8
TORSDOF 1
ENDMDL
