MODEL 1
REMARK minimizedAffinity -3.6579597
REMARK minimizedRMSD -1
REMARK  1 active torsions:
REMARK  status: ('A' for Active; 'I' for Inactive)
REMARK    1  A    between atoms: C1_2  and  C2_3 
ROOT
ATOM      1  C2  UNL d   1      -0.064   0.049   0.160  0.00  0.00    -0.076 A 
ATOM      2  C3  UNL d   1       1.001   0.605  -0.569  0.00  0.00     0.004 A 
ATOM      3  C4  UNL d   1       1.132   1.986  -0.707  0.00  0.00    -0.003 A 
ATOM      4  C5  UNL d   1       0.200   2.833  -0.118  0.00  0.00     0.000 A 
ATOM      5  C6  UNL d   1      -0.853   2.299   0.624  0.00  0.00     0.000 A 
ATOM      6  C7  UNL d   1      -0.991   0.910   0.786  0.00  0.00    -0.073 A 
ATOM      7  C8  UNL d   1      -2.150   0.388   1.591  0.00  0.00     0.078 C 
ENDROOT
BRANCH   1   8
ATOM      8  C1  UNL d   1      -0.170  -1.457   0.252  0.00  0.00     0.053 C 
ATOM      9  C   UNL d   1      -0.395  -2.109  -1.103  0.00  0.00     0.018 C 
ENDBRANCH   1   8
TORSDOF 1
ENDMDL
