MODEL 1
REMARK minimizedAffinity -5.028965
REMARK minimizedRMSD -1
REMARK  1 active torsions:
REMARK  status: ('A' for Active; 'I' for Inactive)
REMARK    1  A    between atoms: C1_2  and  C2_3 
ROOT
ATOM      1  C2  UNL d   1       0.377   0.087   0.074  0.00  0.00    -0.076 A 
ATOM      2  C3  UNL d   1      -0.951   0.545   0.096  0.00  0.00     0.004 A 
ATOM      3  C4  UNL d   1      -1.240   1.909   0.111  0.00  0.00    -0.003 A 
ATOM      4  C5  UNL d   1      -0.204   2.837   0.103  0.00  0.00     0.000 A 
ATOM      5  C6  UNL d   1       1.119   2.400   0.063  0.00  0.00     0.000 A 
ATOM      6  C7  UNL d   1       1.427   1.029   0.032  0.00  0.00    -0.073 A 
ATOM      7  C8  UNL d   1       2.873   0.615  -0.005  0.00  0.00     0.078 C 
ENDROOT
BRANCH   1   8
ATOM      8  C1  UNL d   1       0.630  -1.403   0.087  0.00  0.00     0.053 C 
ATOM      9  C   UNL d   1      -0.234  -2.149  -0.918  0.00  0.00     0.018 C 
ENDBRANCH   1   8
TORSDOF 1
ENDMDL
