MODEL 1
REMARK minimizedAffinity -3.18492341
REMARK minimizedRMSD -1
REMARK  1 active torsions:
REMARK  status: ('A' for Active; 'I' for Inactive)
REMARK    1  A    between atoms: C1_2  and  C2_3 
ROOT
ATOM      1  C2  UNL d   1       1.498   1.226   0.329  0.00  0.00    -0.076 A 
ATOM      2  C3  UNL d   1       1.563  -0.174   0.228  0.00  0.00     0.004 A 
ATOM      3  C4  UNL d   1       0.404  -0.948   0.224  0.00  0.00    -0.003 A 
ATOM      4  C5  UNL d   1      -0.840  -0.335   0.320  0.00  0.00     0.000 A 
ATOM      5  C6  UNL d   1      -0.924   1.055   0.403  0.00  0.00     0.000 A 
ATOM      6  C7  UNL d   1       0.234   1.851   0.393  0.00  0.00    -0.073 A 
ATOM      7  C8  UNL d   1       0.084   3.345   0.491  0.00  0.00     0.078 C 
ENDROOT
BRANCH   1   8
ATOM      8  C1  UNL d   1       2.789   2.012   0.357  0.00  0.00     0.053 C 
ATOM      9  C   UNL d   1       4.009   1.122   0.538  0.00  0.00     0.018 C 
ENDBRANCH   1   8
TORSDOF 1
ENDMDL
