MODEL 1
REMARK minimizedAffinity -3.18965793
REMARK minimizedRMSD -1
REMARK  1 active torsions:
REMARK  status: ('A' for Active; 'I' for Inactive)
REMARK    1  A    between atoms: C1_2  and  C2_3 
ROOT
ATOM      1  C2  UNL d   1       0.036   0.399  -0.204  0.00  0.00    -0.076 A 
ATOM      2  C3  UNL d   1       1.014   1.149  -0.880  0.00  0.00     0.004 A 
ATOM      3  C4  UNL d   1       1.153   2.517  -0.654  0.00  0.00    -0.003 A 
ATOM      4  C5  UNL d   1       0.316   3.158   0.252  0.00  0.00     0.000 A 
ATOM      5  C6  UNL d   1      -0.648   2.427   0.945  0.00  0.00     0.000 A 
ATOM      6  C7  UNL d   1      -0.790   1.044   0.741  0.00  0.00    -0.073 A 
ATOM      7  C8  UNL d   1      -1.851   0.306   1.511  0.00  0.00     0.078 C 
ENDROOT
BRANCH   1   8
ATOM      8  C1  UNL d   1      -0.085  -1.076  -0.510  0.00  0.00     0.053 C 
ATOM      9  C   UNL d   1       0.780  -1.934   0.401  0.00  0.00     0.018 C 
ENDBRANCH   1   8
TORSDOF 1
ENDMDL
