MODEL 1
REMARK minimizedAffinity 1.83552516
REMARK minimizedRMSD -1
REMARK  1 active torsions:
REMARK  status: ('A' for Active; 'I' for Inactive)
REMARK    1  A    between atoms: C1_2  and  C2_3 
ROOT
ATOM      1  C2  UNL d   1      -0.000   0.139  -0.381  0.00  0.00    -0.076 A 
ATOM      2  C3  UNL d   1      -1.141   0.960  -0.394  0.00  0.00     0.004 A 
ATOM      3  C4  UNL d   1      -1.205   2.111   0.389  0.00  0.00    -0.003 A 
ATOM      4  C5  UNL d   1      -0.128   2.460   1.197  0.00  0.00     0.000 A 
ATOM      5  C6  UNL d   1       1.018   1.667   1.209  0.00  0.00     0.000 A 
ATOM      6  C7  UNL d   1       1.105   0.512   0.413  0.00  0.00    -0.073 A 
ATOM      7  C8  UNL d   1       2.363  -0.311   0.469  0.00  0.00     0.078 C 
ENDROOT
BRANCH   1   8
ATOM      8  C1  UNL d   1       0.001  -1.112  -1.231  0.00  0.00     0.053 C 
ATOM      9  C   UNL d   1      -1.345  -1.821  -1.227  0.00  0.00     0.018 C 
ENDBRANCH   1   8
TORSDOF 1
ENDMDL
