MODEL 1
REMARK minimizedAffinity 3.37256241
REMARK minimizedRMSD -1
REMARK  1 active torsions:
REMARK  status: ('A' for Active; 'I' for Inactive)
REMARK    1  A    between atoms: C1_2  and  C2_3 
ROOT
ATOM      1  C2  UNL d   1       0.720   0.045  -0.556  0.00  0.00    -0.076 A 
ATOM      2  C3  UNL d   1       1.631  -0.682   0.229  0.00  0.00     0.004 A 
ATOM      3  C4  UNL d   1       2.965  -0.290   0.326  0.00  0.00    -0.003 A 
ATOM      4  C5  UNL d   1       3.409   0.835  -0.359  0.00  0.00     0.000 A 
ATOM      5  C6  UNL d   1       2.515   1.579  -1.128  0.00  0.00     0.000 A 
ATOM      6  C7  UNL d   1       1.163   1.207  -1.224  0.00  0.00    -0.073 A 
ATOM      7  C8  UNL d   1       0.243   2.042  -2.073  0.00  0.00     0.078 C 
ENDROOT
BRANCH   1   8
ATOM      8  C1  UNL d   1      -0.709  -0.443  -0.646  0.00  0.00     0.053 C 
ATOM      9  C   UNL d   1      -1.049  -1.451   0.440  0.00  0.00     0.018 C 
ENDBRANCH   1   8
TORSDOF 1
ENDMDL
