MODEL 1
REMARK minimizedAffinity -1.48728096
REMARK minimizedRMSD -1
REMARK  1 active torsions:
REMARK  status: ('A' for Active; 'I' for Inactive)
REMARK    1  A    between atoms: C1_2  and  C2_3 
ROOT
ATOM      1  C2  UNL d   1       0.538  -0.219   0.587  0.00  0.00    -0.076 A 
ATOM      2  C3  UNL d   1       1.877   0.189   0.467  0.00  0.00     0.004 A 
ATOM      3  C4  UNL d   1       2.240   1.523   0.646  0.00  0.00    -0.003 A 
ATOM      4  C5  UNL d   1       1.268   2.471   0.948  0.00  0.00     0.000 A 
ATOM      5  C6  UNL d   1      -0.063   2.081   1.088  0.00  0.00     0.000 A 
ATOM      6  C7  UNL d   1      -0.443   0.738   0.927  0.00  0.00    -0.073 A 
ATOM      7  C8  UNL d   1      -1.894   0.374   1.083  0.00  0.00     0.078 C 
ENDROOT
BRANCH   1   8
ATOM      8  C1  UNL d   1       0.200  -1.674   0.356  0.00  0.00     0.053 C 
ATOM      9  C   UNL d   1      -0.155  -1.967  -1.094  0.00  0.00     0.018 C 
ENDBRANCH   1   8
TORSDOF 1
ENDMDL
