MODEL 1
REMARK minimizedAffinity 2.78365874
REMARK minimizedRMSD -1
REMARK  1 active torsions:
REMARK  status: ('A' for Active; 'I' for Inactive)
REMARK    1  A    between atoms: C1_2  and  C2_3 
ROOT
ATOM      1  C2  UNL d   1      -1.008  -0.722   0.320  0.00  0.00    -0.076 A 
ATOM      2  C3  UNL d   1      -0.480   0.114  -0.679  0.00  0.00     0.004 A 
ATOM      3  C4  UNL d   1       0.858   0.502  -0.656  0.00  0.00    -0.003 A 
ATOM      4  C5  UNL d   1       1.691   0.060   0.366  0.00  0.00     0.000 A 
ATOM      5  C6  UNL d   1       1.188  -0.784   1.355  0.00  0.00     0.000 A 
ATOM      6  C7  UNL d   1      -0.154  -1.199   1.338  0.00  0.00    -0.073 A 
ATOM      7  C8  UNL d   1      -0.645  -2.105   2.434  0.00  0.00     0.078 C 
ENDROOT
BRANCH   1   8
ATOM      8  C1  UNL d   1      -2.474  -1.088   0.258  0.00  0.00     0.053 C 
ATOM      9  C   UNL d   1      -2.851  -1.762  -1.052  0.00  0.00     0.018 C 
ENDBRANCH   1   8
TORSDOF 1
ENDMDL
