MODEL 1
REMARK minimizedAffinity -4.57568169
REMARK minimizedRMSD -1
REMARK  1 active torsions:
REMARK  status: ('A' for Active; 'I' for Inactive)
REMARK    1  A    between atoms: C1_2  and  C2_3 
ROOT
ATOM      1  C2  UNL d   1       1.804   2.077   1.138  0.00  0.00    -0.076 A 
ATOM      2  C3  UNL d   1       2.441   0.989   1.760  0.00  0.00     0.004 A 
ATOM      3  C4  UNL d   1       1.821  -0.258   1.834  0.00  0.00    -0.003 A 
ATOM      4  C5  UNL d   1       0.555  -0.436   1.288  0.00  0.00     0.000 A 
ATOM      5  C6  UNL d   1      -0.084   0.628   0.652  0.00  0.00     0.000 A 
ATOM      6  C7  UNL d   1       0.534   1.887   0.554  0.00  0.00    -0.073 A 
ATOM      7  C8  UNL d   1      -0.204   3.001  -0.137  0.00  0.00     0.078 C 
ENDROOT
BRANCH   1   8
ATOM      8  C1  UNL d   1       2.514   3.412   1.111  0.00  0.00     0.053 C 
ATOM      9  C   UNL d   1       3.557   3.496   0.008  0.00  0.00     0.018 C 
ENDBRANCH   1   8
TORSDOF 1
ENDMDL
