MODEL 1
REMARK minimizedAffinity 0.397389919
REMARK minimizedRMSD -1
REMARK  1 active torsions:
REMARK  status: ('A' for Active; 'I' for Inactive)
REMARK    1  A    between atoms: C1_2  and  C2_3 
ROOT
ATOM      1  C2  UNL d   1      -1.203  -0.826   0.236  0.00  0.00    -0.076 A 
ATOM      2  C3  UNL d   1      -0.330  -0.084  -0.578  0.00  0.00     0.004 A 
ATOM      3  C4  UNL d   1       0.959   0.229  -0.148  0.00  0.00    -0.003 A 
ATOM      4  C5  UNL d   1       1.395  -0.197   1.102  0.00  0.00     0.000 A 
ATOM      5  C6  UNL d   1       0.548  -0.949   1.914  0.00  0.00     0.000 A 
ATOM      6  C7  UNL d   1      -0.748  -1.287   1.490  0.00  0.00    -0.073 A 
ATOM      7  C8  UNL d   1      -1.622  -2.095   2.410  0.00  0.00     0.078 C 
ENDROOT
BRANCH   1   8
ATOM      8  C1  UNL d   1      -2.599  -1.112  -0.272  0.00  0.00     0.053 C 
ATOM      9  C   UNL d   1      -2.595  -1.870  -1.590  0.00  0.00     0.018 C 
ENDBRANCH   1   8
TORSDOF 1
ENDMDL
