MODEL 1
REMARK minimizedAffinity -1.38304555
REMARK minimizedRMSD -1
REMARK  1 active torsions:
REMARK  status: ('A' for Active; 'I' for Inactive)
REMARK    1  A    between atoms: C1_2  and  C2_3 
ROOT
ATOM      1  C2  UNL d   1      -0.043  -0.246  -1.604  0.00  0.00    -0.076 A 
ATOM      2  C3  UNL d   1       0.693   0.241  -0.510  0.00  0.00     0.004 A 
ATOM      3  C4  UNL d   1       0.254   0.040   0.798  0.00  0.00    -0.003 A 
ATOM      4  C5  UNL d   1      -0.928  -0.654   1.032  0.00  0.00     0.000 A 
ATOM      5  C6  UNL d   1      -1.662  -1.160  -0.040  0.00  0.00     0.000 A 
ATOM      6  C7  UNL d   1      -1.224  -0.980  -1.364  0.00  0.00    -0.073 A 
ATOM      7  C8  UNL d   1      -2.058  -1.542  -2.482  0.00  0.00     0.078 C 
ENDROOT
BRANCH   1   8
ATOM      8  C1  UNL d   1       0.469   0.027  -3.000  0.00  0.00     0.053 C 
ATOM      9  C   UNL d   1       1.862  -0.539  -3.231  0.00  0.00     0.018 C 
ENDBRANCH   1   8
TORSDOF 1
ENDMDL
