MODEL 1
REMARK minimizedAffinity -2.7238059
REMARK minimizedRMSD -1
REMARK  1 active torsions:
REMARK  status: ('A' for Active; 'I' for Inactive)
REMARK    1  A    between atoms: C1_2  and  C2_3 
ROOT
ATOM      1  C2  UNL d   1       3.010   2.534   0.862  0.00  0.00    -0.076 A 
ATOM      2  C3  UNL d   1       3.678   2.699  -0.364  0.00  0.00     0.004 A 
ATOM      3  C4  UNL d   1       4.111   3.956  -0.781  0.00  0.00    -0.003 A 
ATOM      4  C5  UNL d   1       3.883   5.069   0.021  0.00  0.00     0.000 A 
ATOM      5  C6  UNL d   1       3.237   4.921   1.248  0.00  0.00     0.000 A 
ATOM      6  C7  UNL d   1       2.809   3.658   1.691  0.00  0.00    -0.073 A 
ATOM      7  C8  UNL d   1       2.112   3.558   3.020  0.00  0.00     0.078 C 
ENDROOT
BRANCH   1   8
ATOM      8  C1  UNL d   1       2.539   1.150   1.249  0.00  0.00     0.053 C 
ATOM      9  C   UNL d   1       1.232   0.768   0.571  0.00  0.00     0.018 C 
ENDBRANCH   1   8
TORSDOF 1
ENDMDL
