MODEL 1
REMARK minimizedAffinity 0.247249648
REMARK minimizedRMSD -1
REMARK  1 active torsions:
REMARK  status: ('A' for Active; 'I' for Inactive)
REMARK    1  A    between atoms: C1_2  and  C2_3 
ROOT
ATOM      1  C2  UNL d   1       1.673   1.112  -0.321  0.00  0.00    -0.076 A 
ATOM      2  C3  UNL d   1       2.686   2.084  -0.402  0.00  0.00     0.004 A 
ATOM      3  C4  UNL d   1       3.204   2.678   0.747  0.00  0.00    -0.003 A 
ATOM      4  C5  UNL d   1       2.717   2.311   1.997  0.00  0.00     0.000 A 
ATOM      5  C6  UNL d   1       1.725   1.336   2.098  0.00  0.00     0.000 A 
ATOM      6  C7  UNL d   1       1.204   0.715   0.950  0.00  0.00    -0.073 A 
ATOM      7  C8  UNL d   1       0.130  -0.325   1.116  0.00  0.00     0.078 C 
ENDROOT
BRANCH   1   8
ATOM      8  C1  UNL d   1       1.131   0.522  -1.603  0.00  0.00     0.053 C 
ATOM      9  C   UNL d   1       2.231   0.161  -2.589  0.00  0.00     0.018 C 
ENDBRANCH   1   8
TORSDOF 1
ENDMDL
