MODEL 1
REMARK minimizedAffinity -1.50524819
REMARK minimizedRMSD -1
REMARK  1 active torsions:
REMARK  status: ('A' for Active; 'I' for Inactive)
REMARK    1  A    between atoms: C1_2  and  C2_3 
ROOT
ATOM      1  C2  UNL d   1       2.458   2.542   0.131  0.00  0.00    -0.076 A 
ATOM      2  C3  UNL d   1       2.333   1.614  -0.918  0.00  0.00     0.004 A 
ATOM      3  C4  UNL d   1       1.342   0.634  -0.894  0.00  0.00    -0.003 A 
ATOM      4  C5  UNL d   1       0.460   0.566   0.178  0.00  0.00     0.000 A 
ATOM      5  C6  UNL d   1       0.558   1.489   1.219  0.00  0.00     0.000 A 
ATOM      6  C7  UNL d   1       1.541   2.494   1.202  0.00  0.00    -0.073 A 
ATOM      7  C8  UNL d   1       1.605   3.459   2.354  0.00  0.00     0.078 C 
ENDROOT
BRANCH   1   8
ATOM      8  C1  UNL d   1       3.569   3.565   0.064  0.00  0.00     0.053 C 
ATOM      9  C   UNL d   1       4.165   3.688  -1.330  0.00  0.00     0.018 C 
ENDBRANCH   1   8
TORSDOF 1
ENDMDL
