MODEL 1
REMARK minimizedAffinity -1.98226583
REMARK minimizedRMSD -1
REMARK  1 active torsions:
REMARK  status: ('A' for Active; 'I' for Inactive)
REMARK    1  A    between atoms: C1_2  and  C2_3 
ROOT
ATOM      1  C2  UNL d   1       3.022   2.555  -0.007  0.00  0.00    -0.076 A 
ATOM      2  C3  UNL d   1       3.159   3.602   0.920  0.00  0.00     0.004 A 
ATOM      3  C4  UNL d   1       2.462   3.587   2.128  0.00  0.00    -0.003 A 
ATOM      4  C5  UNL d   1       1.618   2.523   2.427  0.00  0.00     0.000 A 
ATOM      5  C6  UNL d   1       1.484   1.467   1.527  0.00  0.00     0.000 A 
ATOM      6  C7  UNL d   1       2.191   1.459   0.312  0.00  0.00    -0.073 A 
ATOM      7  C8  UNL d   1       2.004   0.298  -0.625  0.00  0.00     0.078 C 
ENDROOT
BRANCH   1   8
ATOM      8  C1  UNL d   1       3.781   2.639  -1.312  0.00  0.00     0.053 C 
ATOM      9  C   UNL d   1       4.144   4.069  -1.684  0.00  0.00     0.018 C 
ENDBRANCH   1   8
TORSDOF 1
ENDMDL
