MODEL 1
REMARK minimizedAffinity -3.4534235
REMARK minimizedRMSD -1
REMARK  1 active torsions:
REMARK  status: ('A' for Active; 'I' for Inactive)
REMARK    1  A    between atoms: C1_2  and  C2_3 
ROOT
ATOM      1  C2  UNL d   1       2.600   1.661   0.670  0.00  0.00    -0.076 A 
ATOM      2  C3  UNL d   1       2.294   1.166   1.949  0.00  0.00     0.004 A 
ATOM      3  C4  UNL d   1       2.496   1.946   3.087  0.00  0.00    -0.003 A 
ATOM      4  C5  UNL d   1       3.007   3.233   2.964  0.00  0.00     0.000 A 
ATOM      5  C6  UNL d   1       3.300   3.746   1.700  0.00  0.00     0.000 A 
ATOM      6  C7  UNL d   1       3.087   2.980   0.542  0.00  0.00    -0.073 A 
ATOM      7  C8  UNL d   1       3.426   3.581  -0.794  0.00  0.00     0.078 C 
ENDROOT
BRANCH   1   8
ATOM      8  C1  UNL d   1       2.386   0.760  -0.526  0.00  0.00     0.053 C 
ATOM      9  C   UNL d   1       1.305  -0.283  -0.283  0.00  0.00     0.018 C 
ENDBRANCH   1   8
TORSDOF 1
ENDMDL
