MODEL 1
REMARK minimizedAffinity -1.60465121
REMARK minimizedRMSD -1
REMARK  1 active torsions:
REMARK  status: ('A' for Active; 'I' for Inactive)
REMARK    1  A    between atoms: C1_2  and  C2_3 
ROOT
ATOM      1  C2  UNL d   1      -0.502  -0.441  -0.494  0.00  0.00    -0.076 A 
ATOM      2  C3  UNL d   1      -1.551  -0.028  -1.334  0.00  0.00     0.004 A 
ATOM      3  C4  UNL d   1      -2.841  -0.530  -1.171  0.00  0.00    -0.003 A 
ATOM      4  C5  UNL d   1      -3.104  -1.452  -0.165  0.00  0.00     0.000 A 
ATOM      5  C6  UNL d   1      -2.080  -1.860   0.689  0.00  0.00     0.000 A 
ATOM      6  C7  UNL d   1      -0.777  -1.352   0.549  0.00  0.00    -0.073 A 
ATOM      7  C8  UNL d   1       0.291  -1.831   1.494  0.00  0.00     0.078 C 
ENDROOT
BRANCH   1   8
ATOM      8  C1  UNL d   1       0.882   0.116  -0.735  0.00  0.00     0.053 C 
ATOM      9  C   UNL d   1       1.490  -0.376  -2.039  0.00  0.00     0.018 C 
ENDBRANCH   1   8
TORSDOF 1
ENDMDL
