MODEL 1
REMARK minimizedAffinity -2.91430306
REMARK minimizedRMSD -1
REMARK  1 active torsions:
REMARK  status: ('A' for Active; 'I' for Inactive)
REMARK    1  A    between atoms: C1_2  and  C2_3 
ROOT
ATOM      1  C2  UNL d   1      -0.914  -0.036  -1.026  0.00  0.00    -0.076 A 
ATOM      2  C3  UNL d   1      -2.155  -0.605  -1.360  0.00  0.00     0.004 A 
ATOM      3  C4  UNL d   1      -2.984  -1.145  -0.379  0.00  0.00    -0.003 A 
ATOM      4  C5  UNL d   1      -2.586  -1.125   0.953  0.00  0.00     0.000 A 
ATOM      5  C6  UNL d   1      -1.366  -0.548   1.305  0.00  0.00     0.000 A 
ATOM      6  C7  UNL d   1      -0.526   0.015   0.330  0.00  0.00    -0.073 A 
ATOM      7  C8  UNL d   1       0.782   0.618   0.764  0.00  0.00     0.078 C 
ENDROOT
BRANCH   1   8
ATOM      8  C1  UNL d   1      -0.045   0.510  -2.137  0.00  0.00     0.053 C 
ATOM      9  C   UNL d   1       1.217  -0.311  -2.346  0.00  0.00     0.018 C 
ENDBRANCH   1   8
TORSDOF 1
ENDMDL
