MODEL 1
REMARK minimizedAffinity -3.31318474
REMARK minimizedRMSD -1
REMARK  1 active torsions:
REMARK  status: ('A' for Active; 'I' for Inactive)
REMARK    1  A    between atoms: C1_2  and  C2_3 
ROOT
ATOM      1  C2  UNL d   1      -1.598  -0.411   0.004  0.00  0.00    -0.076 A 
ATOM      2  C3  UNL d   1      -1.165   0.471  -1.001  0.00  0.00     0.004 A 
ATOM      3  C4  UNL d   1       0.189   0.754  -1.174  0.00  0.00    -0.003 A 
ATOM      4  C5  UNL d   1       1.132   0.158  -0.344  0.00  0.00     0.000 A 
ATOM      5  C6  UNL d   1       0.722  -0.733   0.647  0.00  0.00     0.000 A 
ATOM      6  C7  UNL d   1      -0.637  -1.042   0.823  0.00  0.00    -0.073 A 
ATOM      7  C8  UNL d   1      -1.024  -2.005   1.912  0.00  0.00     0.078 C 
ENDROOT
BRANCH   1   8
ATOM      8  C1  UNL d   1      -3.081  -0.658   0.161  0.00  0.00     0.053 C 
ATOM      9  C   UNL d   1      -3.662  -1.468  -0.989  0.00  0.00     0.018 C 
ENDBRANCH   1   8
TORSDOF 1
ENDMDL
