MODEL 1
REMARK minimizedAffinity -2.31142664
REMARK minimizedRMSD -1
REMARK  1 active torsions:
REMARK  status: ('A' for Active; 'I' for Inactive)
REMARK    1  A    between atoms: C1_2  and  C2_3 
ROOT
ATOM      1  C2  UNL d   1      -0.526  -0.058  -0.823  0.00  0.00    -0.076 A 
ATOM      2  C3  UNL d   1       0.662   0.074  -0.084  0.00  0.00     0.004 A 
ATOM      3  C4  UNL d   1       0.739  -0.368   1.235  0.00  0.00    -0.003 A 
ATOM      4  C5  UNL d   1      -0.370  -0.952   1.837  0.00  0.00     0.000 A 
ATOM      5  C6  UNL d   1      -1.552  -1.107   1.113  0.00  0.00     0.000 A 
ATOM      6  C7  UNL d   1      -1.642  -0.681  -0.223  0.00  0.00    -0.073 A 
ATOM      7  C8  UNL d   1      -2.943  -0.868  -0.955  0.00  0.00     0.078 C 
ENDROOT
BRANCH   1   8
ATOM      8  C1  UNL d   1      -0.559   0.466  -2.241  0.00  0.00     0.053 C 
ATOM      9  C   UNL d   1       0.671   0.064  -3.040  0.00  0.00     0.018 C 
ENDBRANCH   1   8
TORSDOF 1
ENDMDL
