MODEL 1
REMARK minimizedAffinity -5.47781372
REMARK minimizedRMSD -1
REMARK  1 active torsions:
REMARK  status: ('A' for Active; 'I' for Inactive)
REMARK    1  A    between atoms: C1_2  and  C2_3 
ROOT
ATOM      1  C2  UNL d   1      -0.999  -0.599   0.322  0.00  0.00    -0.076 A 
ATOM      2  C3  UNL d   1      -1.733   0.048  -0.687  0.00  0.00     0.004 A 
ATOM      3  C4  UNL d   1      -2.999  -0.405  -1.055  0.00  0.00    -0.003 A 
ATOM      4  C5  UNL d   1      -3.551  -1.513  -0.421  0.00  0.00     0.000 A 
ATOM      5  C6  UNL d   1      -2.843  -2.156   0.595  0.00  0.00     0.000 A 
ATOM      6  C7  UNL d   1      -1.573  -1.702   0.990  0.00  0.00    -0.073 A 
ATOM      7  C8  UNL d   1      -0.853  -2.437   2.086  0.00  0.00     0.078 C 
ENDROOT
BRANCH   1   8
ATOM      8  C1  UNL d   1       0.380  -0.079   0.661  0.00  0.00     0.053 C 
ATOM      9  C   UNL d   1       1.251   0.108  -0.571  0.00  0.00     0.018 C 
ENDBRANCH   1   8
TORSDOF 1
ENDMDL
