MODEL 1
REMARK minimizedAffinity -3.19859362
REMARK minimizedRMSD -1
REMARK  1 active torsions:
REMARK  status: ('A' for Active; 'I' for Inactive)
REMARK    1  A    between atoms: C1_2  and  C2_3 
ROOT
ATOM      1  C2  UNL d   1      -0.647  -0.071  -1.202  0.00  0.00    -0.076 A 
ATOM      2  C3  UNL d   1      -1.947  -0.485  -1.538  0.00  0.00     0.004 A 
ATOM      3  C4  UNL d   1      -2.836  -0.924  -0.558  0.00  0.00    -0.003 A 
ATOM      4  C5  UNL d   1      -2.439  -0.956   0.774  0.00  0.00     0.000 A 
ATOM      5  C6  UNL d   1      -1.158  -0.533   1.127  0.00  0.00     0.000 A 
ATOM      6  C7  UNL d   1      -0.255  -0.072   0.154  0.00  0.00    -0.073 A 
ATOM      7  C8  UNL d   1       1.116   0.367   0.590  0.00  0.00     0.078 C 
ENDROOT
BRANCH   1   8
ATOM      8  C1  UNL d   1       0.282   0.369  -2.311  0.00  0.00     0.053 C 
ATOM      9  C   UNL d   1       1.339  -0.676  -2.636  0.00  0.00     0.018 C 
ENDBRANCH   1   8
TORSDOF 1
ENDMDL
