MODEL 1
REMARK minimizedAffinity -3.05036545
REMARK minimizedRMSD -1
REMARK  0 active torsions:
REMARK  status: ('A' for Active; 'I' for Inactive)
ROOT
ATOM      1  C   UNL d   1       4.108   2.776   1.327  0.00  0.00     0.023 A 
ATOM      2  C1  UNL d   1       3.280   2.073   2.203  0.00  0.00     0.003 A 
ATOM      3  C2  UNL d   1       2.162   1.395   1.715  0.00  0.00     0.048 A 
ATOM      4  C3  UNL d   1       1.877   1.422   0.350  0.00  0.00     0.023 A 
ATOM      5  C4  UNL d   1       2.703   2.123  -0.530  0.00  0.00     0.048 A 
ATOM      6  C5  UNL d   1       3.820   2.801  -0.037  0.00  0.00     0.003 A 
ATOM      7  I   UNL d   1       0.213   0.412  -0.378  0.00  0.00    -0.146 I 
ENDROOT
TORSDOF 0
ENDMDL
