MODEL 1
REMARK minimizedAffinity -0.274655074
REMARK minimizedRMSD -1
REMARK  0 active torsions:
REMARK  status: ('A' for Active; 'I' for Inactive)
ROOT
ATOM      1  C   UNL d   1      -2.139  -2.141  -0.315  0.00  0.00     0.023 A 
ATOM      2  C1  UNL d   1      -1.981  -0.983  -1.077  0.00  0.00     0.003 A 
ATOM      3  C2  UNL d   1      -0.907  -0.125  -0.831  0.00  0.00     0.048 A 
ATOM      4  C3  UNL d   1       0.005  -0.431   0.179  0.00  0.00     0.023 A 
ATOM      5  C4  UNL d   1      -0.149  -1.588   0.944  0.00  0.00     0.048 A 
ATOM      6  C5  UNL d   1      -1.225  -2.443   0.694  0.00  0.00     0.003 A 
ATOM      7  I   UNL d   1       1.604   0.845   0.547  0.00  0.00    -0.146 I 
ENDROOT
TORSDOF 0
ENDMDL
