MODEL 1
REMARK minimizedAffinity -1.57831466
REMARK minimizedRMSD -1
REMARK  0 active torsions:
REMARK  status: ('A' for Active; 'I' for Inactive)
ROOT
ATOM      1  C   UNL d   1       2.060   1.837   0.989  0.00  0.00     0.023 A 
ATOM      2  C1  UNL d   1       2.541   0.974   0.004  0.00  0.00     0.003 A 
ATOM      3  C2  UNL d   1       3.461   1.434  -0.940  0.00  0.00     0.048 A 
ATOM      4  C3  UNL d   1       3.897   2.758  -0.894  0.00  0.00     0.023 A 
ATOM      5  C4  UNL d   1       3.419   3.625   0.090  0.00  0.00     0.048 A 
ATOM      6  C5  UNL d   1       2.498   3.161   1.032  0.00  0.00     0.003 A 
ATOM      7  I   UNL d   1       5.267   3.444  -2.298  0.00  0.00    -0.146 I 
ENDROOT
TORSDOF 0
ENDMDL
