MODEL 1
REMARK minimizedAffinity -2.7883811
REMARK minimizedRMSD -1
REMARK  0 active torsions:
REMARK  status: ('A' for Active; 'I' for Inactive)
ROOT
ATOM      1  C   UNL d   1      -0.806   0.430  -1.782  0.00  0.00     0.023 A 
ATOM      2  C1  UNL d   1       0.399   0.268  -1.097  0.00  0.00     0.003 A 
ATOM      3  C2  UNL d   1       0.464  -0.576   0.014  0.00  0.00     0.048 A 
ATOM      4  C3  UNL d   1      -0.679  -1.256   0.434  0.00  0.00     0.023 A 
ATOM      5  C4  UNL d   1      -1.886  -1.097  -0.249  0.00  0.00     0.048 A 
ATOM      6  C5  UNL d   1      -1.947  -0.252  -1.358  0.00  0.00     0.003 A 
ATOM      7  I   UNL d   1      -0.584  -2.513   2.086  0.00  0.00    -0.146 I 
ENDROOT
TORSDOF 0
ENDMDL
