MODEL 1
REMARK minimizedAffinity 2.54605103
REMARK minimizedRMSD -1
REMARK  0 active torsions:
REMARK  status: ('A' for Active; 'I' for Inactive)
ROOT
ATOM      1  C   UNL d   1      -1.605   0.382  -2.617  0.00  0.00     0.023 A 
ATOM      2  C1  UNL d   1      -2.277  -0.318  -1.615  0.00  0.00     0.003 A 
ATOM      3  C2  UNL d   1      -1.600  -0.706  -0.457  0.00  0.00     0.048 A 
ATOM      4  C3  UNL d   1      -0.251  -0.389  -0.306  0.00  0.00     0.023 A 
ATOM      5  C4  UNL d   1       0.426   0.312  -1.306  0.00  0.00     0.048 A 
ATOM      6  C5  UNL d   1      -0.254   0.697  -2.462  0.00  0.00     0.003 A 
ATOM      7  I   UNL d   1       0.759  -0.965   1.416  0.00  0.00    -0.146 I 
ENDROOT
TORSDOF 0
ENDMDL
