MODEL 1
REMARK minimizedAffinity -3.30238509
REMARK minimizedRMSD -1
REMARK  0 active torsions:
REMARK  status: ('A' for Active; 'I' for Inactive)
ROOT
ATOM      1  C   UNL d   1       2.036   2.397   1.395  0.00  0.00     0.023 A 
ATOM      2  C1  UNL d   1       2.684   1.439   0.615  0.00  0.00     0.003 A 
ATOM      3  C2  UNL d   1       3.489   1.835  -0.455  0.00  0.00     0.048 A 
ATOM      4  C3  UNL d   1       3.643   3.191  -0.739  0.00  0.00     0.023 A 
ATOM      5  C4  UNL d   1       2.997   4.154   0.039  0.00  0.00     0.048 A 
ATOM      6  C5  UNL d   1       2.192   3.753   1.107  0.00  0.00     0.003 A 
ATOM      7  I   UNL d   1       4.841   3.783  -2.331  0.00  0.00    -0.146 I 
ENDROOT
TORSDOF 0
ENDMDL
