MODEL 1
REMARK minimizedAffinity -1.85817766
REMARK minimizedRMSD -1
REMARK  0 active torsions:
REMARK  status: ('A' for Active; 'I' for Inactive)
ROOT
ATOM      1  C   UNL d   1       3.559   4.047   0.879  0.00  0.00     0.023 A 
ATOM      2  C1  UNL d   1       2.263   4.050   1.394  0.00  0.00     0.003 A 
ATOM      3  C2  UNL d   1       1.379   3.019   1.068  0.00  0.00     0.048 A 
ATOM      4  C3  UNL d   1       1.798   1.988   0.229  0.00  0.00     0.023 A 
ATOM      5  C4  UNL d   1       3.095   1.980  -0.287  0.00  0.00     0.048 A 
ATOM      6  C5  UNL d   1       3.975   3.013   0.040  0.00  0.00     0.003 A 
ATOM      7  I   UNL d   1       0.484   0.452  -0.256  0.00  0.00    -0.146 I 
ENDROOT
TORSDOF 0
ENDMDL
