MODEL 1
REMARK minimizedAffinity -1.66869104
REMARK minimizedRMSD -1
REMARK  0 active torsions:
REMARK  status: ('A' for Active; 'I' for Inactive)
ROOT
ATOM      1  C   UNL d   1      -1.724  -0.799  -1.513  0.00  0.00     0.023 A 
ATOM      2  C1  UNL d   1      -0.992  -1.372  -0.473  0.00  0.00     0.003 A 
ATOM      3  C2  UNL d   1       0.026  -0.646   0.149  0.00  0.00     0.048 A 
ATOM      4  C3  UNL d   1       0.306   0.653  -0.274  0.00  0.00     0.023 A 
ATOM      5  C4  UNL d   1      -0.425   1.231  -1.313  0.00  0.00     0.048 A 
ATOM      6  C5  UNL d   1      -1.441   0.500  -1.933  0.00  0.00     0.003 A 
ATOM      7  I   UNL d   1       1.820   1.736   0.650  0.00  0.00    -0.146 I 
ENDROOT
TORSDOF 0
ENDMDL
