MODEL 1
REMARK minimizedAffinity -1.57862663
REMARK minimizedRMSD -1
REMARK  0 active torsions:
REMARK  status: ('A' for Active; 'I' for Inactive)
ROOT
ATOM      1  C   UNL d   1       0.560  -1.558   1.461  0.00  0.00     0.023 A 
ATOM      2  C1  UNL d   1       1.342  -0.689   0.700  0.00  0.00     0.003 A 
ATOM      3  C2  UNL d   1       0.799  -0.059  -0.422  0.00  0.00     0.048 A 
ATOM      4  C3  UNL d   1      -0.528  -0.302  -0.776  0.00  0.00     0.023 A 
ATOM      5  C4  UNL d   1      -1.315  -1.169  -0.016  0.00  0.00     0.048 A 
ATOM      6  C5  UNL d   1      -0.767  -1.798   1.103  0.00  0.00     0.003 A 
ATOM      7  I   UNL d   1      -1.340   0.635  -2.444  0.00  0.00    -0.146 I 
ENDROOT
TORSDOF 0
ENDMDL
