MODEL 1
REMARK minimizedAffinity 1.33859503
REMARK minimizedRMSD -1
REMARK  0 active torsions:
REMARK  status: ('A' for Active; 'I' for Inactive)
ROOT
ATOM      1  C   UNL d   1      -1.777  -0.598  -1.223  0.00  0.00     0.023 A 
ATOM      2  C1  UNL d   1      -1.250  -0.998   0.005  0.00  0.00     0.003 A 
ATOM      3  C2  UNL d   1      -0.032  -0.478   0.446  0.00  0.00     0.048 A 
ATOM      4  C3  UNL d   1       0.654   0.443  -0.346  0.00  0.00     0.023 A 
ATOM      5  C4  UNL d   1       0.130   0.847  -1.575  0.00  0.00     0.048 A 
ATOM      6  C5  UNL d   1      -1.088   0.323  -2.012  0.00  0.00     0.003 A 
ATOM      7  I   UNL d   1       2.468   1.218   0.308  0.00  0.00    -0.146 I 
ENDROOT
TORSDOF 0
ENDMDL
