MODEL 1
REMARK minimizedAffinity -3.02948475
REMARK minimizedRMSD -1
REMARK  0 active torsions:
REMARK  status: ('A' for Active; 'I' for Inactive)
ROOT
ATOM      1  C   UNL d   1       3.604   2.375   1.481  0.00  0.00     0.023 A 
ATOM      2  C1  UNL d   1       3.443   2.470   0.099  0.00  0.00     0.003 A 
ATOM      3  C2  UNL d   1       2.397   1.792  -0.532  0.00  0.00     0.048 A 
ATOM      4  C3  UNL d   1       1.516   1.021   0.226  0.00  0.00     0.023 A 
ATOM      5  C4  UNL d   1       1.673   0.924   1.610  0.00  0.00     0.048 A 
ATOM      6  C5  UNL d   1       2.720   1.603   2.235  0.00  0.00     0.003 A 
ATOM      7  I   UNL d   1      -0.041   0.011  -0.710  0.00  0.00    -0.146 I 
ENDROOT
TORSDOF 0
ENDMDL
