MODEL 1
REMARK minimizedAffinity -3.37311792
REMARK minimizedRMSD -1
REMARK  0 active torsions:
REMARK  status: ('A' for Active; 'I' for Inactive)
ROOT
ATOM      1  C   UNL d   1      -1.847  -0.327  -1.437  0.00  0.00     0.023 A 
ATOM      2  C1  UNL d   1      -1.448  -0.681  -0.149  0.00  0.00     0.003 A 
ATOM      3  C2  UNL d   1      -0.218  -0.244   0.347  0.00  0.00     0.048 A 
ATOM      4  C3  UNL d   1       0.607   0.548  -0.451  0.00  0.00     0.023 A 
ATOM      5  C4  UNL d   1       0.211   0.905  -1.740  0.00  0.00     0.048 A 
ATOM      6  C5  UNL d   1      -1.019   0.465  -2.232  0.00  0.00     0.003 A 
ATOM      7  I   UNL d   1       2.438   1.200   0.285  0.00  0.00    -0.146 I 
ENDROOT
TORSDOF 0
ENDMDL
