MODEL 1
REMARK minimizedAffinity -2.29578495
REMARK minimizedRMSD -1
REMARK  0 active torsions:
REMARK  status: ('A' for Active; 'I' for Inactive)
ROOT
ATOM      1  C   UNL d   1       1.875   0.627   2.206  0.00  0.00     0.023 A 
ATOM      2  C1  UNL d   1       2.043   0.330   0.854  0.00  0.00     0.003 A 
ATOM      3  C2  UNL d   1       2.602   1.277  -0.007  0.00  0.00     0.048 A 
ATOM      4  C3  UNL d   1       2.992   2.519   0.492  0.00  0.00     0.023 A 
ATOM      5  C4  UNL d   1       2.827   2.821   1.844  0.00  0.00     0.048 A 
ATOM      6  C5  UNL d   1       2.267   1.871   2.701  0.00  0.00     0.003 A 
ATOM      7  I   UNL d   1       3.824   3.930  -0.787  0.00  0.00    -0.146 I 
ENDROOT
TORSDOF 0
ENDMDL
