MODEL 1
REMARK minimizedAffinity -0.617143989
REMARK minimizedRMSD -1
REMARK  0 active torsions:
REMARK  status: ('A' for Active; 'I' for Inactive)
ROOT
ATOM      1  C   UNL d   1      -2.404  -1.060  -1.522  0.00  0.00     0.023 A 
ATOM      2  C1  UNL d   1      -1.852   0.006  -2.233  0.00  0.00     0.003 A 
ATOM      3  C2  UNL d   1      -0.677   0.612  -1.784  0.00  0.00     0.048 A 
ATOM      4  C3  UNL d   1      -0.059   0.147  -0.623  0.00  0.00     0.023 A 
ATOM      5  C4  UNL d   1      -0.608  -0.920   0.090  0.00  0.00     0.048 A 
ATOM      6  C5  UNL d   1      -1.783  -1.522  -0.362  0.00  0.00     0.003 A 
ATOM      7  I   UNL d   1       1.689   1.048   0.047  0.00  0.00    -0.146 I 
ENDROOT
TORSDOF 0
ENDMDL
