MODEL 1
REMARK minimizedAffinity -3.16999793
REMARK minimizedRMSD -1
REMARK  0 active torsions:
REMARK  status: ('A' for Active; 'I' for Inactive)
ROOT
ATOM      1  C   UNL d   1      -2.288  -0.797  -1.013  0.00  0.00     0.023 A 
ATOM      2  C1  UNL d   1      -1.610  -1.287   0.103  0.00  0.00     0.003 A 
ATOM      3  C2  UNL d   1      -0.438  -0.665   0.539  0.00  0.00     0.048 A 
ATOM      4  C3  UNL d   1       0.049   0.448  -0.146  0.00  0.00     0.023 A 
ATOM      5  C4  UNL d   1      -0.626   0.942  -1.263  0.00  0.00     0.048 A 
ATOM      6  C5  UNL d   1      -1.797   0.316  -1.695  0.00  0.00     0.003 A 
ATOM      7  I   UNL d   1       1.793   1.376   0.501  0.00  0.00    -0.146 I 
ENDROOT
TORSDOF 0
ENDMDL
