MODEL 1
REMARK minimizedAffinity -1.26653361
REMARK minimizedRMSD -1
REMARK  0 active torsions:
REMARK  status: ('A' for Active; 'I' for Inactive)
ROOT
ATOM      1  C   UNL d   1       2.316   2.436   1.795  0.00  0.00     0.023 A 
ATOM      2  C1  UNL d   1       2.669   3.772   1.607  0.00  0.00     0.003 A 
ATOM      3  C2  UNL d   1       3.312   4.167   0.432  0.00  0.00     0.048 A 
ATOM      4  C3  UNL d   1       3.597   3.221  -0.552  0.00  0.00     0.023 A 
ATOM      5  C4  UNL d   1       3.244   1.883  -0.369  0.00  0.00     0.048 A 
ATOM      6  C5  UNL d   1       2.603   1.492   0.809  0.00  0.00     0.003 A 
ATOM      7  I   UNL d   1       4.553   3.806  -2.302  0.00  0.00    -0.146 I 
ENDROOT
TORSDOF 0
ENDMDL
