MODEL 1
REMARK minimizedAffinity 0.240623221
REMARK minimizedRMSD -1
REMARK  0 active torsions:
REMARK  status: ('A' for Active; 'I' for Inactive)
ROOT
ATOM      1  C   UNL d   1      -2.299  -2.994   0.663  0.00  0.00     0.023 A 
ATOM      2  C1  UNL d   1      -2.833  -2.249  -0.389  0.00  0.00     0.003 A 
ATOM      3  C2  UNL d   1      -2.185  -1.093  -0.827  0.00  0.00     0.048 A 
ATOM      4  C3  UNL d   1      -1.002  -0.687  -0.210  0.00  0.00     0.023 A 
ATOM      5  C4  UNL d   1      -0.463  -1.429   0.842  0.00  0.00     0.048 A 
ATOM      6  C5  UNL d   1      -1.115  -2.585   1.277  0.00  0.00     0.003 A 
ATOM      7  I   UNL d   1      -0.036   1.034  -0.861  0.00  0.00    -0.146 I 
ENDROOT
TORSDOF 0
ENDMDL
