MODEL 1
REMARK minimizedAffinity 0.387939155
REMARK minimizedRMSD -1
REMARK  1 active torsions:
REMARK  status: ('A' for Active; 'I' for Inactive)
REMARK    1  A    between atoms: C1_2  and  C2_3 
ROOT
ATOM      1  C2  UNL d   1      -0.072   0.208   1.816  0.00  0.00    -0.076 A 
ATOM      2  C3  UNL d   1      -0.104   1.276   2.730  0.00  0.00     0.004 A 
ATOM      3  C4  UNL d   1      -1.003   2.329   2.572  0.00  0.00    -0.003 A 
ATOM      4  C5  UNL d   1      -1.886   2.331   1.497  0.00  0.00     0.000 A 
ATOM      5  C6  UNL d   1      -1.880   1.271   0.591  0.00  0.00     0.000 A 
ATOM      6  C7  UNL d   1      -0.991   0.194   0.745  0.00  0.00    -0.073 A 
ATOM      7  C8  UNL d   1      -1.023  -0.919  -0.266  0.00  0.00     0.078 C 
ENDROOT
BRANCH   1   8
ATOM      8  C1  UNL d   1       0.944  -0.892   2.023  0.00  0.00     0.053 C 
ATOM      9  C   UNL d   1       0.772  -1.600   3.359  0.00  0.00     0.018 C 
ENDBRANCH   1   8
TORSDOF 1
ENDMDL
