MODEL 1
REMARK minimizedAffinity 0.748988867
REMARK minimizedRMSD -1
REMARK  1 active torsions:
REMARK  status: ('A' for Active; 'I' for Inactive)
REMARK    1  A    between atoms: C1_2  and  C2_3 
ROOT
ATOM      1  C2  UNL d   1      -0.547   0.492   1.471  0.00  0.00    -0.076 A 
ATOM      2  C3  UNL d   1      -0.821   0.399   0.096  0.00  0.00     0.004 A 
ATOM      3  C4  UNL d   1      -1.423   1.454  -0.589  0.00  0.00    -0.003 A 
ATOM      4  C5  UNL d   1      -1.759   2.619   0.091  0.00  0.00     0.000 A 
ATOM      5  C6  UNL d   1      -1.478   2.735   1.452  0.00  0.00     0.000 A 
ATOM      6  C7  UNL d   1      -0.857   1.688   2.154  0.00  0.00    -0.073 A 
ATOM      7  C8  UNL d   1      -0.583   1.865   3.622  0.00  0.00     0.078 C 
ENDROOT
BRANCH   1   8
ATOM      8  C1  UNL d   1       0.082  -0.694   2.166  0.00  0.00     0.053 C 
ATOM      9  C   UNL d   1       1.587  -0.544   2.328  0.00  0.00     0.018 C 
ENDBRANCH   1   8
TORSDOF 1
ENDMDL
