MODEL 1
REMARK minimizedAffinity 7.17004204
REMARK minimizedRMSD -1
REMARK  1 active torsions:
REMARK  status: ('A' for Active; 'I' for Inactive)
REMARK    1  A    between atoms: C1_2  and  C2_3 
ROOT
ATOM      1  C2  UNL d   1      -1.115   2.202   0.327  0.00  0.00    -0.076 A 
ATOM      2  C3  UNL d   1       0.178   2.550  -0.100  0.00  0.00     0.004 A 
ATOM      3  C4  UNL d   1       0.681   2.088  -1.315  0.00  0.00    -0.003 A 
ATOM      4  C5  UNL d   1      -0.102   1.272  -2.124  0.00  0.00     0.000 A 
ATOM      5  C6  UNL d   1      -1.394   0.932  -1.725  0.00  0.00     0.000 A 
ATOM      6  C7  UNL d   1      -1.922   1.402  -0.510  0.00  0.00    -0.073 A 
ATOM      7  C8  UNL d   1      -3.319   0.998  -0.126  0.00  0.00     0.078 C 
ENDROOT
BRANCH   1   8
ATOM      8  C1  UNL d   1      -1.596   2.710   1.667  0.00  0.00     0.053 C 
ATOM      9  C   UNL d   1      -0.455   3.170   2.560  0.00  0.00     0.018 C 
ENDBRANCH   1   8
TORSDOF 1
ENDMDL
