MODEL 1
REMARK minimizedAffinity -3.91146159
REMARK minimizedRMSD -1
REMARK  1 active torsions:
REMARK  status: ('A' for Active; 'I' for Inactive)
REMARK    1  A    between atoms: C1_2  and  C2_3 
ROOT
ATOM      1  C2  UNL d   1      -0.507   1.473   1.309  0.00  0.00    -0.076 A 
ATOM      2  C3  UNL d   1      -0.040   0.316   1.957  0.00  0.00     0.004 A 
ATOM      3  C4  UNL d   1       0.433  -0.773   1.227  0.00  0.00    -0.003 A 
ATOM      4  C5  UNL d   1       0.446  -0.723  -0.163  0.00  0.00     0.000 A 
ATOM      5  C6  UNL d   1       0.003   0.424  -0.821  0.00  0.00     0.000 A 
ATOM      6  C7  UNL d   1      -0.461   1.537  -0.100  0.00  0.00    -0.073 A 
ATOM      7  C8  UNL d   1      -0.933   2.745  -0.862  0.00  0.00     0.078 C 
ENDROOT
BRANCH   1   8
ATOM      8  C1  UNL d   1      -1.034   2.612   2.152  0.00  0.00     0.053 C 
ATOM      9  C   UNL d   1      -0.166   2.884   3.372  0.00  0.00     0.018 C 
ENDBRANCH   1   8
TORSDOF 1
ENDMDL
