MODEL 1
REMARK minimizedAffinity -4.31619644
REMARK minimizedRMSD -1
REMARK  1 active torsions:
REMARK  status: ('A' for Active; 'I' for Inactive)
REMARK    1  A    between atoms: C1_2  and  C2_3 
ROOT
ATOM      1  C2  UNL d   1      -0.428  -0.460   1.599  0.00  0.00    -0.076 A 
ATOM      2  C3  UNL d   1      -1.013   0.500   2.442  0.00  0.00     0.004 A 
ATOM      3  C4  UNL d   1      -1.464   1.718   1.937  0.00  0.00    -0.003 A 
ATOM      4  C5  UNL d   1      -1.337   1.996   0.581  0.00  0.00     0.000 A 
ATOM      5  C6  UNL d   1      -0.774   1.048  -0.273  0.00  0.00     0.000 A 
ATOM      6  C7  UNL d   1      -0.330  -0.192   0.217  0.00  0.00    -0.073 A 
ATOM      7  C8  UNL d   1       0.275  -1.175  -0.748  0.00  0.00     0.078 C 
ENDROOT
BRANCH   1   8
ATOM      8  C1  UNL d   1       0.068  -1.753   2.207  0.00  0.00     0.053 C 
ATOM      9  C   UNL d   1       1.555  -1.717   2.521  0.00  0.00     0.018 C 
ENDBRANCH   1   8
TORSDOF 1
ENDMDL
