MODEL 1
REMARK minimizedAffinity -4.38950968
REMARK minimizedRMSD -1
REMARK  1 active torsions:
REMARK  status: ('A' for Active; 'I' for Inactive)
REMARK    1  A    between atoms: C1_2  and  C2_3 
ROOT
ATOM      1  C2  UNL d   1      -0.645   0.678   0.227  0.00  0.00    -0.076 A 
ATOM      2  C3  UNL d   1      -0.373  -0.527   0.898  0.00  0.00     0.004 A 
ATOM      3  C4  UNL d   1       0.650  -1.371   0.470  0.00  0.00    -0.003 A 
ATOM      4  C5  UNL d   1       1.418  -1.024  -0.636  0.00  0.00     0.000 A 
ATOM      5  C6  UNL d   1       1.173   0.175  -1.303  0.00  0.00     0.000 A 
ATOM      6  C7  UNL d   1       0.156   1.046  -0.875  0.00  0.00    -0.073 A 
ATOM      7  C8  UNL d   1      -0.068   2.324  -1.636  0.00  0.00     0.078 C 
ENDROOT
BRANCH   1   8
ATOM      8  C1  UNL d   1      -1.785   1.540   0.720  0.00  0.00     0.053 C 
ATOM      9  C   UNL d   1      -1.401   2.376   1.932  0.00  0.00     0.018 C 
ENDBRANCH   1   8
TORSDOF 1
ENDMDL
