MODEL 1
REMARK minimizedAffinity -3.84262967
REMARK minimizedRMSD -1
REMARK  1 active torsions:
REMARK  status: ('A' for Active; 'I' for Inactive)
REMARK    1  A    between atoms: C1_2  and  C2_3 
ROOT
ATOM      1  C2  UNL d   1      -0.497   0.810   2.086  0.00  0.00    -0.076 A 
ATOM      2  C3  UNL d   1       0.390  -0.255   1.849  0.00  0.00     0.004 A 
ATOM      3  C4  UNL d   1       0.555  -0.780   0.568  0.00  0.00    -0.003 A 
ATOM      4  C5  UNL d   1      -0.163  -0.247  -0.497  0.00  0.00     0.000 A 
ATOM      5  C6  UNL d   1      -1.034   0.821  -0.283  0.00  0.00     0.000 A 
ATOM      6  C7  UNL d   1      -1.200   1.372   0.999  0.00  0.00    -0.073 A 
ATOM      7  C8  UNL d   1      -2.157   2.519   1.173  0.00  0.00     0.078 C 
ENDROOT
BRANCH   1   8
ATOM      8  C1  UNL d   1      -0.655   1.319   3.500  0.00  0.00     0.053 C 
ATOM      9  C   UNL d   1       0.324   2.436   3.830  0.00  0.00     0.018 C 
ENDBRANCH   1   8
TORSDOF 1
ENDMDL
