MODEL 1
REMARK minimizedAffinity -5.65829802
REMARK minimizedRMSD -1
REMARK  1 active torsions:
REMARK  status: ('A' for Active; 'I' for Inactive)
REMARK    1  A    between atoms: C1_2  and  C2_3 
ROOT
ATOM      1  C2  UNL d   1      -0.374  -0.368   0.317  0.00  0.00    -0.076 A 
ATOM      2  C3  UNL d   1      -1.004   0.635  -0.440  0.00  0.00     0.004 A 
ATOM      3  C4  UNL d   1      -1.714   1.662   0.179  0.00  0.00    -0.003 A 
ATOM      4  C5  UNL d   1      -1.805   1.703   1.566  0.00  0.00     0.000 A 
ATOM      5  C6  UNL d   1      -1.172   0.727   2.333  0.00  0.00     0.000 A 
ATOM      6  C7  UNL d   1      -0.438  -0.306   1.726  0.00  0.00    -0.073 A 
ATOM      7  C8  UNL d   1       0.220  -1.337   2.602  0.00  0.00     0.078 C 
ENDROOT
BRANCH   1   8
ATOM      8  C1  UNL d   1       0.360  -1.472  -0.410  0.00  0.00     0.053 C 
ATOM      9  C   UNL d   1       1.198  -0.951  -1.567  0.00  0.00     0.018 C 
ENDBRANCH   1   8
TORSDOF 1
ENDMDL
