MODEL 1
REMARK minimizedAffinity -3.64002991
REMARK minimizedRMSD -1
REMARK  1 active torsions:
REMARK  status: ('A' for Active; 'I' for Inactive)
REMARK    1  A    between atoms: C1_2  and  C2_3 
ROOT
ATOM      1  C2  UNL d   1      -0.833   0.817   0.127  0.00  0.00    -0.076 A 
ATOM      2  C3  UNL d   1       0.118   1.601  -0.550  0.00  0.00     0.004 A 
ATOM      3  C4  UNL d   1       1.120   1.010  -1.316  0.00  0.00    -0.003 A 
ATOM      4  C5  UNL d   1       1.189  -0.375  -1.420  0.00  0.00     0.000 A 
ATOM      5  C6  UNL d   1       0.243  -1.168  -0.769  0.00  0.00     0.000 A 
ATOM      6  C7  UNL d   1      -0.784  -0.587  -0.006  0.00  0.00    -0.073 A 
ATOM      7  C8  UNL d   1      -1.773  -1.490   0.679  0.00  0.00     0.078 C 
ENDROOT
BRANCH   1   8
ATOM      8  C1  UNL d   1      -1.881   1.513   0.966  0.00  0.00     0.053 C 
ATOM      9  C   UNL d   1      -1.432   1.723   2.403  0.00  0.00     0.018 C 
ENDBRANCH   1   8
TORSDOF 1
ENDMDL
