MODEL 1
REMARK minimizedAffinity -3.04029202
REMARK minimizedRMSD -1
REMARK  1 active torsions:
REMARK  status: ('A' for Active; 'I' for Inactive)
REMARK    1  A    between atoms: C1_2  and  C2_3 
ROOT
ATOM      1  C2  UNL d   1       0.142   0.029   0.217  0.00  0.00    -0.076 A 
ATOM      2  C3  UNL d   1      -0.562   1.004  -0.510  0.00  0.00     0.004 A 
ATOM      3  C4  UNL d   1      -1.418   1.898   0.130  0.00  0.00    -0.003 A 
ATOM      4  C5  UNL d   1      -1.585   1.831   1.509  0.00  0.00     0.000 A 
ATOM      5  C6  UNL d   1      -0.882   0.881   2.249  0.00  0.00     0.000 A 
ATOM      6  C7  UNL d   1      -0.002  -0.017   1.621  0.00  0.00    -0.073 A 
ATOM      7  C8  UNL d   1       0.727  -1.025   2.467  0.00  0.00     0.078 C 
ENDROOT
BRANCH   1   8
ATOM      8  C1  UNL d   1       1.036  -0.931  -0.535  0.00  0.00     0.053 C 
ATOM      9  C   UNL d   1       0.247  -1.943  -1.353  0.00  0.00     0.018 C 
ENDBRANCH   1   8
TORSDOF 1
ENDMDL
