MODEL 1
REMARK minimizedAffinity -5.71421909
REMARK minimizedRMSD -1
REMARK  1 active torsions:
REMARK  status: ('A' for Active; 'I' for Inactive)
REMARK    1  A    between atoms: C1_2  and  C2_3 
ROOT
ATOM      1  C2  UNL d   1      -0.340   0.407   2.231  0.00  0.00    -0.076 A 
ATOM      2  C3  UNL d   1       0.632  -0.546   1.880  0.00  0.00     0.004 A 
ATOM      3  C4  UNL d   1       0.916  -0.822   0.543  0.00  0.00    -0.003 A 
ATOM      4  C5  UNL d   1       0.234  -0.148  -0.464  0.00  0.00     0.000 A 
ATOM      5  C6  UNL d   1      -0.721   0.813  -0.133  0.00  0.00     0.000 A 
ATOM      6  C7  UNL d   1      -1.008   1.114   1.209  0.00  0.00    -0.073 A 
ATOM      7  C8  UNL d   1      -2.051   2.156   1.508  0.00  0.00     0.078 C 
ENDROOT
BRANCH   1   8
ATOM      8  C1  UNL d   1      -0.625   0.644   3.697  0.00  0.00     0.053 C 
ATOM      9  C   UNL d   1       0.231   1.755   4.285  0.00  0.00     0.018 C 
ENDBRANCH   1   8
TORSDOF 1
ENDMDL
