MODEL 1
REMARK minimizedAffinity -6.05776596
REMARK minimizedRMSD -1
REMARK  1 active torsions:
REMARK  status: ('A' for Active; 'I' for Inactive)
REMARK    1  A    between atoms: C1_2  and  C2_3 
ROOT
ATOM      1  C2  UNL d   1      -0.400   0.079   0.496  0.00  0.00    -0.076 A 
ATOM      2  C3  UNL d   1      -0.808   1.183  -0.271  0.00  0.00     0.004 A 
ATOM      3  C4  UNL d   1      -1.488   2.250   0.312  0.00  0.00    -0.003 A 
ATOM      4  C5  UNL d   1      -1.771   2.231   1.674  0.00  0.00     0.000 A 
ATOM      5  C6  UNL d   1      -1.358   1.152   2.454  0.00  0.00     0.000 A 
ATOM      6  C7  UNL d   1      -0.656   0.075   1.884  0.00  0.00    -0.073 A 
ATOM      7  C8  UNL d   1      -0.240  -1.066   2.771  0.00  0.00     0.078 C 
ENDROOT
BRANCH   1   8
ATOM      8  C1  UNL d   1       0.311  -1.062  -0.197  0.00  0.00     0.053 C 
ATOM      9  C   UNL d   1       1.410  -0.582  -1.131  0.00  0.00     0.018 C 
ENDBRANCH   1   8
TORSDOF 1
ENDMDL
