MODEL 1
REMARK minimizedAffinity -6.19576025
REMARK minimizedRMSD -1
REMARK  1 active torsions:
REMARK  status: ('A' for Active; 'I' for Inactive)
REMARK    1  A    between atoms: C1_2  and  C2_3 
ROOT
ATOM      1  C2  UNL d   1      -0.476   0.082   1.330  0.00  0.00    -0.076 A 
ATOM      2  C3  UNL d   1      -1.423   0.874   2.001  0.00  0.00     0.004 A 
ATOM      3  C4  UNL d   1      -1.960   2.013   1.403  0.00  0.00    -0.003 A 
ATOM      4  C5  UNL d   1      -1.558   2.378   0.123  0.00  0.00     0.000 A 
ATOM      5  C6  UNL d   1      -0.633   1.594  -0.565  0.00  0.00     0.000 A 
ATOM      6  C7  UNL d   1      -0.094   0.433   0.017  0.00  0.00    -0.073 A 
ATOM      7  C8  UNL d   1       0.905  -0.371  -0.768  0.00  0.00     0.078 C 
ENDROOT
BRANCH   1   8
ATOM      8  C1  UNL d   1       0.092  -1.127   2.039  0.00  0.00     0.053 C 
ATOM      9  C   UNL d   1      -0.762  -1.563   3.220  0.00  0.00     0.018 C 
ENDBRANCH   1   8
TORSDOF 1
ENDMDL
