MODEL 1
REMARK minimizedAffinity -0.357045472
REMARK minimizedRMSD -1
REMARK  1 active torsions:
REMARK  status: ('A' for Active; 'I' for Inactive)
REMARK    1  A    between atoms: C1_2  and  C2_3 
ROOT
ATOM      1  C2  UNL d   1       1.128  -2.073  -1.287  0.00  0.00    -0.076 A 
ATOM      2  C3  UNL d   1       1.831  -2.832  -0.335  0.00  0.00     0.004 A 
ATOM      3  C4  UNL d   1       1.887  -4.222  -0.426  0.00  0.00    -0.003 A 
ATOM      4  C5  UNL d   1       1.241  -4.875  -1.470  0.00  0.00     0.000 A 
ATOM      5  C6  UNL d   1       0.554  -4.136  -2.433  0.00  0.00     0.000 A 
ATOM      6  C7  UNL d   1       0.502  -2.733  -2.365  0.00  0.00    -0.073 A 
ATOM      7  C8  UNL d   1      -0.259  -1.987  -3.427  0.00  0.00     0.078 C 
ENDROOT
BRANCH   1   8
ATOM      8  C1  UNL d   1       1.080  -0.570  -1.122  0.00  0.00     0.053 C 
ATOM      9  C   UNL d   1       0.110  -0.135  -0.034  0.00  0.00     0.018 C 
ENDBRANCH   1   8
TORSDOF 1
ENDMDL
