MODEL 1
REMARK minimizedAffinity 5.15411615
REMARK minimizedRMSD -1
REMARK  1 active torsions:
REMARK  status: ('A' for Active; 'I' for Inactive)
REMARK    1  A    between atoms: N_2  and  C1_3 
ROOT
ATOM      1  C1  UNL d   1       1.458   5.089  -0.881  0.00  0.00     0.143 A 
ATOM      2  C2  UNL d   1       1.967   4.121  -0.009  0.00  0.00    -0.057 A 
ATOM      3  C3  UNL d   1       1.117   3.303   0.744  0.00  0.00     0.033 A 
ATOM      4  C4  UNL d   1      -0.263   3.458   0.658  0.00  0.00    -0.042 A 
ATOM      5  C5  UNL d   1      -0.791   4.430  -0.184  0.00  0.00     0.033 A 
ATOM      6  C6  UNL d   1       0.064   5.240  -0.938  0.00  0.00    -0.057 A 
ENDROOT
BRANCH   1   7
ATOM      7  N   UNL d   1       2.253   6.000  -1.582  0.00  0.00    -0.732 N 
ATOM      8  C   UNL d   1       2.276   5.997  -3.029  0.00  0.00     0.284 C 
ATOM      9  H3  UNL d   1       2.235   6.929  -1.169  0.00  0.00     0.395 HD
ENDBRANCH   1   7
TORSDOF 1
ENDMDL
