MODEL 1
REMARK minimizedAffinity 6.02944088
REMARK minimizedRMSD -1
REMARK  1 active torsions:
REMARK  status: ('A' for Active; 'I' for Inactive)
REMARK    1  A    between atoms: N_2  and  C1_3 
ROOT
ATOM      1  C1  UNL d   1      -5.080   2.858  -3.721  0.00  0.00     0.143 A 
ATOM      2  C2  UNL d   1      -3.965   3.676  -3.509  0.00  0.00    -0.057 A 
ATOM      3  C3  UNL d   1      -3.788   4.863  -4.229  0.00  0.00     0.033 A 
ATOM      4  C4  UNL d   1      -4.712   5.240  -5.199  0.00  0.00    -0.042 A 
ATOM      5  C5  UNL d   1      -5.814   4.429  -5.445  0.00  0.00     0.033 A 
ATOM      6  C6  UNL d   1      -5.989   3.248  -4.717  0.00  0.00    -0.057 A 
ENDROOT
BRANCH   1   7
ATOM      7  N   UNL d   1      -5.261   1.616  -3.107  0.00  0.00    -0.732 N 
ATOM      8  C   UNL d   1      -4.225   1.048  -2.272  0.00  0.00     0.284 C 
ATOM      9  H3  UNL d   1      -6.203   1.498  -2.739  0.00  0.00     0.395 HD
ENDBRANCH   1   7
TORSDOF 1
ENDMDL
