MODEL 1
REMARK minimizedAffinity -1.04365802
REMARK minimizedRMSD -1
REMARK  1 active torsions:
REMARK  status: ('A' for Active; 'I' for Inactive)
REMARK    1  A    between atoms: N_2  and  C1_3 
ROOT
ATOM      1  C1  UNL d   1      -0.943  -2.922  -4.076  0.00  0.00     0.143 A 
ATOM      2  C2  UNL d   1      -2.007  -2.270  -4.710  0.00  0.00    -0.057 A 
ATOM      3  C3  UNL d   1      -1.863  -0.975  -5.222  0.00  0.00     0.033 A 
ATOM      4  C4  UNL d   1      -0.658  -0.296  -5.083  0.00  0.00    -0.042 A 
ATOM      5  C5  UNL d   1       0.406  -0.915  -4.435  0.00  0.00     0.033 A 
ATOM      6  C6  UNL d   1       0.258  -2.211  -3.932  0.00  0.00    -0.057 A 
ENDROOT
BRANCH   1   7
ATOM      7  N   UNL d   1      -1.053  -4.171  -3.459  0.00  0.00    -0.732 N 
ATOM      8  C   UNL d   1      -0.459  -4.406  -2.161  0.00  0.00     0.284 C 
ATOM      9  H3  UNL d   1      -1.977  -4.581  -3.575  0.00  0.00     0.395 HD
ENDBRANCH   1   7
TORSDOF 1
ENDMDL
