MODEL 1
REMARK minimizedAffinity 3.42188907
REMARK minimizedRMSD -1
REMARK  1 active torsions:
REMARK  status: ('A' for Active; 'I' for Inactive)
REMARK    1  A    between atoms: N_2  and  C1_3 
ROOT
ATOM      1  C1  UNL d   1      -5.157   2.960  -4.381  0.00  0.00     0.143 A 
ATOM      2  C2  UNL d   1      -6.000   3.620  -5.282  0.00  0.00    -0.057 A 
ATOM      3  C3  UNL d   1      -5.664   4.874  -5.806  0.00  0.00     0.033 A 
ATOM      4  C4  UNL d   1      -4.488   5.505  -5.414  0.00  0.00    -0.042 A 
ATOM      5  C5  UNL d   1      -3.647   4.880  -4.501  0.00  0.00     0.033 A 
ATOM      6  C6  UNL d   1      -3.985   3.624  -3.986  0.00  0.00    -0.057 A 
ENDROOT
BRANCH   1   7
ATOM      7  N   UNL d   1      -5.482   1.757  -3.750  0.00  0.00    -0.732 N 
ATOM      8  C   UNL d   1      -4.483   1.023  -3.002  0.00  0.00     0.284 C 
ATOM      9  H3  UNL d   1      -6.396   1.787  -3.304  0.00  0.00     0.395 HD
ENDBRANCH   1   7
TORSDOF 1
ENDMDL
