MODEL 1
REMARK minimizedAffinity 8.8298254
REMARK minimizedRMSD -1
REMARK  1 active torsions:
REMARK  status: ('A' for Active; 'I' for Inactive)
REMARK    1  A    between atoms: N_2  and  C1_3 
ROOT
ATOM      1  C1  UNL d   1      -1.153   0.382  -2.491  0.00  0.00     0.143 A 
ATOM      2  C2  UNL d   1      -2.035   1.444  -2.267  0.00  0.00    -0.057 A 
ATOM      3  C3  UNL d   1      -3.419   1.238  -2.209  0.00  0.00     0.033 A 
ATOM      4  C4  UNL d   1      -3.948  -0.034  -2.404  0.00  0.00    -0.042 A 
ATOM      5  C5  UNL d   1      -3.091  -1.100  -2.653  0.00  0.00     0.033 A 
ATOM      6  C6  UNL d   1      -1.710  -0.889  -2.703  0.00  0.00    -0.057 A 
ENDROOT
BRANCH   1   7
ATOM      7  N   UNL d   1       0.226   0.538  -2.657  0.00  0.00    -0.732 N 
ATOM      8  C   UNL d   1       1.101   0.636  -1.509  0.00  0.00     0.284 C 
ATOM      9  H3  UNL d   1       0.593  -0.037  -3.412  0.00  0.00     0.395 HD
ENDBRANCH   1   7
TORSDOF 1
ENDMDL
