MODEL 1
REMARK minimizedAffinity 3.00263929
REMARK minimizedRMSD -1
REMARK  1 active torsions:
REMARK  status: ('A' for Active; 'I' for Inactive)
REMARK    1  A    between atoms: N_2  and  C1_3 
ROOT
ATOM      1  C1  UNL d   1       1.050   0.671  -1.380  0.00  0.00     0.143 A 
ATOM      2  C2  UNL d   1       0.252   0.717  -2.528  0.00  0.00    -0.057 A 
ATOM      3  C3  UNL d   1      -0.799   1.634  -2.645  0.00  0.00     0.033 A 
ATOM      4  C4  UNL d   1      -1.090   2.505  -1.600  0.00  0.00    -0.042 A 
ATOM      5  C5  UNL d   1      -0.325   2.460  -0.439  0.00  0.00     0.033 A 
ATOM      6  C6  UNL d   1       0.727   1.546  -0.331  0.00  0.00    -0.057 A 
ENDROOT
BRANCH   1   7
ATOM      7  N   UNL d   1       2.047  -0.284  -1.164  0.00  0.00    -0.732 N 
ATOM      8  C   UNL d   1       2.175  -0.938   0.121  0.00  0.00     0.284 C 
ATOM      9  H3  UNL d   1       2.169  -0.905  -1.960  0.00  0.00     0.395 HD
ENDBRANCH   1   7
TORSDOF 1
ENDMDL
