MODEL 1
REMARK minimizedAffinity 2.50845766
REMARK minimizedRMSD -1
REMARK  1 active torsions:
REMARK  status: ('A' for Active; 'I' for Inactive)
REMARK    1  A    between atoms: N_2  and  C1_3 
ROOT
ATOM      1  C1  UNL d   1       1.030  -0.298  -1.023  0.00  0.00     0.143 A 
ATOM      2  C2  UNL d   1       1.065  -1.687  -0.867  0.00  0.00    -0.057 A 
ATOM      3  C3  UNL d   1       0.720  -2.545  -1.918  0.00  0.00     0.033 A 
ATOM      4  C4  UNL d   1       0.303  -2.026  -3.139  0.00  0.00    -0.042 A 
ATOM      5  C5  UNL d   1       0.236  -0.648  -3.309  0.00  0.00     0.033 A 
ATOM      6  C6  UNL d   1       0.589   0.204  -2.258  0.00  0.00    -0.057 A 
ENDROOT
BRANCH   1   7
ATOM      7  N   UNL d   1       1.267   0.608   0.014  0.00  0.00    -0.732 N 
ATOM      8  C   UNL d   1       0.621   1.903   0.024  0.00  0.00     0.284 C 
ATOM      9  H3  UNL d   1       1.305   0.155   0.924  0.00  0.00     0.395 HD
ENDBRANCH   1   7
TORSDOF 1
ENDMDL
