MODEL 1
REMARK minimizedAffinity 6.10030794
REMARK minimizedRMSD -1
REMARK  1 active torsions:
REMARK  status: ('A' for Active; 'I' for Inactive)
REMARK    1  A    between atoms: N_2  and  C1_3 
ROOT
ATOM      1  C1  UNL d   1       0.225   2.013  -1.076  0.00  0.00     0.143 A 
ATOM      2  C2  UNL d   1      -1.037   2.246  -1.634  0.00  0.00    -0.057 A 
ATOM      3  C3  UNL d   1      -1.460   1.565  -2.782  0.00  0.00     0.033 A 
ATOM      4  C4  UNL d   1      -0.614   0.658  -3.411  0.00  0.00    -0.042 A 
ATOM      5  C5  UNL d   1       0.654   0.430  -2.889  0.00  0.00     0.033 A 
ATOM      6  C6  UNL d   1       1.068   1.107  -1.738  0.00  0.00    -0.057 A 
ENDROOT
BRANCH   1   7
ATOM      7  N   UNL d   1       0.740   2.730   0.007  0.00  0.00    -0.732 N 
ATOM      8  C   UNL d   1       1.211   4.087  -0.165  0.00  0.00     0.284 C 
ATOM      9  H3  UNL d   1       0.209   2.579   0.861  0.00  0.00     0.395 HD
ENDBRANCH   1   7
TORSDOF 1
ENDMDL
