MODEL 1
REMARK minimizedAffinity 2.00701237
REMARK minimizedRMSD -1
REMARK  0 active torsions:
REMARK  status: ('A' for Active; 'I' for Inactive)
ROOT
ATOM      1  C   UNL d   1      -3.717  -1.166  -4.832  0.00  0.00     0.124 A 
ATOM      2  C1  UNL d   1      -2.554  -1.808  -5.232  0.00  0.00     0.062 A 
ATOM      3  C2  UNL d   1      -2.544  -3.188  -5.418  0.00  0.00     0.162 A 
ATOM      4  C3  UNL d   1      -3.702  -3.935  -5.204  0.00  0.00    -0.034 A 
ATOM      5  C4  UNL d   1      -4.868  -3.282  -4.801  0.00  0.00     0.162 A 
ATOM      6  C5  UNL d   1      -4.873  -1.903  -4.616  0.00  0.00     0.062 A 
ATOM      7  F   UNL d   1      -5.998  -1.285  -4.229  0.00  0.00    -0.097 F 
ATOM      8  F1  UNL d   1      -6.000  -3.970  -4.586  0.00  0.00    -0.096 F 
ATOM      9  I   UNL d   1      -3.692  -5.998  -5.481  0.00  0.00    -0.060 I 
ATOM     10  F2  UNL d   1      -1.405  -3.782  -5.805  0.00  0.00    -0.096 F 
ATOM     11  F3  UNL d   1      -1.435  -1.098  -5.440  0.00  0.00    -0.097 F 
ATOM     12  F4  UNL d   1      -3.724   0.161  -4.653  0.00  0.00    -0.092 F 
ENDROOT
TORSDOF 0
ENDMDL
