MODEL 1
REMARK minimizedAffinity 4.82301426
REMARK minimizedRMSD -1
REMARK  0 active torsions:
REMARK  status: ('A' for Active; 'I' for Inactive)
ROOT
ATOM      1  C   UNL d   1      -4.228  -2.402  -2.872  0.00  0.00     0.124 A 
ATOM      2  C1  UNL d   1      -3.770  -3.689  -2.626  0.00  0.00     0.062 A 
ATOM      3  C2  UNL d   1      -4.061  -4.718  -3.517  0.00  0.00     0.162 A 
ATOM      4  C3  UNL d   1      -4.814  -4.464  -4.664  0.00  0.00    -0.034 A 
ATOM      5  C4  UNL d   1      -5.272  -3.167  -4.904  0.00  0.00     0.162 A 
ATOM      6  C5  UNL d   1      -4.978  -2.143  -4.010  0.00  0.00     0.062 A 
ATOM      7  F   UNL d   1      -5.421  -0.900  -4.250  0.00  0.00    -0.097 F 
ATOM      8  F1  UNL d   1      -5.998  -2.888  -5.997  0.00  0.00    -0.096 F 
ATOM      9  I   UNL d   1      -5.251  -6.000  -5.999  0.00  0.00    -0.060 I 
ATOM     10  F2  UNL d   1      -3.606  -5.952  -3.254  0.00  0.00    -0.096 F 
ATOM     11  F3  UNL d   1      -3.046  -3.943  -1.526  0.00  0.00    -0.097 F 
ATOM     12  F4  UNL d   1      -3.948  -1.414  -2.013  0.00  0.00    -0.092 F 
ENDROOT
TORSDOF 0
ENDMDL
