MODEL 1
REMARK minimizedAffinity 9.80424976
REMARK minimizedRMSD -1
REMARK  0 active torsions:
REMARK  status: ('A' for Active; 'I' for Inactive)
ROOT
ATOM      1  C   UNL d   1      -2.525  -4.567  -4.723  0.00  0.00     0.124 A 
ATOM      2  C1  UNL d   1      -3.784  -4.817  -4.194  0.00  0.00     0.062 A 
ATOM      3  C2  UNL d   1      -4.777  -3.845  -4.261  0.00  0.00     0.162 A 
ATOM      4  C3  UNL d   1      -4.517  -2.613  -4.861  0.00  0.00    -0.034 A 
ATOM      5  C4  UNL d   1      -3.248  -2.368  -5.390  0.00  0.00     0.162 A 
ATOM      6  C5  UNL d   1      -2.259  -3.343  -5.320  0.00  0.00     0.062 A 
ATOM      7  F   UNL d   1      -1.043  -3.100  -5.832  0.00  0.00    -0.097 F 
ATOM      8  F1  UNL d   1      -2.964  -1.195  -5.974  0.00  0.00    -0.096 F 
ATOM      9  I   UNL d   1      -6.000  -1.156  -4.964  0.00  0.00    -0.060 I 
ATOM     10  F2  UNL d   1      -5.985  -4.114  -3.742  0.00  0.00    -0.096 F 
ATOM     11  F3  UNL d   1      -4.044  -5.999  -3.615  0.00  0.00    -0.097 F 
ATOM     12  F4  UNL d   1      -1.571  -5.504  -4.655  0.00  0.00    -0.092 F 
ENDROOT
TORSDOF 0
ENDMDL
