MODEL 1
REMARK minimizedAffinity 7.24366903
REMARK minimizedRMSD -1
REMARK  0 active torsions:
REMARK  status: ('A' for Active; 'I' for Inactive)
ROOT
ATOM      1  C   UNL d   1      -3.052  -2.851  -2.597  0.00  0.00     0.124 A 
ATOM      2  C1  UNL d   1      -4.168  -2.230  -3.141  0.00  0.00     0.062 A 
ATOM      3  C2  UNL d   1      -4.926  -2.878  -4.113  0.00  0.00     0.162 A 
ATOM      4  C3  UNL d   1      -4.570  -4.155  -4.547  0.00  0.00    -0.034 A 
ATOM      5  C4  UNL d   1      -3.446  -4.772  -3.996  0.00  0.00     0.162 A 
ATOM      6  C5  UNL d   1      -2.692  -4.121  -3.025  0.00  0.00     0.062 A 
ATOM      7  F   UNL d   1      -1.614  -4.722  -2.500  0.00  0.00    -0.097 F 
ATOM      8  F1  UNL d   1      -3.076  -6.000  -4.390  0.00  0.00    -0.096 F 
ATOM      9  I   UNL d   1      -5.700  -5.127  -6.000  0.00  0.00    -0.060 I 
ATOM     10  F2  UNL d   1      -5.999  -2.254  -4.621  0.00  0.00    -0.096 F 
ATOM     11  F3  UNL d   1      -4.518  -1.002  -2.731  0.00  0.00    -0.097 F 
ATOM     12  F4  UNL d   1      -2.325  -2.225  -1.663  0.00  0.00    -0.092 F 
ENDROOT
TORSDOF 0
ENDMDL
