MODEL 1
REMARK minimizedAffinity 5.71700573
REMARK minimizedRMSD -1
REMARK  0 active torsions:
REMARK  status: ('A' for Active; 'I' for Inactive)
ROOT
ATOM      1  C   UNL d   1      -2.273  -3.332  -3.551  0.00  0.00     0.124 A 
ATOM      2  C1  UNL d   1      -1.919  -4.335  -4.443  0.00  0.00     0.062 A 
ATOM      3  C2  UNL d   1      -2.902  -5.029  -5.143  0.00  0.00     0.162 A 
ATOM      4  C3  UNL d   1      -4.249  -4.721  -4.955  0.00  0.00    -0.034 A 
ATOM      5  C4  UNL d   1      -4.598  -3.712  -4.055  0.00  0.00     0.162 A 
ATOM      6  C5  UNL d   1      -3.611  -3.021  -3.358  0.00  0.00     0.062 A 
ATOM      7  F   UNL d   1      -3.955  -2.053  -2.497  0.00  0.00    -0.097 F 
ATOM      8  F1  UNL d   1      -5.884  -3.390  -3.851  0.00  0.00    -0.096 F 
ATOM      9  I   UNL d   1      -5.722  -5.755  -5.999  0.00  0.00    -0.060 I 
ATOM     10  F2  UNL d   1      -2.531  -5.993  -5.998  0.00  0.00    -0.096 F 
ATOM     11  F3  UNL d   1      -0.626  -4.638  -4.630  0.00  0.00    -0.097 F 
ATOM     12  F4  UNL d   1      -1.325  -2.667  -2.878  0.00  0.00    -0.092 F 
ENDROOT
TORSDOF 0
ENDMDL
