MODEL 1
REMARK minimizedAffinity 18.1308136
REMARK minimizedRMSD -1
REMARK  0 active torsions:
REMARK  status: ('A' for Active; 'I' for Inactive)
ROOT
ATOM      1  C   UNL d   1      -2.816  -0.834  -0.564  0.00  0.00     0.124 A 
ATOM      2  C1  UNL d   1      -2.639  -2.100  -0.024  0.00  0.00     0.062 A 
ATOM      3  C2  UNL d   1      -1.442  -2.433   0.603  0.00  0.00     0.162 A 
ATOM      4  C3  UNL d   1      -0.411  -1.498   0.693  0.00  0.00    -0.034 A 
ATOM      5  C4  UNL d   1      -0.595  -0.227   0.146  0.00  0.00     0.162 A 
ATOM      6  C5  UNL d   1      -1.794   0.101  -0.479  0.00  0.00     0.062 A 
ATOM      7  F   UNL d   1      -1.963   1.325  -1.000  0.00  0.00    -0.097 F 
ATOM      8  F1  UNL d   1       0.375   0.697   0.216  0.00  0.00    -0.096 F 
ATOM      9  I   UNL d   1       1.381  -1.992   1.629  0.00  0.00    -0.060 I 
ATOM     10  F2  UNL d   1      -1.299  -3.664   1.116  0.00  0.00    -0.096 F 
ATOM     11  F3  UNL d   1      -3.624  -3.006  -0.106  0.00  0.00    -0.097 F 
ATOM     12  F4  UNL d   1      -3.968  -0.517  -1.168  0.00  0.00    -0.092 F 
ENDROOT
TORSDOF 0
ENDMDL
