MODEL 1
REMARK minimizedAffinity 11.2544289
REMARK minimizedRMSD -1
REMARK  0 active torsions:
REMARK  status: ('A' for Active; 'I' for Inactive)
ROOT
ATOM      1  C   UNL d   1      -3.730  -4.660  -5.154  0.00  0.00     0.124 A 
ATOM      2  C1  UNL d   1      -2.576  -3.992  -5.538  0.00  0.00     0.062 A 
ATOM      3  C2  UNL d   1      -2.566  -2.603  -5.623  0.00  0.00     0.162 A 
ATOM      4  C3  UNL d   1      -3.716  -1.872  -5.323  0.00  0.00    -0.034 A 
ATOM      5  C4  UNL d   1      -4.873  -2.551  -4.939  0.00  0.00     0.162 A 
ATOM      6  C5  UNL d   1      -4.878  -3.939  -4.856  0.00  0.00     0.062 A 
ATOM      7  F   UNL d   1      -5.994  -4.583  -4.485  0.00  0.00    -0.097 F 
ATOM      8  F1  UNL d   1      -5.996  -1.879  -4.644  0.00  0.00    -0.096 F 
ATOM      9  I   UNL d   1      -3.705   0.206  -5.449  0.00  0.00    -0.060 I 
ATOM     10  F2  UNL d   1      -1.436  -1.984  -5.996  0.00  0.00    -0.096 F 
ATOM     11  F3  UNL d   1      -1.466  -4.687  -5.828  0.00  0.00    -0.097 F 
ATOM     12  F4  UNL d   1      -3.737  -5.997  -5.074  0.00  0.00    -0.092 F 
ENDROOT
TORSDOF 0
ENDMDL
