MODEL 1
REMARK minimizedAffinity 10.2938251
REMARK minimizedRMSD -1
REMARK  0 active torsions:
REMARK  status: ('A' for Active; 'I' for Inactive)
ROOT
ATOM      1  C   UNL d   1       1.337  -1.164  -0.483  0.00  0.00     0.124 A 
ATOM      2  C1  UNL d   1       2.165  -2.261  -0.290  0.00  0.00     0.062 A 
ATOM      3  C2  UNL d   1       2.181  -2.919   0.937  0.00  0.00     0.162 A 
ATOM      4  C3  UNL d   1       1.365  -2.481   1.980  0.00  0.00    -0.034 A 
ATOM      5  C4  UNL d   1       0.536  -1.377   1.779  0.00  0.00     0.162 A 
ATOM      6  C5  UNL d   1       0.523  -0.723   0.551  0.00  0.00     0.062 A 
ATOM      7  F   UNL d   1      -0.277   0.337   0.367  0.00  0.00    -0.097 F 
ATOM      8  F1  UNL d   1      -0.261  -0.930   2.761  0.00  0.00    -0.096 F 
ATOM      9  I   UNL d   1       1.387  -3.462   3.816  0.00  0.00    -0.060 I 
ATOM     10  F2  UNL d   1       2.991  -3.976   1.095  0.00  0.00    -0.096 F 
ATOM     11  F3  UNL d   1       2.952  -2.689  -1.287  0.00  0.00    -0.097 F 
ATOM     12  F4  UNL d   1       1.324  -0.533  -1.664  0.00  0.00    -0.092 F 
ENDROOT
TORSDOF 0
ENDMDL
