MODEL 1
REMARK minimizedAffinity 11.4245033
REMARK minimizedRMSD -1
REMARK  0 active torsions:
REMARK  status: ('A' for Active; 'I' for Inactive)
ROOT
ATOM      1  C   UNL d   1      -2.302  -4.590  -2.682  0.00  0.00     0.124 A 
ATOM      2  C1  UNL d   1      -2.233  -5.270  -3.891  0.00  0.00     0.062 A 
ATOM      3  C2  UNL d   1      -3.288  -5.196  -4.796  0.00  0.00     0.162 A 
ATOM      4  C3  UNL d   1      -4.421  -4.439  -4.497  0.00  0.00    -0.034 A 
ATOM      5  C4  UNL d   1      -4.483  -3.760  -3.279  0.00  0.00     0.162 A 
ATOM      6  C5  UNL d   1      -3.427  -3.836  -2.378  0.00  0.00     0.062 A 
ATOM      7  F   UNL d   1      -3.496  -3.179  -1.211  0.00  0.00    -0.097 F 
ATOM      8  F1  UNL d   1      -5.558  -3.023  -2.960  0.00  0.00    -0.096 F 
ATOM      9  I   UNL d   1      -6.000  -4.327  -5.849  0.00  0.00    -0.060 I 
ATOM     10  F2  UNL d   1      -3.194  -5.863  -5.956  0.00  0.00    -0.096 F 
ATOM     11  F3  UNL d   1      -1.148  -5.999  -4.187  0.00  0.00    -0.097 F 
ATOM     12  F4  UNL d   1      -1.287  -4.663  -1.812  0.00  0.00    -0.092 F 
ENDROOT
TORSDOF 0
ENDMDL
