MODEL 1
REMARK minimizedAffinity 11.3784466
REMARK minimizedRMSD -1
REMARK  0 active torsions:
REMARK  status: ('A' for Active; 'I' for Inactive)
ROOT
ATOM      1  C   UNL d   1      -4.070  -2.525  -2.879  0.00  0.00     0.124 A 
ATOM      2  C1  UNL d   1      -4.822  -2.782  -4.016  0.00  0.00     0.062 A 
ATOM      3  C2  UNL d   1      -4.425  -3.773  -4.909  0.00  0.00     0.162 A 
ATOM      4  C3  UNL d   1      -3.269  -4.516  -4.667  0.00  0.00    -0.034 A 
ATOM      5  C4  UNL d   1      -2.517  -4.251  -3.521  0.00  0.00     0.162 A 
ATOM      6  C5  UNL d   1      -2.918  -3.259  -2.632  0.00  0.00     0.062 A 
ATOM      7  F   UNL d   1      -2.190  -3.011  -1.534  0.00  0.00    -0.097 F 
ATOM      8  F1  UNL d   1      -1.400  -4.946  -3.259  0.00  0.00    -0.096 F 
ATOM      9  I   UNL d   1      -2.671  -5.999  -5.999  0.00  0.00    -0.060 I 
ATOM     10  F2  UNL d   1      -5.171  -4.001  -6.000  0.00  0.00    -0.096 F 
ATOM     11  F3  UNL d   1      -5.935  -2.074  -4.257  0.00  0.00    -0.097 F 
ATOM     12  F4  UNL d   1      -4.454  -1.570  -2.022  0.00  0.00    -0.092 F 
ENDROOT
TORSDOF 0
ENDMDL
