MODEL 1
REMARK minimizedAffinity 6.56730175
REMARK minimizedRMSD -1
REMARK  0 active torsions:
REMARK  status: ('A' for Active; 'I' for Inactive)
ROOT
ATOM      1  C   UNL d   1      -2.615  -4.582  -4.752  0.00  0.00     0.124 A 
ATOM      2  C1  UNL d   1      -3.820  -4.802  -4.100  0.00  0.00     0.062 A 
ATOM      3  C2  UNL d   1      -4.786  -3.801  -4.057  0.00  0.00     0.162 A 
ATOM      4  C3  UNL d   1      -4.551  -2.569  -4.669  0.00  0.00    -0.034 A 
ATOM      5  C4  UNL d   1      -3.335  -2.355  -5.321  0.00  0.00     0.162 A 
ATOM      6  C5  UNL d   1      -2.373  -3.359  -5.362  0.00  0.00     0.062 A 
ATOM      7  F   UNL d   1      -1.209  -3.144  -5.992  0.00  0.00    -0.097 F 
ATOM      8  F1  UNL d   1      -3.076  -1.183  -5.920  0.00  0.00    -0.096 F 
ATOM      9  I   UNL d   1      -5.992  -1.069  -4.606  0.00  0.00    -0.060 I 
ATOM     10  F2  UNL d   1      -5.942  -4.041  -3.420  0.00  0.00    -0.096 F 
ATOM     11  F3  UNL d   1      -4.056  -5.983  -3.509  0.00  0.00    -0.097 F 
ATOM     12  F4  UNL d   1      -1.687  -5.547  -4.791  0.00  0.00    -0.092 F 
ENDROOT
TORSDOF 0
ENDMDL
