MODEL 1
REMARK minimizedAffinity 16.4583473
REMARK minimizedRMSD -1
REMARK  0 active torsions:
REMARK  status: ('A' for Active; 'I' for Inactive)
ROOT
ATOM      1  C   UNL d   1      -0.044  -2.582   1.591  0.00  0.00     0.124 A 
ATOM      2  C1  UNL d   1       0.801  -1.481   1.574  0.00  0.00     0.062 A 
ATOM      3  C2  UNL d   1       0.333  -0.247   1.134  0.00  0.00     0.162 A 
ATOM      4  C3  UNL d   1      -0.988  -0.106   0.708  0.00  0.00    -0.034 A 
ATOM      5  C4  UNL d   1      -1.832  -1.218   0.727  0.00  0.00     0.162 A 
ATOM      6  C5  UNL d   1      -1.359  -2.450   1.168  0.00  0.00     0.062 A 
ATOM      7  F   UNL d   1      -2.176  -3.513   1.184  0.00  0.00    -0.097 F 
ATOM      8  F1  UNL d   1      -3.107  -1.119   0.324  0.00  0.00    -0.096 F 
ATOM      9  I   UNL d   1      -1.692   1.738   0.049  0.00  0.00    -0.060 I 
ATOM     10  F2  UNL d   1       1.171   0.801   1.128  0.00  0.00    -0.096 F 
ATOM     11  F3  UNL d   1       2.072  -1.607   1.982  0.00  0.00    -0.097 F 
ATOM     12  F4  UNL d   1       0.410  -3.769   2.014  0.00  0.00    -0.092 F 
ENDROOT
TORSDOF 0
ENDMDL
