MODEL 1
REMARK minimizedAffinity 7.90963602
REMARK minimizedRMSD -1
REMARK  0 active torsions:
REMARK  status: ('A' for Active; 'I' for Inactive)
ROOT
ATOM      1  C   UNL d   1       1.618  -2.797   3.305  0.00  0.00     0.124 A 
ATOM      2  C1  UNL d   1       1.912  -2.577   1.966  0.00  0.00     0.062 A 
ATOM      3  C2  UNL d   1       1.179  -1.649   1.232  0.00  0.00     0.162 A 
ATOM      4  C3  UNL d   1       0.146  -0.932   1.835  0.00  0.00    -0.034 A 
ATOM      5  C4  UNL d   1      -0.144  -1.160   3.182  0.00  0.00     0.162 A 
ATOM      6  C5  UNL d   1       0.591  -2.088   3.911  0.00  0.00     0.062 A 
ATOM      7  F   UNL d   1       0.305  -2.299   5.204  0.00  0.00    -0.097 F 
ATOM      8  F1  UNL d   1      -1.132  -0.488   3.793  0.00  0.00    -0.096 F 
ATOM      9  I   UNL d   1      -0.952   0.456   0.741  0.00  0.00    -0.060 I 
ATOM     10  F2  UNL d   1       1.485  -1.457  -0.060  0.00  0.00    -0.096 F 
ATOM     11  F3  UNL d   1       2.904  -3.261   1.378  0.00  0.00    -0.097 F 
ATOM     12  F4  UNL d   1       2.324  -3.691   4.008  0.00  0.00    -0.092 F 
ENDROOT
TORSDOF 0
ENDMDL
