MODEL 1
REMARK minimizedAffinity 8.83113003
REMARK minimizedRMSD -1
REMARK  0 active torsions:
REMARK  status: ('A' for Active; 'I' for Inactive)
ROOT
ATOM      1  C   UNL d   1      -4.414  -4.924  -4.529  0.00  0.00     0.124 A 
ATOM      2  C1  UNL d   1      -3.665  -4.923  -3.361  0.00  0.00     0.062 A 
ATOM      3  C2  UNL d   1      -3.665  -3.806  -2.530  0.00  0.00     0.162 A 
ATOM      4  C3  UNL d   1      -4.419  -2.681  -2.864  0.00  0.00    -0.034 A 
ATOM      5  C4  UNL d   1      -5.170  -2.689  -4.041  0.00  0.00     0.162 A 
ATOM      6  C5  UNL d   1      -5.166  -3.807  -4.868  0.00  0.00     0.062 A 
ATOM      7  F   UNL d   1      -5.891  -3.806  -5.996  0.00  0.00    -0.097 F 
ATOM      8  F1  UNL d   1      -5.906  -1.624  -4.392  0.00  0.00    -0.096 F 
ATOM      9  I   UNL d   1      -4.423  -1.009  -1.624  0.00  0.00    -0.060 I 
ATOM     10  F2  UNL d   1      -2.932  -3.833  -1.407  0.00  0.00    -0.096 F 
ATOM     11  F3  UNL d   1      -2.937  -6.000  -3.032  0.00  0.00    -0.097 F 
ATOM     12  F4  UNL d   1      -4.411  -5.999  -5.327  0.00  0.00    -0.092 F 
ENDROOT
TORSDOF 0
ENDMDL
