MODEL 1
REMARK minimizedAffinity 6.88685179
REMARK minimizedRMSD -1
REMARK  0 active torsions:
REMARK  status: ('A' for Active; 'I' for Inactive)
ROOT
ATOM      1  C   UNL d   1      -1.887  -4.679  -2.723  0.00  0.00     0.124 A 
ATOM      2  C1  UNL d   1      -3.060  -4.005  -2.415  0.00  0.00     0.062 A 
ATOM      3  C2  UNL d   1      -4.121  -3.999  -3.316  0.00  0.00     0.162 A 
ATOM      4  C3  UNL d   1      -4.014  -4.670  -4.534  0.00  0.00    -0.034 A 
ATOM      5  C4  UNL d   1      -2.831  -5.345  -4.837  0.00  0.00     0.162 A 
ATOM      6  C5  UNL d   1      -1.773  -5.348  -3.934  0.00  0.00     0.062 A 
ATOM      7  F   UNL d   1      -0.640  -6.000  -4.234  0.00  0.00    -0.097 F 
ATOM      8  F1  UNL d   1      -2.694  -6.000  -6.000  0.00  0.00    -0.096 F 
ATOM      9  I   UNL d   1      -5.599  -4.662  -5.883  0.00  0.00    -0.060 I 
ATOM     10  F2  UNL d   1      -5.243  -3.339  -2.991  0.00  0.00    -0.096 F 
ATOM     11  F3  UNL d   1      -3.172  -3.357  -1.246  0.00  0.00    -0.097 F 
ATOM     12  F4  UNL d   1      -0.867  -4.683  -1.855  0.00  0.00    -0.092 F 
ENDROOT
TORSDOF 0
ENDMDL
