MODEL 1
REMARK minimizedAffinity 9.55543995
REMARK minimizedRMSD -1
REMARK  0 active torsions:
REMARK  status: ('A' for Active; 'I' for Inactive)
ROOT
ATOM      1  C   UNL d   1      -4.863  -3.027  -4.085  0.00  0.00     0.124 A 
ATOM      2  C1  UNL d   1      -4.852  -4.064  -5.008  0.00  0.00     0.062 A 
ATOM      3  C2  UNL d   1      -3.751  -4.911  -5.096  0.00  0.00     0.162 A 
ATOM      4  C3  UNL d   1      -2.652  -4.726  -4.257  0.00  0.00    -0.034 A 
ATOM      5  C4  UNL d   1      -2.670  -3.681  -3.332  0.00  0.00     0.162 A 
ATOM      6  C5  UNL d   1      -3.773  -2.837  -3.248  0.00  0.00     0.062 A 
ATOM      7  F   UNL d   1      -3.782  -1.836  -2.356  0.00  0.00    -0.097 F 
ATOM      8  F1  UNL d   1      -1.631  -3.475  -2.510  0.00  0.00    -0.096 F 
ATOM      9  I   UNL d   1      -1.004  -5.991  -4.384  0.00  0.00    -0.060 I 
ATOM     10  F2  UNL d   1      -3.768  -5.905  -5.997  0.00  0.00    -0.096 F 
ATOM     11  F3  UNL d   1      -5.904  -4.250  -5.819  0.00  0.00    -0.097 F 
ATOM     12  F4  UNL d   1      -5.923  -2.213  -4.004  0.00  0.00    -0.092 F 
ENDROOT
TORSDOF 0
ENDMDL
