MODEL 1
REMARK minimizedAffinity -0.241246849
REMARK minimizedRMSD -1
REMARK  0 active torsions:
REMARK  status: ('A' for Active; 'I' for Inactive)
ROOT
ATOM      1  C   UNL d   1      -1.861  -4.158  -3.059  0.00  0.00     0.124 A 
ATOM      2  C1  UNL d   1      -2.979  -3.369  -2.827  0.00  0.00     0.062 A 
ATOM      3  C2  UNL d   1      -4.087  -3.462  -3.665  0.00  0.00     0.162 A 
ATOM      4  C3  UNL d   1      -4.082  -4.348  -4.742  0.00  0.00    -0.034 A 
ATOM      5  C4  UNL d   1      -2.953  -5.137  -4.969  0.00  0.00     0.162 A 
ATOM      6  C5  UNL d   1      -1.849  -5.041  -4.129  0.00  0.00     0.062 A 
ATOM      7  F   UNL d   1      -0.769  -5.803  -4.354  0.00  0.00    -0.097 F 
ATOM      8  F1  UNL d   1      -2.915  -6.000  -5.996  0.00  0.00    -0.096 F 
ATOM      9  I   UNL d   1      -5.737  -4.490  -5.997  0.00  0.00    -0.060 I 
ATOM     10  F2  UNL d   1      -5.154  -2.688  -3.417  0.00  0.00    -0.096 F 
ATOM     11  F3  UNL d   1      -2.993  -2.515  -1.794  0.00  0.00    -0.097 F 
ATOM     12  F4  UNL d   1      -0.796  -4.066  -2.252  0.00  0.00    -0.092 F 
ENDROOT
TORSDOF 0
ENDMDL
