MODEL 1
REMARK minimizedAffinity -4.85533524
REMARK minimizedRMSD -1
REMARK  0 active torsions:
REMARK  status: ('A' for Active; 'I' for Inactive)
ROOT
ATOM      1  C1  BNZ d   1       2.038  -0.901  -2.929  0.00  0.00     0.000 A 
ATOM      2  C2  BNZ d   1       1.453   0.292  -2.595  0.00  0.00     0.000 A 
ATOM      3  C3  BNZ d   1       0.556   0.368  -1.566  0.00  0.00     0.000 A 
ATOM      4  C4  BNZ d   1       0.216  -0.754  -0.899  0.00  0.00     0.000 A 
ATOM      5  C5  BNZ d   1       0.790  -1.965  -1.230  0.00  0.00     0.000 A 
ATOM      6  C6  BNZ d   1       1.722  -2.031  -2.241  0.00  0.00     0.000 A 
ENDROOT
TORSDOF 0
ENDMDL
