MODEL 1
REMARK minimizedAffinity -4.13578367
REMARK minimizedRMSD -1
REMARK  0 active torsions:
REMARK  status: ('A' for Active; 'I' for Inactive)
ROOT
ATOM      1  C1  BNZ d   1      -0.357   0.273  -0.712  0.00  0.00     0.000 A 
ATOM      2  C2  BNZ d   1       0.056  -0.412  -1.824  0.00  0.00     0.000 A 
ATOM      3  C3  BNZ d   1       0.326  -1.750  -1.761  0.00  0.00     0.000 A 
ATOM      4  C4  BNZ d   1       0.223  -2.393  -0.580  0.00  0.00     0.000 A 
ATOM      5  C5  BNZ d   1      -0.183  -1.714   0.552  0.00  0.00     0.000 A 
ATOM      6  C6  BNZ d   1      -0.492  -0.376   0.477  0.00  0.00     0.000 A 
ENDROOT
TORSDOF 0
ENDMDL
