MODEL 1
REMARK minimizedAffinity -4.62984467
REMARK minimizedRMSD -1
REMARK  0 active torsions:
REMARK  status: ('A' for Active; 'I' for Inactive)
ROOT
ATOM      1  C1  BNZ d   1       0.557  -0.467  -0.827  0.00  0.00     0.000 A 
ATOM      2  C2  BNZ d   1       1.082  -1.678  -1.194  0.00  0.00     0.000 A 
ATOM      3  C3  BNZ d   1       1.874  -1.790  -2.302  0.00  0.00     0.000 A 
ATOM      4  C4  BNZ d   1       2.107  -0.701  -3.064  0.00  0.00     0.000 A 
ATOM      5  C5  BNZ d   1       1.577   0.524  -2.712  0.00  0.00     0.000 A 
ATOM      6  C6  BNZ d   1       0.813   0.641  -1.574  0.00  0.00     0.000 A 
ENDROOT
TORSDOF 0
ENDMDL
