MODEL 1
REMARK minimizedAffinity -4.04326916
REMARK minimizedRMSD -1
REMARK  0 active torsions:
REMARK  status: ('A' for Active; 'I' for Inactive)
ROOT
ATOM      1  C1  BNZ d   1       0.904  -1.076  -2.142  0.00  0.00     0.000 A 
ATOM      2  C2  BNZ d   1       0.416  -1.901  -1.163  0.00  0.00     0.000 A 
ATOM      3  C3  BNZ d   1       0.003  -1.395   0.037  0.00  0.00     0.000 A 
ATOM      4  C4  BNZ d   1       0.115  -0.071   0.273  0.00  0.00     0.000 A 
ATOM      5  C5  BNZ d   1       0.614   0.772  -0.700  0.00  0.00     0.000 A 
ATOM      6  C6  BNZ d   1       0.992   0.264  -1.922  0.00  0.00     0.000 A 
ENDROOT
TORSDOF 0
ENDMDL
