MODEL 1
REMARK minimizedAffinity -4.84861183
REMARK minimizedRMSD -1
REMARK  0 active torsions:
REMARK  status: ('A' for Active; 'I' for Inactive)
ROOT
ATOM      1  C1  BNZ d   1       0.326  -0.909  -0.664  0.00  0.00     0.000 A 
ATOM      2  C2  BNZ d   1       0.823   0.136  -1.397  0.00  0.00     0.000 A 
ATOM      3  C3  BNZ d   1       1.775  -0.072  -2.356  0.00  0.00     0.000 A 
ATOM      4  C4  BNZ d   1       2.258  -1.316  -2.552  0.00  0.00     0.000 A 
ATOM      5  C5  BNZ d   1       1.774  -2.378  -1.815  0.00  0.00     0.000 A 
ATOM      6  C6  BNZ d   1       0.788  -2.171  -0.878  0.00  0.00     0.000 A 
ENDROOT
TORSDOF 0
ENDMDL
