MODEL 1
REMARK minimizedAffinity -4.31604481
REMARK minimizedRMSD -1
REMARK  0 active torsions:
REMARK  status: ('A' for Active; 'I' for Inactive)
ROOT
ATOM      1  C1  BNZ d   1       1.530  -2.387  -2.055  0.00  0.00     0.000 A 
ATOM      2  C2  BNZ d   1       2.086  -1.440  -2.873  0.00  0.00     0.000 A 
ATOM      3  C3  BNZ d   1       1.767  -0.118  -2.730  0.00  0.00     0.000 A 
ATOM      4  C4  BNZ d   1       0.865   0.249  -1.798  0.00  0.00     0.000 A 
ATOM      5  C5  BNZ d   1       0.288  -0.696  -0.972  0.00  0.00     0.000 A 
ATOM      6  C6  BNZ d   1       0.640  -2.020  -1.093  0.00  0.00     0.000 A 
ENDROOT
TORSDOF 0
ENDMDL
