MODEL 1
REMARK minimizedAffinity -2.92287874
REMARK minimizedRMSD -1
REMARK  0 active torsions:
REMARK  status: ('A' for Active; 'I' for Inactive)
ROOT
ATOM      1  C1  BNZ d   1      -0.159   0.349   1.401  0.00  0.00     0.000 A 
ATOM      2  C2  BNZ d   1       0.403   1.368   0.679  0.00  0.00     0.000 A 
ATOM      3  C3  BNZ d   1       0.876   1.152  -0.585  0.00  0.00     0.000 A 
ATOM      4  C4  BNZ d   1       0.824  -0.090  -1.110  0.00  0.00     0.000 A 
ATOM      5  C5  BNZ d   1       0.269  -1.130  -0.391  0.00  0.00     0.000 A 
ATOM      6  C6  BNZ d   1      -0.242  -0.900   0.866  0.00  0.00     0.000 A 
ENDROOT
TORSDOF 0
ENDMDL
