MODEL 1
REMARK minimizedAffinity -4.9146328
REMARK minimizedRMSD -1
REMARK  0 active torsions:
REMARK  status: ('A' for Active; 'I' for Inactive)
ROOT
ATOM      1  C1  BNZ d   1       1.828   1.421  -1.181  0.00  0.00     0.000 A 
ATOM      2  C2  BNZ d   1       1.406   1.532   0.117  0.00  0.00     0.000 A 
ATOM      3  C3  BNZ d   1       0.555   0.608   0.658  0.00  0.00     0.000 A 
ATOM      4  C4  BNZ d   1       0.097  -0.401  -0.111  0.00  0.00     0.000 A 
ATOM      5  C5  BNZ d   1       0.506  -0.521  -1.424  0.00  0.00     0.000 A 
ATOM      6  C6  BNZ d   1       1.393   0.389  -1.953  0.00  0.00     0.000 A 
ENDROOT
TORSDOF 0
ENDMDL
