MODEL 1
REMARK minimizedAffinity -4.93567896
REMARK minimizedRMSD -1
REMARK  0 active torsions:
REMARK  status: ('A' for Active; 'I' for Inactive)
ROOT
ATOM      1  C1  BNZ d   1       1.474   1.274  -2.164  0.00  0.00     0.000 A 
ATOM      2  C2  BNZ d   1       0.652   1.661  -1.139  0.00  0.00     0.000 A 
ATOM      3  C3  BNZ d   1      -0.074   0.740  -0.438  0.00  0.00     0.000 A 
ATOM      4  C4  BNZ d   1      -0.009  -0.561  -0.787  0.00  0.00     0.000 A 
ATOM      5  C5  BNZ d   1       0.807  -0.966  -1.824  0.00  0.00     0.000 A 
ATOM      6  C6  BNZ d   1       1.567  -0.041  -2.503  0.00  0.00     0.000 A 
ENDROOT
TORSDOF 0
ENDMDL
