MODEL 1
REMARK minimizedAffinity -1.47397268
REMARK minimizedRMSD -1
REMARK  0 active torsions:
REMARK  status: ('A' for Active; 'I' for Inactive)
ROOT
ATOM      1  C1  BNZ d   1       1.089   1.479   0.086  0.00  0.00     0.000 A 
ATOM      2  C2  BNZ d   1       0.210   1.524   1.135  0.00  0.00     0.000 A 
ATOM      3  C3  BNZ d   1      -0.618   0.469   1.400  0.00  0.00     0.000 A 
ATOM      4  C4  BNZ d   1      -0.594  -0.611   0.592  0.00  0.00     0.000 A 
ATOM      5  C5  BNZ d   1       0.280  -0.667  -0.475  0.00  0.00     0.000 A 
ATOM      6  C6  BNZ d   1       1.139   0.380  -0.715  0.00  0.00     0.000 A 
ENDROOT
TORSDOF 0
ENDMDL
