MODEL 1
REMARK minimizedAffinity -2.12372184
REMARK minimizedRMSD -1
REMARK  0 active torsions:
REMARK  status: ('A' for Active; 'I' for Inactive)
ROOT
ATOM      1  C1  BNZ d   1       0.686   1.811  -0.969  0.00  0.00     0.000 A 
ATOM      2  C2  BNZ d   1       1.814   1.336  -1.583  0.00  0.00     0.000 A 
ATOM      3  C3  BNZ d   1       2.101  -0.001  -1.582  0.00  0.00     0.000 A 
ATOM      4  C4  BNZ d   1       1.282  -0.854  -0.933  0.00  0.00     0.000 A 
ATOM      5  C5  BNZ d   1       0.146  -0.389  -0.301  0.00  0.00     0.000 A 
ATOM      6  C6  BNZ d   1      -0.160   0.952  -0.338  0.00  0.00     0.000 A 
ENDROOT
TORSDOF 0
ENDMDL
