MODEL 1
REMARK minimizedAffinity -3.10439086
REMARK minimizedRMSD -1
REMARK  0 active torsions:
REMARK  status: ('A' for Active; 'I' for Inactive)
ROOT
ATOM      1  C1  BNZ d   1       0.672  -1.941  -1.106  0.00  0.00     0.000 A 
ATOM      2  C2  BNZ d   1       1.614  -2.081  -2.091  0.00  0.00     0.000 A 
ATOM      3  C3  BNZ d   1       2.218  -0.986  -2.643  0.00  0.00     0.000 A 
ATOM      4  C4  BNZ d   1       1.851   0.247  -2.239  0.00  0.00     0.000 A 
ATOM      5  C5  BNZ d   1       0.897   0.405  -1.253  0.00  0.00     0.000 A 
ATOM      6  C6  BNZ d   1       0.320  -0.700  -0.673  0.00  0.00     0.000 A 
ENDROOT
TORSDOF 0
ENDMDL
