MODEL 1
REMARK minimizedAffinity -5.1440134
REMARK minimizedRMSD -1
REMARK  0 active torsions:
REMARK  status: ('A' for Active; 'I' for Inactive)
ROOT
ATOM      1  C1  BNZ d   1       2.204  -1.122  -2.551  0.00  0.00     0.000 A 
ATOM      2  C2  BNZ d   1       1.665  -2.262  -2.017  0.00  0.00     0.000 A 
ATOM      3  C3  BNZ d   1       0.696  -2.193  -1.055  0.00  0.00     0.000 A 
ATOM      4  C4  BNZ d   1       0.298  -0.988  -0.600  0.00  0.00     0.000 A 
ATOM      5  C5  BNZ d   1       0.840   0.170  -1.121  0.00  0.00     0.000 A 
ATOM      6  C6  BNZ d   1       1.786   0.098  -2.118  0.00  0.00     0.000 A 
ENDROOT
TORSDOF 0
ENDMDL
