MODEL 1
REMARK minimizedAffinity -3.92077708
REMARK minimizedRMSD -1
REMARK  0 active torsions:
REMARK  status: ('A' for Active; 'I' for Inactive)
ROOT
ATOM      1  C1  BNZ d   1       0.231  -1.680  -1.826  0.00  0.00     0.000 A 
ATOM      2  C2  BNZ d   1       0.164  -0.891  -0.708  0.00  0.00     0.000 A 
ATOM      3  C3  BNZ d   1       0.948   0.223  -0.591  0.00  0.00     0.000 A 
ATOM      4  C4  BNZ d   1       1.824   0.524  -1.570  0.00  0.00     0.000 A 
ATOM      5  C5  BNZ d   1       1.910  -0.267  -2.699  0.00  0.00     0.000 A 
ATOM      6  C6  BNZ d   1       1.092  -1.365  -2.832  0.00  0.00     0.000 A 
ENDROOT
TORSDOF 0
ENDMDL
