MODEL 1
REMARK minimizedAffinity 13.6357718
REMARK minimizedRMSD -1
REMARK  0 active torsions:
REMARK  status: ('A' for Active; 'I' for Inactive)
ROOT
ATOM      1  N1  IND d   1       4.024   2.729  -0.496  0.00  0.00    -0.196 N 
ATOM      2  C2  IND d   1       5.281   2.221  -0.666  0.00  0.00     0.054 A 
ATOM      3  C3  IND d   1       5.274   0.880  -0.492  0.00  0.00    -0.031 A 
ATOM      4  C4  IND d   1       3.294  -0.698  -0.023  0.00  0.00     0.051 A 
ATOM      5  C5  IND d   1       1.955  -0.694   0.251  0.00  0.00    -0.031 A 
ATOM      6  C6  IND d   1       1.222   0.474   0.287  0.00  0.00     0.015 A 
ATOM      7  C7  IND d   1       1.801   1.687   0.039  0.00  0.00    -0.016 A 
ATOM      8  C8  IND d   1       3.162   1.688  -0.232  0.00  0.00    -0.047 A 
ATOM      9  C9  IND d   1       3.920   0.510  -0.228  0.00  0.00    -0.096 A 
ATOM     10  HN1 IND d   1       3.807   3.560  -0.546  0.00  0.00     0.298 HD
ENDROOT
TORSDOF 0
ENDMDL
