MODEL 1
REMARK minimizedAffinity 14.7602243
REMARK minimizedRMSD -1
REMARK  0 active torsions:
REMARK  status: ('A' for Active; 'I' for Inactive)
ROOT
ATOM      1  N1  IND d   1       4.120   2.289  -2.103  0.00  0.00    -0.196 N 
ATOM      2  C2  IND d   1       5.323   2.683  -1.587  0.00  0.00     0.054 A 
ATOM      3  C3  IND d   1       5.670   1.893  -0.546  0.00  0.00    -0.031 A 
ATOM      4  C4  IND d   1       4.461  -0.165   0.419  0.00  0.00     0.051 A 
ATOM      5  C5  IND d   1       3.308  -0.890   0.303  0.00  0.00    -0.031 A 
ATOM      6  C6  IND d   1       2.348  -0.587  -0.641  0.00  0.00     0.015 A 
ATOM      7  C7  IND d   1       2.512   0.449  -1.516  0.00  0.00    -0.016 A 
ATOM      8  C8  IND d   1       3.679   1.191  -1.397  0.00  0.00    -0.047 A 
ATOM      9  C9  IND d   1       4.637   0.915  -0.413  0.00  0.00    -0.096 A 
ATOM     10  HN1 IND d   1       3.708   2.665  -2.757  0.00  0.00     0.298 HD
ENDROOT
TORSDOF 0
ENDMDL
