MODEL 1
REMARK minimizedAffinity 11.9534883
REMARK minimizedRMSD -1
REMARK  0 active torsions:
REMARK  status: ('A' for Active; 'I' for Inactive)
ROOT
ATOM      1  N1  IND d   1      -0.039   1.331   5.038  0.00  0.00    -0.196 N 
ATOM      2  C2  IND d   1       0.655   0.253   4.565  0.00  0.00     0.054 A 
ATOM      3  C3  IND d   1       1.468   0.626   3.551  0.00  0.00    -0.031 A 
ATOM      4  C4  IND d   1       1.894   2.969   2.572  0.00  0.00     0.051 A 
ATOM      5  C5  IND d   1       1.465   4.264   2.653  0.00  0.00    -0.031 A 
ATOM      6  C6  IND d   1       0.496   4.656   3.554  0.00  0.00     0.015 A 
ATOM      7  C7  IND d   1      -0.076   3.766   4.418  0.00  0.00    -0.016 A 
ATOM      8  C8  IND d   1       0.352   2.448   4.334  0.00  0.00    -0.047 A 
ATOM      9  C9  IND d   1       1.305   2.036   3.393  0.00  0.00    -0.096 A 
ATOM     10  HN1 IND d   1      -0.622   1.314   5.670  0.00  0.00     0.298 HD
ENDROOT
TORSDOF 0
ENDMDL
