MODEL 1
REMARK minimizedAffinity 10.333086
REMARK minimizedRMSD -1
REMARK  0 active torsions:
REMARK  status: ('A' for Active; 'I' for Inactive)
ROOT
ATOM      1  N1  IND d   1      -3.811   5.970   4.170  0.00  0.00    -0.196 N 
ATOM      2  C2  IND d   1      -5.091   5.989   4.650  0.00  0.00     0.054 A 
ATOM      3  C3  IND d   1      -5.976   5.883   3.634  0.00  0.00    -0.031 A 
ATOM      4  C4  IND d   1      -5.545   5.566   1.116  0.00  0.00     0.051 A 
ATOM      5  C5  IND d   1      -4.539   5.525   0.192  0.00  0.00    -0.031 A 
ATOM      6  C6  IND d   1      -3.211   5.630   0.555  0.00  0.00     0.015 A 
ATOM      7  C7  IND d   1      -2.839   5.769   1.862  0.00  0.00    -0.016 A 
ATOM      8  C8  IND d   1      -3.859   5.818   2.802  0.00  0.00    -0.047 A 
ATOM      9  C9  IND d   1      -5.209   5.754   2.435  0.00  0.00    -0.096 A 
ATOM     10  HN1 IND d   1      -3.097   6.042   4.643  0.00  0.00     0.298 HD
ENDROOT
TORSDOF 0
ENDMDL
