MODEL 1
REMARK minimizedAffinity 3.16335201
REMARK minimizedRMSD -1
REMARK  0 active torsions:
REMARK  status: ('A' for Active; 'I' for Inactive)
ROOT
ATOM      1  N1  IND d   1      -3.787   5.974   5.026  0.00  0.00    -0.196 N 
ATOM      2  C2  IND d   1      -5.079   5.953   5.474  0.00  0.00     0.054 A 
ATOM      3  C3  IND d   1      -5.938   5.932   4.431  0.00  0.00    -0.031 A 
ATOM      4  C4  IND d   1      -5.445   5.827   1.906  0.00  0.00     0.051 A 
ATOM      5  C5  IND d   1      -4.416   5.864   1.008  0.00  0.00    -0.031 A 
ATOM      6  C6  IND d   1      -3.098   5.938   1.411  0.00  0.00     0.015 A 
ATOM      7  C7  IND d   1      -2.758   5.967   2.733  0.00  0.00    -0.016 A 
ATOM      8  C8  IND d   1      -3.801   5.937   3.649  0.00  0.00    -0.047 A 
ATOM      9  C9  IND d   1      -5.142   5.905   3.245  0.00  0.00    -0.096 A 
ATOM     10  HN1 IND d   1      -3.085   6.006   5.521  0.00  0.00     0.298 HD
ENDROOT
TORSDOF 0
ENDMDL
