MODEL 1
REMARK minimizedAffinity 5.67794514
REMARK minimizedRMSD -1
REMARK  0 active torsions:
REMARK  status: ('A' for Active; 'I' for Inactive)
ROOT
ATOM      1  N1  IND d   1       1.843  -0.619   5.052  0.00  0.00    -0.196 N 
ATOM      2  C2  IND d   1       0.771   0.111   4.619  0.00  0.00     0.054 A 
ATOM      3  C3  IND d   1      -0.343  -0.655   4.601  0.00  0.00    -0.031 A 
ATOM      4  C4  IND d   1      -0.659  -3.101   5.339  0.00  0.00     0.051 A 
ATOM      5  C5  IND d   1       0.038  -4.194   5.772  0.00  0.00    -0.031 A 
ATOM      6  C6  IND d   1       1.399  -4.149   5.995  0.00  0.00     0.015 A 
ATOM      7  C7  IND d   1       2.115  -3.002   5.802  0.00  0.00    -0.016 A 
ATOM      8  C8  IND d   1       1.412  -1.892   5.355  0.00  0.00    -0.047 A 
ATOM      9  C9  IND d   1       0.038  -1.943   5.087  0.00  0.00    -0.096 A 
ATOM     10  HN1 IND d   1       2.650  -0.332   5.122  0.00  0.00     0.298 HD
ENDROOT
TORSDOF 0
ENDMDL
