MODEL 1
REMARK minimizedAffinity 1.08329046
REMARK minimizedRMSD -1
REMARK  0 active torsions:
REMARK  status: ('A' for Active; 'I' for Inactive)
ROOT
ATOM      1  N1  IND d   1       1.877  -3.001   4.882  0.00  0.00    -0.196 N 
ATOM      2  C2  IND d   1       1.225  -1.903   4.392  0.00  0.00     0.054 A 
ATOM      3  C3  IND d   1      -0.111  -2.110   4.395  0.00  0.00    -0.031 A 
ATOM      4  C4  IND d   1      -1.452  -4.133   5.253  0.00  0.00     0.051 A 
ATOM      5  C5  IND d   1      -1.295  -5.394   5.755  0.00  0.00    -0.031 A 
ATOM      6  C6  IND d   1      -0.048  -5.932   6.000  0.00  0.00     0.015 A 
ATOM      7  C7  IND d   1       1.094  -5.221   5.760  0.00  0.00    -0.016 A 
ATOM      8  C8  IND d   1       0.939  -3.943   5.244  0.00  0.00    -0.047 A 
ATOM      9  C9  IND d   1      -0.323  -3.407   4.954  0.00  0.00    -0.096 A 
ATOM     10  HN1 IND d   1       2.729  -3.088   4.952  0.00  0.00     0.298 HD
ENDROOT
TORSDOF 0
ENDMDL
