MODEL 1
REMARK minimizedAffinity 2.9120028
REMARK minimizedRMSD -1
REMARK  0 active torsions:
REMARK  status: ('A' for Active; 'I' for Inactive)
ROOT
ATOM      1  N1  IND d   1      -1.400  -4.507   4.290  0.00  0.00    -0.196 N 
ATOM      2  C2  IND d   1      -1.359  -5.513   5.214  0.00  0.00     0.054 A 
ATOM      3  C3  IND d   1      -0.263  -5.390   5.995  0.00  0.00    -0.031 A 
ATOM      4  C4  IND d   1       1.544  -3.557   6.000  0.00  0.00     0.051 A 
ATOM      5  C5  IND d   1       1.955  -2.447   5.316  0.00  0.00    -0.031 A 
ATOM      6  C6  IND d   1       1.252  -1.956   4.235  0.00  0.00     0.015 A 
ATOM      7  C7  IND d   1       0.101  -2.552   3.802  0.00  0.00    -0.016 A 
ATOM      8  C8  IND d   1      -0.315  -3.683   4.490  0.00  0.00    -0.047 A 
ATOM      9  C9  IND d   1       0.417  -4.211   5.561  0.00  0.00    -0.096 A 
ATOM     10  HN1 IND d   1      -2.003  -4.406   3.685  0.00  0.00     0.298 HD
ENDROOT
TORSDOF 0
ENDMDL
