MODEL 1
REMARK minimizedAffinity 5.52856493
REMARK minimizedRMSD -1
REMARK  0 active torsions:
REMARK  status: ('A' for Active; 'I' for Inactive)
ROOT
ATOM      1  N1  IND d   1      -3.775   5.996   0.248  0.00  0.00    -0.196 N 
ATOM      2  C2  IND d   1      -5.004   5.974  -0.349  0.00  0.00     0.054 A 
ATOM      3  C3  IND d   1      -5.980   5.933   0.586  0.00  0.00    -0.031 A 
ATOM      4  C4  IND d   1      -5.791   5.998   3.152  0.00  0.00     0.051 A 
ATOM      5  C5  IND d   1      -4.874   5.983   4.165  0.00  0.00    -0.031 A 
ATOM      6  C6  IND d   1      -3.516   5.974   3.920  0.00  0.00     0.015 A 
ATOM      7  C7  IND d   1      -3.023   5.992   2.646  0.00  0.00    -0.016 A 
ATOM      8  C8  IND d   1      -3.951   6.000   1.614  0.00  0.00    -0.047 A 
ATOM      9  C9  IND d   1      -5.330   5.966   1.857  0.00  0.00    -0.096 A 
ATOM     10  HN1 IND d   1      -3.019   6.006  -0.161  0.00  0.00     0.298 HD
ENDROOT
TORSDOF 0
ENDMDL
