MODEL 1
REMARK minimizedAffinity 2.18987131
REMARK minimizedRMSD -1
REMARK  0 active torsions:
REMARK  status: ('A' for Active; 'I' for Inactive)
ROOT
ATOM      1  N1  IND d   1      -2.812   5.919   1.889  0.00  0.00    -0.196 N 
ATOM      2  C2  IND d   1      -3.587   5.891   0.763  0.00  0.00     0.054 A 
ATOM      3  C3  IND d   1      -4.897   5.876   1.093  0.00  0.00    -0.031 A 
ATOM      4  C4  IND d   1      -5.999   5.997   3.417  0.00  0.00     0.051 A 
ATOM      5  C5  IND d   1      -5.702   5.999   4.751  0.00  0.00    -0.031 A 
ATOM      6  C6  IND d   1      -4.400   5.977   5.208  0.00  0.00     0.015 A 
ATOM      7  C7  IND d   1      -3.342   5.964   4.345  0.00  0.00    -0.016 A 
ATOM      8  C8  IND d   1      -3.640   5.954   2.989  0.00  0.00    -0.047 A 
ATOM      9  C9  IND d   1      -4.959   5.933   2.520  0.00  0.00    -0.096 A 
ATOM     10  HN1 IND d   1      -1.952   5.916   1.906  0.00  0.00     0.298 HD
ENDROOT
TORSDOF 0
ENDMDL
