MODEL 1
REMARK minimizedAffinity -0.0694246814
REMARK minimizedRMSD -1
REMARK  0 active torsions:
REMARK  status: ('A' for Active; 'I' for Inactive)
ROOT
ATOM      1  N1  IND d   1       1.462  -1.509   5.023  0.00  0.00    -0.196 N 
ATOM      2  C2  IND d   1       0.678  -0.782   4.170  0.00  0.00     0.054 A 
ATOM      3  C3  IND d   1      -0.405  -1.501   3.800  0.00  0.00    -0.031 A 
ATOM      4  C4  IND d   1      -1.145  -3.850   4.551  0.00  0.00     0.051 A 
ATOM      5  C5  IND d   1      -0.735  -4.922   5.293  0.00  0.00    -0.031 A 
ATOM      6  C6  IND d   1       0.450  -4.910   6.000  0.00  0.00     0.015 A 
ATOM      7  C7  IND d   1       1.268  -3.816   6.000  0.00  0.00    -0.016 A 
ATOM      8  C8  IND d   1       0.859  -2.728   5.241  0.00  0.00    -0.047 A 
ATOM      9  C9  IND d   1      -0.322  -2.750   4.488  0.00  0.00    -0.096 A 
ATOM     10  HN1 IND d   1       2.206  -1.248   5.366  0.00  0.00     0.298 HD
ENDROOT
TORSDOF 0
ENDMDL
