MODEL 1
REMARK minimizedAffinity -3.76268148
REMARK minimizedRMSD -1
REMARK  0 active torsions:
REMARK  status: ('A' for Active; 'I' for Inactive)
ROOT
ATOM      1  N1  IND d   1      -3.692   5.838   5.270  0.00  0.00    -0.196 N 
ATOM      2  C2  IND d   1      -4.858   5.806   5.984  0.00  0.00     0.054 A 
ATOM      3  C3  IND d   1      -5.921   5.854   5.150  0.00  0.00    -0.031 A 
ATOM      4  C4  IND d   1      -5.982   5.884   2.577  0.00  0.00     0.051 A 
ATOM      5  C5  IND d   1      -5.168   5.959   1.481  0.00  0.00    -0.031 A 
ATOM      6  C6  IND d   1      -3.793   5.995   1.595  0.00  0.00     0.015 A 
ATOM      7  C7  IND d   1      -3.178   5.946   2.813  0.00  0.00    -0.016 A 
ATOM      8  C8  IND d   1      -4.001   5.877   3.928  0.00  0.00    -0.047 A 
ATOM      9  C9  IND d   1      -5.398   5.883   3.821  0.00  0.00    -0.096 A 
ATOM     10  HN1 IND d   1      -2.900   5.833   5.604  0.00  0.00     0.298 HD
ENDROOT
TORSDOF 0
ENDMDL
