MODEL 1
REMARK minimizedAffinity 3.62747717
REMARK minimizedRMSD -1
REMARK  0 active torsions:
REMARK  status: ('A' for Active; 'I' for Inactive)
ROOT
ATOM      1  N1  IND d   1       3.737   2.113  -0.904  0.00  0.00    -0.196 N 
ATOM      2  C2  IND d   1       4.955   2.656  -1.204  0.00  0.00     0.054 A 
ATOM      3  C3  IND d   1       5.938   1.998  -0.550  0.00  0.00    -0.031 A 
ATOM      4  C4  IND d   1       5.786  -0.063   0.984  0.00  0.00     0.051 A 
ATOM      5  C5  IND d   1       4.882  -0.894   1.586  0.00  0.00    -0.031 A 
ATOM      6  C6  IND d   1       3.524  -0.765   1.381  0.00  0.00     0.015 A 
ATOM      7  C7  IND d   1       3.016   0.198   0.556  0.00  0.00    -0.016 A 
ATOM      8  C8  IND d   1       3.930   1.048  -0.051  0.00  0.00    -0.047 A 
ATOM      9  C9  IND d   1       5.307   0.949   0.186  0.00  0.00    -0.096 A 
ATOM     10  HN1 IND d   1       2.978   2.389  -1.198  0.00  0.00     0.298 HD
ENDROOT
TORSDOF 0
ENDMDL
