MODEL 1
REMARK minimizedAffinity -3.45419955
REMARK minimizedRMSD -1
REMARK  1 active torsions:
REMARK  status: ('A' for Active; 'I' for Inactive)
REMARK    1  A    between atoms: C1_2  and  C2_3 
ROOT
ATOM      1  C2  UNL d   1      -0.203   0.060   0.684  0.00  0.00    -0.073 A 
ATOM      2  C3  UNL d   1       1.189  -0.070   0.749  0.00  0.00    -0.002 A 
ATOM      3  C4  UNL d   1       1.903   0.515   1.796  0.00  0.00     0.004 A 
ATOM      4  C5  UNL d   1       1.233   1.227   2.791  0.00  0.00    -0.004 A 
ATOM      5  C6  UNL d   1      -0.159   1.357   2.750  0.00  0.00    -0.075 A 
ATOM      6  C7  UNL d   1      -0.895   2.122   3.810  0.00  0.00     0.076 C 
ATOM      7  C8  UNL d   1      -0.869   0.770   1.693  0.00  0.00     0.001 A 
ENDROOT
BRANCH   1   8
ATOM      8  C1  UNL d   1      -0.979  -0.575  -0.441  0.00  0.00     0.053 C 
ATOM      9  C   UNL d   1      -2.454  -0.725  -0.104  0.00  0.00     0.018 C 
ENDBRANCH   1   8
TORSDOF 1
ENDMDL
