MODEL 1
REMARK minimizedAffinity -4.14238596
REMARK minimizedRMSD -1
REMARK  1 active torsions:
REMARK  status: ('A' for Active; 'I' for Inactive)
REMARK    1  A    between atoms: C1_2  and  C2_3 
ROOT
ATOM      1  C2  UNL d   1       0.496  -0.735  -1.167  0.00  0.00    -0.073 A 
ATOM      2  C3  UNL d   1       1.593  -1.251  -0.468  0.00  0.00    -0.002 A 
ATOM      3  C4  UNL d   1       1.675  -1.111   0.918  0.00  0.00     0.004 A 
ATOM      4  C5  UNL d   1       0.661  -0.459   1.619  0.00  0.00    -0.004 A 
ATOM      5  C6  UNL d   1      -0.449   0.053   0.940  0.00  0.00    -0.075 A 
ATOM      6  C7  UNL d   1      -1.548   0.759   1.679  0.00  0.00     0.076 C 
ATOM      7  C8  UNL d   1      -0.524  -0.090  -0.453  0.00  0.00     0.001 A 
ENDROOT
BRANCH   1   8
ATOM      8  C1  UNL d   1       0.399  -0.890  -2.663  0.00  0.00     0.053 C 
ATOM      9  C   UNL d   1       1.094   0.244  -3.400  0.00  0.00     0.018 C 
ENDBRANCH   1   8
TORSDOF 1
ENDMDL
