MODEL 1
REMARK minimizedAffinity -0.797965705
REMARK minimizedRMSD -1
REMARK  1 active torsions:
REMARK  status: ('A' for Active; 'I' for Inactive)
REMARK    1  A    between atoms: C1_2  and  C2_3 
ROOT
ATOM      1  C2  UNL d   1      -0.029   0.167   1.770  0.00  0.00    -0.073 A 
ATOM      2  C3  UNL d   1       0.791   0.630   2.805  0.00  0.00    -0.002 A 
ATOM      3  C4  UNL d   1       0.368   0.544   4.132  0.00  0.00     0.004 A 
ATOM      4  C5  UNL d   1      -0.874  -0.011   4.439  0.00  0.00    -0.004 A 
ATOM      5  C6  UNL d   1      -1.703  -0.490   3.419  0.00  0.00    -0.075 A 
ATOM      6  C7  UNL d   1      -3.044  -1.087   3.732  0.00  0.00     0.076 C 
ATOM      7  C8  UNL d   1      -1.273  -0.398   2.089  0.00  0.00     0.001 A 
ENDROOT
BRANCH   1   8
ATOM      8  C1  UNL d   1       0.426   0.252   0.337  0.00  0.00     0.053 C 
ATOM      9  C   UNL d   1       1.482  -0.793   0.011  0.00  0.00     0.018 C 
ENDBRANCH   1   8
TORSDOF 1
ENDMDL
