MODEL 1
REMARK minimizedAffinity -3.78171968
REMARK minimizedRMSD -1
REMARK  1 active torsions:
REMARK  status: ('A' for Active; 'I' for Inactive)
REMARK    1  A    between atoms: C1_2  and  C2_3 
ROOT
ATOM      1  C2  UNL d   1       0.203   0.556  -0.861  0.00  0.00    -0.073 A 
ATOM      2  C3  UNL d   1      -0.762  -0.457  -0.813  0.00  0.00    -0.002 A 
ATOM      3  C4  UNL d   1      -1.594  -0.585   0.300  0.00  0.00     0.004 A 
ATOM      4  C5  UNL d   1      -1.476   0.300   1.371  0.00  0.00    -0.004 A 
ATOM      5  C6  UNL d   1      -0.526   1.326   1.336  0.00  0.00    -0.075 A 
ATOM      6  C7  UNL d   1      -0.384   2.285   2.481  0.00  0.00     0.076 C 
ATOM      7  C8  UNL d   1       0.308   1.447   0.216  0.00  0.00     0.001 A 
ENDROOT
BRANCH   1   8
ATOM      8  C1  UNL d   1       1.099   0.702  -2.064  0.00  0.00     0.053 C 
ATOM      9  C   UNL d   1       0.309   0.971  -3.335  0.00  0.00     0.018 C 
ENDBRANCH   1   8
TORSDOF 1
ENDMDL
