MODEL 1
REMARK minimizedAffinity 0.429089993
REMARK minimizedRMSD -1
REMARK  0 active torsions:
REMARK  status: ('A' for Active; 'I' for Inactive)
ROOT
ATOM      1  O1  BZF d   1      -0.715   0.103  -0.987  0.00  0.00    -0.204 OA
ATOM      2  C2  BZF d   1      -0.315   0.283   0.323  0.00  0.00     0.174 A 
ATOM      3  C3  BZF d   1       0.558  -0.677   0.692  0.00  0.00    -0.012 A 
ATOM      4  C3A BZF d   1       0.784  -1.454  -0.488  0.00  0.00    -0.107 A 
ATOM      5  C4  BZF d   1       1.566  -2.540  -0.761  0.00  0.00     0.055 A 
ATOM      6  C5  BZF d   1       1.503  -3.105  -1.996  0.00  0.00    -0.016 A 
ATOM      7  C6  BZF d   1       0.667  -2.614  -2.977  0.00  0.00     0.022 A 
ATOM      8  C7  BZF d   1      -0.124  -1.536  -2.754  0.00  0.00     0.029 A 
ATOM      9  C7A BZF d   1      -0.038  -0.943  -1.519  0.00  0.00     0.058 A 
ENDROOT
TORSDOF 0
ENDMDL
