MODEL 1
REMARK minimizedAffinity -5.93391848
REMARK minimizedRMSD -1
REMARK  0 active torsions:
REMARK  status: ('A' for Active; 'I' for Inactive)
ROOT
ATOM      1  O1  BZF d   1      -0.037   0.011  -0.971  0.00  0.00    -0.204 OA
ATOM      2  C2  BZF d   1       0.893   0.530  -1.851  0.00  0.00     0.174 A 
ATOM      3  C3  BZF d   1       0.944   1.874  -1.754  0.00  0.00    -0.012 A 
ATOM      4  C3A BZF d   1       0.052   2.209  -0.687  0.00  0.00    -0.107 A 
ATOM      5  C4  BZF d   1      -0.315   3.389  -0.105  0.00  0.00     0.055 A 
ATOM      6  C5  BZF d   1      -1.264   3.379   0.868  0.00  0.00    -0.016 A 
ATOM      7  C6  BZF d   1      -1.870   2.210   1.278  0.00  0.00     0.022 A 
ATOM      8  C7  BZF d   1      -1.536   1.015   0.734  0.00  0.00     0.029 A 
ATOM      9  C7A BZF d   1      -0.553   1.017  -0.225  0.00  0.00     0.058 A 
ENDROOT
TORSDOF 0
ENDMDL
