MODEL 1
REMARK minimizedAffinity -6.65592527
REMARK minimizedRMSD -1
REMARK  0 active torsions:
REMARK  status: ('A' for Active; 'I' for Inactive)
ROOT
ATOM      1  O1  BZF d   1       0.302  -0.099   0.387  0.00  0.00    -0.204 OA
ATOM      2  C2  BZF d   1       1.223   0.081  -0.627  0.00  0.00     0.174 A 
ATOM      3  C3  BZF d   1       0.957   1.206  -1.320  0.00  0.00    -0.012 A 
ATOM      4  C3A BZF d   1      -0.148   1.813  -0.643  0.00  0.00    -0.107 A 
ATOM      5  C4  BZF d   1      -0.858   2.962  -0.847  0.00  0.00     0.055 A 
ATOM      6  C5  BZF d   1      -1.926   3.229  -0.050  0.00  0.00    -0.016 A 
ATOM      7  C6  BZF d   1      -2.314   2.368   0.956  0.00  0.00     0.022 A 
ATOM      8  C7  BZF d   1      -1.638   1.218   1.199  0.00  0.00     0.029 A 
ATOM      9  C7A BZF d   1      -0.539   0.962   0.416  0.00  0.00     0.058 A 
ENDROOT
TORSDOF 0
ENDMDL
