MODEL 1
REMARK minimizedAffinity -5.81977367
REMARK minimizedRMSD -1
REMARK  0 active torsions:
REMARK  status: ('A' for Active; 'I' for Inactive)
ROOT
ATOM      1  O1  BZF d   1      -1.891  -1.270  -1.731  0.00  0.00    -0.204 OA
ATOM      2  C2  BZF d   1      -1.652  -2.515  -2.280  0.00  0.00     0.174 A 
ATOM      3  C3  BZF d   1      -0.395  -2.590  -2.764  0.00  0.00    -0.012 A 
ATOM      4  C3A BZF d   1       0.217  -1.345  -2.417  0.00  0.00    -0.107 A 
ATOM      5  C4  BZF d   1       1.466  -0.826  -2.611  0.00  0.00     0.055 A 
ATOM      6  C5  BZF d   1       1.720   0.449  -2.215  0.00  0.00    -0.016 A 
ATOM      7  C6  BZF d   1       0.750   1.234  -1.628  0.00  0.00     0.022 A 
ATOM      8  C7  BZF d   1      -0.502   0.762  -1.410  0.00  0.00     0.029 A 
ATOM      9  C7A BZF d   1      -0.753  -0.537  -1.779  0.00  0.00     0.058 A 
ENDROOT
TORSDOF 0
ENDMDL
