MODEL 1
REMARK minimizedAffinity -4.74368382
REMARK minimizedRMSD -1
REMARK  0 active torsions:
REMARK  status: ('A' for Active; 'I' for Inactive)
ROOT
ATOM      1  O1  BZF d   1      -2.563   1.805   2.274  0.00  0.00    -0.204 OA
ATOM      2  C2  BZF d   1      -2.540   3.171   2.475  0.00  0.00     0.174 A 
ATOM      3  C3  BZF d   1      -1.775   3.778   1.545  0.00  0.00    -0.012 A 
ATOM      4  C3A BZF d   1      -1.365   2.735   0.656  0.00  0.00    -0.107 A 
ATOM      5  C4  BZF d   1      -0.602   2.713  -0.477  0.00  0.00     0.055 A 
ATOM      6  C5  BZF d   1      -0.331   1.519  -1.067  0.00  0.00    -0.016 A 
ATOM      7  C6  BZF d   1      -0.800   0.330  -0.549  0.00  0.00     0.022 A 
ATOM      8  C7  BZF d   1      -1.565   0.302   0.570  0.00  0.00     0.029 A 
ATOM      9  C7A BZF d   1      -1.869   1.510   1.149  0.00  0.00     0.058 A 
ENDROOT
TORSDOF 0
ENDMDL
