MODEL 1
REMARK minimizedAffinity -1.83289099
REMARK minimizedRMSD -1
REMARK  0 active torsions:
REMARK  status: ('A' for Active; 'I' for Inactive)
ROOT
ATOM      1  O1  BZF d   1       1.342  -0.293  -1.638  0.00  0.00    -0.204 OA
ATOM      2  C2  BZF d   1       1.143  -1.298  -0.711  0.00  0.00     0.174 A 
ATOM      3  C3  BZF d   1       0.348  -0.873   0.292  0.00  0.00    -0.012 A 
ATOM      4  C3A BZF d   1      -0.046   0.453  -0.076  0.00  0.00    -0.107 A 
ATOM      5  C4  BZF d   1      -0.848   1.391   0.508  0.00  0.00     0.055 A 
ATOM      6  C5  BZF d   1      -0.967   2.613  -0.073  0.00  0.00    -0.016 A 
ATOM      7  C6  BZF d   1      -0.295   2.933  -1.234  0.00  0.00     0.022 A 
ATOM      8  C7  BZF d   1       0.508   2.034  -1.854  0.00  0.00     0.029 A 
ATOM      9  C7A BZF d   1       0.604   0.787  -1.287  0.00  0.00     0.058 A 
ENDROOT
TORSDOF 0
ENDMDL
