MODEL 1
REMARK minimizedAffinity -5.61078644
REMARK minimizedRMSD -1
REMARK  0 active torsions:
REMARK  status: ('A' for Active; 'I' for Inactive)
ROOT
ATOM      1  O1  BZF d   1       1.305   0.887  -1.061  0.00  0.00    -0.204 OA
ATOM      2  C2  BZF d   1       1.302  -0.333  -0.413  0.00  0.00     0.174 A 
ATOM      3  C3  BZF d   1       0.278  -0.407   0.462  0.00  0.00    -0.012 A 
ATOM      4  C3A BZF d   1      -0.456   0.809   0.287  0.00  0.00    -0.107 A 
ATOM      5  C4  BZF d   1      -1.587   1.314   0.861  0.00  0.00     0.055 A 
ATOM      6  C5  BZF d   1      -2.000   2.563   0.519  0.00  0.00    -0.016 A 
ATOM      7  C6  BZF d   1      -1.304   3.335  -0.387  0.00  0.00     0.022 A 
ATOM      8  C7  BZF d   1      -0.179   2.875  -0.987  0.00  0.00     0.029 A 
ATOM      9  C7A BZF d   1       0.223   1.601  -0.669  0.00  0.00     0.058 A 
ENDROOT
TORSDOF 0
ENDMDL
