MODEL 1
REMARK minimizedAffinity -1.44831812
REMARK minimizedRMSD -1
REMARK  0 active torsions:
REMARK  status: ('A' for Active; 'I' for Inactive)
ROOT
ATOM      1  O1  BZF d   1      -0.347   3.174   0.373  0.00  0.00    -0.204 OA
ATOM      2  C2  BZF d   1       0.200   3.176  -0.895  0.00  0.00     0.174 A 
ATOM      3  C3  BZF d   1       0.488   1.921  -1.294  0.00  0.00    -0.012 A 
ATOM      4  C3A BZF d   1       0.012   1.074  -0.244  0.00  0.00    -0.107 A 
ATOM      5  C4  BZF d   1      -0.004  -0.280  -0.063  0.00  0.00     0.055 A 
ATOM      6  C5  BZF d   1      -0.475  -0.785   1.107  0.00  0.00    -0.016 A 
ATOM      7  C6  BZF d   1      -0.933   0.034   2.119  0.00  0.00     0.022 A 
ATOM      8  C7  BZF d   1      -0.942   1.382   1.984  0.00  0.00     0.029 A 
ATOM      9  C7A BZF d   1      -0.497   1.894   0.790  0.00  0.00     0.058 A 
ENDROOT
TORSDOF 0
ENDMDL
