MODEL 1
REMARK minimizedAffinity -2.62655592
REMARK minimizedRMSD -1
REMARK  0 active torsions:
REMARK  status: ('A' for Active; 'I' for Inactive)
ROOT
ATOM      1  O1  BZF d   1       0.797   0.376  -0.819  0.00  0.00    -0.204 OA
ATOM      2  C2  BZF d   1       0.602  -0.812  -0.142  0.00  0.00     0.174 A 
ATOM      3  C3  BZF d   1      -0.189  -0.625   0.934  0.00  0.00    -0.012 A 
ATOM      4  C3A BZF d   1      -0.582   0.749   0.878  0.00  0.00    -0.107 A 
ATOM      5  C4  BZF d   1      -1.380   1.531   1.664  0.00  0.00     0.055 A 
ATOM      6  C5  BZF d   1      -1.500   2.853   1.375  0.00  0.00    -0.016 A 
ATOM      7  C6  BZF d   1      -0.833   3.428   0.313  0.00  0.00     0.022 A 
ATOM      8  C7  BZF d   1      -0.034   2.692  -0.498  0.00  0.00     0.029 A 
ATOM      9  C7A BZF d   1       0.063   1.349  -0.229  0.00  0.00     0.058 A 
ENDROOT
TORSDOF 0
ENDMDL
