MODEL 1
REMARK minimizedAffinity -4.7891283
REMARK minimizedRMSD -1
REMARK  0 active torsions:
REMARK  status: ('A' for Active; 'I' for Inactive)
ROOT
ATOM      1  O1  BZF d   1      -0.200   0.149  -1.069  0.00  0.00    -0.204 OA
ATOM      2  C2  BZF d   1       0.351  -0.850  -0.289  0.00  0.00     0.174 A 
ATOM      3  C3  BZF d   1       0.048  -0.663   1.012  0.00  0.00    -0.012 A 
ATOM      4  C3A BZF d   1      -0.819   0.475   1.036  0.00  0.00    -0.107 A 
ATOM      5  C4  BZF d   1      -1.466   1.140   2.038  0.00  0.00     0.055 A 
ATOM      6  C5  BZF d   1      -2.177   2.259   1.736  0.00  0.00    -0.016 A 
ATOM      7  C6  BZF d   1      -2.257   2.742   0.447  0.00  0.00     0.022 A 
ATOM      8  C7  BZF d   1      -1.636   2.114  -0.581  0.00  0.00     0.029 A 
ATOM      9  C7A BZF d   1      -0.944   0.965  -0.284  0.00  0.00     0.058 A 
ENDROOT
TORSDOF 0
ENDMDL
