MODEL 1
REMARK minimizedAffinity -5.70011473
REMARK minimizedRMSD -1
REMARK  0 active torsions:
REMARK  status: ('A' for Active; 'I' for Inactive)
ROOT
ATOM      1  O1  BZF d   1      -2.046   0.983   2.076  0.00  0.00    -0.204 OA
ATOM      2  C2  BZF d   1      -1.291  -0.073   1.606  0.00  0.00     0.174 A 
ATOM      3  C3  BZF d   1      -0.545   0.305   0.548  0.00  0.00    -0.012 A 
ATOM      4  C3A BZF d   1      -0.783   1.709   0.403  0.00  0.00    -0.107 A 
ATOM      5  C4  BZF d   1      -0.315   2.656  -0.462  0.00  0.00     0.055 A 
ATOM      6  C5  BZF d   1      -0.802   3.922  -0.382  0.00  0.00    -0.016 A 
ATOM      7  C6  BZF d   1      -1.760   4.274   0.545  0.00  0.00     0.022 A 
ATOM      8  C7  BZF d   1      -2.252   3.370   1.428  0.00  0.00     0.029 A 
ATOM      9  C7A BZF d   1      -1.737   2.098   1.371  0.00  0.00     0.058 A 
ENDROOT
TORSDOF 0
ENDMDL
