MODEL 1
REMARK minimizedAffinity -6.03420782
REMARK minimizedRMSD -1
REMARK  0 active torsions:
REMARK  status: ('A' for Active; 'I' for Inactive)
ROOT
ATOM      1  O1  BZF d   1       0.826   0.779  -0.788  0.00  0.00    -0.204 OA
ATOM      2  C2  BZF d   1       0.655  -0.346  -0.005  0.00  0.00     0.174 A 
ATOM      3  C3  BZF d   1      -0.237  -0.113   0.980  0.00  0.00    -0.012 A 
ATOM      4  C3A BZF d   1      -0.717   1.214   0.746  0.00  0.00    -0.107 A 
ATOM      5  C4  BZF d   1      -1.631   2.007   1.379  0.00  0.00     0.055 A 
ATOM      6  C5  BZF d   1      -1.816   3.280   0.942  0.00  0.00    -0.016 A 
ATOM      7  C6  BZF d   1      -1.101   3.795  -0.120  0.00  0.00     0.022 A 
ATOM      8  C7  BZF d   1      -0.187   3.045  -0.782  0.00  0.00     0.029 A 
ATOM      9  C7A BZF d   1      -0.022   1.747  -0.364  0.00  0.00     0.058 A 
ENDROOT
TORSDOF 0
ENDMDL
