MODEL 1
REMARK minimizedAffinity -5.38200808
REMARK minimizedRMSD -1
REMARK  0 active torsions:
REMARK  status: ('A' for Active; 'I' for Inactive)
ROOT
ATOM      1  O1  BZF d   1       1.002   0.947  -1.430  0.00  0.00    -0.204 OA
ATOM      2  C2  BZF d   1       1.403  -0.319  -1.048  0.00  0.00     0.174 A 
ATOM      3  C3  BZF d   1       0.673  -0.757  -0.002  0.00  0.00    -0.012 A 
ATOM      4  C3A BZF d   1      -0.303   0.264   0.229  0.00  0.00    -0.107 A 
ATOM      5  C4  BZF d   1      -1.325   0.400   1.124  0.00  0.00     0.055 A 
ATOM      6  C5  BZF d   1      -2.046   1.552   1.133  0.00  0.00    -0.016 A 
ATOM      7  C6  BZF d   1      -1.770   2.588   0.265  0.00  0.00     0.022 A 
ATOM      8  C7  BZF d   1      -0.770   2.497  -0.645  0.00  0.00     0.029 A 
ATOM      9  C7A BZF d   1      -0.060   1.321  -0.678  0.00  0.00     0.058 A 
ENDROOT
TORSDOF 0
ENDMDL
