MODEL 1
REMARK minimizedAffinity -4.59410906
REMARK minimizedRMSD -1
REMARK  0 active torsions:
REMARK  status: ('A' for Active; 'I' for Inactive)
ROOT
ATOM      1  O1  BZF d   1       0.670   0.840  -0.999  0.00  0.00    -0.204 OA
ATOM      2  C2  BZF d   1       0.596  -0.366  -0.329  0.00  0.00     0.174 A 
ATOM      3  C3  BZF d   1      -0.230  -0.274   0.733  0.00  0.00    -0.012 A 
ATOM      4  C3A BZF d   1      -0.774   1.048   0.673  0.00  0.00    -0.107 A 
ATOM      5  C4  BZF d   1      -1.669   1.730   1.446  0.00  0.00     0.055 A 
ATOM      6  C5  BZF d   1      -1.931   3.032   1.159  0.00  0.00    -0.016 A 
ATOM      7  C6  BZF d   1      -1.314   3.684   0.112  0.00  0.00     0.022 A 
ATOM      8  C7  BZF d   1      -0.423   3.047  -0.686  0.00  0.00     0.029 A 
ATOM      9  C7A BZF d   1      -0.180   1.721  -0.419  0.00  0.00     0.058 A 
ENDROOT
TORSDOF 0
ENDMDL
