MODEL 1
REMARK minimizedAffinity -4.2808094
REMARK minimizedRMSD -1
REMARK  0 active torsions:
REMARK  status: ('A' for Active; 'I' for Inactive)
ROOT
ATOM      1  O1  BZF d   1       0.290   2.950  -0.980  0.00  0.00    -0.204 OA
ATOM      2  C2  BZF d   1      -0.168   4.190  -0.581  0.00  0.00     0.174 A 
ATOM      3  C3  BZF d   1      -1.071   4.070   0.414  0.00  0.00    -0.012 A 
ATOM      4  C3A BZF d   1      -1.114   2.671   0.715  0.00  0.00    -0.107 A 
ATOM      5  C4  BZF d   1      -1.812   1.928   1.624  0.00  0.00     0.055 A 
ATOM      6  C5  BZF d   1      -1.681   0.575   1.610  0.00  0.00    -0.016 A 
ATOM      7  C6  BZF d   1      -0.867  -0.066   0.699  0.00  0.00     0.022 A 
ATOM      8  C7  BZF d   1      -0.152   0.629  -0.218  0.00  0.00     0.029 A 
ATOM      9  C7A BZF d   1      -0.256   1.998  -0.185  0.00  0.00     0.058 A 
ENDROOT
TORSDOF 0
ENDMDL
