MODEL 1
REMARK minimizedAffinity -4.0521245
REMARK minimizedRMSD -1
REMARK  0 active torsions:
REMARK  status: ('A' for Active; 'I' for Inactive)
ROOT
ATOM      1  O1  BZF d   1       0.526   2.767  -0.772  0.00  0.00    -0.204 OA
ATOM      2  C2  BZF d   1      -0.078   3.825  -0.121  0.00  0.00     0.174 A 
ATOM      3  C3  BZF d   1      -0.741   3.398   0.973  0.00  0.00    -0.012 A 
ATOM      4  C3A BZF d   1      -0.461   1.998   1.060  0.00  0.00    -0.107 A 
ATOM      5  C4  BZF d   1      -0.823   1.021   1.943  0.00  0.00     0.055 A 
ATOM      6  C5  BZF d   1      -0.442  -0.261   1.702  0.00  0.00    -0.016 A 
ATOM      7  C6  BZF d   1       0.296  -0.602   0.588  0.00  0.00     0.022 A 
ATOM      8  C7  BZF d   1       0.683   0.333  -0.313  0.00  0.00     0.029 A 
ATOM      9  C7A BZF d   1       0.328   1.634  -0.056  0.00  0.00     0.058 A 
ENDROOT
TORSDOF 0
ENDMDL
