MODEL 1
REMARK minimizedAffinity -4.70914125
REMARK minimizedRMSD -1
REMARK  0 active torsions:
REMARK  status: ('A' for Active; 'I' for Inactive)
ROOT
ATOM      1  O1  BZF d   1       0.645   2.764  -0.951  0.00  0.00    -0.204 OA
ATOM      2  C2  BZF d   1       0.328   4.018  -0.464  0.00  0.00     0.174 A 
ATOM      3  C3  BZF d   1      -0.425   3.921   0.651  0.00  0.00    -0.012 A 
ATOM      4  C3A BZF d   1      -0.511   2.520   0.927  0.00  0.00    -0.107 A 
ATOM      5  C4  BZF d   1      -1.113   1.792   1.914  0.00  0.00     0.055 A 
ATOM      6  C5  BZF d   1      -1.071   0.435   1.853  0.00  0.00    -0.016 A 
ATOM      7  C6  BZF d   1      -0.440  -0.226   0.820  0.00  0.00     0.022 A 
ATOM      8  C7  BZF d   1       0.175   0.453  -0.179  0.00  0.00     0.029 A 
ATOM      9  C7A BZF d   1       0.162   1.824  -0.104  0.00  0.00     0.058 A 
ENDROOT
TORSDOF 0
ENDMDL
