MODEL 1
REMARK minimizedAffinity -5.32043362
REMARK minimizedRMSD -1
REMARK  1 active torsions:
REMARK  status: ('A' for Active; 'I' for Inactive)
REMARK    1  A    between atoms: N_2  and  C1_3 
ROOT
ATOM      1  C1  UNL d   1       0.264  -0.712  -0.332  0.00  0.00     0.143 A 
ATOM      2  C2  UNL d   1       0.425  -0.342  -1.671  0.00  0.00    -0.057 A 
ATOM      3  C3  UNL d   1      -0.676  -0.220  -2.528  0.00  0.00     0.033 A 
ATOM      4  C4  UNL d   1      -1.958  -0.494  -2.066  0.00  0.00    -0.042 A 
ATOM      5  C5  UNL d   1      -2.140  -0.888  -0.745  0.00  0.00     0.033 A 
ATOM      6  C6  UNL d   1      -1.038  -1.002   0.108  0.00  0.00    -0.057 A 
ENDROOT
BRANCH   1   7
ATOM      7  N   UNL d   1       1.327  -0.947   0.544  0.00  0.00    -0.732 N 
ATOM      8  C   UNL d   1       1.181  -1.869   1.649  0.00  0.00     0.284 C 
ATOM      9  H3  UNL d   1       2.220  -1.014   0.061  0.00  0.00     0.395 HD
ENDBRANCH   1   7
TORSDOF 1
ENDMDL
