MODEL 1
REMARK minimizedAffinity -3.49603009
REMARK minimizedRMSD -1
REMARK  1 active torsions:
REMARK  status: ('A' for Active; 'I' for Inactive)
REMARK    1  A    between atoms: N_2  and  C1_3 
ROOT
ATOM      1  C1  UNL d   1      -0.716   0.244  -0.214  0.00  0.00     0.143 A 
ATOM      2  C2  UNL d   1      -1.305   0.668  -1.410  0.00  0.00    -0.057 A 
ATOM      3  C3  UNL d   1      -2.388  -0.019  -1.970  0.00  0.00     0.033 A 
ATOM      4  C4  UNL d   1      -2.885  -1.164  -1.357  0.00  0.00    -0.042 A 
ATOM      5  C5  UNL d   1      -2.300  -1.619  -0.181  0.00  0.00     0.033 A 
ATOM      6  C6  UNL d   1      -1.222  -0.924   0.377  0.00  0.00    -0.057 A 
ENDROOT
BRANCH   1   7
ATOM      7  N   UNL d   1       0.425   0.827   0.341  0.00  0.00    -0.732 N 
ATOM      8  C   UNL d   1       1.710   0.167   0.248  0.00  0.00     0.284 C 
ATOM      9  H3  UNL d   1       0.462   1.832   0.187  0.00  0.00     0.395 HD
ENDBRANCH   1   7
TORSDOF 1
ENDMDL
