MODEL 1
REMARK minimizedAffinity -2.30070329
REMARK minimizedRMSD -1
REMARK  1 active torsions:
REMARK  status: ('A' for Active; 'I' for Inactive)
REMARK    1  A    between atoms: N_2  and  C1_3 
ROOT
ATOM      1  C1  UNL d   1      -1.267  -0.652  -0.838  0.00  0.00     0.143 A 
ATOM      2  C2  UNL d   1      -1.888  -1.166  -1.981  0.00  0.00    -0.057 A 
ATOM      3  C3  UNL d   1      -2.619  -2.359  -1.937  0.00  0.00     0.033 A 
ATOM      4  C4  UNL d   1      -2.719  -3.076  -0.749  0.00  0.00    -0.042 A 
ATOM      5  C5  UNL d   1      -2.090  -2.597   0.394  0.00  0.00     0.033 A 
ATOM      6  C6  UNL d   1      -1.366  -1.402   0.345  0.00  0.00    -0.057 A 
ENDROOT
BRANCH   1   7
ATOM      7  N   UNL d   1      -0.445   0.477  -0.840  0.00  0.00    -0.732 N 
ATOM      8  C   UNL d   1      -0.414   1.369   0.299  0.00  0.00     0.284 C 
ATOM      9  H3  UNL d   1       0.469   0.291  -1.247  0.00  0.00     0.395 HD
ENDBRANCH   1   7
TORSDOF 1
ENDMDL
