MODEL 1
REMARK minimizedAffinity -4.66831017
REMARK minimizedRMSD -1
REMARK  1 active torsions:
REMARK  status: ('A' for Active; 'I' for Inactive)
REMARK    1  A    between atoms: N_2  and  C1_3 
ROOT
ATOM      1  C1  UNL d   1       0.001   1.395  -0.008  0.00  0.00     0.143 A 
ATOM      2  C2  UNL d   1       0.438   2.723  -0.061  0.00  0.00    -0.057 A 
ATOM      3  C3  UNL d   1       1.679   3.101   0.467  0.00  0.00     0.033 A 
ATOM      4  C4  UNL d   1       2.494   2.159   1.086  0.00  0.00    -0.042 A 
ATOM      5  C5  UNL d   1       2.069   0.838   1.172  0.00  0.00     0.033 A 
ATOM      6  C6  UNL d   1       0.832   0.465   0.637  0.00  0.00    -0.057 A 
ENDROOT
BRANCH   1   7
ATOM      7  N   UNL d   1      -1.264   0.975  -0.427  0.00  0.00    -0.732 N 
ATOM      8  C   UNL d   1      -1.403  -0.028  -1.461  0.00  0.00     0.284 C 
ATOM      9  H3  UNL d   1      -1.913   0.865   0.349  0.00  0.00     0.395 HD
ENDBRANCH   1   7
TORSDOF 1
ENDMDL
