MODEL 1
REMARK minimizedAffinity -4.35100889
REMARK minimizedRMSD -1
REMARK  1 active torsions:
REMARK  status: ('A' for Active; 'I' for Inactive)
REMARK    1  A    between atoms: N_2  and  C1_3 
ROOT
ATOM      1  C1  UNL d   1      -0.763  -0.009  -0.761  0.00  0.00     0.143 A 
ATOM      2  C2  UNL d   1      -1.674  -0.024  -1.822  0.00  0.00    -0.057 A 
ATOM      3  C3  UNL d   1      -2.846  -0.788  -1.761  0.00  0.00     0.033 A 
ATOM      4  C4  UNL d   1      -3.114  -1.575  -0.646  0.00  0.00    -0.042 A 
ATOM      5  C5  UNL d   1      -2.209  -1.595   0.410  0.00  0.00     0.033 A 
ATOM      6  C6  UNL d   1      -1.044  -0.826   0.346  0.00  0.00    -0.057 A 
ENDROOT
BRANCH   1   7
ATOM      7  N   UNL d   1       0.468   0.652  -0.802  0.00  0.00    -0.732 N 
ATOM      8  C   UNL d   1       1.446   0.454   0.247  0.00  0.00     0.284 C 
ATOM      9  H3  UNL d   1       0.863   0.679  -1.739  0.00  0.00     0.395 HD
ENDBRANCH   1   7
TORSDOF 1
ENDMDL
