MODEL 1
REMARK minimizedAffinity -3.28300881
REMARK minimizedRMSD -1
REMARK  1 active torsions:
REMARK  status: ('A' for Active; 'I' for Inactive)
REMARK    1  A    between atoms: N_2  and  C1_3 
ROOT
ATOM      1  C1  UNL d   1      -1.785  -0.403  -1.217  0.00  0.00     0.143 A 
ATOM      2  C2  UNL d   1      -2.814  -0.416  -0.269  0.00  0.00    -0.057 A 
ATOM      3  C3  UNL d   1      -2.560  -0.151   1.082  0.00  0.00     0.033 A 
ATOM      4  C4  UNL d   1      -1.263   0.104   1.516  0.00  0.00    -0.042 A 
ATOM      5  C5  UNL d   1      -0.221   0.098   0.595  0.00  0.00     0.033 A 
ATOM      6  C6  UNL d   1      -0.482  -0.161  -0.754  0.00  0.00    -0.057 A 
ENDROOT
BRANCH   1   7
ATOM      7  N   UNL d   1      -1.957  -0.755  -2.558  0.00  0.00    -0.732 N 
ATOM      8  C   UNL d   1      -2.046  -2.145  -2.949  0.00  0.00     0.284 C 
ATOM      9  H3  UNL d   1      -2.615  -0.145  -3.038  0.00  0.00     0.395 HD
ENDBRANCH   1   7
TORSDOF 1
ENDMDL
