MODEL 1
REMARK minimizedAffinity -1.55818188
REMARK minimizedRMSD -1
REMARK  1 active torsions:
REMARK  status: ('A' for Active; 'I' for Inactive)
REMARK    1  A    between atoms: N_2  and  C1_3 
ROOT
ATOM      1  C1  UNL d   1      -0.493  -0.862   1.122  0.00  0.00     0.143 A 
ATOM      2  C2  UNL d   1      -1.845  -1.219   1.143  0.00  0.00    -0.057 A 
ATOM      3  C3  UNL d   1      -2.852  -0.247   1.184  0.00  0.00     0.033 A 
ATOM      4  C4  UNL d   1      -2.522   1.104   1.234  0.00  0.00    -0.042 A 
ATOM      5  C5  UNL d   1      -1.184   1.481   1.240  0.00  0.00     0.033 A 
ATOM      6  C6  UNL d   1      -0.183   0.506   1.192  0.00  0.00    -0.057 A 
ENDROOT
BRANCH   1   7
ATOM      7  N   UNL d   1       0.556  -1.783   1.181  0.00  0.00    -0.732 N 
ATOM      8  C   UNL d   1       1.151  -2.142   2.450  0.00  0.00     0.284 C 
ATOM      9  H3  UNL d   1       0.418  -2.569   0.549  0.00  0.00     0.395 HD
ENDBRANCH   1   7
TORSDOF 1
ENDMDL
