MODEL 1
REMARK minimizedAffinity -4.60469866
REMARK minimizedRMSD -1
REMARK  1 active torsions:
REMARK  status: ('A' for Active; 'I' for Inactive)
REMARK    1  A    between atoms: N_2  and  C1_3 
ROOT
ATOM      1  C1  UNL d   1      -0.024  -0.095  -0.426  0.00  0.00     0.143 A 
ATOM      2  C2  UNL d   1      -0.241   0.006  -1.805  0.00  0.00    -0.057 A 
ATOM      3  C3  UNL d   1      -1.529  -0.089  -2.346  0.00  0.00     0.033 A 
ATOM      4  C4  UNL d   1      -2.623  -0.317  -1.518  0.00  0.00    -0.042 A 
ATOM      5  C5  UNL d   1      -2.428  -0.446  -0.148  0.00  0.00     0.033 A 
ATOM      6  C6  UNL d   1      -1.140  -0.344   0.388  0.00  0.00    -0.057 A 
ENDROOT
BRANCH   1   7
ATOM      7  N   UNL d   1       1.242  -0.108   0.163  0.00  0.00    -0.732 N 
ATOM      8  C   UNL d   1       2.031   1.103   0.240  0.00  0.00     0.284 C 
ATOM      9  H3  UNL d   1       1.273  -0.678   1.005  0.00  0.00     0.395 HD
ENDBRANCH   1   7
TORSDOF 1
ENDMDL
