MODEL 1
REMARK minimizedAffinity -1.59551752
REMARK minimizedRMSD -1
REMARK  1 active torsions:
REMARK  status: ('A' for Active; 'I' for Inactive)
REMARK    1  A    between atoms: N_2  and  C1_3 
ROOT
ATOM      1  C1  UNL d   1       2.163   1.020   0.477  0.00  0.00     0.143 A 
ATOM      2  C2  UNL d   1       2.905   2.068  -0.078  0.00  0.00    -0.057 A 
ATOM      3  C3  UNL d   1       3.304   3.164   0.696  0.00  0.00     0.033 A 
ATOM      4  C4  UNL d   1       2.942   3.246   2.037  0.00  0.00    -0.042 A 
ATOM      5  C5  UNL d   1       2.183   2.228   2.603  0.00  0.00     0.033 A 
ATOM      6  C6  UNL d   1       1.793   1.132   1.827  0.00  0.00    -0.057 A 
ENDROOT
BRANCH   1   7
ATOM      7  N   UNL d   1       1.652  -0.049  -0.263  0.00  0.00    -0.732 N 
ATOM      8  C   UNL d   1       0.320   0.014  -0.826  0.00  0.00     0.284 C 
ATOM      9  H3  UNL d   1       2.347  -0.459  -0.883  0.00  0.00     0.395 HD
ENDBRANCH   1   7
TORSDOF 1
ENDMDL
