MODEL 1
REMARK minimizedAffinity -5.42756033
REMARK minimizedRMSD -1
REMARK  1 active torsions:
REMARK  status: ('A' for Active; 'I' for Inactive)
REMARK    1  A    between atoms: N_2  and  C1_3 
ROOT
ATOM      1  C1  UNL d   1      -0.068  -0.263   0.103  0.00  0.00     0.143 A 
ATOM      2  C2  UNL d   1      -0.399  -0.422  -1.247  0.00  0.00    -0.057 A 
ATOM      3  C3  UNL d   1      -1.734  -0.434  -1.670  0.00  0.00     0.033 A 
ATOM      4  C4  UNL d   1      -2.765  -0.315  -0.744  0.00  0.00    -0.042 A 
ATOM      5  C5  UNL d   1      -2.459  -0.181   0.606  0.00  0.00     0.033 A 
ATOM      6  C6  UNL d   1      -1.124  -0.163   1.022  0.00  0.00    -0.057 A 
ENDROOT
BRANCH   1   7
ATOM      7  N   UNL d   1       1.236  -0.341   0.598  0.00  0.00    -0.732 N 
ATOM      8  C   UNL d   1       2.098   0.822   0.594  0.00  0.00     0.284 C 
ATOM      9  H3  UNL d   1       1.297  -0.900   1.446  0.00  0.00     0.395 HD
ENDBRANCH   1   7
TORSDOF 1
ENDMDL
