MODEL 1
REMARK minimizedAffinity -4.52508354
REMARK minimizedRMSD -1
REMARK  0 active torsions:
REMARK  status: ('A' for Active; 'I' for Inactive)
ROOT
ATOM      1  C   UNL d   1       3.637   0.353   0.331  0.00  0.00    -0.002 A 
ATOM      2  C1  UNL d   1       3.494  -1.007   0.093  0.00  0.00     0.010 A 
ATOM      3  C2  UNL d   1       2.259  -1.535  -0.287  0.00  0.00     0.041 A 
ATOM      4  C3  UNL d   1       1.160  -0.666  -0.427  0.00  0.00    -0.075 A 
ATOM      5  S   UNL d   1      -0.448  -1.088  -0.884  0.00  0.00     0.015 SA
ATOM      6  C4  UNL d   1      -0.983   0.526  -0.775  0.00  0.00     0.022 A 
ATOM      7  C5  UNL d   1       0.027   1.380  -0.400  0.00  0.00     0.026 A 
ATOM      8  C6  UNL d   1       1.279   0.707  -0.194  0.00  0.00    -0.082 A 
ATOM      9  C7  UNL d   1       2.544   1.212   0.191  0.00  0.00     0.045 A 
ENDROOT
TORSDOF 0
ENDMDL
