MODEL 1
REMARK minimizedAffinity 0.154398799
REMARK minimizedRMSD -1
REMARK  0 active torsions:
REMARK  status: ('A' for Active; 'I' for Inactive)
ROOT
ATOM      1  C   UNL d   1      -4.945   0.438   0.336  0.00  0.00    -0.002 A 
ATOM      2  C1  UNL d   1      -4.583   1.706   0.770  0.00  0.00     0.010 A 
ATOM      3  C2  UNL d   1      -3.247   2.109   0.747  0.00  0.00     0.041 A 
ATOM      4  C3  UNL d   1      -2.271   1.209   0.274  0.00  0.00    -0.075 A 
ATOM      5  S   UNL d   1      -0.574   1.486   0.153  0.00  0.00     0.015 SA
ATOM      6  C4  UNL d   1      -0.290  -0.072  -0.478  0.00  0.00     0.022 A 
ATOM      7  C5  UNL d   1      -1.450  -0.798  -0.600  0.00  0.00     0.026 A 
ATOM      8  C6  UNL d   1      -2.612  -0.072  -0.169  0.00  0.00    -0.082 A 
ATOM      9  C7  UNL d   1      -3.975  -0.451  -0.133  0.00  0.00     0.045 A 
ENDROOT
TORSDOF 0
ENDMDL
