MODEL 1
REMARK minimizedAffinity -2.82480454
REMARK minimizedRMSD -1
REMARK  0 active torsions:
REMARK  status: ('A' for Active; 'I' for Inactive)
ROOT
ATOM      1  C   UNL d   1       4.067   0.766   0.685  0.00  0.00    -0.002 A 
ATOM      2  C1  UNL d   1       3.770  -0.574   0.476  0.00  0.00     0.010 A 
ATOM      3  C2  UNL d   1       2.542  -0.952  -0.071  0.00  0.00     0.041 A 
ATOM      4  C3  UNL d   1       1.609   0.048  -0.408  0.00  0.00    -0.075 A 
ATOM      5  S   UNL d   1       0.042  -0.179  -1.090  0.00  0.00     0.015 SA
ATOM      6  C4  UNL d   1      -0.269   1.496  -1.121  0.00  0.00     0.022 A 
ATOM      7  C5  UNL d   1       0.785   2.226  -0.626  0.00  0.00     0.026 A 
ATOM      8  C6  UNL d   1       1.886   1.404  -0.208  0.00  0.00    -0.082 A 
ATOM      9  C7  UNL d   1       3.139   1.755   0.349  0.00  0.00     0.045 A 
ENDROOT
TORSDOF 0
ENDMDL
