MODEL 1
REMARK minimizedAffinity -3.01141191
REMARK minimizedRMSD -1
REMARK  0 active torsions:
REMARK  status: ('A' for Active; 'I' for Inactive)
ROOT
ATOM      1  C   UNL d   1       2.488  -1.822   0.721  0.00  0.00    -0.002 A 
ATOM      2  C1  UNL d   1       1.373  -2.261   0.020  0.00  0.00     0.010 A 
ATOM      3  C2  UNL d   1       0.405  -1.353  -0.415  0.00  0.00     0.041 A 
ATOM      4  C3  UNL d   1       0.580   0.016  -0.133  0.00  0.00    -0.075 A 
ATOM      5  S   UNL d   1      -0.475   1.309  -0.567  0.00  0.00     0.015 SA
ATOM      6  C4  UNL d   1       0.530   2.474   0.166  0.00  0.00     0.022 A 
ATOM      7  C5  UNL d   1       1.647   1.908   0.733  0.00  0.00     0.026 A 
ATOM      8  C6  UNL d   1       1.694   0.482   0.570  0.00  0.00    -0.082 A 
ATOM      9  C7  UNL d   1       2.657  -0.463   0.998  0.00  0.00     0.045 A 
ENDROOT
TORSDOF 0
ENDMDL
