MODEL 1
REMARK minimizedAffinity 19.6070251
REMARK minimizedRMSD -1
REMARK  0 active torsions:
REMARK  status: ('A' for Active; 'I' for Inactive)
ROOT
ATOM      1  C   UNL d   1       3.689  -2.076   4.612  0.00  0.00     0.124 A 
ATOM      2  C1  UNL d   1       4.833  -2.023   3.827  0.00  0.00     0.062 A 
ATOM      3  C2  UNL d   1       4.788  -1.443   2.563  0.00  0.00     0.162 A 
ATOM      4  C3  UNL d   1       3.595  -0.909   2.075  0.00  0.00    -0.034 A 
ATOM      5  C4  UNL d   1       2.449  -0.966   2.870  0.00  0.00     0.162 A 
ATOM      6  C5  UNL d   1       2.499  -1.548   4.133  0.00  0.00     0.062 A 
ATOM      7  F   UNL d   1       1.393  -1.598   4.890  0.00  0.00    -0.097 F 
ATOM      8  F1  UNL d   1       1.285  -0.463   2.432  0.00  0.00    -0.096 F 
ATOM      9  I   UNL d   1       3.524  -0.040   0.186  0.00  0.00    -0.060 I 
ATOM     10  F2  UNL d   1       5.908  -1.405   1.826  0.00  0.00    -0.096 F 
ATOM     11  F3  UNL d   1       5.984  -2.534   4.287  0.00  0.00    -0.097 F 
ATOM     12  F4  UNL d   1       3.735  -2.636   5.827  0.00  0.00    -0.092 F 
ENDROOT
TORSDOF 0
ENDMDL
