MODEL 1
REMARK minimizedAffinity 16.9575462
REMARK minimizedRMSD -1
REMARK  0 active torsions:
REMARK  status: ('A' for Active; 'I' for Inactive)
ROOT
ATOM      1  C   UNL d   1       1.875  -1.201   3.033  0.00  0.00     0.124 A 
ATOM      2  C1  UNL d   1       3.080  -0.650   2.621  0.00  0.00     0.062 A 
ATOM      3  C2  UNL d   1       4.259  -0.964   3.290  0.00  0.00     0.162 A 
ATOM      4  C3  UNL d   1       4.239  -1.836   4.379  0.00  0.00    -0.034 A 
ATOM      5  C4  UNL d   1       3.023  -2.386   4.788  0.00  0.00     0.162 A 
ATOM      6  C5  UNL d   1       1.847  -2.069   4.116  0.00  0.00     0.062 A 
ATOM      7  F   UNL d   1       0.684  -2.603   4.515  0.00  0.00    -0.097 F 
ATOM      8  F1  UNL d   1       2.968  -3.228   5.831  0.00  0.00    -0.096 F 
ATOM      9  I   UNL d   1       6.000  -2.308   5.383  0.00  0.00    -0.060 I 
ATOM     10  F2  UNL d   1       5.409  -0.416   2.870  0.00  0.00    -0.096 F 
ATOM     11  F3  UNL d   1       3.109   0.189   1.575  0.00  0.00    -0.097 F 
ATOM     12  F4  UNL d   1       0.742  -0.896   2.387  0.00  0.00    -0.092 F 
ENDROOT
TORSDOF 0
ENDMDL
