MODEL 1
REMARK minimizedAffinity 53.7101326
REMARK minimizedRMSD -1
REMARK  0 active torsions:
REMARK  status: ('A' for Active; 'I' for Inactive)
ROOT
ATOM      1  C   UNL d   1       2.843   0.178   0.415  0.00  0.00     0.124 A 
ATOM      2  C1  UNL d   1       2.054   0.963   1.245  0.00  0.00     0.062 A 
ATOM      3  C2  UNL d   1       1.736   2.268   0.879  0.00  0.00     0.162 A 
ATOM      4  C3  UNL d   1       2.207   2.797  -0.322  0.00  0.00    -0.034 A 
ATOM      5  C4  UNL d   1       3.002   2.002  -1.151  0.00  0.00     0.162 A 
ATOM      6  C5  UNL d   1       3.316   0.699  -0.781  0.00  0.00     0.062 A 
ATOM      7  F   UNL d   1       4.079  -0.058  -1.584  0.00  0.00    -0.097 F 
ATOM      8  F1  UNL d   1       3.471   2.479  -2.313  0.00  0.00    -0.096 F 
ATOM      9  I   UNL d   1       1.735   4.748  -0.872  0.00  0.00    -0.060 I 
ATOM     10  F2  UNL d   1       0.971   3.003   1.700  0.00  0.00    -0.096 F 
ATOM     11  F3  UNL d   1       1.596   0.463   2.402  0.00  0.00    -0.097 F 
ATOM     12  F4  UNL d   1       3.148  -1.077   0.770  0.00  0.00    -0.092 F 
ENDROOT
TORSDOF 0
ENDMDL
