MODEL 1
REMARK minimizedAffinity 13.7005062
REMARK minimizedRMSD -1
REMARK  0 active torsions:
REMARK  status: ('A' for Active; 'I' for Inactive)
ROOT
ATOM      1  C   UNL d   1       3.610  -2.333   5.104  0.00  0.00     0.124 A 
ATOM      2  C1  UNL d   1       4.805  -2.746   4.530  0.00  0.00     0.062 A 
ATOM      3  C2  UNL d   1       4.815  -3.793   3.613  0.00  0.00     0.162 A 
ATOM      4  C3  UNL d   1       3.627  -4.434   3.263  0.00  0.00    -0.034 A 
ATOM      5  C4  UNL d   1       2.430  -4.014   3.846  0.00  0.00     0.162 A 
ATOM      6  C5  UNL d   1       2.425  -2.967   4.762  0.00  0.00     0.062 A 
ATOM      7  F   UNL d   1       1.270  -2.569   5.316  0.00  0.00    -0.097 F 
ATOM      8  F1  UNL d   1       1.269  -4.608   3.532  0.00  0.00    -0.096 F 
ATOM      9  I   UNL d   1       3.638  -6.000   1.892  0.00  0.00    -0.060 I 
ATOM     10  F2  UNL d   1       5.984  -4.171   3.074  0.00  0.00    -0.096 F 
ATOM     11  F3  UNL d   1       5.952  -2.135   4.860  0.00  0.00    -0.097 F 
ATOM     12  F4  UNL d   1       3.603  -1.326   5.987  0.00  0.00    -0.092 F 
ENDROOT
TORSDOF 0
ENDMDL
