MODEL 1
REMARK minimizedAffinity 21.1769028
REMARK minimizedRMSD -1
REMARK  0 active torsions:
REMARK  status: ('A' for Active; 'I' for Inactive)
ROOT
ATOM      1  C   UNL d   1       2.854   1.191   1.290  0.00  0.00     0.124 A 
ATOM      2  C1  UNL d   1       2.093   0.979   2.431  0.00  0.00     0.062 A 
ATOM      3  C2  UNL d   1       2.274  -0.175   3.188  0.00  0.00     0.162 A 
ATOM      4  C3  UNL d   1       3.221  -1.126   2.807  0.00  0.00    -0.034 A 
ATOM      5  C4  UNL d   1       3.982  -0.906   1.657  0.00  0.00     0.162 A 
ATOM      6  C5  UNL d   1       3.797   0.249   0.904  0.00  0.00     0.062 A 
ATOM      7  F   UNL d   1       4.533   0.452  -0.198  0.00  0.00    -0.097 F 
ATOM      8  F1  UNL d   1       4.901  -1.799   1.263  0.00  0.00    -0.096 F 
ATOM      9  I   UNL d   1       3.495  -2.852   3.937  0.00  0.00    -0.060 I 
ATOM     10  F2  UNL d   1       1.525  -0.354   4.286  0.00  0.00    -0.096 F 
ATOM     11  F3  UNL d   1       1.180   1.887   2.805  0.00  0.00    -0.097 F 
ATOM     12  F4  UNL d   1       2.677   2.301   0.562  0.00  0.00    -0.092 F 
ENDROOT
TORSDOF 0
ENDMDL
