MODEL 1
REMARK minimizedAffinity 14.4375687
REMARK minimizedRMSD -1
REMARK  0 active torsions:
REMARK  status: ('A' for Active; 'I' for Inactive)
ROOT
ATOM      1  C   UNL d   1       2.143  -1.749   3.376  0.00  0.00     0.124 A 
ATOM      2  C1  UNL d   1       3.014  -2.701   3.888  0.00  0.00     0.062 A 
ATOM      3  C2  UNL d   1       3.324  -3.837   3.146  0.00  0.00     0.162 A 
ATOM      4  C3  UNL d   1       2.764  -4.027   1.883  0.00  0.00    -0.034 A 
ATOM      5  C4  UNL d   1       1.888  -3.066   1.375  0.00  0.00     0.162 A 
ATOM      6  C5  UNL d   1       1.581  -1.933   2.120  0.00  0.00     0.062 A 
ATOM      7  F   UNL d   1       0.740  -1.014   1.623  0.00  0.00    -0.097 F 
ATOM      8  F1  UNL d   1       1.332  -3.218   0.164  0.00  0.00    -0.096 F 
ATOM      9  I   UNL d   1       3.226  -5.725   0.771  0.00  0.00    -0.060 I 
ATOM     10  F2  UNL d   1       4.169  -4.740   3.666  0.00  0.00    -0.096 F 
ATOM     11  F3  UNL d   1       3.557  -2.526   5.101  0.00  0.00    -0.097 F 
ATOM     12  F4  UNL d   1       1.845  -0.657   4.092  0.00  0.00    -0.092 F 
ENDROOT
TORSDOF 0
ENDMDL
