MODEL 1
REMARK minimizedAffinity 8.03036594
REMARK minimizedRMSD -1
REMARK  1 active torsions:
REMARK  status: ('A' for Active; 'I' for Inactive)
REMARK    1  A    between atoms: C1_2  and  C2_3 
ROOT
ATOM      1  C2  UNL d   1       2.245   0.313  -0.558  0.00  0.00    -0.081 A 
ATOM      2  C3  UNL d   1       2.592   1.663  -0.430  0.00  0.00     0.006 A 
ATOM      3  C4  UNL d   1       2.235   2.582  -1.420  0.00  0.00     0.002 A 
ATOM      4  C5  UNL d   1       1.518   2.169  -2.548  0.00  0.00    -0.080 A 
ATOM      5  C6  UNL d   1       1.102   3.151  -3.603  0.00  0.00     0.076 C 
ATOM      6  C7  UNL d   1       1.187   0.816  -2.684  0.00  0.00     0.002 A 
ATOM      7  C8  UNL d   1       1.544  -0.103  -1.695  0.00  0.00     0.006 A 
ENDROOT
BRANCH   1   8
ATOM      8  C1  UNL d   1       2.572  -0.669   0.538  0.00  0.00     0.054 C 
ATOM      9  C   UNL d   1       1.521  -1.766   0.630  0.00  0.00     0.018 C 
ENDBRANCH   1   8
TORSDOF 1
ENDMDL
