MODEL 1
REMARK minimizedAffinity 9.08467579
REMARK minimizedRMSD -1
REMARK  1 active torsions:
REMARK  status: ('A' for Active; 'I' for Inactive)
REMARK    1  A    between atoms: C1_2  and  C2_3 
ROOT
ATOM      1  C2  UNL d   1       1.140  -1.049  -0.132  0.00  0.00    -0.081 A 
ATOM      2  C3  UNL d   1       0.332  -1.308   0.982  0.00  0.00     0.006 A 
ATOM      3  C4  UNL d   1       0.895  -1.404   2.257  0.00  0.00     0.002 A 
ATOM      4  C5  UNL d   1       2.271  -1.235   2.440  0.00  0.00    -0.080 A 
ATOM      5  C6  UNL d   1       2.884  -1.305   3.808  0.00  0.00     0.076 C 
ATOM      6  C7  UNL d   1       3.081  -0.994   1.325  0.00  0.00     0.002 A 
ATOM      7  C8  UNL d   1       2.519  -0.898   0.050  0.00  0.00     0.006 A 
ENDROOT
BRANCH   1   8
ATOM      8  C1  UNL d   1       0.528  -0.881  -1.500  0.00  0.00     0.054 C 
ATOM      9  C   UNL d   1      -0.986  -1.026  -1.450  0.00  0.00     0.018 C 
ENDBRANCH   1   8
TORSDOF 1
ENDMDL
