MODEL 1
REMARK minimizedAffinity 7.96570206
REMARK minimizedRMSD -1
REMARK  1 active torsions:
REMARK  status: ('A' for Active; 'I' for Inactive)
REMARK    1  A    between atoms: C1_2  and  C2_3 
ROOT
ATOM      1  C2  UNL d   1       1.825   1.685  -2.500  0.00  0.00    -0.081 A 
ATOM      2  C3  UNL d   1       1.737   0.409  -3.070  0.00  0.00     0.006 A 
ATOM      3  C4  UNL d   1       1.897  -0.732  -2.279  0.00  0.00     0.002 A 
ATOM      4  C5  UNL d   1       2.138  -0.616  -0.906  0.00  0.00    -0.080 A 
ATOM      5  C6  UNL d   1       2.281  -1.832  -0.040  0.00  0.00     0.076 C 
ATOM      6  C7  UNL d   1       2.243   0.660  -0.340  0.00  0.00     0.002 A 
ATOM      7  C8  UNL d   1       2.085   1.800  -1.130  0.00  0.00     0.006 A 
ENDROOT
BRANCH   1   8
ATOM      8  C1  UNL d   1       1.589   2.916  -3.338  0.00  0.00     0.054 C 
ATOM      9  C   UNL d   1       0.137   3.365  -3.265  0.00  0.00     0.018 C 
ENDBRANCH   1   8
TORSDOF 1
ENDMDL
