MODEL 1
REMARK minimizedAffinity 7.67677259
REMARK minimizedRMSD -1
REMARK  1 active torsions:
REMARK  status: ('A' for Active; 'I' for Inactive)
REMARK    1  A    between atoms: C1_2  and  C2_3 
ROOT
ATOM      1  C2  UNL d   1      -1.825  -1.516   1.568  0.00  0.00    -0.081 A 
ATOM      2  C3  UNL d   1      -1.207  -0.306   1.908  0.00  0.00     0.006 A 
ATOM      3  C4  UNL d   1       0.085  -0.295   2.437  0.00  0.00     0.002 A 
ATOM      4  C5  UNL d   1       0.785  -1.491   2.629  0.00  0.00    -0.080 A 
ATOM      5  C6  UNL d   1       2.184  -1.490   3.168  0.00  0.00     0.076 C 
ATOM      6  C7  UNL d   1       0.161  -2.701   2.306  0.00  0.00     0.002 A 
ATOM      7  C8  UNL d   1      -1.131  -2.714   1.777  0.00  0.00     0.006 A 
ENDROOT
BRANCH   1   8
ATOM      8  C1  UNL d   1      -3.193  -1.528   0.937  0.00  0.00     0.054 C 
ATOM      9  C   UNL d   1      -3.102  -1.566  -0.582  0.00  0.00     0.018 C 
ENDBRANCH   1   8
TORSDOF 1
ENDMDL
