MODEL 1
REMARK minimizedAffinity 2.54051399
REMARK minimizedRMSD -1
REMARK  0 active torsions:
REMARK  status: ('A' for Active; 'I' for Inactive)
ROOT
ATOM      1  C4' PXY d   1      -0.459  -4.770  -4.375  0.00  0.00     0.077 C 
ATOM      2  C1' PXY d   1      -6.000  -5.051  -5.999  0.00  0.00     0.077 C 
ATOM      3  C1  PXY d   1      -4.546  -4.990  -5.573  0.00  0.00    -0.082 A 
ATOM      4  C2  PXY d   1      -4.108  -3.947  -4.887  0.00  0.00     0.003 A 
ATOM      5  C3  PXY d   1      -2.789  -3.861  -4.523  0.00  0.00     0.003 A 
ATOM      6  C4  PXY d   1      -1.921  -4.878  -4.817  0.00  0.00    -0.082 A 
ATOM      7  C5  PXY d   1      -2.362  -5.951  -5.507  0.00  0.00     0.003 A 
ATOM      8  C6  PXY d   1      -3.696  -6.000  -5.904  0.00  0.00     0.003 A 
ENDROOT
TORSDOF 0
ENDMDL
