MODEL 1
REMARK minimizedAffinity 4.96909094
REMARK minimizedRMSD -1
REMARK  0 active torsions:
REMARK  status: ('A' for Active; 'I' for Inactive)
ROOT
ATOM      1  C4' PXY d   1      -1.429   5.998  -2.945  0.00  0.00     0.077 C 
ATOM      2  C1' PXY d   1       0.735   2.472   1.092  0.00  0.00     0.077 C 
ATOM      3  C1  PXY d   1       0.175   3.407   0.038  0.00  0.00    -0.082 A 
ATOM      4  C2  PXY d   1      -0.999   3.143  -0.513  0.00  0.00     0.003 A 
ATOM      5  C3  PXY d   1      -1.505   3.960  -1.491  0.00  0.00     0.003 A 
ATOM      6  C4  PXY d   1      -0.828   5.088  -1.870  0.00  0.00    -0.082 A 
ATOM      7  C5  PXY d   1       0.364   5.370  -1.305  0.00  0.00     0.003 A 
ATOM      8  C6  PXY d   1       0.881   4.506  -0.344  0.00  0.00     0.003 A 
ENDROOT
TORSDOF 0
ENDMDL
