MODEL 1
REMARK minimizedAffinity 17.6296101
REMARK minimizedRMSD -1
REMARK  0 active torsions:
REMARK  status: ('A' for Active; 'I' for Inactive)
ROOT
ATOM      1  C4' PXY d   1      -3.243   4.602  -2.228  0.00  0.00     0.077 C 
ATOM      2  C1' PXY d   1       2.224   4.799  -0.360  0.00  0.00     0.077 C 
ATOM      3  C1  PXY d   1       0.792   4.736  -0.856  0.00  0.00    -0.082 A 
ATOM      4  C2  PXY d   1       0.101   5.854  -1.002  0.00  0.00     0.003 A 
ATOM      5  C3  PXY d   1      -1.205   5.813  -1.418  0.00  0.00     0.003 A 
ATOM      6  C4  PXY d   1      -1.792   4.619  -1.739  0.00  0.00    -0.082 A 
ATOM      7  C5  PXY d   1      -1.090   3.474  -1.603  0.00  0.00     0.003 A 
ATOM      8  C6  PXY d   1       0.221   3.534  -1.139  0.00  0.00     0.003 A 
ENDROOT
TORSDOF 0
ENDMDL
