MODEL 1
REMARK minimizedAffinity 5.03929901
REMARK minimizedRMSD -1
REMARK  0 active torsions:
REMARK  status: ('A' for Active; 'I' for Inactive)
ROOT
ATOM      1  C4' PXY d   1       0.040   1.877   1.134  0.00  0.00     0.077 C 
ATOM      2  C1' PXY d   1      -0.146   5.997  -2.916  0.00  0.00     0.077 C 
ATOM      3  C1  PXY d   1      -0.110   4.917  -1.852  0.00  0.00    -0.082 A 
ATOM      4  C2  PXY d   1       1.014   4.684  -1.194  0.00  0.00     0.003 A 
ATOM      5  C3  PXY d   1       1.073   3.690  -0.252  0.00  0.00     0.003 A 
ATOM      6  C4  PXY d   1      -0.045   2.963   0.059  0.00  0.00    -0.082 A 
ATOM      7  C5  PXY d   1      -1.199   3.202  -0.600  0.00  0.00     0.003 A 
ATOM      8  C6  PXY d   1      -1.227   4.188  -1.582  0.00  0.00     0.003 A 
ENDROOT
TORSDOF 0
ENDMDL
