MODEL 1
REMARK minimizedAffinity 9.94848442
REMARK minimizedRMSD -1
REMARK  0 active torsions:
REMARK  status: ('A' for Active; 'I' for Inactive)
ROOT
ATOM      1  C4' PXY d   1      -0.745   5.988  -3.727  0.00  0.00     0.077 C 
ATOM      2  C1' PXY d   1      -0.002   2.347   0.700  0.00  0.00     0.077 C 
ATOM      3  C1  PXY d   1      -0.186   3.308  -0.458  0.00  0.00    -0.082 A 
ATOM      4  C2  PXY d   1      -1.400   3.535  -0.933  0.00  0.00     0.003 A 
ATOM      5  C3  PXY d   1      -1.580   4.376  -2.000  0.00  0.00     0.003 A 
ATOM      6  C4  PXY d   1      -0.514   5.033  -2.553  0.00  0.00    -0.082 A 
ATOM      7  C5  PXY d   1       0.727   4.815  -2.067  0.00  0.00     0.003 A 
ATOM      8  C6  PXY d   1       0.894   3.926  -1.009  0.00  0.00     0.003 A 
ENDROOT
TORSDOF 0
ENDMDL
