MODEL 1
REMARK minimizedAffinity 6.07287979
REMARK minimizedRMSD -1
REMARK  0 active torsions:
REMARK  status: ('A' for Active; 'I' for Inactive)
ROOT
ATOM      1  C4' PXY d   1      -1.972   5.579  -2.766  0.00  0.00     0.077 C 
ATOM      2  C1' PXY d   1       1.118   2.839   1.278  0.00  0.00     0.077 C 
ATOM      3  C1  PXY d   1       0.307   3.568   0.225  0.00  0.00    -0.082 A 
ATOM      4  C2  PXY d   1      -0.420   2.875  -0.637  0.00  0.00     0.003 A 
ATOM      5  C3  PXY d   1      -1.133   3.518  -1.616  0.00  0.00     0.003 A 
ATOM      6  C4  PXY d   1      -1.146   4.885  -1.680  0.00  0.00    -0.082 A 
ATOM      7  C5  PXY d   1      -0.415   5.599  -0.797  0.00  0.00     0.003 A 
ATOM      8  C6  PXY d   1       0.335   4.927   0.163  0.00  0.00     0.003 A 
ENDROOT
TORSDOF 0
ENDMDL
