MODEL 1
REMARK minimizedAffinity 6.44651842
REMARK minimizedRMSD -1
REMARK  0 active torsions:
REMARK  status: ('A' for Active; 'I' for Inactive)
ROOT
ATOM      1  C4' PXY d   1       0.312  -4.204  -4.095  0.00  0.00     0.077 C 
ATOM      2  C1' PXY d   1      -4.908  -5.798  -6.000  0.00  0.00     0.077 C 
ATOM      3  C1  PXY d   1      -3.534  -5.391  -5.504  0.00  0.00    -0.082 A 
ATOM      4  C2  PXY d   1      -3.423  -4.437  -4.593  0.00  0.00     0.003 A 
ATOM      5  C3  PXY d   1      -2.187  -4.036  -4.157  0.00  0.00     0.003 A 
ATOM      6  C4  PXY d   1      -1.055  -4.653  -4.618  0.00  0.00    -0.082 A 
ATOM      7  C5  PXY d   1      -1.161  -5.635  -5.539  0.00  0.00     0.003 A 
ATOM      8  C6  PXY d   1      -2.423  -6.000  -5.999  0.00  0.00     0.003 A 
ENDROOT
TORSDOF 0
ENDMDL
