MODEL 1
REMARK minimizedAffinity -1.31399536
REMARK minimizedRMSD -1
REMARK  2 active torsions:
REMARK  status: ('A' for Active; 'I' for Inactive)
REMARK    1  A    between atoms: C2'_3  and  C1'_4 
REMARK    2  A    between atoms: C1'_4  and  C1_5 
ROOT
ATOM      1  C1  I4B d   1       0.676   0.027  -2.314  0.00  0.00    -0.075 A 
ATOM      2  C2  I4B d   1       1.988   0.277  -2.630  0.00  0.00     0.003 A 
ATOM      3  C3  I4B d   1       2.691  -0.595  -3.496  0.00  0.00     0.002 A 
ATOM      4  C4  I4B d   1       2.064  -1.725  -3.978  0.00  0.00    -0.004 A 
ATOM      5  C5  I4B d   1       0.727  -1.965  -3.675  0.00  0.00     0.002 A 
ATOM      6  C6  I4B d   1       0.024  -1.077  -2.848  0.00  0.00     0.003 A 
ENDROOT
BRANCH   1   7
ATOM      7  C1' I4B d   1      -0.027   0.951  -1.371  0.00  0.00     0.060 C 
BRANCH   7   8
ATOM      8  C2' I4B d   1      -0.033   0.304  -0.001  0.00  0.00    -0.013 C 
ATOM      9  C4' I4B d   1       1.144   0.758   0.822  0.00  0.00     0.013 C 
ATOM     10  C3' I4B d   1      -1.328   0.652   0.670  0.00  0.00     0.013 C 
ENDBRANCH   7   8
ENDBRANCH   1   7
TORSDOF 2
ENDMDL
