MODEL 1
REMARK minimizedAffinity -3.72480845
REMARK minimizedRMSD -1
REMARK  2 active torsions:
REMARK  status: ('A' for Active; 'I' for Inactive)
REMARK    1  A    between atoms: C2'_3  and  C1'_4 
REMARK    2  A    between atoms: C1'_4  and  C1_5 
ROOT
ATOM      1  C1  I4B d   1       0.187   0.342  -1.310  0.00  0.00    -0.075 A 
ATOM      2  C2  I4B d   1      -1.149   0.650  -1.250  0.00  0.00     0.003 A 
ATOM      3  C3  I4B d   1      -1.804   0.743   0.002  0.00  0.00     0.002 A 
ATOM      4  C4  I4B d   1      -1.101   0.473   1.158  0.00  0.00    -0.004 A 
ATOM      5  C5  I4B d   1       0.259   0.183   1.097  0.00  0.00     0.002 A 
ATOM      6  C6  I4B d   1       0.910   0.130  -0.143  0.00  0.00     0.003 A 
ENDROOT
BRANCH   1   7
ATOM      7  C1' I4B d   1       0.839   0.220  -2.650  0.00  0.00     0.060 C 
BRANCH   7   8
ATOM      8  C2' I4B d   1       1.034  -1.254  -2.942  0.00  0.00    -0.013 C 
ATOM      9  C4' I4B d   1      -0.023  -1.768  -3.882  0.00  0.00     0.013 C 
ATOM     10  C3' I4B d   1       2.407  -1.434  -3.519  0.00  0.00     0.013 C 
ENDBRANCH   7   8
ENDBRANCH   1   7
TORSDOF 2
ENDMDL
