MODEL 1
REMARK minimizedAffinity -1.62812054
REMARK minimizedRMSD -1
REMARK  2 active torsions:
REMARK  status: ('A' for Active; 'I' for Inactive)
REMARK    1  A    between atoms: C2'_3  and  C1'_4 
REMARK    2  A    between atoms: C1'_4  and  C1_5 
ROOT
ATOM      1  C1  I4B d   1       0.877  -0.377  -1.403  0.00  0.00    -0.075 A 
ATOM      2  C2  I4B d   1       1.344   0.114  -2.597  0.00  0.00     0.003 A 
ATOM      3  C3  I4B d   1       1.605  -0.765  -3.676  0.00  0.00     0.002 A 
ATOM      4  C4  I4B d   1       1.434  -2.123  -3.502  0.00  0.00    -0.004 A 
ATOM      5  C5  I4B d   1       0.939  -2.617  -2.299  0.00  0.00     0.002 A 
ATOM      6  C6  I4B d   1       0.647  -1.738  -1.246  0.00  0.00     0.003 A 
ENDROOT
BRANCH   1   7
ATOM      7  C1' I4B d   1       0.644   0.576  -0.274  0.00  0.00     0.060 C 
BRANCH   7   8
ATOM      8  C2' I4B d   1      -0.512   0.047   0.552  0.00  0.00    -0.013 C 
ATOM      9  C4' I4B d   1      -0.411   0.500   1.984  0.00  0.00     0.013 C 
ATOM     10  C3' I4B d   1      -1.787   0.523  -0.078  0.00  0.00     0.013 C 
ENDBRANCH   7   8
ENDBRANCH   1   7
TORSDOF 2
ENDMDL
