MODEL 1
REMARK minimizedAffinity -2.06382847
REMARK minimizedRMSD -1
REMARK  2 active torsions:
REMARK  status: ('A' for Active; 'I' for Inactive)
REMARK    1  A    between atoms: C2'_3  and  C1'_4 
REMARK    2  A    between atoms: C1'_4  and  C1_5 
ROOT
ATOM      1  C1  I4B d   1       0.791   0.166  -0.050  0.00  0.00    -0.075 A 
ATOM      2  C2  I4B d   1       1.740   0.551   0.863  0.00  0.00     0.003 A 
ATOM      3  C3  I4B d   1       1.435   0.564   2.246  0.00  0.00     0.002 A 
ATOM      4  C4  I4B d   1       0.162   0.235   2.664  0.00  0.00    -0.004 A 
ATOM      5  C5  I4B d   1      -0.792  -0.178   1.738  0.00  0.00     0.002 A 
ATOM      6  C6  I4B d   1      -0.473  -0.224   0.374  0.00  0.00     0.003 A 
ENDROOT
BRANCH   1   7
ATOM      7  C1' I4B d   1       1.137   0.196  -1.506  0.00  0.00     0.060 C 
BRANCH   7   8
ATOM      8  C2' I4B d   1      -0.131  -0.071  -2.292  0.00  0.00    -0.013 C 
ATOM      9  C4' I4B d   1      -0.912   1.197  -2.514  0.00  0.00     0.013 C 
ATOM     10  C3' I4B d   1       0.258  -0.703  -3.595  0.00  0.00     0.013 C 
ENDBRANCH   7   8
ENDBRANCH   1   7
TORSDOF 2
ENDMDL
