MODEL 1
REMARK minimizedAffinity -2.28271794
REMARK minimizedRMSD -1
REMARK  2 active torsions:
REMARK  status: ('A' for Active; 'I' for Inactive)
REMARK    1  A    between atoms: C2'_3  and  C1'_4 
REMARK    2  A    between atoms: C1'_4  and  C1_5 
ROOT
ATOM      1  C1  I4B d   1      -0.085   0.379  -0.197  0.00  0.00    -0.075 A 
ATOM      2  C2  I4B d   1       1.138   0.233   0.408  0.00  0.00     0.003 A 
ATOM      3  C3  I4B d   1       1.221   0.030   1.807  0.00  0.00     0.002 A 
ATOM      4  C4  I4B d   1       0.067   0.031   2.564  0.00  0.00    -0.004 A 
ATOM      5  C5  I4B d   1      -1.174   0.157   1.946  0.00  0.00     0.002 A 
ATOM      6  C6  I4B d   1      -1.252   0.320   0.555  0.00  0.00     0.003 A 
ENDROOT
BRANCH   1   7
ATOM      7  C1' I4B d   1      -0.135   0.625  -1.672  0.00  0.00     0.060 C 
BRANCH   7   8
ATOM      8  C2' I4B d   1       0.787  -0.373  -2.342  0.00  0.00    -0.013 C 
ATOM      9  C4' I4B d   1       0.024  -1.285  -3.267  0.00  0.00     0.013 C 
ATOM     10  C3' I4B d   1       1.839   0.395  -3.086  0.00  0.00     0.013 C 
ENDBRANCH   7   8
ENDBRANCH   1   7
TORSDOF 2
ENDMDL
