MODEL 1
REMARK minimizedAffinity -1.87220001
REMARK minimizedRMSD -1
REMARK  2 active torsions:
REMARK  status: ('A' for Active; 'I' for Inactive)
REMARK    1  A    between atoms: C2'_3  and  C1'_4 
REMARK    2  A    between atoms: C1'_4  and  C1_5 
ROOT
ATOM      1  C1  I4B d   1       0.131   0.024  -0.814  0.00  0.00    -0.075 A 
ATOM      2  C2  I4B d   1       0.954   0.020   0.284  0.00  0.00     0.003 A 
ATOM      3  C3  I4B d   1       0.404   0.086   1.587  0.00  0.00     0.002 A 
ATOM      4  C4  I4B d   1      -0.961   0.205   1.743  0.00  0.00    -0.004 A 
ATOM      5  C5  I4B d   1      -1.796   0.186   0.629  0.00  0.00     0.002 A 
ATOM      6  C6  I4B d   1      -1.248   0.082  -0.657  0.00  0.00     0.003 A 
ENDROOT
BRANCH   1   7
ATOM      7  C1' I4B d   1       0.747  -0.014  -2.177  0.00  0.00     0.060 C 
BRANCH   7   8
ATOM      8  C2' I4B d   1       1.169  -1.441  -2.459  0.00  0.00    -0.013 C 
ATOM      9  C4' I4B d   1       0.199  -2.123  -3.388  0.00  0.00     0.013 C 
ATOM     10  C3' I4B d   1       2.549  -1.409  -3.045  0.00  0.00     0.013 C 
ENDBRANCH   7   8
ENDBRANCH   1   7
TORSDOF 2
ENDMDL
