MODEL 1
REMARK minimizedAffinity -2.65400553
REMARK minimizedRMSD -1
REMARK  2 active torsions:
REMARK  status: ('A' for Active; 'I' for Inactive)
REMARK    1  A    between atoms: C2'_3  and  C1'_4 
REMARK    2  A    between atoms: C1'_4  and  C1_5 
ROOT
ATOM      1  C1  I4B d   1       0.421   0.017  -1.584  0.00  0.00    -0.075 A 
ATOM      2  C2  I4B d   1       1.393   0.606  -2.353  0.00  0.00     0.003 A 
ATOM      3  C3  I4B d   1       1.818  -0.006  -3.557  0.00  0.00     0.002 A 
ATOM      4  C4  I4B d   1       1.283  -1.223  -3.927  0.00  0.00    -0.004 A 
ATOM      5  C5  I4B d   1       0.280  -1.807  -3.158  0.00  0.00     0.002 A 
ATOM      6  C6  I4B d   1      -0.162  -1.178  -1.985  0.00  0.00     0.003 A 
ENDROOT
BRANCH   1   7
ATOM      7  C1' I4B d   1       0.020   0.674  -0.301  0.00  0.00     0.060 C 
BRANCH   7   8
ATOM      8  C2' I4B d   1       0.086  -0.368   0.797  0.00  0.00    -0.013 C 
ATOM      9  C4' I4B d   1       1.500  -0.840   1.015  0.00  0.00     0.013 C 
ATOM     10  C3' I4B d   1      -0.480   0.239   2.046  0.00  0.00     0.013 C 
ENDBRANCH   7   8
ENDBRANCH   1   7
TORSDOF 2
ENDMDL
