MODEL 1
REMARK minimizedAffinity -3.82364345
REMARK minimizedRMSD -1
REMARK  2 active torsions:
REMARK  status: ('A' for Active; 'I' for Inactive)
REMARK    1  A    between atoms: C2'_3  and  C1'_4 
REMARK    2  A    between atoms: C1'_4  and  C1_5 
ROOT
ATOM      1  C1  I4B d   1       0.244   0.183   0.012  0.00  0.00    -0.075 A 
ATOM      2  C2  I4B d   1      -0.823   0.352   0.860  0.00  0.00     0.003 A 
ATOM      3  C3  I4B d   1      -0.637   0.284   2.262  0.00  0.00     0.002 A 
ATOM      4  C4  I4B d   1       0.614  -0.003   2.768  0.00  0.00    -0.004 A 
ATOM      5  C5  I4B d   1       1.698  -0.151   1.909  0.00  0.00     0.002 A 
ATOM      6  C6  I4B d   1       1.515  -0.045   0.522  0.00  0.00     0.003 A 
ENDROOT
BRANCH   1   7
ATOM      7  C1' I4B d   1       0.006   0.228  -1.464  0.00  0.00     0.060 C 
BRANCH   7   8
ATOM      8  C2' I4B d   1       0.830  -0.870  -2.103  0.00  0.00    -0.013 C 
ATOM      9  C4' I4B d   1      -0.050  -1.906  -2.751  0.00  0.00     0.013 C 
ATOM     10  C3' I4B d   1       1.748  -0.236  -3.106  0.00  0.00     0.013 C 
ENDBRANCH   7   8
ENDBRANCH   1   7
TORSDOF 2
ENDMDL
