MODEL 1
REMARK minimizedAffinity -4.21787357
REMARK minimizedRMSD -1
REMARK  0 active torsions:
REMARK  status: ('A' for Active; 'I' for Inactive)
ROOT
ATOM      1  C   UNL d   1      -0.961   0.449  -1.882  0.00  0.00     0.077 C 
ATOM      2  C1  UNL d   1      -0.049   0.103  -0.742  0.00  0.00    -0.074 A 
ATOM      3  C2  UNL d   1      -0.430   0.344   0.582  0.00  0.00    -0.005 A 
ATOM      4  C3  UNL d   1       0.425   0.009   1.632  0.00  0.00     0.006 A 
ATOM      5  C4  UNL d   1       1.667  -0.570   1.369  0.00  0.00    -0.005 A 
ATOM      6  C5  UNL d   1       2.064  -0.819   0.051  0.00  0.00    -0.074 A 
ATOM      7  C6  UNL d   1       3.392  -1.450  -0.248  0.00  0.00     0.077 C 
ATOM      8  C7  UNL d   1       1.197  -0.486  -0.998  0.00  0.00    -0.001 A 
ENDROOT
TORSDOF 0
ENDMDL
