MODEL 1
REMARK minimizedAffinity -3.97056937
REMARK minimizedRMSD -1
REMARK  0 active torsions:
REMARK  status: ('A' for Active; 'I' for Inactive)
ROOT
ATOM      1  C   UNL d   1       1.896  -0.604   2.720  0.00  0.00     0.077 C 
ATOM      2  C1  UNL d   1       0.676  -0.463   1.859  0.00  0.00    -0.074 A 
ATOM      3  C2  UNL d   1      -0.592  -0.787   2.352  0.00  0.00    -0.005 A 
ATOM      4  C3  UNL d   1      -1.720  -0.642   1.543  0.00  0.00     0.006 A 
ATOM      5  C4  UNL d   1      -1.590  -0.172   0.236  0.00  0.00    -0.005 A 
ATOM      6  C5  UNL d   1      -0.331   0.158  -0.274  0.00  0.00    -0.074 A 
ATOM      7  C6  UNL d   1      -0.175   0.673  -1.674  0.00  0.00     0.077 C 
ATOM      8  C7  UNL d   1       0.796   0.016   0.547  0.00  0.00    -0.001 A 
ENDROOT
TORSDOF 0
ENDMDL
