MODEL 1
REMARK minimizedAffinity -3.28994989
REMARK minimizedRMSD -1
REMARK  0 active torsions:
REMARK  status: ('A' for Active; 'I' for Inactive)
ROOT
ATOM      1  C   UNL d   1       1.162  -1.469  -1.886  0.00  0.00     0.077 C 
ATOM      2  C1  UNL d   1       0.539  -1.035  -0.593  0.00  0.00    -0.074 A 
ATOM      3  C2  UNL d   1      -0.787  -0.592  -0.547  0.00  0.00    -0.005 A 
ATOM      4  C3  UNL d   1      -1.356  -0.200   0.665  0.00  0.00     0.006 A 
ATOM      5  C4  UNL d   1      -0.607  -0.247   1.841  0.00  0.00    -0.005 A 
ATOM      6  C5  UNL d   1       0.720  -0.687   1.815  0.00  0.00    -0.074 A 
ATOM      7  C6  UNL d   1       1.536  -0.753   3.071  0.00  0.00     0.077 C 
ATOM      8  C7  UNL d   1       1.283  -1.086   0.594  0.00  0.00    -0.001 A 
ENDROOT
TORSDOF 0
ENDMDL
