MODEL 1
REMARK minimizedAffinity -3.80121756
REMARK minimizedRMSD -1
REMARK  0 active torsions:
REMARK  status: ('A' for Active; 'I' for Inactive)
ROOT
ATOM      1  C   UNL d   1      -0.956   1.006  -1.478  0.00  0.00     0.077 C 
ATOM      2  C1  UNL d   1       0.042   0.102  -0.817  0.00  0.00    -0.074 A 
ATOM      3  C2  UNL d   1       0.786  -0.816  -1.565  0.00  0.00    -0.005 A 
ATOM      4  C3  UNL d   1       1.718  -1.643  -0.937  0.00  0.00     0.006 A 
ATOM      5  C4  UNL d   1       1.914  -1.561   0.442  0.00  0.00    -0.005 A 
ATOM      6  C5  UNL d   1       1.179  -0.649   1.206  0.00  0.00    -0.074 A 
ATOM      7  C6  UNL d   1       1.385  -0.541   2.688  0.00  0.00     0.077 C 
ATOM      8  C7  UNL d   1       0.250   0.184   0.567  0.00  0.00    -0.001 A 
ENDROOT
TORSDOF 0
ENDMDL
