MODEL 1
REMARK minimizedAffinity -4.57800627
REMARK minimizedRMSD -1
REMARK  0 active torsions:
REMARK  status: ('A' for Active; 'I' for Inactive)
ROOT
ATOM      1  C   UNL d   1       1.292  -1.109  -2.062  0.00  0.00     0.077 C 
ATOM      2  C1  UNL d   1       0.775  -0.680  -0.722  0.00  0.00    -0.074 A 
ATOM      3  C2  UNL d   1      -0.431   0.020  -0.607  0.00  0.00    -0.005 A 
ATOM      4  C3  UNL d   1      -0.904   0.405   0.647  0.00  0.00     0.006 A 
ATOM      5  C4  UNL d   1      -0.179   0.093   1.798  0.00  0.00    -0.005 A 
ATOM      6  C5  UNL d   1       1.028  -0.607   1.703  0.00  0.00    -0.074 A 
ATOM      7  C6  UNL d   1       1.815  -0.958   2.930  0.00  0.00     0.077 C 
ATOM      8  C7  UNL d   1       1.494  -0.996   0.439  0.00  0.00    -0.001 A 
ENDROOT
TORSDOF 0
ENDMDL
