MODEL 1
REMARK minimizedAffinity -5.51395035
REMARK minimizedRMSD -1
REMARK  0 active torsions:
REMARK  status: ('A' for Active; 'I' for Inactive)
ROOT
ATOM      1  C   UNL d   1       1.760  -1.874  -1.599  0.00  0.00     0.077 C 
ATOM      2  C1  UNL d   1       1.173  -1.167  -0.413  0.00  0.00    -0.074 A 
ATOM      3  C2  UNL d   1       1.990  -0.488   0.496  0.00  0.00    -0.005 A 
ATOM      4  C3  UNL d   1       1.429   0.173   1.589  0.00  0.00     0.006 A 
ATOM      5  C4  UNL d   1       0.047   0.161   1.783  0.00  0.00    -0.005 A 
ATOM      6  C5  UNL d   1      -0.786  -0.512   0.884  0.00  0.00    -0.074 A 
ATOM      7  C6  UNL d   1      -2.274  -0.526   1.073  0.00  0.00     0.077 C 
ATOM      8  C7  UNL d   1      -0.215  -1.168  -0.216  0.00  0.00    -0.001 A 
ENDROOT
TORSDOF 0
ENDMDL
