MODEL 1
REMARK minimizedAffinity 13.6431713
REMARK minimizedRMSD -1
REMARK  0 active torsions:
REMARK  status: ('A' for Active; 'I' for Inactive)
ROOT
ATOM      1  C   UNL d   1       5.260   1.641   2.612  0.00  0.00    -0.002 A 
ATOM      2  C1  UNL d   1       5.494   2.312   3.804  0.00  0.00     0.010 A 
ATOM      3  C2  UNL d   1       5.178   3.667   3.930  0.00  0.00     0.041 A 
ATOM      4  C3  UNL d   1       4.617   4.341   2.828  0.00  0.00    -0.075 A 
ATOM      5  S   UNL d   1       4.149   5.999   2.752  0.00  0.00     0.015 SA
ATOM      6  C4  UNL d   1       3.628   5.855   1.136  0.00  0.00     0.022 A 
ATOM      7  C5  UNL d   1       3.799   4.580   0.650  0.00  0.00     0.026 A 
ATOM      8  C6  UNL d   1       4.371   3.686   1.618  0.00  0.00    -0.082 A 
ATOM      9  C7  UNL d   1       4.703   2.313   1.521  0.00  0.00     0.045 A 
ENDROOT
TORSDOF 0
ENDMDL
