MODEL 1
REMARK minimizedAffinity 13.5728111
REMARK minimizedRMSD -1
REMARK  0 active torsions:
REMARK  status: ('A' for Active; 'I' for Inactive)
ROOT
ATOM      1  C   UNL d   1       1.433   0.836   2.503  0.00  0.00    -0.002 A 
ATOM      2  C1  UNL d   1       1.222  -0.416   3.062  0.00  0.00     0.010 A 
ATOM      3  C2  UNL d   1      -0.066  -0.949   3.144  0.00  0.00     0.041 A 
ATOM      4  C3  UNL d   1      -1.148  -0.196   2.647  0.00  0.00    -0.075 A 
ATOM      5  S   UNL d   1      -2.812  -0.648   2.639  0.00  0.00     0.015 SA
ATOM      6  C4  UNL d   1      -3.281   0.811   1.892  0.00  0.00     0.022 A 
ATOM      7  C5  UNL d   1      -2.208   1.634   1.648  0.00  0.00     0.026 A 
ATOM      8  C6  UNL d   1      -0.961   1.067   2.078  0.00  0.00    -0.082 A 
ATOM      9  C7  UNL d   1       0.357   1.580   2.011  0.00  0.00     0.045 A 
ENDROOT
TORSDOF 0
ENDMDL
