MODEL 1
REMARK minimizedAffinity 14.8328753
REMARK minimizedRMSD -1
REMARK  0 active torsions:
REMARK  status: ('A' for Active; 'I' for Inactive)
ROOT
ATOM      1  C   UNL d   1      -1.500  -3.360  -3.848  0.00  0.00    -0.002 A 
ATOM      2  C1  UNL d   1      -1.568  -3.373  -5.234  0.00  0.00     0.010 A 
ATOM      3  C2  UNL d   1      -1.119  -2.279  -5.977  0.00  0.00     0.041 A 
ATOM      4  C3  UNL d   1      -0.593  -1.163  -5.298  0.00  0.00    -0.075 A 
ATOM      5  S   UNL d   1       0.017   0.289  -6.000  0.00  0.00     0.015 SA
ATOM      6  C4  UNL d   1       0.383   0.960  -4.477  0.00  0.00     0.022 A 
ATOM      7  C5  UNL d   1       0.054   0.111  -3.446  0.00  0.00     0.026 A 
ATOM      8  C6  UNL d   1      -0.513  -1.127  -3.903  0.00  0.00    -0.082 A 
ATOM      9  C7  UNL d   1      -0.978  -2.250  -3.177  0.00  0.00     0.045 A 
ENDROOT
TORSDOF 0
ENDMDL
