MODEL 1
REMARK minimizedAffinity 10.995945
REMARK minimizedRMSD -1
REMARK  0 active torsions:
REMARK  status: ('A' for Active; 'I' for Inactive)
ROOT
ATOM      1  C   UNL d   1      -2.150  -6.000  -4.217  0.00  0.00    -0.002 A 
ATOM      2  C1  UNL d   1      -1.989  -5.294  -5.401  0.00  0.00     0.010 A 
ATOM      3  C2  UNL d   1      -1.559  -3.966  -5.383  0.00  0.00     0.041 A 
ATOM      4  C3  UNL d   1      -1.287  -3.354  -4.143  0.00  0.00    -0.075 A 
ATOM      5  S   UNL d   1      -0.748  -1.738  -3.878  0.00  0.00     0.015 SA
ATOM      6  C4  UNL d   1      -0.717  -1.947  -2.187  0.00  0.00     0.022 A 
ATOM      7  C5  UNL d   1      -1.106  -3.213  -1.816  0.00  0.00     0.026 A 
ATOM      8  C6  UNL d   1      -1.441  -4.045  -2.938  0.00  0.00    -0.082 A 
ATOM      9  C7  UNL d   1      -1.880  -5.390  -2.989  0.00  0.00     0.045 A 
ENDROOT
TORSDOF 0
ENDMDL
