MODEL 1
REMARK minimizedAffinity 8.47535515
REMARK minimizedRMSD -1
REMARK  0 active torsions:
REMARK  status: ('A' for Active; 'I' for Inactive)
ROOT
ATOM      1  C   UNL d   1       2.040  -0.745   3.953  0.00  0.00    -0.002 A 
ATOM      2  C1  UNL d   1       1.625  -1.903   3.311  0.00  0.00     0.010 A 
ATOM      3  C2  UNL d   1       0.469  -1.906   2.528  0.00  0.00     0.041 A 
ATOM      4  C3  UNL d   1      -0.270  -0.713   2.400  0.00  0.00    -0.075 A 
ATOM      5  S   UNL d   1      -1.717  -0.479   1.493  0.00  0.00     0.015 SA
ATOM      6  C4  UNL d   1      -1.818   1.163   1.936  0.00  0.00     0.022 A 
ATOM      7  C5  UNL d   1      -0.782   1.541   2.756  0.00  0.00     0.026 A 
ATOM      8  C6  UNL d   1       0.129   0.466   3.036  0.00  0.00    -0.082 A 
ATOM      9  C7  UNL d   1       1.305   0.436   3.823  0.00  0.00     0.045 A 
ENDROOT
TORSDOF 0
ENDMDL
