MODEL 1
REMARK minimizedAffinity 25.3338623
REMARK minimizedRMSD -1
REMARK  0 active torsions:
REMARK  status: ('A' for Active; 'I' for Inactive)
ROOT
ATOM      1  C   UNL d   1      -2.108  -2.133  -1.913  0.00  0.00    -0.002 A 
ATOM      2  C1  UNL d   1      -0.908  -2.130  -1.218  0.00  0.00     0.010 A 
ATOM      3  C2  UNL d   1       0.280  -1.763  -1.853  0.00  0.00     0.041 A 
ATOM      4  C3  UNL d   1       0.240  -1.395  -3.213  0.00  0.00    -0.075 A 
ATOM      5  S   UNL d   1       1.569  -0.908  -4.197  0.00  0.00     0.015 SA
ATOM      6  C4  UNL d   1       0.574  -0.693  -5.564  0.00  0.00     0.022 A 
ATOM      7  C5  UNL d   1      -0.742  -0.981  -5.294  0.00  0.00     0.026 A 
ATOM      8  C6  UNL d   1      -0.957  -1.390  -3.934  0.00  0.00    -0.082 A 
ATOM      9  C7  UNL d   1      -2.144  -1.767  -3.261  0.00  0.00     0.045 A 
ENDROOT
TORSDOF 0
ENDMDL
