MODEL 1
REMARK minimizedAffinity 9.33350563
REMARK minimizedRMSD -1
REMARK  0 active torsions:
REMARK  status: ('A' for Active; 'I' for Inactive)
ROOT
ATOM      1  C   UNL d   1       1.265  -1.902   3.009  0.00  0.00    -0.002 A 
ATOM      2  C1  UNL d   1       0.670  -3.072   3.460  0.00  0.00     0.010 A 
ATOM      3  C2  UNL d   1       1.320  -3.888   4.388  0.00  0.00     0.041 A 
ATOM      4  C3  UNL d   1       2.590  -3.504   4.861  0.00  0.00    -0.075 A 
ATOM      5  S   UNL d   1       3.573  -4.347   6.000  0.00  0.00     0.015 SA
ATOM      6  C4  UNL d   1       4.806  -3.173   5.916  0.00  0.00     0.022 A 
ATOM      7  C5  UNL d   1       4.492  -2.157   5.045  0.00  0.00     0.026 A 
ATOM      8  C6  UNL d   1       3.210  -2.331   4.423  0.00  0.00    -0.082 A 
ATOM      9  C7  UNL d   1       2.525  -1.525   3.481  0.00  0.00     0.045 A 
ENDROOT
TORSDOF 0
ENDMDL
