MODEL 1
REMARK minimizedAffinity 13.0689669
REMARK minimizedRMSD -1
REMARK  0 active torsions:
REMARK  status: ('A' for Active; 'I' for Inactive)
ROOT
ATOM      1  C   UNL d   1       1.572  -1.357   3.359  0.00  0.00    -0.002 A 
ATOM      2  C1  UNL d   1       2.288  -0.265   3.828  0.00  0.00     0.010 A 
ATOM      3  C2  UNL d   1       3.402  -0.447   4.650  0.00  0.00     0.041 A 
ATOM      4  C3  UNL d   1       3.790  -1.757   4.993  0.00  0.00    -0.075 A 
ATOM      5  S   UNL d   1       5.122  -2.221   5.985  0.00  0.00     0.015 SA
ATOM      6  C4  UNL d   1       4.772  -3.879   5.808  0.00  0.00     0.022 A 
ATOM      7  C5  UNL d   1       3.669  -4.092   5.015  0.00  0.00     0.026 A 
ATOM      8  C6  UNL d   1       3.085  -2.872   4.532  0.00  0.00    -0.082 A 
ATOM      9  C7  UNL d   1       1.959  -2.655   3.702  0.00  0.00     0.045 A 
ENDROOT
TORSDOF 0
ENDMDL
