MODEL 1
REMARK minimizedAffinity 19.0117283
REMARK minimizedRMSD -1
REMARK  0 active torsions:
REMARK  status: ('A' for Active; 'I' for Inactive)
ROOT
ATOM      1  C   UNL d   1      -6.000   5.977  -1.284  0.00  0.00    -0.002 A 
ATOM      2  C1  UNL d   1      -5.993   5.914   0.103  0.00  0.00     0.010 A 
ATOM      3  C2  UNL d   1      -5.988   4.681   0.758  0.00  0.00     0.041 A 
ATOM      4  C3  UNL d   1      -5.988   3.501  -0.011  0.00  0.00    -0.075 A 
ATOM      5  S   UNL d   1      -5.981   1.879   0.574  0.00  0.00     0.015 SA
ATOM      6  C4  UNL d   1      -5.986   1.231  -1.002  0.00  0.00     0.022 A 
ATOM      7  C5  UNL d   1      -5.993   2.214  -1.964  0.00  0.00     0.026 A 
ATOM      8  C6  UNL d   1      -5.994   3.538  -1.408  0.00  0.00    -0.082 A 
ATOM      9  C7  UNL d   1      -6.000   4.804  -2.043  0.00  0.00     0.045 A 
ENDROOT
TORSDOF 0
ENDMDL
