MODEL 1
REMARK minimizedAffinity 13.1602936
REMARK minimizedRMSD -1
REMARK  0 active torsions:
REMARK  status: ('A' for Active; 'I' for Inactive)
ROOT
ATOM      1  C   UNL d   1       1.514  -2.531   2.959  0.00  0.00    -0.002 A 
ATOM      2  C1  UNL d   1       2.543  -3.374   3.356  0.00  0.00     0.010 A 
ATOM      3  C2  UNL d   1       2.315  -4.380   4.296  0.00  0.00     0.041 A 
ATOM      4  C3  UNL d   1       1.022  -4.529   4.835  0.00  0.00    -0.075 A 
ATOM      5  S   UNL d   1       0.508  -5.691   6.000  0.00  0.00     0.015 SA
ATOM      6  C4  UNL d   1      -1.090  -5.098   5.998  0.00  0.00     0.022 A 
ATOM      7  C5  UNL d   1      -1.245  -4.039   5.136  0.00  0.00     0.026 A 
ATOM      8  C6  UNL d   1      -0.031  -3.693   4.451  0.00  0.00    -0.082 A 
ATOM      9  C7  UNL d   1       0.232  -2.682   3.496  0.00  0.00     0.045 A 
ENDROOT
TORSDOF 0
ENDMDL
