MODEL 1
REMARK minimizedAffinity -0.0753707737
REMARK minimizedRMSD -1
REMARK  0 active torsions:
REMARK  status: ('A' for Active; 'I' for Inactive)
ROOT
ATOM      1  O1  BZF d   1      -0.707  -1.456   3.465  0.00  0.00    -0.204 OA
ATOM      2  C2  BZF d   1      -1.951  -0.966   3.116  0.00  0.00     0.174 A 
ATOM      3  C3  BZF d   1      -1.832   0.143   2.358  0.00  0.00    -0.012 A 
ATOM      4  C3A BZF d   1      -0.426   0.307   2.148  0.00  0.00    -0.107 A 
ATOM      5  C4  BZF d   1       0.320   1.221   1.461  0.00  0.00     0.055 A 
ATOM      6  C5  BZF d   1       1.676   1.142   1.515  0.00  0.00    -0.016 A 
ATOM      7  C6  BZF d   1       2.317   0.167   2.250  0.00  0.00     0.022 A 
ATOM      8  C7  BZF d   1       1.619  -0.765   2.945  0.00  0.00     0.029 A 
ATOM      9  C7A BZF d   1       0.249  -0.707   2.865  0.00  0.00     0.058 A 
ENDROOT
TORSDOF 0
ENDMDL
