MODEL 1
REMARK minimizedAffinity 5.8555994
REMARK minimizedRMSD -1
REMARK  0 active torsions:
REMARK  status: ('A' for Active; 'I' for Inactive)
ROOT
ATOM      1  O1  BZF d   1      -2.608   0.107  -1.439  0.00  0.00    -0.204 OA
ATOM      2  C2  BZF d   1      -3.056   0.498  -0.192  0.00  0.00     0.174 A 
ATOM      3  C3  BZF d   1      -2.625  -0.355   0.760  0.00  0.00    -0.012 A 
ATOM      4  C3A BZF d   1      -1.785  -1.289   0.076  0.00  0.00    -0.107 A 
ATOM      5  C4  BZF d   1      -1.052  -2.367   0.484  0.00  0.00     0.055 A 
ATOM      6  C5  BZF d   1      -0.400  -3.112  -0.446  0.00  0.00    -0.016 A 
ATOM      7  C6  BZF d   1      -0.462  -2.812  -1.791  0.00  0.00     0.022 A 
ATOM      8  C7  BZF d   1      -1.171  -1.750  -2.244  0.00  0.00     0.029 A 
ATOM      9  C7A BZF d   1      -1.805  -0.975  -1.303  0.00  0.00     0.058 A 
ENDROOT
TORSDOF 0
ENDMDL
