MODEL 1
REMARK minimizedAffinity 0.797513962
REMARK minimizedRMSD -1
REMARK  0 active torsions:
REMARK  status: ('A' for Active; 'I' for Inactive)
ROOT
ATOM      1  O1  BZF d   1      -0.254   0.437   0.779  0.00  0.00    -0.204 OA
ATOM      2  C2  BZF d   1       0.641   0.280   1.820  0.00  0.00     0.174 A 
ATOM      3  C3  BZF d   1       0.001   0.284   3.007  0.00  0.00    -0.012 A 
ATOM      4  C3A BZF d   1      -1.391   0.361   2.683  0.00  0.00    -0.107 A 
ATOM      5  C4  BZF d   1      -2.530   0.384   3.435  0.00  0.00     0.055 A 
ATOM      6  C5  BZF d   1      -3.729   0.538   2.814  0.00  0.00    -0.016 A 
ATOM      7  C6  BZF d   1      -3.825   0.677   1.445  0.00  0.00     0.022 A 
ATOM      8  C7  BZF d   1      -2.723   0.654   0.656  0.00  0.00     0.029 A 
ATOM      9  C7A BZF d   1      -1.513   0.466   1.278  0.00  0.00     0.058 A 
ENDROOT
TORSDOF 0
ENDMDL
