MODEL 1
REMARK minimizedAffinity 8.48202705
REMARK minimizedRMSD -1
REMARK  0 active torsions:
REMARK  status: ('A' for Active; 'I' for Inactive)
ROOT
ATOM      1  O1  BZF d   1      -2.236   1.200   1.166  0.00  0.00    -0.204 OA
ATOM      2  C2  BZF d   1      -3.247   0.286   1.390  0.00  0.00     0.174 A 
ATOM      3  C3  BZF d   1      -2.800  -0.749   2.131  0.00  0.00    -0.012 A 
ATOM      4  C3A BZF d   1      -1.448  -0.418   2.463  0.00  0.00    -0.107 A 
ATOM      5  C4  BZF d   1      -0.481  -1.044   3.195  0.00  0.00     0.055 A 
ATOM      6  C5  BZF d   1       0.758  -0.490   3.265  0.00  0.00    -0.016 A 
ATOM      7  C6  BZF d   1       1.065   0.686   2.613  0.00  0.00     0.022 A 
ATOM      8  C7  BZF d   1       0.137   1.347   1.879  0.00  0.00     0.029 A 
ATOM      9  C7A BZF d   1      -1.125   0.806   1.833  0.00  0.00     0.058 A 
ENDROOT
TORSDOF 0
ENDMDL
