MODEL 1
REMARK minimizedAffinity 2.67554116
REMARK minimizedRMSD -1
REMARK  0 active torsions:
REMARK  status: ('A' for Active; 'I' for Inactive)
ROOT
ATOM      1  O1  BZF d   1      -0.233   0.980  -0.716  0.00  0.00    -0.204 OA
ATOM      2  C2  BZF d   1      -1.599   0.940  -0.916  0.00  0.00     0.174 A 
ATOM      3  C3  BZF d   1      -2.233   0.518   0.198  0.00  0.00    -0.012 A 
ATOM      4  C3A BZF d   1      -1.205   0.367   1.181  0.00  0.00    -0.107 A 
ATOM      5  C4  BZF d   1      -1.210  -0.011   2.493  0.00  0.00     0.055 A 
ATOM      6  C5  BZF d   1      -0.026  -0.127   3.152  0.00  0.00    -0.016 A 
ATOM      7  C6  BZF d   1       1.179   0.122   2.528  0.00  0.00     0.022 A 
ATOM      8  C7  BZF d   1       1.233   0.505   1.229  0.00  0.00     0.029 A 
ATOM      9  C7A BZF d   1       0.037   0.655   0.571  0.00  0.00     0.058 A 
ENDROOT
TORSDOF 0
ENDMDL
