MODEL 1
REMARK minimizedAffinity -2.62069225
REMARK minimizedRMSD -1
REMARK  0 active torsions:
REMARK  status: ('A' for Active; 'I' for Inactive)
ROOT
ATOM      1  O1  BZF d   1      -1.710   0.471   0.530  0.00  0.00    -0.204 OA
ATOM      2  C2  BZF d   1      -3.013   0.760   0.175  0.00  0.00     0.174 A 
ATOM      3  C3  BZF d   1      -3.875   0.308   1.108  0.00  0.00    -0.012 A 
ATOM      4  C3A BZF d   1      -3.055  -0.220   2.154  0.00  0.00    -0.107 A 
ATOM      5  C4  BZF d   1      -3.328  -0.799   3.361  0.00  0.00     0.055 A 
ATOM      6  C5  BZF d   1      -2.301  -1.273   4.114  0.00  0.00    -0.016 A 
ATOM      7  C6  BZF d   1      -0.991  -1.191   3.689  0.00  0.00     0.022 A 
ATOM      8  C7  BZF d   1      -0.670  -0.621   2.502  0.00  0.00     0.029 A 
ATOM      9  C7A BZF d   1      -1.703  -0.111   1.754  0.00  0.00     0.058 A 
ENDROOT
TORSDOF 0
ENDMDL
