MODEL 1
REMARK minimizedAffinity -5.32304001
REMARK minimizedRMSD -1
REMARK  0 active torsions:
REMARK  status: ('A' for Active; 'I' for Inactive)
ROOT
ATOM      1  O1  BZF d   1      -1.435   0.172   1.301  0.00  0.00    -0.204 OA
ATOM      2  C2  BZF d   1      -0.066   0.308   1.174  0.00  0.00     0.174 A 
ATOM      3  C3  BZF d   1       0.554   0.018   2.337  0.00  0.00    -0.012 A 
ATOM      4  C3A BZF d   1      -0.487  -0.410   3.221  0.00  0.00    -0.107 A 
ATOM      5  C4  BZF d   1      -0.499  -0.844   4.516  0.00  0.00     0.055 A 
ATOM      6  C5  BZF d   1      -1.691  -1.114   5.111  0.00  0.00    -0.016 A 
ATOM      7  C6  BZF d   1      -2.888  -0.956   4.443  0.00  0.00     0.022 A 
ATOM      8  C7  BZF d   1      -2.926  -0.533   3.156  0.00  0.00     0.029 A 
ATOM      9  C7A BZF d   1      -1.721  -0.290   2.542  0.00  0.00     0.058 A 
ENDROOT
TORSDOF 0
ENDMDL
