MODEL 1
REMARK minimizedAffinity 3.20247674
REMARK minimizedRMSD -1
REMARK  0 active torsions:
REMARK  status: ('A' for Active; 'I' for Inactive)
ROOT
ATOM      1  O1  BZF d   1      -0.193  -0.294   3.877  0.00  0.00    -0.204 OA
ATOM      2  C2  BZF d   1       0.932  -0.407   3.083  0.00  0.00     0.174 A 
ATOM      3  C3  BZF d   1       0.616  -0.253   1.781  0.00  0.00    -0.012 A 
ATOM      4  C3A BZF d   1      -0.780   0.063   1.767  0.00  0.00    -0.107 A 
ATOM      5  C4  BZF d   1      -1.669   0.342   0.770  0.00  0.00     0.055 A 
ATOM      6  C5  BZF d   1      -2.977   0.534   1.085  0.00  0.00    -0.016 A 
ATOM      7  C6  BZF d   1      -3.430   0.450   2.386  0.00  0.00     0.022 A 
ATOM      8  C7  BZF d   1      -2.584   0.181   3.410  0.00  0.00     0.029 A 
ATOM      9  C7A BZF d   1      -1.256   0.018   3.098  0.00  0.00     0.058 A 
ENDROOT
TORSDOF 0
ENDMDL
