MODEL 1
REMARK minimizedAffinity 6.45854998
REMARK minimizedRMSD -1
REMARK  0 active torsions:
REMARK  status: ('A' for Active; 'I' for Inactive)
ROOT
ATOM      1  O1  BZF d   1      -2.745   0.282  -0.746  0.00  0.00    -0.204 OA
ATOM      2  C2  BZF d   1      -1.593  -0.065  -1.424  0.00  0.00     0.174 A 
ATOM      3  C3  BZF d   1      -0.544  -0.137  -0.579  0.00  0.00    -0.012 A 
ATOM      4  C3A BZF d   1      -1.092   0.095   0.722  0.00  0.00    -0.107 A 
ATOM      5  C4  BZF d   1      -0.551   0.135   1.975  0.00  0.00     0.055 A 
ATOM      6  C5  BZF d   1      -1.346   0.460   3.028  0.00  0.00    -0.016 A 
ATOM      7  C6  BZF d   1      -2.683   0.756   2.864  0.00  0.00     0.022 A 
ATOM      8  C7  BZF d   1      -3.266   0.725   1.640  0.00  0.00     0.029 A 
ATOM      9  C7A BZF d   1      -2.473   0.365   0.579  0.00  0.00     0.058 A 
ENDROOT
TORSDOF 0
ENDMDL
