MODEL 1
REMARK minimizedAffinity 7.18023539
REMARK minimizedRMSD -1
REMARK  0 active torsions:
REMARK  status: ('A' for Active; 'I' for Inactive)
ROOT
ATOM      1  O1  BZF d   1       1.113  -0.699   3.579  0.00  0.00    -0.204 OA
ATOM      2  C2  BZF d   1      -0.128  -0.093   3.540  0.00  0.00     0.174 A 
ATOM      3  C3  BZF d   1      -0.104   0.995   2.743  0.00  0.00    -0.012 A 
ATOM      4  C3A BZF d   1       1.211   1.020   2.181  0.00  0.00    -0.107 A 
ATOM      5  C4  BZF d   1       1.839   1.853   1.299  0.00  0.00     0.055 A 
ATOM      6  C5  BZF d   1       3.151   1.643   1.012  0.00  0.00    -0.016 A 
ATOM      7  C6  BZF d   1       3.865   0.615   1.591  0.00  0.00     0.022 A 
ATOM      8  C7  BZF d   1       3.284  -0.240   2.467  0.00  0.00     0.029 A 
ATOM      9  C7A BZF d   1       1.950  -0.050   2.734  0.00  0.00     0.058 A 
ENDROOT
TORSDOF 0
ENDMDL
