MODEL 1
REMARK minimizedAffinity 6.64945316
REMARK minimizedRMSD -1
REMARK  0 active torsions:
REMARK  status: ('A' for Active; 'I' for Inactive)
ROOT
ATOM      1  O1  BZF d   1       5.952  -0.104   1.923  0.00  0.00    -0.204 OA
ATOM      2  C2  BZF d   1       5.995   1.090   2.616  0.00  0.00     0.174 A 
ATOM      3  C3  BZF d   1       5.962   0.873   3.947  0.00  0.00    -0.012 A 
ATOM      4  C3A BZF d   1       5.987  -0.550   4.096  0.00  0.00    -0.107 A 
ATOM      5  C4  BZF d   1       5.988  -1.380   5.181  0.00  0.00     0.055 A 
ATOM      6  C5  BZF d   1       5.942  -2.724   4.983  0.00  0.00    -0.016 A 
ATOM      7  C6  BZF d   1       5.889  -3.271   3.718  0.00  0.00     0.022 A 
ATOM      8  C7  BZF d   1       5.891  -2.488   2.612  0.00  0.00     0.029 A 
ATOM      9  C7A BZF d   1       5.971  -1.131   2.807  0.00  0.00     0.058 A 
ENDROOT
TORSDOF 0
ENDMDL
