MODEL 1
REMARK minimizedAffinity 3.20706367
REMARK minimizedRMSD -1
REMARK  0 active torsions:
REMARK  status: ('A' for Active; 'I' for Inactive)
ROOT
ATOM      1  O1  BZF d   1      -3.272  -0.662  -2.017  0.00  0.00    -0.204 OA
ATOM      2  C2  BZF d   1      -2.111  -1.349  -2.315  0.00  0.00     0.174 A 
ATOM      3  C3  BZF d   1      -1.194  -1.185  -1.341  0.00  0.00    -0.012 A 
ATOM      4  C3A BZF d   1      -1.853  -0.419  -0.328  0.00  0.00    -0.107 A 
ATOM      5  C4  BZF d   1      -1.466   0.052   0.894  0.00  0.00     0.055 A 
ATOM      6  C5  BZF d   1      -2.325   0.831   1.603  0.00  0.00    -0.016 A 
ATOM      7  C6  BZF d   1      -3.574   1.162   1.120  0.00  0.00     0.022 A 
ATOM      8  C7  BZF d   1      -4.003   0.715  -0.085  0.00  0.00     0.029 A 
ATOM      9  C7A BZF d   1      -3.151  -0.100  -0.790  0.00  0.00     0.058 A 
ENDROOT
TORSDOF 0
ENDMDL
