MODEL 1
REMARK minimizedAffinity 8.61931801
REMARK minimizedRMSD -1
REMARK  0 active torsions:
REMARK  status: ('A' for Active; 'I' for Inactive)
ROOT
ATOM      1  O1  BZF d   1      -1.042  -5.044   2.424  0.00  0.00    -0.204 OA
ATOM      2  C2  BZF d   1      -1.160  -4.362   1.228  0.00  0.00     0.174 A 
ATOM      3  C3  BZF d   1       0.055  -4.106   0.702  0.00  0.00    -0.012 A 
ATOM      4  C3A BZF d   1       0.988  -4.743   1.580  0.00  0.00    -0.107 A 
ATOM      5  C4  BZF d   1       2.349  -4.858   1.581  0.00  0.00     0.055 A 
ATOM      6  C5  BZF d   1       2.958  -5.483   2.622  0.00  0.00    -0.016 A 
ATOM      7  C6  BZF d   1       2.239  -6.000   3.680  0.00  0.00     0.022 A 
ATOM      8  C7  BZF d   1       0.887  -5.915   3.721  0.00  0.00     0.029 A 
ATOM      9  C7A BZF d   1       0.266  -5.312   2.654  0.00  0.00     0.058 A 
ENDROOT
TORSDOF 0
ENDMDL
