MODEL 1
REMARK minimizedAffinity 8.07441139
REMARK minimizedRMSD -1
REMARK  0 active torsions:
REMARK  status: ('A' for Active; 'I' for Inactive)
ROOT
ATOM      1  O1  BZF d   1      -2.855   0.415  -0.746  0.00  0.00    -0.204 OA
ATOM      2  C2  BZF d   1      -3.751   0.182   0.279  0.00  0.00     0.174 A 
ATOM      3  C3  BZF d   1      -3.592  -1.060   0.780  0.00  0.00    -0.012 A 
ATOM      4  C3A BZF d   1      -2.468  -1.606   0.082  0.00  0.00    -0.107 A 
ATOM      5  C4  BZF d   1      -1.812  -2.802   0.148  0.00  0.00     0.055 A 
ATOM      6  C5  BZF d   1      -0.798  -3.048  -0.722  0.00  0.00    -0.016 A 
ATOM      7  C6  BZF d   1      -0.416  -2.124  -1.673  0.00  0.00     0.022 A 
ATOM      8  C7  BZF d   1      -1.033  -0.922  -1.773  0.00  0.00     0.029 A 
ATOM      9  C7A BZF d   1      -2.037  -0.657  -0.874  0.00  0.00     0.058 A 
ENDROOT
TORSDOF 0
ENDMDL
