MODEL 1
REMARK minimizedAffinity 6.09918594
REMARK minimizedRMSD -1
REMARK  0 active torsions:
REMARK  status: ('A' for Active; 'I' for Inactive)
ROOT
ATOM      1  O1  BZF d   1      -3.278  -0.106  -0.488  0.00  0.00    -0.204 OA
ATOM      2  C2  BZF d   1      -2.303  -0.644  -1.306  0.00  0.00     0.174 A 
ATOM      3  C3  BZF d   1      -1.138  -0.777  -0.639  0.00  0.00    -0.012 A 
ATOM      4  C3A BZF d   1      -1.426  -0.378   0.704  0.00  0.00    -0.107 A 
ATOM      5  C4  BZF d   1      -0.677  -0.307   1.843  0.00  0.00     0.055 A 
ATOM      6  C5  BZF d   1      -1.240   0.195   2.974  0.00  0.00    -0.016 A 
ATOM      7  C6  BZF d   1      -2.546   0.638   3.000  0.00  0.00     0.022 A 
ATOM      8  C7  BZF d   1      -3.330   0.583   1.896  0.00  0.00     0.029 A 
ATOM      9  C7A BZF d   1      -2.774   0.046   0.760  0.00  0.00     0.058 A 
ENDROOT
TORSDOF 0
ENDMDL
