MODEL 1
REMARK minimizedAffinity 18.9873886
REMARK minimizedRMSD -1
REMARK  0 active torsions:
REMARK  status: ('A' for Active; 'I' for Inactive)
ROOT
ATOM      1  O1  BZF d   1       0.436   3.250   1.271  0.00  0.00    -0.204 OA
ATOM      2  C2  BZF d   1       1.024   2.610   0.197  0.00  0.00     0.174 A 
ATOM      3  C3  BZF d   1       1.012   1.273   0.372  0.00  0.00    -0.012 A 
ATOM      4  C3A BZF d   1       0.294   1.060   1.591  0.00  0.00    -0.107 A 
ATOM      5  C4  BZF d   1      -0.063  -0.060   2.287  0.00  0.00     0.055 A 
ATOM      6  C5  BZF d   1      -0.697   0.078   3.481  0.00  0.00    -0.016 A 
ATOM      7  C6  BZF d   1      -0.984   1.319   4.011  0.00  0.00     0.022 A 
ATOM      8  C7  BZF d   1      -0.654   2.458   3.356  0.00  0.00     0.029 A 
ATOM      9  C7A BZF d   1      -0.043   2.322   2.133  0.00  0.00     0.058 A 
ENDROOT
TORSDOF 0
ENDMDL
