MODEL 1
REMARK minimizedAffinity 9.72685146
REMARK minimizedRMSD -1
REMARK  0 active torsions:
REMARK  status: ('A' for Active; 'I' for Inactive)
ROOT
ATOM      1  O1  BZF d   1      -2.628   0.154  -1.253  0.00  0.00    -0.204 OA
ATOM      2  C2  BZF d   1      -3.424   0.047  -0.129  0.00  0.00     0.174 A 
ATOM      3  C3  BZF d   1      -3.307  -1.177   0.426  0.00  0.00    -0.012 A 
ATOM      4  C3A BZF d   1      -2.309  -1.847  -0.351  0.00  0.00    -0.107 A 
ATOM      5  C4  BZF d   1      -1.743  -3.088  -0.282  0.00  0.00     0.055 A 
ATOM      6  C5  BZF d   1      -0.850  -3.461  -1.236  0.00  0.00    -0.016 A 
ATOM      7  C6  BZF d   1      -0.504  -2.621  -2.274  0.00  0.00     0.022 A 
ATOM      8  C7  BZF d   1      -1.035  -1.379  -2.382  0.00  0.00     0.029 A 
ATOM      9  C7A BZF d   1      -1.913  -0.987  -1.401  0.00  0.00     0.058 A 
ENDROOT
TORSDOF 0
ENDMDL
