MODEL 1
REMARK minimizedAffinity 2.82223082
REMARK minimizedRMSD -1
REMARK  0 active torsions:
REMARK  status: ('A' for Active; 'I' for Inactive)
ROOT
ATOM      1  O1  BZF d   1       2.559   5.534  -4.882  0.00  0.00    -0.204 OA
ATOM      2  C2  BZF d   1       1.495   5.621  -4.005  0.00  0.00     0.174 A 
ATOM      3  C3  BZF d   1       1.048   4.394  -3.671  0.00  0.00    -0.012 A 
ATOM      4  C3A BZF d   1       1.944   3.480  -4.310  0.00  0.00    -0.107 A 
ATOM      5  C4  BZF d   1       2.031   2.117  -4.343  0.00  0.00     0.055 A 
ATOM      6  C5  BZF d   1       2.979   1.534  -5.122  0.00  0.00    -0.016 A 
ATOM      7  C6  BZF d   1       3.852   2.281  -5.885  0.00  0.00     0.022 A 
ATOM      8  C7  BZF d   1       3.808   3.636  -5.881  0.00  0.00     0.029 A 
ATOM      9  C7A BZF d   1       2.872   4.229  -5.070  0.00  0.00     0.058 A 
ENDROOT
TORSDOF 0
ENDMDL
