MODEL 1
REMARK minimizedAffinity -1.12756741
REMARK minimizedRMSD -1
REMARK  0 active torsions:
REMARK  status: ('A' for Active; 'I' for Inactive)
ROOT
ATOM      1  O1  BZF d   1      -1.538  -3.034   0.423  0.00  0.00    -0.204 OA
ATOM      2  C2  BZF d   1      -1.188  -3.709  -0.730  0.00  0.00     0.174 A 
ATOM      3  C3  BZF d   1      -0.377  -2.954  -1.499  0.00  0.00    -0.012 A 
ATOM      4  C3A BZF d   1      -0.135  -1.767  -0.738  0.00  0.00    -0.107 A 
ATOM      5  C4  BZF d   1       0.607  -0.643  -0.962  0.00  0.00     0.055 A 
ATOM      6  C5  BZF d   1       0.574   0.364  -0.050  0.00  0.00    -0.016 A 
ATOM      7  C6  BZF d   1      -0.195   0.283   1.092  0.00  0.00     0.022 A 
ATOM      8  C7  BZF d   1      -0.945  -0.814   1.361  0.00  0.00     0.029 A 
ATOM      9  C7A BZF d   1      -0.887  -1.847   0.457  0.00  0.00     0.058 A 
ENDROOT
TORSDOF 0
ENDMDL
