MODEL 1
REMARK minimizedAffinity 3.29162431
REMARK minimizedRMSD -1
REMARK  0 active torsions:
REMARK  status: ('A' for Active; 'I' for Inactive)
ROOT
ATOM      1  O1  BZF d   1      -0.194   0.296  -1.149  0.00  0.00    -0.204 OA
ATOM      2  C2  BZF d   1       0.172  -0.997  -1.467  0.00  0.00     0.174 A 
ATOM      3  C3  BZF d   1       0.743  -1.607  -0.409  0.00  0.00    -0.012 A 
ATOM      4  C3A BZF d   1       0.650  -0.664   0.664  0.00  0.00    -0.107 A 
ATOM      5  C4  BZF d   1       1.029  -0.694   1.975  0.00  0.00     0.055 A 
ATOM      6  C5  BZF d   1       0.862   0.419   2.737  0.00  0.00    -0.016 A 
ATOM      7  C6  BZF d   1       0.324   1.579   2.218  0.00  0.00     0.022 A 
ATOM      8  C7  BZF d   1      -0.071   1.655   0.924  0.00  0.00     0.029 A 
ATOM      9  C7A BZF d   1       0.067   0.521   0.161  0.00  0.00     0.058 A 
ENDROOT
TORSDOF 0
ENDMDL
