MODEL 1
REMARK minimizedAffinity 0.0865966827
REMARK minimizedRMSD -1
REMARK  0 active torsions:
REMARK  status: ('A' for Active; 'I' for Inactive)
ROOT
ATOM      1  O1  BZF d   1      -0.605  -1.114   0.226  0.00  0.00    -0.204 OA
ATOM      2  C2  BZF d   1       0.590  -0.425   0.306  0.00  0.00     0.174 A 
ATOM      3  C3  BZF d   1       1.563  -1.075  -0.364  0.00  0.00    -0.012 A 
ATOM      4  C3A BZF d   1       0.917  -2.197  -0.972  0.00  0.00    -0.107 A 
ATOM      5  C4  BZF d   1       1.353  -3.210  -1.778  0.00  0.00     0.055 A 
ATOM      6  C5  BZF d   1       0.483  -4.189  -2.138  0.00  0.00    -0.016 A 
ATOM      7  C6  BZF d   1      -0.828  -4.190  -1.708  0.00  0.00     0.022 A 
ATOM      8  C7  BZF d   1      -1.308  -3.205  -0.911  0.00  0.00     0.029 A 
ATOM      9  C7A BZF d   1      -0.440  -2.196  -0.572  0.00  0.00     0.058 A 
ENDROOT
TORSDOF 0
ENDMDL
