MODEL 1
REMARK minimizedAffinity -4.8870616
REMARK minimizedRMSD -1
REMARK  0 active torsions:
REMARK  status: ('A' for Active; 'I' for Inactive)
ROOT
ATOM      1  O1  BZF d   1      -0.442   2.243  -1.667  0.00  0.00    -0.204 OA
ATOM      2  C2  BZF d   1      -0.545   3.547  -1.222  0.00  0.00     0.174 A 
ATOM      3  C3  BZF d   1      -0.527   3.595   0.126  0.00  0.00    -0.012 A 
ATOM      4  C3A BZF d   1      -0.312   2.245   0.548  0.00  0.00    -0.107 A 
ATOM      5  C4  BZF d   1      -0.183   1.653   1.772  0.00  0.00     0.055 A 
ATOM      6  C5  BZF d   1      -0.055   0.302   1.842  0.00  0.00    -0.016 A 
ATOM      7  C6  BZF d   1      -0.058  -0.488   0.710  0.00  0.00     0.022 A 
ATOM      8  C7  BZF d   1      -0.178   0.055  -0.526  0.00  0.00     0.029 A 
ATOM      9  C7A BZF d   1      -0.274   1.423  -0.602  0.00  0.00     0.058 A 
ENDROOT
TORSDOF 0
ENDMDL
