MODEL 1
REMARK minimizedAffinity -1.13128984
REMARK minimizedRMSD -1
REMARK  0 active torsions:
REMARK  status: ('A' for Active; 'I' for Inactive)
ROOT
ATOM      1  O1  BZF d   1      -0.888  -0.872   0.012  0.00  0.00    -0.204 OA
ATOM      2  C2  BZF d   1       0.284  -0.152  -0.115  0.00  0.00     0.174 A 
ATOM      3  C3  BZF d   1       1.275  -0.931  -0.596  0.00  0.00    -0.012 A 
ATOM      4  C3A BZF d   1       0.661  -2.194  -0.869  0.00  0.00    -0.107 A 
ATOM      5  C4  BZF d   1       1.126  -3.373  -1.377  0.00  0.00     0.055 A 
ATOM      6  C5  BZF d   1       0.286  -4.439  -1.448  0.00  0.00    -0.016 A 
ATOM      7  C6  BZF d   1      -1.022  -4.362  -1.016  0.00  0.00     0.022 A 
ATOM      8  C7  BZF d   1      -1.530  -3.213  -0.509  0.00  0.00     0.029 A 
ATOM      9  C7A BZF d   1      -0.693  -2.125  -0.467  0.00  0.00     0.058 A 
ENDROOT
TORSDOF 0
ENDMDL
