MODEL 1
REMARK minimizedAffinity -3.33459902
REMARK minimizedRMSD -1
REMARK  0 active torsions:
REMARK  status: ('A' for Active; 'I' for Inactive)
ROOT
ATOM      1  O1  BZF d   1      -0.561  -0.578  -1.323  0.00  0.00    -0.204 OA
ATOM      2  C2  BZF d   1      -0.085  -1.845  -1.044  0.00  0.00     0.174 A 
ATOM      3  C3  BZF d   1       0.363  -1.919   0.225  0.00  0.00    -0.012 A 
ATOM      4  C3A BZF d   1       0.070  -0.644   0.803  0.00  0.00    -0.107 A 
ATOM      5  C4  BZF d   1       0.261  -0.109   2.045  0.00  0.00     0.055 A 
ATOM      6  C5  BZF d   1      -0.071   1.191   2.263  0.00  0.00    -0.016 A 
ATOM      7  C6  BZF d   1      -0.592   1.985   1.262  0.00  0.00     0.022 A 
ATOM      8  C7  BZF d   1      -0.804   1.498   0.016  0.00  0.00     0.029 A 
ATOM      9  C7A BZF d   1      -0.500   0.175  -0.199  0.00  0.00     0.058 A 
ENDROOT
TORSDOF 0
ENDMDL
