MODEL 1
REMARK minimizedAffinity -4.2967701
REMARK minimizedRMSD -1
REMARK  0 active torsions:
REMARK  status: ('A' for Active; 'I' for Inactive)
ROOT
ATOM      1  O1  BZF d   1       0.313   2.410  -1.365  0.00  0.00    -0.204 OA
ATOM      2  C2  BZF d   1      -0.028   3.627  -0.807  0.00  0.00     0.174 A 
ATOM      3  C3  BZF d   1      -0.308   3.490   0.505  0.00  0.00    -0.012 A 
ATOM      4  C3A BZF d   1      -0.041   2.117   0.805  0.00  0.00    -0.107 A 
ATOM      5  C4  BZF d   1      -0.115   1.374   1.949  0.00  0.00     0.055 A 
ATOM      6  C5  BZF d   1       0.144   0.041   1.889  0.00  0.00    -0.016 A 
ATOM      7  C6  BZF d   1       0.474  -0.582   0.703  0.00  0.00     0.022 A 
ATOM      8  C7  BZF d   1       0.566   0.114  -0.456  0.00  0.00     0.029 A 
ATOM      9  C7A BZF d   1       0.337   1.467  -0.393  0.00  0.00     0.058 A 
ENDROOT
TORSDOF 0
ENDMDL
