MODEL 1
REMARK minimizedAffinity -4.15635014
REMARK minimizedRMSD -1
REMARK  0 active torsions:
REMARK  status: ('A' for Active; 'I' for Inactive)
ROOT
ATOM      1  O1  BZF d   1       0.528  -0.211  -1.284  0.00  0.00    -0.204 OA
ATOM      2  C2  BZF d   1       0.914  -1.152  -0.350  0.00  0.00     0.174 A 
ATOM      3  C3  BZF d   1       0.936  -0.618   0.888  0.00  0.00    -0.012 A 
ATOM      4  C3A BZF d   1       0.448   0.718   0.729  0.00  0.00    -0.107 A 
ATOM      5  C4  BZF d   1       0.223   1.745   1.601  0.00  0.00     0.055 A 
ATOM      6  C5  BZF d   1      -0.187   2.946   1.115  0.00  0.00    -0.016 A 
ATOM      7  C6  BZF d   1      -0.376   3.156  -0.235  0.00  0.00     0.022 A 
ATOM      8  C7  BZF d   1      -0.170   2.167  -1.138  0.00  0.00     0.029 A 
ATOM      9  C7A BZF d   1       0.212   0.942  -0.647  0.00  0.00     0.058 A 
ENDROOT
TORSDOF 0
ENDMDL
