MODEL 1
REMARK minimizedAffinity -3.27204394
REMARK minimizedRMSD -1
REMARK  0 active torsions:
REMARK  status: ('A' for Active; 'I' for Inactive)
ROOT
ATOM      1  O1  BZF d   1       0.172   0.070  -1.214  0.00  0.00    -0.204 OA
ATOM      2  C2  BZF d   1       0.491  -0.964  -0.356  0.00  0.00     0.174 A 
ATOM      3  C3  BZF d   1       0.562  -0.525   0.917  0.00  0.00    -0.012 A 
ATOM      4  C3A BZF d   1       0.178   0.852   0.862  0.00  0.00    -0.107 A 
ATOM      5  C4  BZF d   1       0.038   1.827   1.808  0.00  0.00     0.055 A 
ATOM      6  C5  BZF d   1      -0.282   3.088   1.416  0.00  0.00    -0.016 A 
ATOM      7  C6  BZF d   1      -0.464   3.410   0.087  0.00  0.00     0.022 A 
ATOM      8  C7  BZF d   1      -0.341   2.476  -0.888  0.00  0.00     0.029 A 
ATOM      9  C7A BZF d   1      -0.050   1.194  -0.491  0.00  0.00     0.058 A 
ENDROOT
TORSDOF 0
ENDMDL
