MODEL 1
REMARK minimizedAffinity 20.2335186
REMARK minimizedRMSD -1
REMARK  2 active torsions:
REMARK  status: ('A' for Active; 'I' for Inactive)
REMARK    1  A    between atoms: C2'_3  and  C1'_4 
REMARK    2  A    between atoms: C1'_4  and  C1_5 
ROOT
ATOM      1  C1  I4B d   1      -0.066   2.298  -0.107  0.00  0.00    -0.075 A 
ATOM      2  C2  I4B d   1       0.240   3.630   0.019  0.00  0.00     0.003 A 
ATOM      3  C3  I4B d   1      -0.098   4.539  -1.012  0.00  0.00     0.002 A 
ATOM      4  C4  I4B d   1      -0.690   4.068  -2.166  0.00  0.00    -0.004 A 
ATOM      5  C5  I4B d   1      -1.020   2.721  -2.283  0.00  0.00     0.002 A 
ATOM      6  C6  I4B d   1      -0.717   1.832  -1.241  0.00  0.00     0.003 A 
ENDROOT
BRANCH   1   7
ATOM      7  C1' I4B d   1       0.335   1.360   0.988  0.00  0.00     0.060 C 
BRANCH   7   8
ATOM      8  C2' I4B d   1      -0.333   1.823   2.267  0.00  0.00    -0.013 C 
ATOM      9  C4' I4B d   1      -1.801   1.485   2.268  0.00  0.00     0.013 C 
ATOM     10  C3' I4B d   1       0.374   1.173   3.419  0.00  0.00     0.013 C 
ENDBRANCH   7   8
ENDBRANCH   1   7
TORSDOF 2
ENDMDL
