MODEL 1
REMARK minimizedAffinity 12.3180695
REMARK minimizedRMSD -1
REMARK  2 active torsions:
REMARK  status: ('A' for Active; 'I' for Inactive)
REMARK    1  A    between atoms: C2'_3  and  C1'_4 
REMARK    2  A    between atoms: C1'_4  and  C1_5 
ROOT
ATOM      1  C1  I4B d   1      -3.888   2.487  -4.328  0.00  0.00    -0.075 A 
ATOM      2  C2  I4B d   1      -3.823   3.215  -3.166  0.00  0.00     0.003 A 
ATOM      3  C3  I4B d   1      -4.192   4.582  -3.159  0.00  0.00     0.002 A 
ATOM      4  C4  I4B d   1      -4.571   5.189  -4.339  0.00  0.00    -0.004 A 
ATOM      5  C5  I4B d   1      -4.659   4.444  -5.511  0.00  0.00     0.002 A 
ATOM      6  C6  I4B d   1      -4.327   3.081  -5.504  0.00  0.00     0.003 A 
ENDROOT
BRANCH   1   7
ATOM      7  C1' I4B d   1      -3.459   1.054  -4.306  0.00  0.00     0.060 C 
BRANCH   7   8
ATOM      8  C2' I4B d   1      -3.321   0.586  -5.740  0.00  0.00    -0.013 C 
ATOM      9  C4' I4B d   1      -1.951   0.018  -6.000  0.00  0.00     0.013 C 
ATOM     10  C3' I4B d   1      -4.389  -0.436  -5.998  0.00  0.00     0.013 C 
ENDBRANCH   7   8
ENDBRANCH   1   7
TORSDOF 2
ENDMDL
