MODEL 1
REMARK minimizedAffinity 15.9961309
REMARK minimizedRMSD -1
REMARK  2 active torsions:
REMARK  status: ('A' for Active; 'I' for Inactive)
REMARK    1  A    between atoms: C2'_3  and  C1'_4 
REMARK    2  A    between atoms: C1'_4  and  C1_5 
ROOT
ATOM      1  C1  I4B d   1       1.439  -1.217   4.225  0.00  0.00    -0.075 A 
ATOM      2  C2  I4B d   1       0.446  -1.336   5.166  0.00  0.00     0.003 A 
ATOM      3  C3  I4B d   1      -0.537  -0.325   5.296  0.00  0.00     0.002 A 
ATOM      4  C4  I4B d   1      -0.461   0.803   4.504  0.00  0.00    -0.004 A 
ATOM      5  C5  I4B d   1       0.533   0.911   3.535  0.00  0.00     0.002 A 
ATOM      6  C6  I4B d   1       1.481  -0.111   3.386  0.00  0.00     0.003 A 
ENDROOT
BRANCH   1   7
ATOM      7  C1' I4B d   1       2.480  -2.288   4.136  0.00  0.00     0.060 C 
BRANCH   7   8
ATOM      8  C2' I4B d   1       3.777  -1.723   4.677  0.00  0.00    -0.013 C 
ATOM      9  C4' I4B d   1       4.135  -2.349   5.999  0.00  0.00     0.013 C 
ATOM     10  C3' I4B d   1       4.849  -1.964   3.656  0.00  0.00     0.013 C 
ENDBRANCH   7   8
ENDBRANCH   1   7
TORSDOF 2
ENDMDL
