MODEL 1
REMARK minimizedAffinity 6.48225451
REMARK minimizedRMSD -1
REMARK  2 active torsions:
REMARK  status: ('A' for Active; 'I' for Inactive)
REMARK    1  A    between atoms: C2'_3  and  C1'_4 
REMARK    2  A    between atoms: C1'_4  and  C1_5 
ROOT
ATOM      1  C1  I4B d   1      -0.388   3.727  -0.585  0.00  0.00    -0.075 A 
ATOM      2  C2  I4B d   1      -0.014   3.267  -1.823  0.00  0.00     0.003 A 
ATOM      3  C3  I4B d   1      -0.932   3.295  -2.901  0.00  0.00     0.002 A 
ATOM      4  C4  I4B d   1      -2.220   3.740  -2.685  0.00  0.00    -0.004 A 
ATOM      5  C5  I4B d   1      -2.591   4.227  -1.435  0.00  0.00     0.002 A 
ATOM      6  C6  I4B d   1      -1.666   4.232  -0.381  0.00  0.00     0.003 A 
ENDROOT
BRANCH   1   7
ATOM      7  C1' I4B d   1       0.596   3.653   0.539  0.00  0.00     0.060 C 
BRANCH   7   8
ATOM      8  C2' I4B d   1       0.413   2.318   1.232  0.00  0.00    -0.013 C 
ATOM      9  C4' I4B d   1       1.654   1.471   1.119  0.00  0.00     0.013 C 
ATOM     10  C3' I4B d   1       0.068   2.584   2.667  0.00  0.00     0.013 C 
ENDBRANCH   7   8
ENDBRANCH   1   7
TORSDOF 2
ENDMDL
