MODEL 1
REMARK minimizedAffinity -1.41665316
REMARK minimizedRMSD -1
REMARK  2 active torsions:
REMARK  status: ('A' for Active; 'I' for Inactive)
REMARK    1  A    between atoms: C2'_3  and  C1'_4 
REMARK    2  A    between atoms: C1'_4  and  C1_5 
ROOT
ATOM      1  C1  I4B d   1       0.877   0.166   1.045  0.00  0.00    -0.075 A 
ATOM      2  C2  I4B d   1       0.567   1.450   0.671  0.00  0.00     0.003 A 
ATOM      3  C3  I4B d   1       0.786   2.525   1.566  0.00  0.00     0.002 A 
ATOM      4  C4  I4B d   1       1.265   2.267   2.834  0.00  0.00    -0.004 A 
ATOM      5  C5  I4B d   1       1.601   0.967   3.203  0.00  0.00     0.002 A 
ATOM      6  C6  I4B d   1       1.417  -0.089   2.299  0.00  0.00     0.003 A 
ENDROOT
BRANCH   1   7
ATOM      7  C1' I4B d   1       0.603  -0.950   0.087  0.00  0.00     0.060 C 
BRANCH   7   8
ATOM      8  C2' I4B d   1       1.932  -1.551  -0.323  0.00  0.00    -0.013 C 
ATOM      9  C4' I4B d   1       1.845  -3.051  -0.420  0.00  0.00     0.013 C 
ATOM     10  C3' I4B d   1       2.330  -0.945  -1.635  0.00  0.00     0.013 C 
ENDBRANCH   7   8
ENDBRANCH   1   7
TORSDOF 2
ENDMDL
