MODEL 1
REMARK minimizedAffinity 15.9754581
REMARK minimizedRMSD -1
REMARK  0 active torsions:
REMARK  status: ('A' for Active; 'I' for Inactive)
ROOT
ATOM      1  C   UNL d   1       2.054  -3.021  -3.912  0.00  0.00     0.124 A 
ATOM      2  C1  UNL d   1       1.178  -3.665  -3.050  0.00  0.00     0.062 A 
ATOM      3  C2  UNL d   1       0.591  -2.967  -1.998  0.00  0.00     0.162 A 
ATOM      4  C3  UNL d   1       0.879  -1.616  -1.803  0.00  0.00    -0.034 A 
ATOM      5  C4  UNL d   1       1.763  -0.976  -2.674  0.00  0.00     0.162 A 
ATOM      6  C5  UNL d   1       2.346  -1.678  -3.723  0.00  0.00     0.062 A 
ATOM      7  F   UNL d   1       3.193  -1.054  -4.556  0.00  0.00    -0.097 F 
ATOM      8  F1  UNL d   1       2.062   0.322  -2.515  0.00  0.00    -0.096 F 
ATOM      9  I   UNL d   1       0.005  -0.568  -0.231  0.00  0.00    -0.060 I 
ATOM     10  F2  UNL d   1      -0.252  -3.614  -1.180  0.00  0.00    -0.096 F 
ATOM     11  F3  UNL d   1       0.895  -4.963  -3.229  0.00  0.00    -0.097 F 
ATOM     12  F4  UNL d   1       2.618  -3.696  -4.923  0.00  0.00    -0.092 F 
ENDROOT
TORSDOF 0
ENDMDL
