MODEL 1
REMARK minimizedAffinity 12.9285297
REMARK minimizedRMSD -1
REMARK  0 active torsions:
REMARK  status: ('A' for Active; 'I' for Inactive)
ROOT
ATOM      1  C   UNL d   1       1.603  -1.434  -2.958  0.00  0.00     0.124 A 
ATOM      2  C1  UNL d   1       1.075  -2.535  -2.298  0.00  0.00     0.062 A 
ATOM      3  C2  UNL d   1       0.342  -2.364  -1.127  0.00  0.00     0.162 A 
ATOM      4  C3  UNL d   1       0.133  -1.086  -0.608  0.00  0.00    -0.034 A 
ATOM      5  C4  UNL d   1       0.668   0.016  -1.277  0.00  0.00     0.162 A 
ATOM      6  C5  UNL d   1       1.399  -0.160  -2.447  0.00  0.00     0.062 A 
ATOM      7  F   UNL d   1       1.909   0.904  -3.084  0.00  0.00    -0.097 F 
ATOM      8  F1  UNL d   1       0.486   1.259  -0.806  0.00  0.00    -0.096 F 
ATOM      9  I   UNL d   1      -0.962  -0.826   1.143  0.00  0.00    -0.060 I 
ATOM     10  F2  UNL d   1      -0.157  -3.446  -0.510  0.00  0.00    -0.096 F 
ATOM     11  F3  UNL d   1       1.271  -3.767  -2.789  0.00  0.00    -0.097 F 
ATOM     12  F4  UNL d   1       2.308  -1.602  -4.084  0.00  0.00    -0.092 F 
ENDROOT
TORSDOF 0
ENDMDL
