MODEL 1
REMARK minimizedAffinity 8.13299561
REMARK minimizedRMSD -1
REMARK  0 active torsions:
REMARK  status: ('A' for Active; 'I' for Inactive)
ROOT
ATOM      1  C   UNL d   1       1.434  -1.392  -2.792  0.00  0.00     0.124 A 
ATOM      2  C1  UNL d   1       1.043  -2.468  -2.008  0.00  0.00     0.062 A 
ATOM      3  C2  UNL d   1       0.233  -2.265  -0.894  0.00  0.00     0.162 A 
ATOM      4  C3  UNL d   1      -0.192  -0.980  -0.558  0.00  0.00    -0.034 A 
ATOM      5  C4  UNL d   1       0.206   0.098  -1.351  0.00  0.00     0.162 A 
ATOM      6  C5  UNL d   1       1.015  -0.110  -2.463  0.00  0.00     0.062 A 
ATOM      7  F   UNL d   1       1.392   0.931  -3.220  0.00  0.00    -0.097 F 
ATOM      8  F1  UNL d   1      -0.185   1.347  -1.057  0.00  0.00    -0.096 F 
ATOM      9  I   UNL d   1      -1.403  -0.672   1.106  0.00  0.00    -0.060 I 
ATOM     10  F2  UNL d   1      -0.129  -3.324  -0.154  0.00  0.00    -0.096 F 
ATOM     11  F3  UNL d   1       1.447  -3.707  -2.323  0.00  0.00    -0.097 F 
ATOM     12  F4  UNL d   1       2.214  -1.590  -3.863  0.00  0.00    -0.092 F 
ENDROOT
TORSDOF 0
ENDMDL
