MODEL 1
REMARK minimizedAffinity 9.09208202
REMARK minimizedRMSD -1
REMARK  0 active torsions:
REMARK  status: ('A' for Active; 'I' for Inactive)
ROOT
ATOM      1  C   UNL d   1       3.222   3.689   0.906  0.00  0.00     0.124 A 
ATOM      2  C1  UNL d   1       3.080   4.155   2.206  0.00  0.00     0.062 A 
ATOM      3  C2  UNL d   1       1.876   3.985   2.883  0.00  0.00     0.162 A 
ATOM      4  C3  UNL d   1       0.804   3.344   2.261  0.00  0.00    -0.034 A 
ATOM      5  C4  UNL d   1       0.954   2.879   0.954  0.00  0.00     0.162 A 
ATOM      6  C5  UNL d   1       2.159   3.052   0.281  0.00  0.00     0.062 A 
ATOM      7  F   UNL d   1       2.295   2.601  -0.974  0.00  0.00    -0.097 F 
ATOM      8  F1  UNL d   1      -0.056   2.258   0.327  0.00  0.00    -0.096 F 
ATOM      9  I   UNL d   1      -0.999   3.087   3.270  0.00  0.00    -0.060 I 
ATOM     10  F2  UNL d   1       1.766   4.445   4.138  0.00  0.00    -0.096 F 
ATOM     11  F3  UNL d   1       4.105   4.772   2.811  0.00  0.00    -0.097 F 
ATOM     12  F4  UNL d   1       4.381   3.855   0.257  0.00  0.00    -0.092 F 
ENDROOT
TORSDOF 0
ENDMDL
