MODEL 1
REMARK minimizedAffinity 12.3370428
REMARK minimizedRMSD -1
REMARK  0 active torsions:
REMARK  status: ('A' for Active; 'I' for Inactive)
ROOT
ATOM      1  C   UNL d   1      -2.394  -4.344   0.003  0.00  0.00     0.124 A 
ATOM      2  C1  UNL d   1      -3.098  -3.296  -0.573  0.00  0.00     0.062 A 
ATOM      3  C2  UNL d   1      -2.557  -2.013  -0.585  0.00  0.00     0.162 A 
ATOM      4  C3  UNL d   1      -1.304  -1.772  -0.022  0.00  0.00    -0.034 A 
ATOM      5  C4  UNL d   1      -0.603  -2.832   0.556  0.00  0.00     0.162 A 
ATOM      6  C5  UNL d   1      -1.148  -4.112   0.566  0.00  0.00     0.062 A 
ATOM      7  F   UNL d   1      -0.466  -5.124   1.123  0.00  0.00    -0.097 F 
ATOM      8  F1  UNL d   1       0.604  -2.635   1.107  0.00  0.00    -0.096 F 
ATOM      9  I   UNL d   1      -0.492   0.144  -0.039  0.00  0.00    -0.060 I 
ATOM     10  F2  UNL d   1      -3.260  -1.019  -1.148  0.00  0.00    -0.096 F 
ATOM     11  F3  UNL d   1      -4.303  -3.518  -1.117  0.00  0.00    -0.097 F 
ATOM     12  F4  UNL d   1      -2.917  -5.577   0.014  0.00  0.00    -0.092 F 
ENDROOT
TORSDOF 0
ENDMDL
