MODEL 1
REMARK minimizedAffinity 9.27646542
REMARK minimizedRMSD -1
REMARK  0 active torsions:
REMARK  status: ('A' for Active; 'I' for Inactive)
ROOT
ATOM      1  C   UNL d   1       2.144  -1.800  -3.345  0.00  0.00     0.124 A 
ATOM      2  C1  UNL d   1       1.489  -2.821  -2.670  0.00  0.00     0.062 A 
ATOM      3  C2  UNL d   1       0.621  -2.523  -1.624  0.00  0.00     0.162 A 
ATOM      4  C3  UNL d   1       0.401  -1.199  -1.247  0.00  0.00    -0.034 A 
ATOM      5  C4  UNL d   1       1.064  -0.177  -1.929  0.00  0.00     0.162 A 
ATOM      6  C5  UNL d   1       1.931  -0.480  -2.974  0.00  0.00     0.062 A 
ATOM      7  F   UNL d   1       2.563   0.508  -3.625  0.00  0.00    -0.097 F 
ATOM      8  F1  UNL d   1       0.876   1.107  -1.592  0.00  0.00    -0.096 F 
ATOM      9  I   UNL d   1      -0.897  -0.750   0.317  0.00  0.00    -0.060 I 
ATOM     10  F2  UNL d   1       0.001  -3.530  -0.990  0.00  0.00    -0.096 F 
ATOM     11  F3  UNL d   1       1.694  -4.097  -3.026  0.00  0.00    -0.097 F 
ATOM     12  F4  UNL d   1       2.980  -2.089  -4.351  0.00  0.00    -0.092 F 
ENDROOT
TORSDOF 0
ENDMDL
