MODEL 1
REMARK minimizedAffinity 9.63821602
REMARK minimizedRMSD -1
REMARK  0 active torsions:
REMARK  status: ('A' for Active; 'I' for Inactive)
ROOT
ATOM      1  C   UNL d   1       0.378   0.880  -0.030  0.00  0.00     0.124 A 
ATOM      2  C1  UNL d   1      -0.898   1.032  -0.553  0.00  0.00     0.062 A 
ATOM      3  C2  UNL d   1      -1.738  -0.070  -0.681  0.00  0.00     0.162 A 
ATOM      4  C3  UNL d   1      -1.305  -1.335  -0.284  0.00  0.00    -0.034 A 
ATOM      5  C4  UNL d   1      -0.020  -1.480   0.241  0.00  0.00     0.162 A 
ATOM      6  C5  UNL d   1       0.816  -0.376   0.367  0.00  0.00     0.062 A 
ATOM      7  F   UNL d   1       2.049  -0.525   0.873  0.00  0.00    -0.097 F 
ATOM      8  F1  UNL d   1       0.429  -2.682   0.632  0.00  0.00    -0.096 F 
ATOM      9  I   UNL d   1      -2.558  -2.986  -0.474  0.00  0.00    -0.060 I 
ATOM     10  F2  UNL d   1      -2.967   0.106  -1.190  0.00  0.00    -0.096 F 
ATOM     11  F3  UNL d   1      -1.324   2.244  -0.938  0.00  0.00    -0.097 F 
ATOM     12  F4  UNL d   1       1.185   1.942   0.092  0.00  0.00    -0.092 F 
ENDROOT
TORSDOF 0
ENDMDL
