MODEL 1
REMARK minimizedAffinity 4.44060183
REMARK minimizedRMSD -1
REMARK  0 active torsions:
REMARK  status: ('A' for Active; 'I' for Inactive)
ROOT
ATOM      1  C   UNL d   1      -2.671  -4.275  -0.969  0.00  0.00     0.124 A 
ATOM      2  C1  UNL d   1      -1.486  -4.704  -0.388  0.00  0.00     0.062 A 
ATOM      3  C2  UNL d   1      -0.455  -3.799  -0.149  0.00  0.00     0.162 A 
ATOM      4  C3  UNL d   1      -0.606  -2.455  -0.491  0.00  0.00    -0.034 A 
ATOM      5  C4  UNL d   1      -1.800  -2.031  -1.076  0.00  0.00     0.162 A 
ATOM      6  C5  UNL d   1      -2.827  -2.939  -1.313  0.00  0.00     0.062 A 
ATOM      7  F   UNL d   1      -3.971  -2.523  -1.875  0.00  0.00    -0.097 F 
ATOM      8  F1  UNL d   1      -1.978  -0.746  -1.417  0.00  0.00    -0.096 F 
ATOM      9  I   UNL d   1       0.932  -1.099  -0.135  0.00  0.00    -0.060 I 
ATOM     10  F2  UNL d   1       0.679  -4.241   0.415  0.00  0.00    -0.096 F 
ATOM     11  F3  UNL d   1      -1.332  -5.994  -0.055  0.00  0.00    -0.097 F 
ATOM     12  F4  UNL d   1      -3.660  -5.148  -1.199  0.00  0.00    -0.092 F 
ENDROOT
TORSDOF 0
ENDMDL
