MODEL 1
REMARK minimizedAffinity 2.19844747
REMARK minimizedRMSD -1
REMARK  0 active torsions:
REMARK  status: ('A' for Active; 'I' for Inactive)
ROOT
ATOM      1  C   UNL d   1       4.063   2.388   0.805  0.00  0.00     0.124 A 
ATOM      2  C1  UNL d   1       4.738   2.103   1.984  0.00  0.00     0.062 A 
ATOM      3  C2  UNL d   1       5.291   3.132   2.740  0.00  0.00     0.162 A 
ATOM      4  C3  UNL d   1       5.172   4.457   2.320  0.00  0.00    -0.034 A 
ATOM      5  C4  UNL d   1       4.493   4.736   1.132  0.00  0.00     0.162 A 
ATOM      6  C5  UNL d   1       3.941   3.703   0.380  0.00  0.00     0.062 A 
ATOM      7  F   UNL d   1       3.290   3.981  -0.759  0.00  0.00    -0.097 F 
ATOM      8  F1  UNL d   1       4.360   5.998   0.699  0.00  0.00    -0.096 F 
ATOM      9  I   UNL d   1       5.999   5.998   3.447  0.00  0.00    -0.060 I 
ATOM     10  F2  UNL d   1       5.938   2.827   3.875  0.00  0.00    -0.096 F 
ATOM     11  F3  UNL d   1       4.857   0.833   2.396  0.00  0.00    -0.097 F 
ATOM     12  F4  UNL d   1       3.532   1.396   0.079  0.00  0.00    -0.092 F 
ENDROOT
TORSDOF 0
ENDMDL
