MODEL 1
REMARK minimizedAffinity -2.50832081
REMARK minimizedRMSD -1
REMARK  0 active torsions:
REMARK  status: ('A' for Active; 'I' for Inactive)
ROOT
ATOM      1  C   UNL d   1       3.271   3.844  -0.372  0.00  0.00     0.124 A 
ATOM      2  C1  UNL d   1       4.427   4.612  -0.391  0.00  0.00     0.062 A 
ATOM      3  C2  UNL d   1       4.879   5.226   0.774  0.00  0.00     0.162 A 
ATOM      4  C3  UNL d   1       4.175   5.074   1.968  0.00  0.00    -0.034 A 
ATOM      5  C4  UNL d   1       3.012   4.301   1.979  0.00  0.00     0.162 A 
ATOM      6  C5  UNL d   1       2.565   3.689   0.813  0.00  0.00     0.062 A 
ATOM      7  F   UNL d   1       1.448   2.947   0.833  0.00  0.00    -0.097 F 
ATOM      8  F1  UNL d   1       2.311   4.133   3.110  0.00  0.00    -0.096 F 
ATOM      9  I   UNL d   1       4.847   5.990   3.712  0.00  0.00    -0.060 I 
ATOM     10  F2  UNL d   1       5.999   5.962   0.726  0.00  0.00    -0.096 F 
ATOM     11  F3  UNL d   1       5.111   4.763  -1.534  0.00  0.00    -0.097 F 
ATOM     12  F4  UNL d   1       2.839   3.255  -1.494  0.00  0.00    -0.092 F 
ENDROOT
TORSDOF 0
ENDMDL
