MODEL 1
REMARK minimizedAffinity 14.4195118
REMARK minimizedRMSD -1
REMARK  0 active torsions:
REMARK  status: ('A' for Active; 'I' for Inactive)
ROOT
ATOM      1  C   UNL d   1      -4.044  -3.948  -2.568  0.00  0.00     0.124 A 
ATOM      2  C1  UNL d   1      -2.928  -4.389  -1.871  0.00  0.00     0.062 A 
ATOM      3  C2  UNL d   1      -2.258  -3.529  -1.006  0.00  0.00     0.162 A 
ATOM      4  C3  UNL d   1      -2.702  -2.219  -0.832  0.00  0.00    -0.034 A 
ATOM      5  C4  UNL d   1      -3.825  -1.781  -1.537  0.00  0.00     0.162 A 
ATOM      6  C5  UNL d   1      -4.491  -2.645  -2.401  0.00  0.00     0.062 A 
ATOM      7  F   UNL d   1      -5.569  -2.216  -3.074  0.00  0.00    -0.097 F 
ATOM      8  F1  UNL d   1      -4.279  -0.527  -1.394  0.00  0.00    -0.096 F 
ATOM      9  I   UNL d   1      -1.703  -0.930   0.461  0.00  0.00    -0.060 I 
ATOM     10  F2  UNL d   1      -1.182  -3.983  -0.345  0.00  0.00    -0.096 F 
ATOM     11  F3  UNL d   1      -2.494  -5.648  -2.031  0.00  0.00    -0.097 F 
ATOM     12  F4  UNL d   1      -4.687  -4.777  -3.400  0.00  0.00    -0.092 F 
ENDROOT
TORSDOF 0
ENDMDL
