MODEL 1
REMARK minimizedAffinity 10.0177555
REMARK minimizedRMSD -1
REMARK  0 active torsions:
REMARK  status: ('A' for Active; 'I' for Inactive)
ROOT
ATOM      1  C   UNL d   1      -2.978  -4.323  -1.110  0.00  0.00     0.124 A 
ATOM      2  C1  UNL d   1      -3.155  -2.988  -1.450  0.00  0.00     0.062 A 
ATOM      3  C2  UNL d   1      -2.202  -2.041  -1.084  0.00  0.00     0.162 A 
ATOM      4  C3  UNL d   1      -1.064  -2.425  -0.376  0.00  0.00    -0.034 A 
ATOM      5  C4  UNL d   1      -0.893  -3.768  -0.038  0.00  0.00     0.162 A 
ATOM      6  C5  UNL d   1      -1.848  -4.711  -0.405  0.00  0.00     0.062 A 
ATOM      7  F   UNL d   1      -1.675  -6.000  -0.076  0.00  0.00    -0.097 F 
ATOM      8  F1  UNL d   1       0.190  -4.172   0.643  0.00  0.00    -0.096 F 
ATOM      9  I   UNL d   1       0.362  -1.011   0.172  0.00  0.00    -0.060 I 
ATOM     10  F2  UNL d   1      -2.399  -0.759  -1.425  0.00  0.00    -0.096 F 
ATOM     11  F3  UNL d   1      -4.246  -2.610  -2.130  0.00  0.00    -0.097 F 
ATOM     12  F4  UNL d   1      -3.896  -5.232  -1.462  0.00  0.00    -0.092 F 
ENDROOT
TORSDOF 0
ENDMDL
