MODEL 1
REMARK minimizedAffinity -1.72687435
REMARK minimizedRMSD -1
REMARK  0 active torsions:
REMARK  status: ('A' for Active; 'I' for Inactive)
ROOT
ATOM      1  C   UNL d   1       5.745   4.139   2.847  0.00  0.00     0.124 A 
ATOM      2  C1  UNL d   1       5.621   3.103   1.931  0.00  0.00     0.062 A 
ATOM      3  C2  UNL d   1       5.623   1.781   2.366  0.00  0.00     0.162 A 
ATOM      4  C3  UNL d   1       5.748   1.487   3.724  0.00  0.00    -0.034 A 
ATOM      5  C4  UNL d   1       5.874   2.534   4.639  0.00  0.00     0.162 A 
ATOM      6  C5  UNL d   1       5.871   3.854   4.199  0.00  0.00     0.062 A 
ATOM      7  F   UNL d   1       5.991   4.854   5.085  0.00  0.00    -0.097 F 
ATOM      8  F1  UNL d   1       5.996   2.287   5.951  0.00  0.00    -0.096 F 
ATOM      9  I   UNL d   1       5.751  -0.489   4.379  0.00  0.00    -0.060 I 
ATOM     10  F2  UNL d   1       5.501   0.800   1.460  0.00  0.00    -0.096 F 
ATOM     11  F3  UNL d   1       5.500   3.376   0.624  0.00  0.00    -0.097 F 
ATOM     12  F4  UNL d   1       5.744   5.411   2.425  0.00  0.00    -0.092 F 
ENDROOT
TORSDOF 0
ENDMDL
