MODEL 1
REMARK minimizedAffinity 6.35464001
REMARK minimizedRMSD -1
REMARK  0 active torsions:
REMARK  status: ('A' for Active; 'I' for Inactive)
ROOT
ATOM      1  C   UNL d   1      -2.859  -1.312   2.405  0.00  0.00     0.124 A 
ATOM      2  C1  UNL d   1      -1.532  -1.497   2.768  0.00  0.00     0.062 A 
ATOM      3  C2  UNL d   1      -0.512  -1.185   1.874  0.00  0.00     0.162 A 
ATOM      4  C3  UNL d   1      -0.814  -0.684   0.607  0.00  0.00    -0.034 A 
ATOM      5  C4  UNL d   1      -2.151  -0.502   0.250  0.00  0.00     0.162 A 
ATOM      6  C5  UNL d   1      -3.167  -0.814   1.147  0.00  0.00     0.062 A 
ATOM      7  F   UNL d   1      -4.449  -0.635   0.795  0.00  0.00    -0.097 F 
ATOM      8  F1  UNL d   1      -2.478  -0.022  -0.960  0.00  0.00    -0.096 F 
ATOM      9  I   UNL d   1       0.708  -0.217  -0.733  0.00  0.00    -0.060 I 
ATOM     10  F2  UNL d   1       0.761  -1.374   2.251  0.00  0.00    -0.096 F 
ATOM     11  F3  UNL d   1      -1.231  -1.978   3.983  0.00  0.00    -0.097 F 
ATOM     12  F4  UNL d   1      -3.838  -1.613   3.267  0.00  0.00    -0.092 F 
ENDROOT
TORSDOF 0
ENDMDL
