MODEL 1
REMARK minimizedAffinity 16.7383823
REMARK minimizedRMSD -1
REMARK  0 active torsions:
REMARK  status: ('A' for Active; 'I' for Inactive)
ROOT
ATOM      1  C   UNL d   1       2.026  -3.100  -4.597  0.00  0.00     0.124 A 
ATOM      2  C1  UNL d   1       1.774  -3.739  -3.391  0.00  0.00     0.062 A 
ATOM      3  C2  UNL d   1       1.615  -2.996  -2.225  0.00  0.00     0.162 A 
ATOM      4  C3  UNL d   1       1.706  -1.604  -2.260  0.00  0.00    -0.034 A 
ATOM      5  C4  UNL d   1       1.960  -0.969  -3.476  0.00  0.00     0.162 A 
ATOM      6  C5  UNL d   1       2.119  -1.716  -4.639  0.00  0.00     0.062 A 
ATOM      7  F   UNL d   1       2.362  -1.097  -5.803  0.00  0.00    -0.097 F 
ATOM      8  F1  UNL d   1       2.054   0.367  -3.545  0.00  0.00    -0.096 F 
ATOM      9  I   UNL d   1       1.468  -0.489  -0.519  0.00  0.00    -0.060 I 
ATOM     10  F2  UNL d   1       1.372  -3.640  -1.074  0.00  0.00    -0.096 F 
ATOM     11  F3  UNL d   1       1.685  -5.076  -3.348  0.00  0.00    -0.097 F 
ATOM     12  F4  UNL d   1       2.179  -3.818  -5.717  0.00  0.00    -0.092 F 
ENDROOT
TORSDOF 0
ENDMDL
