MODEL 1
REMARK minimizedAffinity 15.8209887
REMARK minimizedRMSD -1
REMARK  0 active torsions:
REMARK  status: ('A' for Active; 'I' for Inactive)
ROOT
ATOM      1  C   UNL d   1       1.803  -0.677  -4.299  0.00  0.00     0.124 A 
ATOM      2  C1  UNL d   1       1.417   0.445  -3.578  0.00  0.00     0.062 A 
ATOM      3  C2  UNL d   1       1.004   0.319  -2.255  0.00  0.00     0.162 A 
ATOM      4  C3  UNL d   1       0.975  -0.935  -1.643  0.00  0.00    -0.034 A 
ATOM      5  C4  UNL d   1       1.364  -2.058  -2.375  0.00  0.00     0.162 A 
ATOM      6  C5  UNL d   1       1.776  -1.927  -3.697  0.00  0.00     0.062 A 
ATOM      7  F   UNL d   1       2.149  -3.012  -4.391  0.00  0.00    -0.097 F 
ATOM      8  F1  UNL d   1       1.349  -3.278  -1.817  0.00  0.00    -0.096 F 
ATOM      9  I   UNL d   1       0.358  -1.127   0.335  0.00  0.00    -0.060 I 
ATOM     10  F2  UNL d   1       0.636   1.419  -1.583  0.00  0.00    -0.096 F 
ATOM     11  F3  UNL d   1       1.441   1.653  -4.158  0.00  0.00    -0.097 F 
ATOM     12  F4  UNL d   1       2.200  -0.553  -5.572  0.00  0.00    -0.092 F 
ENDROOT
TORSDOF 0
ENDMDL
