MODEL 1
REMARK minimizedAffinity -4.59295511
REMARK minimizedRMSD -1
REMARK  1 active torsions:
REMARK  status: ('A' for Active; 'I' for Inactive)
REMARK    1  A    between atoms: C1_2  and  C2_3 
ROOT
ATOM      1  C2  UNL d   1       1.035   0.157  -1.639  0.00  0.00    -0.073 A 
ATOM      2  C3  UNL d   1      -0.268   0.316  -2.124  0.00  0.00    -0.002 A 
ATOM      3  C4  UNL d   1      -1.356   0.276  -1.250  0.00  0.00     0.004 A 
ATOM      4  C5  UNL d   1      -1.151   0.084   0.116  0.00  0.00    -0.004 A 
ATOM      5  C6  UNL d   1       0.144  -0.065   0.622  0.00  0.00    -0.075 A 
ATOM      6  C7  UNL d   1       0.380  -0.274   2.089  0.00  0.00     0.076 C 
ATOM      7  C8  UNL d   1       1.231  -0.026  -0.262  0.00  0.00     0.001 A 
ENDROOT
BRANCH   1   8
ATOM      8  C1  UNL d   1       2.212   0.206  -2.577  0.00  0.00     0.053 C 
ATOM      9  C   UNL d   1       3.014  -1.086  -2.555  0.00  0.00     0.018 C 
ENDBRANCH   1   8
TORSDOF 1
ENDMDL
