MODEL 1
REMARK minimizedAffinity -4.66941881
REMARK minimizedRMSD -1
REMARK  1 active torsions:
REMARK  status: ('A' for Active; 'I' for Inactive)
REMARK    1  A    between atoms: C1_2  and  C2_3 
ROOT
ATOM      1  C2  UNL d   1       0.604   0.021  -2.472  0.00  0.00    -0.073 A 
ATOM      2  C3  UNL d   1       0.156  -1.049  -3.254  0.00  0.00    -0.002 A 
ATOM      3  C4  UNL d   1       1.029  -1.697  -4.129  0.00  0.00     0.004 A 
ATOM      4  C5  UNL d   1       2.359  -1.287  -4.226  0.00  0.00    -0.004 A 
ATOM      5  C6  UNL d   1       2.828  -0.226  -3.445  0.00  0.00    -0.075 A 
ATOM      6  C7  UNL d   1       4.255   0.229  -3.539  0.00  0.00     0.076 C 
ATOM      7  C8  UNL d   1       1.945   0.421  -2.570  0.00  0.00     0.001 A 
ENDROOT
BRANCH   1   8
ATOM      8  C1  UNL d   1      -0.333   0.720  -1.521  0.00  0.00     0.053 C 
ATOM      9  C   UNL d   1      -0.428   0.002  -0.184  0.00  0.00     0.018 C 
ENDBRANCH   1   8
TORSDOF 1
ENDMDL
