MODEL 1
REMARK minimizedAffinity -3.80587506
REMARK minimizedRMSD -1
REMARK  1 active torsions:
REMARK  status: ('A' for Active; 'I' for Inactive)
REMARK    1  A    between atoms: C1_2  and  C2_3 
ROOT
ATOM      1  C2  UNL d   1       0.671  -0.283  -1.936  0.00  0.00    -0.073 A 
ATOM      2  C3  UNL d   1      -0.006  -1.314  -2.597  0.00  0.00    -0.002 A 
ATOM      3  C4  UNL d   1       0.666  -2.125  -3.513  0.00  0.00     0.004 A 
ATOM      4  C5  UNL d   1       2.021  -1.917  -3.772  0.00  0.00    -0.004 A 
ATOM      5  C6  UNL d   1       2.717  -0.899  -3.114  0.00  0.00    -0.075 A 
ATOM      6  C7  UNL d   1       4.174  -0.661  -3.383  0.00  0.00     0.076 C 
ATOM      7  C8  UNL d   1       2.035  -0.087  -2.197  0.00  0.00     0.001 A 
ENDROOT
BRANCH   1   8
ATOM      8  C1  UNL d   1      -0.049   0.591  -0.941  0.00  0.00     0.053 C 
ATOM      9  C   UNL d   1      -0.077  -0.030   0.446  0.00  0.00     0.018 C 
ENDBRANCH   1   8
TORSDOF 1
ENDMDL
