MODEL 1
REMARK minimizedAffinity -5.91040039
REMARK minimizedRMSD -1
REMARK  1 active torsions:
REMARK  status: ('A' for Active; 'I' for Inactive)
REMARK    1  A    between atoms: C1_2  and  C2_3 
ROOT
ATOM      1  C2  UNL d   1      -0.028  -0.100   1.125  0.00  0.00    -0.073 A 
ATOM      2  C3  UNL d   1       0.191   0.002   2.503  0.00  0.00    -0.002 A 
ATOM      3  C4  UNL d   1      -0.871   0.264   3.369  0.00  0.00     0.004 A 
ATOM      4  C5  UNL d   1      -2.163   0.419   2.867  0.00  0.00    -0.004 A 
ATOM      5  C6  UNL d   1      -2.405   0.309   1.494  0.00  0.00    -0.075 A 
ATOM      6  C7  UNL d   1      -3.789   0.476   0.938  0.00  0.00     0.076 C 
ATOM      7  C8  UNL d   1      -1.332   0.048   0.631  0.00  0.00     0.001 A 
ENDROOT
BRANCH   1   8
ATOM      8  C1  UNL d   1       1.115  -0.390   0.186  0.00  0.00     0.053 C 
ATOM      9  C   UNL d   1       0.958   0.332  -1.143  0.00  0.00     0.018 C 
ENDBRANCH   1   8
TORSDOF 1
ENDMDL
