MODEL 1
REMARK minimizedAffinity -4.6204133
REMARK minimizedRMSD -1
REMARK  1 active torsions:
REMARK  status: ('A' for Active; 'I' for Inactive)
REMARK    1  A    between atoms: C1_2  and  C2_3 
ROOT
ATOM      1  C2  UNL d   1      -0.195   0.067   0.645  0.00  0.00    -0.073 A 
ATOM      2  C3  UNL d   1      -1.336   0.820   0.350  0.00  0.00    -0.002 A 
ATOM      3  C4  UNL d   1      -1.706   1.050  -0.976  0.00  0.00     0.004 A 
ATOM      4  C5  UNL d   1      -0.944   0.524  -2.018  0.00  0.00    -0.004 A 
ATOM      5  C6  UNL d   1       0.194  -0.242  -1.744  0.00  0.00    -0.075 A 
ATOM      6  C7  UNL d   1       1.026  -0.813  -2.854  0.00  0.00     0.076 C 
ATOM      7  C8  UNL d   1       0.560  -0.466  -0.410  0.00  0.00     0.001 A 
ENDROOT
BRANCH   1   8
ATOM      8  C1  UNL d   1       0.205  -0.189   2.075  0.00  0.00     0.053 C 
ATOM      9  C   UNL d   1      -0.860  -0.964   2.835  0.00  0.00     0.018 C 
ENDBRANCH   1   8
TORSDOF 1
ENDMDL
