MODEL 1
REMARK minimizedAffinity -3.27460456
REMARK minimizedRMSD -1
REMARK  1 active torsions:
REMARK  status: ('A' for Active; 'I' for Inactive)
REMARK    1  A    between atoms: C1_2  and  C2_3 
ROOT
ATOM      1  C2  UNL d   1      -0.219   0.512  -0.543  0.00  0.00    -0.073 A 
ATOM      2  C3  UNL d   1      -1.563   0.745  -0.858  0.00  0.00    -0.002 A 
ATOM      3  C4  UNL d   1      -2.569   0.381   0.038  0.00  0.00     0.004 A 
ATOM      4  C5  UNL d   1      -2.243  -0.211   1.258  0.00  0.00    -0.004 A 
ATOM      5  C6  UNL d   1      -0.906  -0.441   1.595  0.00  0.00    -0.075 A 
ATOM      6  C7  UNL d   1      -0.538  -1.079   2.903  0.00  0.00     0.076 C 
ATOM      7  C8  UNL d   1       0.099  -0.076   0.690  0.00  0.00     0.001 A 
ENDROOT
BRANCH   1   8
ATOM      8  C1  UNL d   1       0.872   0.909  -1.504  0.00  0.00     0.053 C 
ATOM      9  C   UNL d   1       1.122  -0.161  -2.555  0.00  0.00     0.018 C 
ENDBRANCH   1   8
TORSDOF 1
ENDMDL
