MODEL 1
REMARK minimizedAffinity -4.43794918
REMARK minimizedRMSD -1
REMARK  1 active torsions:
REMARK  status: ('A' for Active; 'I' for Inactive)
REMARK    1  A    between atoms: C1_2  and  C2_3 
ROOT
ATOM      1  C2  UNL d   1       0.035  -0.140  -0.386  0.00  0.00    -0.073 A 
ATOM      2  C3  UNL d   1       0.893   0.947  -0.186  0.00  0.00    -0.002 A 
ATOM      3  C4  UNL d   1       1.107   1.449   1.098  0.00  0.00     0.004 A 
ATOM      4  C5  UNL d   1       0.472   0.866   2.195  0.00  0.00    -0.004 A 
ATOM      5  C6  UNL d   1      -0.380  -0.229   2.017  0.00  0.00    -0.075 A 
ATOM      6  C7  UNL d   1      -1.072  -0.866   3.185  0.00  0.00     0.076 C 
ATOM      7  C8  UNL d   1      -0.591  -0.726   0.723  0.00  0.00     0.001 A 
ENDROOT
BRANCH   1   8
ATOM      8  C1  UNL d   1      -0.194  -0.690  -1.770  0.00  0.00     0.053 C 
ATOM      9  C   UNL d   1       1.020  -0.500  -2.667  0.00  0.00     0.018 C 
ENDBRANCH   1   8
TORSDOF 1
ENDMDL
