MODEL 1
REMARK minimizedAffinity -4.62338734
REMARK minimizedRMSD -1
REMARK  1 active torsions:
REMARK  status: ('A' for Active; 'I' for Inactive)
REMARK    1  A    between atoms: C1_2  and  C2_3 
ROOT
ATOM      1  C2  UNL d   1       0.190   0.254  -1.252  0.00  0.00    -0.073 A 
ATOM      2  C3  UNL d   1      -1.066   0.750  -1.618  0.00  0.00    -0.002 A 
ATOM      3  C4  UNL d   1      -2.127   0.720  -0.712  0.00  0.00     0.004 A 
ATOM      4  C5  UNL d   1      -1.941   0.201   0.570  0.00  0.00    -0.004 A 
ATOM      5  C6  UNL d   1      -0.690  -0.289   0.958  0.00  0.00    -0.075 A 
ATOM      6  C7  UNL d   1      -0.475  -0.852   2.332  0.00  0.00     0.076 C 
ATOM      7  C8  UNL d   1       0.370  -0.257   0.042  0.00  0.00     0.001 A 
ENDROOT
BRANCH   1   8
ATOM      8  C1  UNL d   1       1.341   0.290  -2.224  0.00  0.00     0.053 C 
ATOM      9  C   UNL d   1       1.138  -0.674  -3.383  0.00  0.00     0.018 C 
ENDBRANCH   1   8
TORSDOF 1
ENDMDL
