MODEL 1
REMARK minimizedAffinity -5.62466812
REMARK minimizedRMSD -1
REMARK  1 active torsions:
REMARK  status: ('A' for Active; 'I' for Inactive)
REMARK    1  A    between atoms: C1_2  and  C2_3 
ROOT
ATOM      1  C2  UNL d   1      -0.539   0.008   0.699  0.00  0.00    -0.073 A 
ATOM      2  C3  UNL d   1      -0.152  -0.422   1.973  0.00  0.00    -0.002 A 
ATOM      3  C4  UNL d   1      -1.114  -0.710   2.943  0.00  0.00     0.004 A 
ATOM      4  C5  UNL d   1      -2.470  -0.577   2.647  0.00  0.00    -0.004 A 
ATOM      5  C6  UNL d   1      -2.877  -0.159   1.376  0.00  0.00    -0.075 A 
ATOM      6  C7  UNL d   1      -4.333  -0.009   1.042  0.00  0.00     0.076 C 
ATOM      7  C8  UNL d   1      -1.906   0.130   0.408  0.00  0.00     0.001 A 
ENDROOT
BRANCH   1   8
ATOM      8  C1  UNL d   1       0.495   0.314  -0.353  0.00  0.00     0.053 C 
ATOM      9  C   UNL d   1      -0.121   0.447  -1.737  0.00  0.00     0.018 C 
ENDBRANCH   1   8
TORSDOF 1
ENDMDL
