MODEL 1
REMARK minimizedAffinity -4.20742941
REMARK minimizedRMSD -1
REMARK  1 active torsions:
REMARK  status: ('A' for Active; 'I' for Inactive)
REMARK    1  A    between atoms: C1_2  and  C2_3 
ROOT
ATOM      1  C2  UNL d   1      -0.064  -0.484  -0.471  0.00  0.00    -0.073 A 
ATOM      2  C3  UNL d   1       0.969   0.433  -0.697  0.00  0.00    -0.002 A 
ATOM      3  C4  UNL d   1       1.660   0.433  -1.909  0.00  0.00     0.004 A 
ATOM      4  C5  UNL d   1       1.322  -0.479  -2.909  0.00  0.00    -0.004 A 
ATOM      5  C6  UNL d   1       0.285  -1.396  -2.707  0.00  0.00    -0.075 A 
ATOM      6  C7  UNL d   1      -0.089  -2.385  -3.772  0.00  0.00     0.076 C 
ATOM      7  C8  UNL d   1      -0.402  -1.391  -1.486  0.00  0.00     0.001 A 
ENDROOT
BRANCH   1   8
ATOM      8  C1  UNL d   1      -0.817  -0.483   0.834  0.00  0.00     0.053 C 
ATOM      9  C   UNL d   1       0.106  -0.688   2.025  0.00  0.00     0.018 C 
ENDBRANCH   1   8
TORSDOF 1
ENDMDL
