MODEL 1
REMARK minimizedAffinity -5.23495483
REMARK minimizedRMSD -1
REMARK  1 active torsions:
REMARK  status: ('A' for Active; 'I' for Inactive)
REMARK    1  A    between atoms: C1_2  and  C2_3 
ROOT
ATOM      1  C2  UNL d   1      -0.088  -0.472  -1.146  0.00  0.00    -0.073 A 
ATOM      2  C3  UNL d   1      -0.750  -1.372  -1.988  0.00  0.00    -0.002 A 
ATOM      3  C4  UNL d   1      -0.218  -1.689  -3.238  0.00  0.00     0.004 A 
ATOM      4  C5  UNL d   1       0.983  -1.116  -3.656  0.00  0.00    -0.004 A 
ATOM      5  C6  UNL d   1       1.666  -0.223  -2.824  0.00  0.00    -0.075 A 
ATOM      6  C7  UNL d   1       2.957   0.405  -3.259  0.00  0.00     0.076 C 
ATOM      7  C8  UNL d   1       1.123   0.093  -1.571  0.00  0.00     0.001 A 
ENDROOT
BRANCH   1   8
ATOM      8  C1  UNL d   1      -0.655  -0.131   0.208  0.00  0.00     0.053 C 
ATOM      9  C   UNL d   1       0.371  -0.304   1.316  0.00  0.00     0.018 C 
ENDBRANCH   1   8
TORSDOF 1
ENDMDL
