MODEL 1
REMARK minimizedAffinity -4.0771513
REMARK minimizedRMSD -1
REMARK  1 active torsions:
REMARK  status: ('A' for Active; 'I' for Inactive)
REMARK    1  A    between atoms: C1_2  and  C2_3 
ROOT
ATOM      1  C2  UNL d   1       0.199  -0.399   0.032  0.00  0.00    -0.073 A 
ATOM      2  C3  UNL d   1      -0.799   0.558  -0.184  0.00  0.00    -0.002 A 
ATOM      3  C4  UNL d   1      -1.145   0.934  -1.483  0.00  0.00     0.004 A 
ATOM      4  C5  UNL d   1      -0.503   0.354  -2.577  0.00  0.00    -0.004 A 
ATOM      5  C6  UNL d   1       0.489  -0.612  -2.381  0.00  0.00    -0.075 A 
ATOM      6  C7  UNL d   1       1.190  -1.244  -3.548  0.00  0.00     0.076 C 
ATOM      7  C8  UNL d   1       0.833  -0.983  -1.075  0.00  0.00     0.001 A 
ENDROOT
BRANCH   1   8
ATOM      8  C1  UNL d   1       0.572  -0.814   1.432  0.00  0.00     0.053 C 
ATOM      9  C   UNL d   1      -0.003   0.128   2.477  0.00  0.00     0.018 C 
ENDBRANCH   1   8
TORSDOF 1
ENDMDL
