MODEL 1
REMARK minimizedAffinity -0.931289315
REMARK minimizedRMSD -1
REMARK  1 active torsions:
REMARK  status: ('A' for Active; 'I' for Inactive)
REMARK    1  A    between atoms: C1_2  and  C2_3 
ROOT
ATOM      1  C2  UNL d   1      -2.294  -0.166   0.315  0.00  0.00    -0.073 A 
ATOM      2  C3  UNL d   1      -1.965  -1.361   0.965  0.00  0.00    -0.002 A 
ATOM      3  C4  UNL d   1      -0.658  -1.593   1.394  0.00  0.00     0.004 A 
ATOM      4  C5  UNL d   1       0.331  -0.632   1.184  0.00  0.00    -0.004 A 
ATOM      5  C6  UNL d   1       0.019   0.574   0.547  0.00  0.00    -0.075 A 
ATOM      6  C7  UNL d   1       1.072   1.617   0.312  0.00  0.00     0.076 C 
ATOM      7  C8  UNL d   1      -1.296   0.798   0.117  0.00  0.00     0.001 A 
ENDROOT
BRANCH   1   8
ATOM      8  C1  UNL d   1      -3.706   0.091  -0.145  0.00  0.00     0.053 C 
ATOM      9  C   UNL d   1      -4.713  -0.777   0.592  0.00  0.00     0.018 C 
ENDBRANCH   1   8
TORSDOF 1
ENDMDL
