MODEL 1
REMARK minimizedAffinity -4.61188364
REMARK minimizedRMSD -1
REMARK  1 active torsions:
REMARK  status: ('A' for Active; 'I' for Inactive)
REMARK    1  A    between atoms: C1_2  and  C2_3 
ROOT
ATOM      1  C2  UNL d   1       2.902  -0.708  -3.411  0.00  0.00    -0.073 A 
ATOM      2  C3  UNL d   1       2.328  -1.804  -4.065  0.00  0.00    -0.002 A 
ATOM      3  C4  UNL d   1       0.977  -2.104  -3.885  0.00  0.00     0.004 A 
ATOM      4  C5  UNL d   1       0.186  -1.309  -3.056  0.00  0.00    -0.004 A 
ATOM      5  C6  UNL d   1       0.738  -0.202  -2.403  0.00  0.00    -0.075 A 
ATOM      6  C7  UNL d   1      -0.099   0.662  -1.506  0.00  0.00     0.076 C 
ATOM      7  C8  UNL d   1       2.096   0.091  -2.587  0.00  0.00     0.001 A 
ENDROOT
BRANCH   1   8
ATOM      8  C1  UNL d   1       4.358  -0.376  -3.607  0.00  0.00     0.053 C 
ATOM      9  C   UNL d   1       4.610   1.123  -3.585  0.00  0.00     0.018 C 
ENDBRANCH   1   8
TORSDOF 1
ENDMDL
