MODEL 1
REMARK minimizedAffinity -5.59638166
REMARK minimizedRMSD -1
REMARK  1 active torsions:
REMARK  status: ('A' for Active; 'I' for Inactive)
REMARK    1  A    between atoms: C1_2  and  C2_3 
ROOT
ATOM      1  C2  UNL d   1      -0.283   0.378  -0.666  0.00  0.00    -0.073 A 
ATOM      2  C3  UNL d   1      -1.633   0.620  -0.946  0.00  0.00    -0.002 A 
ATOM      3  C4  UNL d   1      -2.606   0.400   0.030  0.00  0.00     0.004 A 
ATOM      4  C5  UNL d   1      -2.239  -0.057   1.296  0.00  0.00    -0.004 A 
ATOM      5  C6  UNL d   1      -0.894  -0.293   1.598  0.00  0.00    -0.075 A 
ATOM      6  C7  UNL d   1      -0.483  -0.787   2.955  0.00  0.00     0.076 C 
ATOM      7  C8  UNL d   1       0.076  -0.072   0.612  0.00  0.00     0.001 A 
ENDROOT
BRANCH   1   8
ATOM      8  C1  UNL d   1       0.771   0.621  -1.715  0.00  0.00     0.053 C 
ATOM      9  C   UNL d   1       0.907  -0.555  -2.669  0.00  0.00     0.018 C 
ENDBRANCH   1   8
TORSDOF 1
ENDMDL
