MODEL 1
REMARK minimizedAffinity -2.05847216
REMARK minimizedRMSD -1
REMARK  1 active torsions:
REMARK  status: ('A' for Active; 'I' for Inactive)
REMARK    1  A    between atoms: C1_2  and  C2_3 
ROOT
ATOM      1  C2  UNL d   1      -1.105  -0.130   0.510  0.00  0.00    -0.073 A 
ATOM      2  C3  UNL d   1      -1.266  -0.826   1.713  0.00  0.00    -0.002 A 
ATOM      3  C4  UNL d   1      -0.376  -0.624   2.769  0.00  0.00     0.004 A 
ATOM      4  C5  UNL d   1       0.679   0.278   2.635  0.00  0.00    -0.004 A 
ATOM      5  C6  UNL d   1       0.850   0.991   1.444  0.00  0.00    -0.075 A 
ATOM      6  C7  UNL d   1       1.981   1.964   1.283  0.00  0.00     0.076 C 
ATOM      7  C8  UNL d   1      -0.046   0.781   0.388  0.00  0.00     0.001 A 
ENDROOT
BRANCH   1   8
ATOM      8  C1  UNL d   1      -2.067  -0.340  -0.631  0.00  0.00     0.053 C 
ATOM      9  C   UNL d   1      -3.477   0.104  -0.276  0.00  0.00     0.018 C 
ENDBRANCH   1   8
TORSDOF 1
ENDMDL
