MODEL 1
REMARK minimizedAffinity -1.74539351
REMARK minimizedRMSD -1
REMARK  1 active torsions:
REMARK  status: ('A' for Active; 'I' for Inactive)
REMARK    1  A    between atoms: C1_2  and  C2_3 
ROOT
ATOM      1  C2  UNL d   1       0.453  -0.787  -2.109  0.00  0.00    -0.073 A 
ATOM      2  C3  UNL d   1      -0.252  -1.762  -2.823  0.00  0.00    -0.002 A 
ATOM      3  C4  UNL d   1       0.376  -2.483  -3.840  0.00  0.00     0.004 A 
ATOM      4  C5  UNL d   1       1.715  -2.242  -4.147  0.00  0.00    -0.004 A 
ATOM      5  C6  UNL d   1       2.440  -1.280  -3.436  0.00  0.00    -0.075 A 
ATOM      6  C7  UNL d   1       3.880  -1.006  -3.756  0.00  0.00     0.076 C 
ATOM      7  C8  UNL d   1       1.801  -0.558  -2.419  0.00  0.00     0.001 A 
ENDROOT
BRANCH   1   8
ATOM      8  C1  UNL d   1      -0.219  -0.011  -1.006  0.00  0.00     0.053 C 
ATOM      9  C   UNL d   1       0.600  -0.015   0.275  0.00  0.00     0.018 C 
ENDBRANCH   1   8
TORSDOF 1
ENDMDL
