MODEL 1
REMARK minimizedAffinity 0.371042162
REMARK minimizedRMSD -1
REMARK  0 active torsions:
REMARK  status: ('A' for Active; 'I' for Inactive)
ROOT
ATOM      1  C   UNL d   1       5.341   4.466   5.260  0.00  0.00     0.023 A 
ATOM      2  C1  UNL d   1       4.479   3.802   4.387  0.00  0.00     0.003 A 
ATOM      3  C2  UNL d   1       3.155   4.228   4.253  0.00  0.00     0.048 A 
ATOM      4  C3  UNL d   1       2.701   5.318   4.994  0.00  0.00     0.023 A 
ATOM      5  C4  UNL d   1       3.560   5.986   5.868  0.00  0.00     0.048 A 
ATOM      6  C5  UNL d   1       4.882   5.557   5.999  0.00  0.00     0.003 A 
ATOM      7  I   UNL d   1       0.732   5.953   4.795  0.00  0.00    -0.146 I 
ENDROOT
TORSDOF 0
ENDMDL
