MODEL 1
REMARK minimizedAffinity 3.4548831
REMARK minimizedRMSD -1
REMARK  0 active torsions:
REMARK  status: ('A' for Active; 'I' for Inactive)
ROOT
ATOM      1  C   UNL d   1       3.250   5.990   4.270  0.00  0.00     0.023 A 
ATOM      2  C1  UNL d   1       2.419   5.985   5.390  0.00  0.00     0.003 A 
ATOM      3  C2  UNL d   1       1.032   5.985   5.233  0.00  0.00     0.048 A 
ATOM      4  C3  UNL d   1       0.482   5.989   3.952  0.00  0.00     0.023 A 
ATOM      5  C4  UNL d   1       1.309   5.993   2.827  0.00  0.00     0.048 A 
ATOM      6  C5  UNL d   1       2.695   5.994   2.990  0.00  0.00     0.003 A 
ATOM      7  I   UNL d   1      -1.583   5.989   3.715  0.00  0.00    -0.146 I 
ENDROOT
TORSDOF 0
ENDMDL
