MODEL 1
REMARK minimizedAffinity 5.92464256
REMARK minimizedRMSD -1
REMARK  0 active torsions:
REMARK  status: ('A' for Active; 'I' for Inactive)
ROOT
ATOM      1  C   UNL d   1      -4.758   1.494   1.132  0.00  0.00     0.023 A 
ATOM      2  C1  UNL d   1      -3.779   2.316   1.691  0.00  0.00     0.003 A 
ATOM      3  C2  UNL d   1      -2.473   2.283   1.197  0.00  0.00     0.048 A 
ATOM      4  C3  UNL d   1      -2.154   1.427   0.144  0.00  0.00     0.023 A 
ATOM      5  C4  UNL d   1      -3.130   0.603  -0.419  0.00  0.00     0.048 A 
ATOM      6  C5  UNL d   1      -4.434   0.639   0.079  0.00  0.00     0.003 A 
ATOM      7  I   UNL d   1      -0.211   1.376  -0.592  0.00  0.00    -0.146 I 
ENDROOT
TORSDOF 0
ENDMDL
