MODEL 1
REMARK minimizedAffinity -3.84097934
REMARK minimizedRMSD -1
REMARK  0 active torsions:
REMARK  status: ('A' for Active; 'I' for Inactive)
ROOT
ATOM      1  C   UNL d   1       4.105   4.027   5.849  0.00  0.00     0.023 A 
ATOM      2  C1  UNL d   1       3.324   3.235   5.007  0.00  0.00     0.003 A 
ATOM      3  C2  UNL d   1       2.254   3.800   4.310  0.00  0.00     0.048 A 
ATOM      4  C3  UNL d   1       1.972   5.157   4.458  0.00  0.00     0.023 A 
ATOM      5  C4  UNL d   1       2.751   5.954   5.299  0.00  0.00     0.048 A 
ATOM      6  C5  UNL d   1       3.819   5.384   5.995  0.00  0.00     0.003 A 
ATOM      7  I   UNL d   1       0.380   6.000   3.421  0.00  0.00    -0.146 I 
ENDROOT
TORSDOF 0
ENDMDL
