MODEL 1
REMARK minimizedAffinity -4.53042841
REMARK minimizedRMSD -1
REMARK  0 active torsions:
REMARK  status: ('A' for Active; 'I' for Inactive)
ROOT
ATOM      1  C   UNL d   1      -0.360   5.897   4.442  0.00  0.00     0.023 A 
ATOM      2  C1  UNL d   1      -0.225   5.269   5.680  0.00  0.00     0.003 A 
ATOM      3  C2  UNL d   1       0.861   4.424   5.922  0.00  0.00     0.048 A 
ATOM      4  C3  UNL d   1       1.808   4.212   4.921  0.00  0.00     0.023 A 
ATOM      5  C4  UNL d   1       1.677   4.838   3.680  0.00  0.00     0.048 A 
ATOM      6  C5  UNL d   1       0.590   5.681   3.443  0.00  0.00     0.003 A 
ATOM      7  I   UNL d   1       3.424   2.954   5.278  0.00  0.00    -0.146 I 
ENDROOT
TORSDOF 0
ENDMDL
