MODEL 1
REMARK minimizedAffinity 2.03635693
REMARK minimizedRMSD -1
REMARK  0 active torsions:
REMARK  status: ('A' for Active; 'I' for Inactive)
ROOT
ATOM      1  C   UNL d   1       1.759  -0.936   0.322  0.00  0.00     0.023 A 
ATOM      2  C1  UNL d   1       2.951  -1.515  -0.112  0.00  0.00     0.003 A 
ATOM      3  C2  UNL d   1       3.978  -0.712  -0.613  0.00  0.00     0.048 A 
ATOM      4  C3  UNL d   1       3.806   0.671  -0.675  0.00  0.00     0.023 A 
ATOM      5  C4  UNL d   1       2.615   1.255  -0.240  0.00  0.00     0.048 A 
ATOM      6  C5  UNL d   1       1.591   0.448   0.258  0.00  0.00     0.003 A 
ATOM      7  I   UNL d   1       5.332   1.869  -1.419  0.00  0.00    -0.146 I 
ENDROOT
TORSDOF 0
ENDMDL
