MODEL 1
REMARK minimizedAffinity 4.63380003
REMARK minimizedRMSD -1
REMARK  0 active torsions:
REMARK  status: ('A' for Active; 'I' for Inactive)
ROOT
ATOM      1  C   UNL d   1       2.073  -0.967   0.111  0.00  0.00     0.023 A 
ATOM      2  C1  UNL d   1       1.770   0.394   0.071  0.00  0.00     0.003 A 
ATOM      3  C2  UNL d   1       2.678   1.297  -0.485  0.00  0.00     0.048 A 
ATOM      4  C3  UNL d   1       3.887   0.832  -1.002  0.00  0.00     0.023 A 
ATOM      5  C4  UNL d   1       4.194  -0.529  -0.965  0.00  0.00     0.048 A 
ATOM      6  C5  UNL d   1       3.284  -1.428  -0.406  0.00  0.00     0.003 A 
ATOM      7  I   UNL d   1       5.241   2.174  -1.831  0.00  0.00    -0.146 I 
ENDROOT
TORSDOF 0
ENDMDL
