MODEL 1
REMARK minimizedAffinity 3.48295617
REMARK minimizedRMSD -1
REMARK  0 active torsions:
REMARK  status: ('A' for Active; 'I' for Inactive)
ROOT
ATOM      1  C   UNL d   1       3.930   5.999   4.201  0.00  0.00     0.023 A 
ATOM      2  C1  UNL d   1       3.404   5.781   5.474  0.00  0.00     0.003 A 
ATOM      3  C2  UNL d   1       3.338   4.486   5.991  0.00  0.00     0.048 A 
ATOM      4  C3  UNL d   1       3.801   3.413   5.230  0.00  0.00     0.023 A 
ATOM      5  C4  UNL d   1       4.328   3.626   3.955  0.00  0.00     0.048 A 
ATOM      6  C5  UNL d   1       4.391   4.923   3.442  0.00  0.00     0.003 A 
ATOM      7  I   UNL d   1       3.704   1.484   5.998  0.00  0.00    -0.146 I 
ENDROOT
TORSDOF 0
ENDMDL
