MODEL 1
REMARK minimizedAffinity -1.93795776
REMARK minimizedRMSD -1
REMARK  2 active torsions:
REMARK  status: ('A' for Active; 'I' for Inactive)
REMARK    1  A    between atoms: C2'_3  and  C1'_4 
REMARK    2  A    between atoms: C1'_4  and  C1_5 
ROOT
ATOM      1  C1  I4B d   1       1.681   4.387  -5.960  0.00  0.00    -0.075 A 
ATOM      2  C2  I4B d   1       2.016   3.056  -5.996  0.00  0.00     0.003 A 
ATOM      3  C3  I4B d   1       3.376   2.663  -5.990  0.00  0.00     0.002 A 
ATOM      4  C4  I4B d   1       4.362   3.629  -6.000  0.00  0.00    -0.004 A 
ATOM      5  C5  I4B d   1       4.021   4.977  -5.941  0.00  0.00     0.002 A 
ATOM      6  C6  I4B d   1       2.672   5.358  -5.908  0.00  0.00     0.003 A 
ENDROOT
BRANCH   1   7
ATOM      7  C1' I4B d   1       0.234   4.767  -6.000  0.00  0.00     0.060 C 
BRANCH   7   8
ATOM      8  C2' I4B d   1      -0.563   3.638  -5.380  0.00  0.00    -0.013 C 
ATOM      9  C4' I4B d   1      -0.638   3.781  -3.883  0.00  0.00     0.013 C 
ATOM     10  C3' I4B d   1      -1.931   3.645  -5.994  0.00  0.00     0.013 C 
ENDBRANCH   7   8
ENDBRANCH   1   7
TORSDOF 2
ENDMDL
