MODEL 1
REMARK minimizedAffinity 3.26380634
REMARK minimizedRMSD -1
REMARK  2 active torsions:
REMARK  status: ('A' for Active; 'I' for Inactive)
REMARK    1  A    between atoms: C2'_3  and  C1'_4 
REMARK    2  A    between atoms: C1'_4  and  C1_5 
ROOT
ATOM      1  C1  I4B d   1       0.675   4.928  -5.938  0.00  0.00    -0.075 A 
ATOM      2  C2  I4B d   1       1.817   5.689  -5.974  0.00  0.00     0.003 A 
ATOM      3  C3  I4B d   1       3.088   5.066  -5.997  0.00  0.00     0.002 A 
ATOM      4  C4  I4B d   1       3.172   3.690  -5.933  0.00  0.00    -0.004 A 
ATOM      5  C5  I4B d   1       2.013   2.920  -5.919  0.00  0.00     0.002 A 
ATOM      6  C6  I4B d   1       0.756   3.541  -5.934  0.00  0.00     0.003 A 
ENDROOT
BRANCH   1   7
ATOM      7  C1' I4B d   1      -0.650   5.619  -5.881  0.00  0.00     0.060 C 
BRANCH   7   8
ATOM      8  C2' I4B d   1      -1.493   4.926  -4.829  0.00  0.00    -0.013 C 
ATOM      9  C4' I4B d   1      -2.516   5.864  -4.245  0.00  0.00     0.013 C 
ATOM     10  C3' I4B d   1      -2.150   3.740  -5.470  0.00  0.00     0.013 C 
ENDBRANCH   7   8
ENDBRANCH   1   7
TORSDOF 2
ENDMDL
