MODEL 1
REMARK minimizedAffinity 0.854129612
REMARK minimizedRMSD -1
REMARK  2 active torsions:
REMARK  status: ('A' for Active; 'I' for Inactive)
REMARK    1  A    between atoms: C2'_3  and  C1'_4 
REMARK    2  A    between atoms: C1'_4  and  C1_5 
ROOT
ATOM      1  C1  I4B d   1       2.039   4.848  -6.000  0.00  0.00    -0.075 A 
ATOM      2  C2  I4B d   1       3.104   5.714  -5.980  0.00  0.00     0.003 A 
ATOM      3  C3  I4B d   1       4.429   5.214  -5.949  0.00  0.00     0.002 A 
ATOM      4  C4  I4B d   1       4.640   3.852  -5.887  0.00  0.00    -0.004 A 
ATOM      5  C5  I4B d   1       3.560   2.975  -5.930  0.00  0.00     0.002 A 
ATOM      6  C6  I4B d   1       2.251   3.475  -5.999  0.00  0.00     0.003 A 
ENDROOT
BRANCH   1   7
ATOM      7  C1' I4B d   1       0.653   5.410  -5.999  0.00  0.00     0.060 C 
BRANCH   7   8
ATOM      8  C2' I4B d   1      -0.304   4.291  -5.643  0.00  0.00    -0.013 C 
ATOM      9  C4' I4B d   1      -0.192   3.920  -4.188  0.00  0.00     0.013 C 
ATOM     10  C3' I4B d   1      -1.693   4.745  -5.980  0.00  0.00     0.013 C 
ENDBRANCH   7   8
ENDBRANCH   1   7
TORSDOF 2
ENDMDL
