MODEL 1
REMARK minimizedAffinity 4.28502893
REMARK minimizedRMSD -1
REMARK  2 active torsions:
REMARK  status: ('A' for Active; 'I' for Inactive)
REMARK    1  A    between atoms: C2'_3  and  C1'_4 
REMARK    2  A    between atoms: C1'_4  and  C1_5 
ROOT
ATOM      1  C1  I4B d   1      -0.920   3.203  -5.927  0.00  0.00    -0.075 A 
ATOM      2  C2  I4B d   1      -1.033   4.569  -5.986  0.00  0.00     0.003 A 
ATOM      3  C3  I4B d   1       0.128   5.380  -6.000  0.00  0.00     0.002 A 
ATOM      4  C4  I4B d   1       1.371   4.790  -5.904  0.00  0.00    -0.004 A 
ATOM      5  C5  I4B d   1       1.485   3.403  -5.867  0.00  0.00     0.002 A 
ATOM      6  C6  I4B d   1       0.333   2.603  -5.891  0.00  0.00     0.003 A 
ENDROOT
BRANCH   1   7
ATOM      7  C1' I4B d   1      -2.167   2.378  -5.880  0.00  0.00     0.060 C 
BRANCH   7   8
ATOM      8  C2' I4B d   1      -3.265   3.225  -5.271  0.00  0.00    -0.013 C 
ATOM      9  C4' I4B d   1      -2.946   4.693  -5.383  0.00  0.00     0.013 C 
ATOM     10  C3' I4B d   1      -4.548   2.895  -5.972  0.00  0.00     0.013 C 
ENDBRANCH   7   8
ENDBRANCH   1   7
TORSDOF 2
ENDMDL
