MODEL 1
REMARK minimizedAffinity 6.50050497
REMARK minimizedRMSD -1
REMARK  2 active torsions:
REMARK  status: ('A' for Active; 'I' for Inactive)
REMARK    1  A    between atoms: C2'_3  and  C1'_4 
REMARK    2  A    between atoms: C1'_4  and  C1_5 
ROOT
ATOM      1  C1  I4B d   1      -0.189   3.398  -5.935  0.00  0.00    -0.075 A 
ATOM      2  C2  I4B d   1      -1.555   3.274  -5.998  0.00  0.00     0.003 A 
ATOM      3  C3  I4B d   1      -2.380   4.422  -5.914  0.00  0.00     0.002 A 
ATOM      4  C4  I4B d   1      -1.804   5.660  -5.718  0.00  0.00    -0.004 A 
ATOM      5  C5  I4B d   1      -0.418   5.787  -5.678  0.00  0.00     0.002 A 
ATOM      6  C6  I4B d   1       0.395   4.651  -5.799  0.00  0.00     0.003 A 
ENDROOT
BRANCH   1   7
ATOM      7  C1' I4B d   1       0.651   2.162  -5.994  0.00  0.00     0.060 C 
BRANCH   7   8
ATOM      8  C2' I4B d   1       1.884   2.395  -5.146  0.00  0.00    -0.013 C 
ATOM      9  C4' I4B d   1       2.864   3.300  -5.845  0.00  0.00     0.013 C 
ATOM     10  C3' I4B d   1       1.443   2.982  -3.838  0.00  0.00     0.013 C 
ENDBRANCH   7   8
ENDBRANCH   1   7
TORSDOF 2
ENDMDL
