MODEL 1
REMARK minimizedAffinity 5.41698551
REMARK minimizedRMSD -1
REMARK  2 active torsions:
REMARK  status: ('A' for Active; 'I' for Inactive)
REMARK    1  A    between atoms: C2'_3  and  C1'_4 
REMARK    2  A    between atoms: C1'_4  and  C1_5 
ROOT
ATOM      1  C1  I4B d   1      -0.697   4.037  -5.954  0.00  0.00    -0.075 A 
ATOM      2  C2  I4B d   1      -1.000   5.375  -5.976  0.00  0.00     0.003 A 
ATOM      3  C3  I4B d   1      -2.351   5.800  -5.970  0.00  0.00     0.002 A 
ATOM      4  C4  I4B d   1      -3.360   4.859  -5.992  0.00  0.00    -0.004 A 
ATOM      5  C5  I4B d   1      -3.050   3.503  -5.946  0.00  0.00     0.002 A 
ATOM      6  C6  I4B d   1      -1.711   3.089  -5.915  0.00  0.00     0.003 A 
ENDROOT
BRANCH   1   7
ATOM      7  C1' I4B d   1       0.740   3.623  -5.994  0.00  0.00     0.060 C 
BRANCH   7   8
ATOM      8  C2' I4B d   1       0.836   2.217  -5.436  0.00  0.00    -0.013 C 
ATOM      9  C4' I4B d   1       2.128   1.557  -5.841  0.00  0.00     0.013 C 
ATOM     10  C3' I4B d   1       0.717   2.303  -3.944  0.00  0.00     0.013 C 
ENDBRANCH   7   8
ENDBRANCH   1   7
TORSDOF 2
ENDMDL
