MODEL 1
REMARK minimizedAffinity -0.852061689
REMARK minimizedRMSD -1
REMARK  2 active torsions:
REMARK  status: ('A' for Active; 'I' for Inactive)
REMARK    1  A    between atoms: C2'_3  and  C1'_4 
REMARK    2  A    between atoms: C1'_4  and  C1_5 
ROOT
ATOM      1  C1  I4B d   1       2.116   4.996  -6.000  0.00  0.00    -0.075 A 
ATOM      2  C2  I4B d   1       3.058   5.994  -6.000  0.00  0.00     0.003 A 
ATOM      3  C3  I4B d   1       4.437   5.673  -5.973  0.00  0.00     0.002 A 
ATOM      4  C4  I4B d   1       4.825   4.351  -5.897  0.00  0.00    -0.004 A 
ATOM      5  C5  I4B d   1       3.869   3.340  -5.920  0.00  0.00     0.002 A 
ATOM      6  C6  I4B d   1       2.506   3.663  -5.984  0.00  0.00     0.003 A 
ENDROOT
BRANCH   1   7
ATOM      7  C1' I4B d   1       0.668   5.372  -5.995  0.00  0.00     0.060 C 
BRANCH   7   8
ATOM      8  C2' I4B d   1      -0.055   4.433  -5.051  0.00  0.00    -0.013 C 
ATOM      9  C4' I4B d   1      -1.063   5.172  -4.211  0.00  0.00     0.013 C 
ATOM     10  C3' I4B d   1      -0.714   3.366  -5.873  0.00  0.00     0.013 C 
ENDBRANCH   7   8
ENDBRANCH   1   7
TORSDOF 2
ENDMDL
