MODEL 1
REMARK minimizedAffinity 7.86640167
REMARK minimizedRMSD -1
REMARK  2 active torsions:
REMARK  status: ('A' for Active; 'I' for Inactive)
REMARK    1  A    between atoms: C2'_3  and  C1'_4 
REMARK    2  A    between atoms: C1'_4  and  C1_5 
ROOT
ATOM      1  C1  I4B d   1       0.051   3.729  -5.505  0.00  0.00    -0.075 A 
ATOM      2  C2  I4B d   1       1.221   4.390  -5.787  0.00  0.00     0.003 A 
ATOM      3  C3  I4B d   1       2.431   3.669  -5.925  0.00  0.00     0.002 A 
ATOM      4  C4  I4B d   1       2.436   2.304  -5.725  0.00  0.00    -0.004 A 
ATOM      5  C5  I4B d   1       1.245   1.633  -5.462  0.00  0.00     0.002 A 
ATOM      6  C6  I4B d   1       0.043   2.348  -5.363  0.00  0.00     0.003 A 
ENDROOT
BRANCH   1   7
ATOM      7  C1' I4B d   1      -1.203   4.526  -5.332  0.00  0.00     0.060 C 
BRANCH   7   8
ATOM      8  C2' I4B d   1      -2.370   3.560  -5.313  0.00  0.00    -0.013 C 
ATOM      9  C4' I4B d   1      -3.582   4.155  -5.981  0.00  0.00     0.013 C 
ATOM     10  C3' I4B d   1      -1.939   2.298  -5.999  0.00  0.00     0.013 C 
ENDBRANCH   7   8
ENDBRANCH   1   7
TORSDOF 2
ENDMDL
