MODEL 1
REMARK minimizedAffinity -0.629286647
REMARK minimizedRMSD -1
REMARK  2 active torsions:
REMARK  status: ('A' for Active; 'I' for Inactive)
REMARK    1  A    between atoms: C2'_3  and  C1'_4 
REMARK    2  A    between atoms: C1'_4  and  C1_5 
ROOT
ATOM      1  C1  I4B d   1      -1.565   3.669  -5.997  0.00  0.00    -0.075 A 
ATOM      2  C2  I4B d   1      -1.499   5.040  -5.999  0.00  0.00     0.003 A 
ATOM      3  C3  I4B d   1      -0.243   5.693  -5.987  0.00  0.00     0.002 A 
ATOM      4  C4  I4B d   1       0.913   4.942  -5.923  0.00  0.00    -0.004 A 
ATOM      5  C5  I4B d   1       0.845   3.552  -5.944  0.00  0.00     0.002 A 
ATOM      6  C6  I4B d   1      -0.402   2.911  -5.994  0.00  0.00     0.003 A 
ENDROOT
BRANCH   1   7
ATOM      7  C1' I4B d   1      -2.909   3.012  -5.976  0.00  0.00     0.060 C 
BRANCH   7   8
ATOM      8  C2' I4B d   1      -3.907   4.008  -5.420  0.00  0.00    -0.013 C 
ATOM      9  C4' I4B d   1      -3.643   5.395  -5.946  0.00  0.00     0.013 C 
ATOM     10  C3' I4B d   1      -5.283   3.541  -5.792  0.00  0.00     0.013 C 
ENDBRANCH   7   8
ENDBRANCH   1   7
TORSDOF 2
ENDMDL
