MODEL 1
REMARK minimizedAffinity -1.36211073
REMARK minimizedRMSD -1
REMARK  2 active torsions:
REMARK  status: ('A' for Active; 'I' for Inactive)
REMARK    1  A    between atoms: C2'_3  and  C1'_4 
REMARK    2  A    between atoms: C1'_4  and  C1_5 
ROOT
ATOM      1  C1  I4B d   1      -2.243   4.850  -5.956  0.00  0.00    -0.075 A 
ATOM      2  C2  I4B d   1      -2.175   3.479  -6.000  0.00  0.00     0.003 A 
ATOM      3  C3  I4B d   1      -0.918   2.828  -5.996  0.00  0.00     0.002 A 
ATOM      4  C4  I4B d   1       0.238   3.581  -6.000  0.00  0.00    -0.004 A 
ATOM      5  C5  I4B d   1       0.167   4.970  -5.932  0.00  0.00     0.002 A 
ATOM      6  C6  I4B d   1      -1.081   5.608  -5.898  0.00  0.00     0.003 A 
ENDROOT
BRANCH   1   7
ATOM      7  C1' I4B d   1      -3.587   5.506  -5.994  0.00  0.00     0.060 C 
BRANCH   7   8
ATOM      8  C2' I4B d   1      -4.639   4.422  -5.882  0.00  0.00    -0.013 C 
ATOM      9  C4' I4B d   1      -4.510   3.668  -4.585  0.00  0.00     0.013 C 
ATOM     10  C3' I4B d   1      -5.987   5.070  -6.000  0.00  0.00     0.013 C 
ENDBRANCH   7   8
ENDBRANCH   1   7
TORSDOF 2
ENDMDL
