MODEL 1
REMARK minimizedAffinity -1.14513719
REMARK minimizedRMSD -1
REMARK  2 active torsions:
REMARK  status: ('A' for Active; 'I' for Inactive)
REMARK    1  A    between atoms: C2'_3  and  C1'_4 
REMARK    2  A    between atoms: C1'_4  and  C1_5 
ROOT
ATOM      1  C1  I4B d   1       2.436   5.145  -5.995  0.00  0.00    -0.075 A 
ATOM      2  C2  I4B d   1       3.522   5.984  -5.976  0.00  0.00     0.003 A 
ATOM      3  C3  I4B d   1       4.834   5.452  -5.942  0.00  0.00     0.002 A 
ATOM      4  C4  I4B d   1       5.012   4.085  -5.877  0.00  0.00    -0.004 A 
ATOM      5  C5  I4B d   1       3.910   3.235  -5.919  0.00  0.00     0.002 A 
ATOM      6  C6  I4B d   1       2.615   3.767  -5.991  0.00  0.00     0.003 A 
ENDROOT
BRANCH   1   7
ATOM      7  C1' I4B d   1       1.065   5.741  -5.998  0.00  0.00     0.060 C 
BRANCH   7   8
ATOM      8  C2' I4B d   1       0.069   4.622  -5.769  0.00  0.00    -0.013 C 
ATOM      9  C4' I4B d   1       0.204   4.047  -4.383  0.00  0.00     0.013 C 
ATOM     10  C3' I4B d   1      -1.307   5.173  -5.995  0.00  0.00     0.013 C 
ENDBRANCH   7   8
ENDBRANCH   1   7
TORSDOF 2
ENDMDL
