MODEL 1
REMARK minimizedAffinity -1.46161771
REMARK minimizedRMSD -1
REMARK  0 active torsions:
REMARK  status: ('A' for Active; 'I' for Inactive)
ROOT
ATOM      1  C1  DEN d   1      -3.912   2.534  -4.090  0.00  0.00     0.130 A 
ATOM      2  C2  DEN d   1      -4.090   3.623  -3.134  0.00  0.00    -0.031 A 
ATOM      3  C3  DEN d   1      -3.688   3.130  -1.801  0.00  0.00     0.027 A 
ATOM      4  C4  DEN d   1      -2.808   0.800  -1.130  0.00  0.00     0.027 A 
ATOM      5  C5  DEN d   1      -2.498  -0.459  -1.595  0.00  0.00    -0.003 A 
ATOM      6  C6  DEN d   1      -2.667  -0.816  -2.906  0.00  0.00     0.001 A 
ATOM      7  C7  DEN d   1      -3.119   0.111  -3.809  0.00  0.00     0.017 A 
ATOM      8  C8  DEN d   1      -3.441   1.380  -3.347  0.00  0.00    -0.094 A 
ATOM      9  C9  DEN d   1      -3.251   1.725  -2.019  0.00  0.00    -0.072 A 
ENDROOT
TORSDOF 0
ENDMDL
