MODEL 1
REMARK minimizedAffinity -2.39691639
REMARK minimizedRMSD -1
REMARK  0 active torsions:
REMARK  status: ('A' for Active; 'I' for Inactive)
ROOT
ATOM      1  C1  DEN d   1       1.897  -1.134   1.040  0.00  0.00     0.130 A 
ATOM      2  C2  DEN d   1       2.983  -0.170   1.192  0.00  0.00    -0.031 A 
ATOM      3  C3  DEN d   1       2.512   1.132   0.679  0.00  0.00     0.027 A 
ATOM      4  C4  DEN d   1       0.217   1.747  -0.325  0.00  0.00     0.027 A 
ATOM      5  C5  DEN d   1      -1.024   1.260  -0.670  0.00  0.00    -0.003 A 
ATOM      6  C6  DEN d   1      -1.364  -0.056  -0.502  0.00  0.00     0.001 A 
ATOM      7  C7  DEN d   1      -0.467  -0.922   0.067  0.00  0.00     0.017 A 
ATOM      8  C8  DEN d   1       0.789  -0.439   0.411  0.00  0.00    -0.094 A 
ATOM      9  C9  DEN d   1       1.109   0.897   0.244  0.00  0.00    -0.072 A 
ENDROOT
TORSDOF 0
ENDMDL
