MODEL 1
REMARK minimizedAffinity -3.29903817
REMARK minimizedRMSD -1
REMARK  0 active torsions:
REMARK  status: ('A' for Active; 'I' for Inactive)
ROOT
ATOM      1  C1  DEN d   1      -0.912  -0.929  -0.179  0.00  0.00     0.130 A 
ATOM      2  C2  DEN d   1      -1.845   0.019  -0.784  0.00  0.00    -0.031 A 
ATOM      3  C3  DEN d   1      -1.189   1.341  -0.824  0.00  0.00     0.027 A 
ATOM      4  C4  DEN d   1       1.167   2.010  -0.017  0.00  0.00     0.027 A 
ATOM      5  C5  DEN d   1       2.322   1.552   0.577  0.00  0.00    -0.003 A 
ATOM      6  C6  DEN d   1       2.466   0.254   0.989  0.00  0.00     0.001 A 
ATOM      7  C7  DEN d   1       1.454  -0.644   0.770  0.00  0.00     0.017 A 
ATOM      8  C8  DEN d   1       0.284  -0.188   0.178  0.00  0.00    -0.094 A 
ATOM      9  C9  DEN d   1       0.162   1.126  -0.242  0.00  0.00    -0.072 A 
ENDROOT
TORSDOF 0
ENDMDL
