MODEL 1
REMARK minimizedAffinity -4.3496933
REMARK minimizedRMSD -1
REMARK  0 active torsions:
REMARK  status: ('A' for Active; 'I' for Inactive)
ROOT
ATOM      1  C1  DEN d   1      -0.143   1.215   0.282  0.00  0.00     0.130 A 
ATOM      2  C2  DEN d   1      -1.338   0.417   0.023  0.00  0.00    -0.031 A 
ATOM      3  C3  DEN d   1      -0.953  -1.008   0.067  0.00  0.00     0.027 A 
ATOM      4  C4  DEN d   1       1.364  -2.050   0.514  0.00  0.00     0.027 A 
ATOM      5  C5  DEN d   1       2.687  -1.773   0.776  0.00  0.00    -0.003 A 
ATOM      6  C6  DEN d   1       3.163  -0.491   0.857  0.00  0.00     0.001 A 
ATOM      7  C7  DEN d   1       2.299   0.563   0.719  0.00  0.00     0.017 A 
ATOM      8  C8  DEN d   1       0.965   0.292   0.448  0.00  0.00    -0.094 A 
ATOM      9  C9  DEN d   1       0.501  -1.011   0.382  0.00  0.00    -0.072 A 
ENDROOT
TORSDOF 0
ENDMDL
