MODEL 1
REMARK minimizedAffinity -6.12045431
REMARK minimizedRMSD -1
REMARK  0 active torsions:
REMARK  status: ('A' for Active; 'I' for Inactive)
ROOT
ATOM      1  C1  DEN d   1       2.642   0.504   0.416  0.00  0.00     0.130 A 
ATOM      2  C2  DEN d   1       2.884  -0.933   0.336  0.00  0.00    -0.031 A 
ATOM      3  C3  DEN d   1       1.578  -1.610   0.206  0.00  0.00     0.027 A 
ATOM      4  C4  DEN d   1      -0.783  -0.577   0.117  0.00  0.00     0.027 A 
ATOM      5  C5  DEN d   1      -1.495   0.602   0.160  0.00  0.00    -0.003 A 
ATOM      6  C6  DEN d   1      -0.885   1.817   0.324  0.00  0.00     0.001 A 
ATOM      7  C7  DEN d   1       0.480   1.886   0.406  0.00  0.00     0.017 A 
ATOM      8  C8  DEN d   1       1.204   0.702   0.371  0.00  0.00    -0.094 A 
ATOM      9  C9  DEN d   1       0.571  -0.516   0.192  0.00  0.00    -0.072 A 
ENDROOT
TORSDOF 0
ENDMDL
