MODEL 1
REMARK minimizedAffinity -2.493572
REMARK minimizedRMSD -1
REMARK  0 active torsions:
REMARK  status: ('A' for Active; 'I' for Inactive)
ROOT
ATOM      1  C1  DEN d   1      -0.574   0.583   0.187  0.00  0.00     0.130 A 
ATOM      2  C2  DEN d   1      -1.030   0.247  -1.159  0.00  0.00    -0.031 A 
ATOM      3  C3  DEN d   1      -0.104  -0.759  -1.716  0.00  0.00     0.027 A 
ATOM      4  C4  DEN d   1       1.976  -1.828  -0.630  0.00  0.00     0.027 A 
ATOM      5  C5  DEN d   1       2.767  -1.851   0.498  0.00  0.00    -0.003 A 
ATOM      6  C6  DEN d   1       2.522  -1.046   1.578  0.00  0.00     0.001 A 
ATOM      7  C7  DEN d   1       1.432  -0.216   1.573  0.00  0.00     0.017 A 
ATOM      8  C8  DEN d   1       0.634  -0.182   0.437  0.00  0.00    -0.094 A 
ATOM      9  C9  DEN d   1       0.892  -1.012  -0.641  0.00  0.00    -0.072 A 
ENDROOT
TORSDOF 0
ENDMDL
