MODEL 1
REMARK minimizedAffinity -5.69881153
REMARK minimizedRMSD -1
REMARK  0 active torsions:
REMARK  status: ('A' for Active; 'I' for Inactive)
ROOT
ATOM      1  C1  DEN d   1      -0.780   1.181   0.447  0.00  0.00     0.130 A 
ATOM      2  C2  DEN d   1      -1.682   0.410  -0.405  0.00  0.00    -0.031 A 
ATOM      3  C3  DEN d   1      -1.014  -0.863  -0.742  0.00  0.00     0.027 A 
ATOM      4  C4  DEN d   1       1.314  -1.713  -0.028  0.00  0.00     0.027 A 
ATOM      5  C5  DEN d   1       2.452  -1.405   0.684  0.00  0.00    -0.003 A 
ATOM      6  C6  DEN d   1       2.605  -0.209   1.334  0.00  0.00     0.001 A 
ATOM      7  C7  DEN d   1       1.584   0.705   1.322  0.00  0.00     0.017 A 
ATOM      8  C8  DEN d   1       0.437   0.405   0.600  0.00  0.00    -0.094 A 
ATOM      9  C9  DEN d   1       0.297  -0.815  -0.040  0.00  0.00    -0.072 A 
ENDROOT
TORSDOF 0
ENDMDL
