MODEL 1
REMARK minimizedAffinity -0.898365557
REMARK minimizedRMSD -1
REMARK  0 active torsions:
REMARK  status: ('A' for Active; 'I' for Inactive)
ROOT
ATOM      1  C1  DEN d   1       0.036   0.730   1.102  0.00  0.00     0.130 A 
ATOM      2  C2  DEN d   1       0.499  -0.265   0.139  0.00  0.00    -0.031 A 
ATOM      3  C3  DEN d   1      -0.671  -0.734  -0.631  0.00  0.00     0.027 A 
ATOM      4  C4  DEN d   1      -3.140  -0.017  -0.429  0.00  0.00     0.027 A 
ATOM      5  C5  DEN d   1      -4.022   0.791   0.255  0.00  0.00    -0.003 A 
ATOM      6  C6  DEN d   1      -3.622   1.603   1.283  0.00  0.00     0.001 A 
ATOM      7  C7  DEN d   1      -2.297   1.659   1.627  0.00  0.00     0.017 A 
ATOM      8  C8  DEN d   1      -1.403   0.842   0.948  0.00  0.00    -0.094 A 
ATOM      9  C9  DEN d   1      -1.825   0.037  -0.097  0.00  0.00    -0.072 A 
ENDROOT
TORSDOF 0
ENDMDL
