MODEL 1
REMARK minimizedAffinity -4.515769
REMARK minimizedRMSD -1
REMARK  0 active torsions:
REMARK  status: ('A' for Active; 'I' for Inactive)
ROOT
ATOM      1  C1  DEN d   1      -0.555   0.659  -0.126  0.00  0.00     0.130 A 
ATOM      2  C2  DEN d   1      -1.168   0.097  -1.327  0.00  0.00    -0.031 A 
ATOM      3  C3  DEN d   1      -0.329  -1.029  -1.783  0.00  0.00     0.027 A 
ATOM      4  C4  DEN d   1       1.845  -1.956  -0.750  0.00  0.00     0.027 A 
ATOM      5  C5  DEN d   1       2.759  -1.800   0.268  0.00  0.00    -0.003 A 
ATOM      6  C6  DEN d   1       2.653  -0.800   1.199  0.00  0.00     0.001 A 
ATOM      7  C7  DEN d   1       1.583   0.055   1.157  0.00  0.00     0.017 A 
ATOM      8  C8  DEN d   1       0.661  -0.092   0.129  0.00  0.00    -0.094 A 
ATOM      9  C9  DEN d   1       0.780  -1.116  -0.795  0.00  0.00    -0.072 A 
ENDROOT
TORSDOF 0
ENDMDL
