MODEL 1
REMARK minimizedAffinity -3.83582568
REMARK minimizedRMSD -1
REMARK  0 active torsions:
REMARK  status: ('A' for Active; 'I' for Inactive)
ROOT
ATOM      1  C1  DEN d   1      -3.239   0.468  -0.204  0.00  0.00     0.130 A 
ATOM      2  C2  DEN d   1      -3.651   1.451   0.794  0.00  0.00    -0.031 A 
ATOM      3  C3  DEN d   1      -2.454   1.858   1.555  0.00  0.00     0.027 A 
ATOM      4  C4  DEN d   1      -0.013   1.070   1.285  0.00  0.00     0.027 A 
ATOM      5  C5  DEN d   1       0.826   0.236   0.579  0.00  0.00    -0.003 A 
ATOM      6  C6  DEN d   1       0.366  -0.598  -0.406  0.00  0.00     0.001 A 
ATOM      7  C7  DEN d   1      -0.961  -0.583  -0.744  0.00  0.00     0.017 A 
ATOM      8  C8  DEN d   1      -1.814   0.250  -0.032  0.00  0.00    -0.094 A 
ATOM      9  C9  DEN d   1      -1.328   1.095   0.952  0.00  0.00    -0.072 A 
ENDROOT
TORSDOF 0
ENDMDL
