MODEL 1
REMARK minimizedAffinity -5.82434559
REMARK minimizedRMSD -1
REMARK  0 active torsions:
REMARK  status: ('A' for Active; 'I' for Inactive)
ROOT
ATOM      1  C1  DEN d   1       1.934  -1.643   0.238  0.00  0.00     0.130 A 
ATOM      2  C2  DEN d   1       3.221  -1.116   0.685  0.00  0.00    -0.031 A 
ATOM      3  C3  DEN d   1       3.109   0.354   0.764  0.00  0.00     0.027 A 
ATOM      4  C4  DEN d   1       1.078   1.858   0.245  0.00  0.00     0.027 A 
ATOM      5  C5  DEN d   1      -0.232   1.867  -0.179  0.00  0.00    -0.003 A 
ATOM      6  C6  DEN d   1      -0.896   0.720  -0.523  0.00  0.00     0.001 A 
ATOM      7  C7  DEN d   1      -0.266  -0.491  -0.406  0.00  0.00     0.017 A 
ATOM      8  C8  DEN d   1       1.058  -0.508   0.013  0.00  0.00    -0.094 A 
ATOM      9  C9  DEN d   1       1.708   0.662   0.369  0.00  0.00    -0.072 A 
ENDROOT
TORSDOF 0
ENDMDL
