MODEL 1
REMARK minimizedAffinity -4.06113768
REMARK minimizedRMSD -1
REMARK  0 active torsions:
REMARK  status: ('A' for Active; 'I' for Inactive)
ROOT
ATOM      1  C1  DEN d   1       2.061  -0.396   1.140  0.00  0.00     0.130 A 
ATOM      2  C2  DEN d   1       2.896  -1.430   0.535  0.00  0.00    -0.031 A 
ATOM      3  C3  DEN d   1       2.163  -1.990  -0.619  0.00  0.00     0.027 A 
ATOM      4  C4  DEN d   1      -0.168  -1.357  -1.523  0.00  0.00     0.027 A 
ATOM      5  C5  DEN d   1      -1.263  -0.543  -1.333  0.00  0.00    -0.003 A 
ATOM      6  C6  DEN d   1      -1.340   0.346  -0.294  0.00  0.00     0.001 A 
ATOM      7  C7  DEN d   1      -0.284   0.474   0.570  0.00  0.00     0.017 A 
ATOM      8  C8  DEN d   1       0.820  -0.349   0.389  0.00  0.00    -0.094 A 
ATOM      9  C9  DEN d   1       0.884  -1.232  -0.675  0.00  0.00    -0.072 A 
ENDROOT
TORSDOF 0
ENDMDL
