MODEL 1
REMARK minimizedAffinity -4.47616148
REMARK minimizedRMSD -1
REMARK  0 active torsions:
REMARK  status: ('A' for Active; 'I' for Inactive)
ROOT
ATOM      1  C1  DEN d   1       0.837   1.287  -3.319  0.00  0.00     0.130 A 
ATOM      2  C2  DEN d   1       0.563  -0.120  -3.037  0.00  0.00    -0.031 A 
ATOM      3  C3  DEN d   1       0.721  -0.334  -1.585  0.00  0.00     0.027 A 
ATOM      4  C4  DEN d   1       1.355   1.367   0.247  0.00  0.00     0.027 A 
ATOM      5  C5  DEN d   1       1.694   2.680   0.491  0.00  0.00    -0.003 A 
ATOM      6  C6  DEN d   1       1.803   3.605  -0.513  0.00  0.00     0.001 A 
ATOM      7  C7  DEN d   1       1.527   3.240  -1.805  0.00  0.00     0.017 A 
ATOM      8  C8  DEN d   1       1.192   1.917  -2.060  0.00  0.00    -0.094 A 
ATOM      9  C9  DEN d   1       1.075   1.000  -1.029  0.00  0.00    -0.072 A 
ENDROOT
TORSDOF 0
ENDMDL
