MODEL 1
REMARK minimizedAffinity -1.86427081
REMARK minimizedRMSD -1
REMARK  0 active torsions:
REMARK  status: ('A' for Active; 'I' for Inactive)
ROOT
ATOM      1  C1  DEN d   1       2.526   1.668  -0.562  0.00  0.00     0.130 A 
ATOM      2  C2  DEN d   1       2.184   2.345  -1.810  0.00  0.00    -0.031 A 
ATOM      3  C3  DEN d   1       1.273   1.467  -2.570  0.00  0.00     0.027 A 
ATOM      4  C4  DEN d   1       0.358  -0.860  -1.939  0.00  0.00     0.027 A 
ATOM      5  C5  DEN d   1       0.376  -1.852  -0.983  0.00  0.00    -0.003 A 
ATOM      6  C6  DEN d   1       1.133  -1.755   0.155  0.00  0.00     0.001 A 
ATOM      7  C7  DEN d   1       1.868  -0.623   0.388  0.00  0.00     0.017 A 
ATOM      8  C8  DEN d   1       1.860   0.378  -0.575  0.00  0.00    -0.094 A 
ATOM      9  C9  DEN d   1       1.080   0.267  -1.713  0.00  0.00    -0.072 A 
ENDROOT
TORSDOF 0
ENDMDL
