MODEL 1
REMARK minimizedAffinity 8.00157261
REMARK minimizedRMSD -1
REMARK  0 active torsions:
REMARK  status: ('A' for Active; 'I' for Inactive)
ROOT
ATOM      1  C1  DEN d   1       2.388   1.543  -1.493  0.00  0.00     0.130 A 
ATOM      2  C2  DEN d   1       2.328   0.395  -0.591  0.00  0.00    -0.031 A 
ATOM      3  C3  DEN d   1       0.913  -0.002  -0.451  0.00  0.00     0.027 A 
ATOM      4  C4  DEN d   1      -1.180   1.040  -1.540  0.00  0.00     0.027 A 
ATOM      5  C5  DEN d   1      -1.633   2.039  -2.373  0.00  0.00    -0.003 A 
ATOM      6  C6  DEN d   1      -0.787   2.956  -2.939  0.00  0.00     0.001 A 
ATOM      7  C7  DEN d   1       0.561   2.865  -2.716  0.00  0.00     0.017 A 
ATOM      8  C8  DEN d   1       1.024   1.865  -1.871  0.00  0.00    -0.094 A 
ATOM      9  C9  DEN d   1       0.155   0.940  -1.318  0.00  0.00    -0.072 A 
ENDROOT
TORSDOF 0
ENDMDL
