MODEL 1
REMARK minimizedAffinity -1.1011349
REMARK minimizedRMSD -1
REMARK  0 active torsions:
REMARK  status: ('A' for Active; 'I' for Inactive)
ROOT
ATOM      1  C1  DEN d   1       2.309   3.816  -1.805  0.00  0.00     0.130 A 
ATOM      2  C2  DEN d   1       2.445   4.637  -0.605  0.00  0.00    -0.031 A 
ATOM      3  C3  DEN d   1       2.052   3.816   0.558  0.00  0.00     0.027 A 
ATOM      4  C4  DEN d   1       1.257   1.363   0.617  0.00  0.00     0.027 A 
ATOM      5  C5  DEN d   1       0.971   0.257  -0.152  0.00  0.00    -0.003 A 
ATOM      6  C6  DEN d   1       1.077   0.270  -1.517  0.00  0.00     0.001 A 
ATOM      7  C7  DEN d   1       1.523   1.398  -2.153  0.00  0.00     0.017 A 
ATOM      8  C8  DEN d   1       1.807   2.520  -1.385  0.00  0.00    -0.094 A 
ATOM      9  C9  DEN d   1       1.705   2.483  -0.004  0.00  0.00    -0.072 A 
ENDROOT
TORSDOF 0
ENDMDL
