MODEL 1
REMARK minimizedAffinity -2.42799425
REMARK minimizedRMSD -1
REMARK  0 active torsions:
REMARK  status: ('A' for Active; 'I' for Inactive)
ROOT
ATOM      1  C1  DEN d   1       1.722   2.800  -2.229  0.00  0.00     0.130 A 
ATOM      2  C2  DEN d   1       1.922   4.042  -1.487  0.00  0.00    -0.031 A 
ATOM      3  C3  DEN d   1       1.736   3.751  -0.052  0.00  0.00     0.027 A 
ATOM      4  C4  DEN d   1       1.168   1.508   1.089  0.00  0.00     0.027 A 
ATOM      5  C5  DEN d   1       0.894   0.176   0.871  0.00  0.00    -0.003 A 
ATOM      6  C6  DEN d   1       0.843  -0.363  -0.387  0.00  0.00     0.001 A 
ATOM      7  C7  DEN d   1       1.115   0.424  -1.474  0.00  0.00     0.017 A 
ATOM      8  C8  DEN d   1       1.385   1.770  -1.263  0.00  0.00    -0.094 A 
ATOM      9  C9  DEN d   1       1.444   2.294   0.017  0.00  0.00    -0.072 A 
ENDROOT
TORSDOF 0
ENDMDL
