MODEL 1
REMARK minimizedAffinity 10.089838
REMARK minimizedRMSD -1
REMARK  0 active torsions:
REMARK  status: ('A' for Active; 'I' for Inactive)
ROOT
ATOM      1  C1  DEN d   1      -1.454   2.960   4.314  0.00  0.00     0.130 A 
ATOM      2  C2  DEN d   1      -1.826   1.841   5.176  0.00  0.00    -0.031 A 
ATOM      3  C3  DEN d   1      -2.884   1.070   4.492  0.00  0.00     0.027 A 
ATOM      4  C4  DEN d   1      -3.973   1.496   2.193  0.00  0.00     0.027 A 
ATOM      5  C5  DEN d   1      -3.994   2.332   1.098  0.00  0.00    -0.003 A 
ATOM      6  C6  DEN d   1      -3.201   3.445   1.015  0.00  0.00     0.001 A 
ATOM      7  C7  DEN d   1      -2.320   3.728   2.024  0.00  0.00     0.017 A 
ATOM      8  C8  DEN d   1      -2.298   2.895   3.135  0.00  0.00    -0.094 A 
ATOM      9  C9  DEN d   1      -3.099   1.767   3.195  0.00  0.00    -0.072 A 
ENDROOT
TORSDOF 0
ENDMDL
