MODEL 1
REMARK minimizedAffinity -5.42029142
REMARK minimizedRMSD -1
REMARK  0 active torsions:
REMARK  status: ('A' for Active; 'I' for Inactive)
ROOT
ATOM      1  C1  DEN d   1      -0.783   0.336   0.919  0.00  0.00     0.130 A 
ATOM      2  C2  DEN d   1      -0.089   1.127   1.932  0.00  0.00    -0.031 A 
ATOM      3  C3  DEN d   1       1.208   1.553   1.368  0.00  0.00     0.027 A 
ATOM      4  C4  DEN d   1       2.201   1.072  -0.963  0.00  0.00     0.027 A 
ATOM      5  C5  DEN d   1       1.986   0.434  -2.165  0.00  0.00    -0.003 A 
ATOM      6  C6  DEN d   1       0.857  -0.303  -2.409  0.00  0.00     0.001 A 
ATOM      7  C7  DEN d   1      -0.121  -0.383  -1.453  0.00  0.00     0.017 A 
ATOM      8  C8  DEN d   1       0.092   0.251  -0.236  0.00  0.00    -0.094 A 
ATOM      9  C9  DEN d   1       1.234   1.001  -0.013  0.00  0.00    -0.072 A 
ENDROOT
TORSDOF 0
ENDMDL
