MODEL 1
REMARK minimizedAffinity -1.66536582
REMARK minimizedRMSD -1
REMARK  0 active torsions:
REMARK  status: ('A' for Active; 'I' for Inactive)
ROOT
ATOM      1  C1  DEN d   1       1.753   3.749  -0.887  0.00  0.00     0.130 A 
ATOM      2  C2  DEN d   1       1.802   3.541  -2.331  0.00  0.00    -0.031 A 
ATOM      3  C3  DEN d   1       1.805   2.086  -2.583  0.00  0.00     0.027 A 
ATOM      4  C4  DEN d   1       1.734   0.146  -0.886  0.00  0.00     0.027 A 
ATOM      5  C5  DEN d   1       1.697  -0.173   0.453  0.00  0.00    -0.003 A 
ATOM      6  C6  DEN d   1       1.711   0.784   1.433  0.00  0.00     0.001 A 
ATOM      7  C7  DEN d   1       1.717   2.109   1.086  0.00  0.00     0.017 A 
ATOM      8  C8  DEN d   1       1.761   2.439  -0.262  0.00  0.00    -0.094 A 
ATOM      9  C9  DEN d   1       1.734   1.456  -1.237  0.00  0.00    -0.072 A 
ENDROOT
TORSDOF 0
ENDMDL
