MODEL 1
REMARK minimizedAffinity 15.0020142
REMARK minimizedRMSD -1
REMARK  0 active torsions:
REMARK  status: ('A' for Active; 'I' for Inactive)
ROOT
ATOM      1  C1  DEN d   1       0.539   0.312  -0.756  0.00  0.00     0.130 A 
ATOM      2  C2  DEN d   1       1.426   0.403   0.401  0.00  0.00    -0.031 A 
ATOM      3  C3  DEN d   1       2.115   1.708   0.345  0.00  0.00     0.027 A 
ATOM      4  C4  DEN d   1       1.892   3.588  -1.406  0.00  0.00     0.027 A 
ATOM      5  C5  DEN d   1       1.270   3.964  -2.576  0.00  0.00    -0.003 A 
ATOM      6  C6  DEN d   1       0.393   3.142  -3.234  0.00  0.00     0.001 A 
ATOM      7  C7  DEN d   1       0.080   1.920  -2.702  0.00  0.00     0.017 A 
ATOM      8  C8  DEN d   1       0.709   1.531  -1.527  0.00  0.00    -0.094 A 
ATOM      9  C9  DEN d   1       1.582   2.381  -0.870  0.00  0.00    -0.072 A 
ENDROOT
TORSDOF 0
ENDMDL
