MODEL 1
REMARK minimizedAffinity 2.552665
REMARK minimizedRMSD -1
REMARK  0 active torsions:
REMARK  status: ('A' for Active; 'I' for Inactive)
ROOT
ATOM      1  C1  DEN d   1      -1.331   2.178   4.489  0.00  0.00     0.130 A 
ATOM      2  C2  DEN d   1      -1.845   1.078   5.302  0.00  0.00    -0.031 A 
ATOM      3  C3  DEN d   1      -2.938   0.428   4.552  0.00  0.00     0.027 A 
ATOM      4  C4  DEN d   1      -3.879   1.013   2.222  0.00  0.00     0.027 A 
ATOM      5  C5  DEN d   1      -3.773   1.874   1.153  0.00  0.00    -0.003 A 
ATOM      6  C6  DEN d   1      -2.876   2.909   1.135  0.00  0.00     0.001 A 
ATOM      7  C7  DEN d   1      -2.018   3.082   2.189  0.00  0.00     0.017 A 
ATOM      8  C8  DEN d   1      -2.124   2.222   3.274  0.00  0.00    -0.094 A 
ATOM      9  C9  DEN d   1      -3.029   1.174   3.268  0.00  0.00    -0.072 A 
ENDROOT
TORSDOF 0
ENDMDL
