MODEL 1
REMARK minimizedAffinity 3.18751955
REMARK minimizedRMSD -1
REMARK  0 active torsions:
REMARK  status: ('A' for Active; 'I' for Inactive)
ROOT
ATOM      1  C1  DEN d   1       1.328  -1.918  -0.282  0.00  0.00     0.130 A 
ATOM      2  C2  DEN d   1       0.772  -2.471  -1.514  0.00  0.00    -0.031 A 
ATOM      3  C3  DEN d   1       0.368  -1.343  -2.378  0.00  0.00     0.027 A 
ATOM      4  C4  DEN d   1       0.553   1.190  -1.932  0.00  0.00     0.027 A 
ATOM      5  C5  DEN d   1       0.949   2.144  -1.020  0.00  0.00    -0.003 A 
ATOM      6  C6  DEN d   1       1.462   1.813   0.206  0.00  0.00     0.001 A 
ATOM      7  C7  DEN d   1       1.636   0.494   0.535  0.00  0.00     0.017 A 
ATOM      8  C8  DEN d   1       1.233  -0.473  -0.376  0.00  0.00    -0.094 A 
ATOM      9  C9  DEN d   1       0.728  -0.118  -1.615  0.00  0.00    -0.072 A 
ENDROOT
TORSDOF 0
ENDMDL
