MODEL 1
REMARK minimizedAffinity 8.61507034
REMARK minimizedRMSD -1
REMARK  0 active torsions:
REMARK  status: ('A' for Active; 'I' for Inactive)
ROOT
ATOM      1  C1  DEN d   1       1.876   3.442  -0.868  0.00  0.00     0.130 A 
ATOM      2  C2  DEN d   1       1.529   3.573  -2.280  0.00  0.00    -0.031 A 
ATOM      3  C3  DEN d   1       1.015   2.269  -2.747  0.00  0.00     0.027 A 
ATOM      4  C4  DEN d   1       0.721   0.074  -1.426  0.00  0.00     0.027 A 
ATOM      5  C5  DEN d   1       0.890  -0.529  -0.199  0.00  0.00    -0.003 A 
ATOM      6  C6  DEN d   1       1.426   0.134   0.873  0.00  0.00     0.001 A 
ATOM      7  C7  DEN d   1       1.771   1.454   0.751  0.00  0.00     0.017 A 
ATOM      8  C8  DEN d   1       1.611   2.067  -0.485  0.00  0.00    -0.094 A 
ATOM      9  C9  DEN d   1       1.056   1.383  -1.553  0.00  0.00    -0.072 A 
ENDROOT
TORSDOF 0
ENDMDL
