MODEL 1
REMARK minimizedAffinity 0.285593361
REMARK minimizedRMSD -1
REMARK  0 active torsions:
REMARK  status: ('A' for Active; 'I' for Inactive)
ROOT
ATOM      1  C1  DEN d   1       0.871  -2.698   0.001  0.00  0.00     0.130 A 
ATOM      2  C2  DEN d   1       0.209  -3.201  -1.199  0.00  0.00    -0.031 A 
ATOM      3  C3  DEN d   1      -0.150  -2.042  -2.042  0.00  0.00     0.027 A 
ATOM      4  C4  DEN d   1       0.256   0.467  -1.609  0.00  0.00     0.027 A 
ATOM      5  C5  DEN d   1       0.772   1.384  -0.719  0.00  0.00    -0.003 A 
ATOM      6  C6  DEN d   1       1.321   1.010   0.478  0.00  0.00     0.001 A 
ATOM      7  C7  DEN d   1       1.409  -0.319   0.799  0.00  0.00     0.017 A 
ATOM      8  C8  DEN d   1       0.885  -1.249  -0.089  0.00  0.00    -0.094 A 
ATOM      9  C9  DEN d   1       0.344  -0.851  -1.300  0.00  0.00    -0.072 A 
ENDROOT
TORSDOF 0
ENDMDL
