MODEL 1
REMARK minimizedAffinity -0.163872391
REMARK minimizedRMSD -1
REMARK  0 active torsions:
REMARK  status: ('A' for Active; 'I' for Inactive)
ROOT
ATOM      1  C   UNL d   1       3.247  -4.141   1.117  0.00  0.00     0.023 A 
ATOM      2  C1  UNL d   1       2.768  -4.488   2.380  0.00  0.00     0.003 A 
ATOM      3  C2  UNL d   1       1.489  -4.091   2.776  0.00  0.00     0.048 A 
ATOM      4  C3  UNL d   1       0.694  -3.348   1.903  0.00  0.00     0.023 A 
ATOM      5  C4  UNL d   1       1.170  -2.999   0.638  0.00  0.00     0.048 A 
ATOM      6  C5  UNL d   1       2.449  -3.397   0.247  0.00  0.00     0.003 A 
ATOM      7  I   UNL d   1      -1.210  -2.757   2.490  0.00  0.00    -0.146 I 
ENDROOT
TORSDOF 0
ENDMDL
