MODEL 1
REMARK minimizedAffinity -1.33054376
REMARK minimizedRMSD -1
REMARK  0 active torsions:
REMARK  status: ('A' for Active; 'I' for Inactive)
ROOT
ATOM      1  C   UNL d   1      -0.773  -3.230   2.856  0.00  0.00     0.023 A 
ATOM      2  C1  UNL d   1       0.027  -2.295   2.200  0.00  0.00     0.003 A 
ATOM      3  C2  UNL d   1       1.219  -2.696   1.594  0.00  0.00     0.048 A 
ATOM      4  C3  UNL d   1       1.605  -4.035   1.647  0.00  0.00     0.023 A 
ATOM      5  C4  UNL d   1       0.807  -4.975   2.301  0.00  0.00     0.048 A 
ATOM      6  C5  UNL d   1      -0.383  -4.569   2.907  0.00  0.00     0.003 A 
ATOM      7  I   UNL d   1       3.379  -4.635   0.745  0.00  0.00    -0.146 I 
ENDROOT
TORSDOF 0
ENDMDL
