MODEL 1
REMARK minimizedAffinity 0.532218575
REMARK minimizedRMSD -1
REMARK  0 active torsions:
REMARK  status: ('A' for Active; 'I' for Inactive)
ROOT
ATOM      1  C   UNL d   1      -0.064  -0.275   1.912  0.00  0.00     0.023 A 
ATOM      2  C1  UNL d   1       1.296  -0.042   1.708  0.00  0.00     0.003 A 
ATOM      3  C2  UNL d   1       2.100  -1.037   1.150  0.00  0.00     0.048 A 
ATOM      4  C3  UNL d   1       1.538  -2.263   0.796  0.00  0.00     0.023 A 
ATOM      5  C4  UNL d   1       0.177  -2.501   0.998  0.00  0.00     0.048 A 
ATOM      6  C5  UNL d   1      -0.623  -1.503   1.557  0.00  0.00     0.003 A 
ATOM      7  I   UNL d   1       2.733  -3.746  -0.036  0.00  0.00    -0.146 I 
ENDROOT
TORSDOF 0
ENDMDL
