MODEL 1
REMARK minimizedAffinity -1.91588867
REMARK minimizedRMSD -1
REMARK  0 active torsions:
REMARK  status: ('A' for Active; 'I' for Inactive)
ROOT
ATOM      1  C   UNL d   1       0.536  -0.967   0.922  0.00  0.00     0.023 A 
ATOM      2  C1  UNL d   1       0.572  -2.098   1.738  0.00  0.00     0.003 A 
ATOM      3  C2  UNL d   1       1.461  -3.137   1.454  0.00  0.00     0.048 A 
ATOM      4  C3  UNL d   1       2.311  -3.038   0.353  0.00  0.00     0.023 A 
ATOM      5  C4  UNL d   1       2.278  -1.908  -0.466  0.00  0.00     0.048 A 
ATOM      6  C5  UNL d   1       1.387  -0.872  -0.178  0.00  0.00     0.003 A 
ATOM      7  I   UNL d   1       3.635  -4.583  -0.072  0.00  0.00    -0.146 I 
ENDROOT
TORSDOF 0
ENDMDL
