MODEL 1
REMARK minimizedAffinity 4.77963448
REMARK minimizedRMSD -1
REMARK  0 active torsions:
REMARK  status: ('A' for Active; 'I' for Inactive)
ROOT
ATOM      1  C   UNL d   1       0.639  -0.042   1.181  0.00  0.00     0.023 A 
ATOM      2  C1  UNL d   1       0.003  -1.162   1.717  0.00  0.00     0.003 A 
ATOM      3  C2  UNL d   1       0.670  -2.388   1.769  0.00  0.00     0.048 A 
ATOM      4  C3  UNL d   1       1.973  -2.486   1.284  0.00  0.00     0.023 A 
ATOM      5  C4  UNL d   1       2.614  -1.368   0.747  0.00  0.00     0.048 A 
ATOM      6  C5  UNL d   1       1.943  -0.145   0.697  0.00  0.00     0.003 A 
ATOM      7  I   UNL d   1       2.969  -4.309   1.359  0.00  0.00    -0.146 I 
ENDROOT
TORSDOF 0
ENDMDL
