MODEL 1
REMARK minimizedAffinity 1.20509219
REMARK minimizedRMSD -1
REMARK  0 active torsions:
REMARK  status: ('A' for Active; 'I' for Inactive)
ROOT
ATOM      1  C   UNL d   1       3.108  -4.139  -0.076  0.00  0.00     0.023 A 
ATOM      2  C1  UNL d   1       2.502  -4.637   1.077  0.00  0.00     0.003 A 
ATOM      3  C2  UNL d   1       1.539  -3.878   1.745  0.00  0.00     0.048 A 
ATOM      4  C3  UNL d   1       1.186  -2.621   1.254  0.00  0.00     0.023 A 
ATOM      5  C4  UNL d   1       1.790  -2.119   0.100  0.00  0.00     0.048 A 
ATOM      6  C5  UNL d   1       2.753  -2.882  -0.564  0.00  0.00     0.003 A 
ATOM      7  I   UNL d   1      -0.247  -1.489   2.246  0.00  0.00    -0.146 I 
ENDROOT
TORSDOF 0
ENDMDL
