MODEL 1
REMARK minimizedAffinity 1.70315599
REMARK minimizedRMSD -1
REMARK  0 active torsions:
REMARK  status: ('A' for Active; 'I' for Inactive)
ROOT
ATOM      1  C   UNL d   1       0.265  -0.678   1.078  0.00  0.00     0.023 A 
ATOM      2  C1  UNL d   1      -0.045  -1.754   1.909  0.00  0.00     0.003 A 
ATOM      3  C2  UNL d   1       0.596  -2.982   1.731  0.00  0.00     0.048 A 
ATOM      4  C3  UNL d   1       1.547  -3.126   0.722  0.00  0.00     0.023 A 
ATOM      5  C4  UNL d   1       1.861  -2.051  -0.112  0.00  0.00     0.048 A 
ATOM      6  C5  UNL d   1       1.217  -0.826   0.069  0.00  0.00     0.003 A 
ATOM      7  I   UNL d   1       2.503  -4.952   0.456  0.00  0.00    -0.146 I 
ENDROOT
TORSDOF 0
ENDMDL
