MODEL 1
REMARK minimizedAffinity 1.50094008
REMARK minimizedRMSD -1
REMARK  0 active torsions:
REMARK  status: ('A' for Active; 'I' for Inactive)
ROOT
ATOM      1  C   UNL d   1      -5.520   1.500   4.500  0.00  0.00     0.023 A 
ATOM      2  C1  UNL d   1      -5.999   2.267   5.562  0.00  0.00     0.003 A 
ATOM      3  C2  UNL d   1      -5.285   3.387   5.994  0.00  0.00     0.048 A 
ATOM      4  C3  UNL d   1      -4.095   3.735   5.358  0.00  0.00     0.023 A 
ATOM      5  C4  UNL d   1      -3.612   2.972   4.294  0.00  0.00     0.048 A 
ATOM      6  C5  UNL d   1      -4.328   1.853   3.866  0.00  0.00     0.003 A 
ATOM      7  I   UNL d   1      -3.031   5.402   6.000  0.00  0.00    -0.146 I 
ENDROOT
TORSDOF 0
ENDMDL
