MODEL 1
REMARK minimizedAffinity 3.69478917
REMARK minimizedRMSD -1
REMARK  0 active torsions:
REMARK  status: ('A' for Active; 'I' for Inactive)
ROOT
ATOM      1  C   UNL d   1       2.616  -3.619  -0.337  0.00  0.00     0.023 A 
ATOM      2  C1  UNL d   1       1.895  -4.296   0.647  0.00  0.00     0.003 A 
ATOM      3  C2  UNL d   1       0.933  -3.619   1.400  0.00  0.00     0.048 A 
ATOM      4  C3  UNL d   1       0.695  -2.266   1.162  0.00  0.00     0.023 A 
ATOM      5  C4  UNL d   1       1.413  -1.585   0.177  0.00  0.00     0.048 A 
ATOM      6  C5  UNL d   1       2.374  -2.265  -0.572  0.00  0.00     0.003 A 
ATOM      7  I   UNL d   1      -0.737  -1.257   2.281  0.00  0.00    -0.146 I 
ENDROOT
TORSDOF 0
ENDMDL
