MODEL 1
REMARK minimizedAffinity -5.50222778
REMARK minimizedRMSD -1
REMARK  1 active torsions:
REMARK  status: ('A' for Active; 'I' for Inactive)
REMARK    1  A    between atoms: C1_2  and  C2_3 
ROOT
ATOM      1  C2  UNL d   1       0.126  -0.038   0.154  0.00  0.00    -0.076 A 
ATOM      2  C3  UNL d   1      -1.278  -0.061   0.196  0.00  0.00     0.004 A 
ATOM      3  C4  UNL d   1      -1.976   0.546   1.239  0.00  0.00    -0.003 A 
ATOM      4  C5  UNL d   1      -1.279   1.188   2.257  0.00  0.00     0.000 A 
ATOM      5  C6  UNL d   1       0.114   1.236   2.223  0.00  0.00     0.000 A 
ATOM      6  C7  UNL d   1       0.832   0.643   1.170  0.00  0.00    -0.073 A 
ATOM      7  C8  UNL d   1       2.334   0.719   1.187  0.00  0.00     0.078 C 
ENDROOT
BRANCH   1   8
ATOM      8  C1  UNL d   1       0.829  -0.737  -0.987  0.00  0.00     0.053 C 
ATOM      9  C   UNL d   1       0.926   0.132  -2.232  0.00  0.00     0.018 C 
ENDBRANCH   1   8
TORSDOF 1
ENDMDL
