MODEL 1
REMARK minimizedAffinity -2.69074035
REMARK minimizedRMSD -1
REMARK  1 active torsions:
REMARK  status: ('A' for Active; 'I' for Inactive)
REMARK    1  A    between atoms: C1_2  and  C2_3 
ROOT
ATOM      1  C2  UNL d   1       0.207  -0.411   0.085  0.00  0.00    -0.076 A 
ATOM      2  C3  UNL d   1      -1.112   0.029  -0.121  0.00  0.00     0.004 A 
ATOM      3  C4  UNL d   1      -1.779   0.775   0.849  0.00  0.00    -0.003 A 
ATOM      4  C5  UNL d   1      -1.138   1.094   2.040  0.00  0.00     0.000 A 
ATOM      5  C6  UNL d   1       0.177   0.681   2.254  0.00  0.00     0.000 A 
ATOM      6  C7  UNL d   1       0.869  -0.058   1.280  0.00  0.00    -0.073 A 
ATOM      7  C8  UNL d   1       2.284  -0.482   1.566  0.00  0.00     0.078 C 
ENDROOT
BRANCH   1   8
ATOM      8  C1  UNL d   1       0.870  -1.241  -0.992  0.00  0.00     0.053 C 
ATOM      9  C   UNL d   1       0.905  -0.530  -2.336  0.00  0.00     0.018 C 
ENDBRANCH   1   8
TORSDOF 1
ENDMDL
