MODEL 1
REMARK minimizedAffinity 0.336193889
REMARK minimizedRMSD -1
REMARK  1 active torsions:
REMARK  status: ('A' for Active; 'I' for Inactive)
REMARK    1  A    between atoms: C1_2  and  C2_3 
ROOT
ATOM      1  C2  UNL d   1       0.230  -0.266   0.465  0.00  0.00    -0.076 A 
ATOM      2  C3  UNL d   1       1.270   0.280   1.236  0.00  0.00     0.004 A 
ATOM      3  C4  UNL d   1       1.006   0.927   2.442  0.00  0.00    -0.003 A 
ATOM      4  C5  UNL d   1      -0.303   1.037   2.897  0.00  0.00     0.000 A 
ATOM      5  C6  UNL d   1      -1.346   0.486   2.154  0.00  0.00     0.000 A 
ATOM      6  C7  UNL d   1      -1.095  -0.184   0.944  0.00  0.00    -0.073 A 
ATOM      7  C8  UNL d   1      -2.259  -0.755   0.180  0.00  0.00     0.078 C 
ENDROOT
BRANCH   1   8
ATOM      8  C1  UNL d   1       0.574  -0.932  -0.848  0.00  0.00     0.053 C 
ATOM      9  C   UNL d   1       0.490   0.025  -2.027  0.00  0.00     0.018 C 
ENDBRANCH   1   8
TORSDOF 1
ENDMDL
