MODEL 1
REMARK minimizedAffinity -1.47259283
REMARK minimizedRMSD -1
REMARK  1 active torsions:
REMARK  status: ('A' for Active; 'I' for Inactive)
REMARK    1  A    between atoms: C1_2  and  C2_3 
ROOT
ATOM      1  C2  UNL d   1      -0.142   0.003  -0.123  0.00  0.00    -0.076 A 
ATOM      2  C3  UNL d   1      -1.467   0.471  -0.082  0.00  0.00     0.004 A 
ATOM      3  C4  UNL d   1      -1.963   1.126   1.044  0.00  0.00    -0.003 A 
ATOM      4  C5  UNL d   1      -1.140   1.326   2.147  0.00  0.00     0.000 A 
ATOM      5  C6  UNL d   1       0.182   0.884   2.117  0.00  0.00     0.000 A 
ATOM      6  C7  UNL d   1       0.702   0.236   0.984  0.00  0.00    -0.073 A 
ATOM      7  C8  UNL d   1       2.133  -0.225   1.009  0.00  0.00     0.078 C 
ENDROOT
BRANCH   1   8
ATOM      8  C1  UNL d   1       0.331  -0.725  -1.361  0.00  0.00     0.053 C 
ATOM      9  C   UNL d   1       0.736   0.225  -2.477  0.00  0.00     0.018 C 
ENDBRANCH   1   8
TORSDOF 1
ENDMDL
