MODEL 1
REMARK minimizedAffinity -4.44887972
REMARK minimizedRMSD -1
REMARK  1 active torsions:
REMARK  status: ('A' for Active; 'I' for Inactive)
REMARK    1  A    between atoms: C1_2  and  C2_3 
ROOT
ATOM      1  C2  UNL d   1      -0.059  -0.196   0.001  0.00  0.00    -0.076 A 
ATOM      2  C3  UNL d   1      -1.393   0.245   0.000  0.00  0.00     0.004 A 
ATOM      3  C4  UNL d   1      -1.892   1.025   1.042  0.00  0.00    -0.003 A 
ATOM      4  C5  UNL d   1      -1.063   1.378   2.102  0.00  0.00     0.000 A 
ATOM      5  C6  UNL d   1       0.268   0.963   2.111  0.00  0.00     0.000 A 
ATOM      6  C7  UNL d   1       0.791   0.190   1.060  0.00  0.00    -0.073 A 
ATOM      7  C8  UNL d   1       2.233  -0.234   1.124  0.00  0.00     0.078 C 
ENDROOT
BRANCH   1   8
ATOM      8  C1  UNL d   1       0.419  -1.063  -1.142  0.00  0.00     0.053 C 
ATOM      9  C   UNL d   1       0.883  -0.246  -2.338  0.00  0.00     0.018 C 
ENDBRANCH   1   8
TORSDOF 1
ENDMDL
