MODEL 1
REMARK minimizedAffinity -5.9354701
REMARK minimizedRMSD -1
REMARK  0 active torsions:
REMARK  status: ('A' for Active; 'I' for Inactive)
ROOT
ATOM      1  C   UNL d   1       0.714  -0.066  -0.476  0.00  0.00     0.124 A 
ATOM      2  C1  UNL d   1       0.867  -1.121   0.413  0.00  0.00     0.062 A 
ATOM      3  C2  UNL d   1      -0.244  -1.838   0.846  0.00  0.00     0.162 A 
ATOM      4  C3  UNL d   1      -1.519  -1.504   0.390  0.00  0.00    -0.034 A 
ATOM      5  C4  UNL d   1      -1.666  -0.441  -0.503  0.00  0.00     0.162 A 
ATOM      6  C5  UNL d   1      -0.552   0.273  -0.933  0.00  0.00     0.062 A 
ATOM      7  F   UNL d   1      -0.702   1.292  -1.792  0.00  0.00    -0.097 F 
ATOM      8  F1  UNL d   1      -2.877  -0.093  -0.961  0.00  0.00    -0.096 F 
ATOM      9  I   UNL d   1      -3.183  -2.574   1.036  0.00  0.00    -0.060 I 
ATOM     10  F2  UNL d   1      -0.066  -2.852   1.706  0.00  0.00    -0.096 F 
ATOM     11  F3  UNL d   1       2.089  -1.449   0.857  0.00  0.00    -0.097 F 
ATOM     12  F4  UNL d   1       1.785   0.623  -0.890  0.00  0.00    -0.092 F 
ENDROOT
TORSDOF 0
ENDMDL
