MODEL 1
REMARK minimizedAffinity 0.0951282904
REMARK minimizedRMSD -1
REMARK  0 active torsions:
REMARK  status: ('A' for Active; 'I' for Inactive)
ROOT
ATOM      1  C   UNL d   1      -0.800  -0.469  -0.632  0.00  0.00     0.124 A 
ATOM      2  C1  UNL d   1       0.497  -0.351  -1.111  0.00  0.00     0.062 A 
ATOM      3  C2  UNL d   1       1.506   0.138  -0.285  0.00  0.00     0.162 A 
ATOM      4  C3  UNL d   1       1.221   0.512   1.028  0.00  0.00    -0.034 A 
ATOM      5  C4  UNL d   1      -0.087   0.391   1.502  0.00  0.00     0.162 A 
ATOM      6  C5  UNL d   1      -1.091  -0.098   0.673  0.00  0.00     0.062 A 
ATOM      7  F   UNL d   1      -2.344  -0.210   1.136  0.00  0.00    -0.097 F 
ATOM      8  F1  UNL d   1      -0.395   0.742   2.759  0.00  0.00    -0.096 F 
ATOM      9  I   UNL d   1       2.726   1.243   2.265  0.00  0.00    -0.060 I 
ATOM     10  F2  UNL d   1       2.751   0.241  -0.774  0.00  0.00    -0.096 F 
ATOM     11  F3  UNL d   1       0.780  -0.708  -2.372  0.00  0.00    -0.097 F 
ATOM     12  F4  UNL d   1      -1.769  -0.938  -1.429  0.00  0.00    -0.092 F 
ENDROOT
TORSDOF 0
ENDMDL
