MODEL 1
REMARK minimizedAffinity -3.01038003
REMARK minimizedRMSD -1
REMARK  0 active torsions:
REMARK  status: ('A' for Active; 'I' for Inactive)
ROOT
ATOM      1  C   UNL d   1      -2.416  -0.838   0.051  0.00  0.00     0.124 A 
ATOM      2  C1  UNL d   1      -1.562  -1.074   1.120  0.00  0.00     0.062 A 
ATOM      3  C2  UNL d   1      -0.272  -0.550   1.115  0.00  0.00     0.162 A 
ATOM      4  C3  UNL d   1       0.171   0.218   0.038  0.00  0.00    -0.034 A 
ATOM      5  C4  UNL d   1      -0.693   0.450  -1.034  0.00  0.00     0.162 A 
ATOM      6  C5  UNL d   1      -1.981  -0.076  -1.024  0.00  0.00     0.062 A 
ATOM      7  F   UNL d   1      -2.804   0.153  -2.057  0.00  0.00    -0.097 F 
ATOM      8  F1  UNL d   1      -0.299   1.183  -2.086  0.00  0.00    -0.096 F 
ATOM      9  I   UNL d   1       2.098   1.004   0.026  0.00  0.00    -0.060 I 
ATOM     10  F2  UNL d   1       0.531  -0.794   2.161  0.00  0.00    -0.096 F 
ATOM     11  F3  UNL d   1      -1.979  -1.810   2.160  0.00  0.00    -0.097 F 
ATOM     12  F4  UNL d   1      -3.655  -1.344   0.058  0.00  0.00    -0.092 F 
ENDROOT
TORSDOF 0
ENDMDL
