MODEL 1
REMARK minimizedAffinity -0.873069286
REMARK minimizedRMSD -1
REMARK  0 active torsions:
REMARK  status: ('A' for Active; 'I' for Inactive)
ROOT
ATOM      1  C   UNL d   1      -1.529  -0.634  -0.877  0.00  0.00     0.124 A 
ATOM      2  C1  UNL d   1      -1.935  -0.136   0.353  0.00  0.00     0.062 A 
ATOM      3  C2  UNL d   1      -1.047   0.589   1.142  0.00  0.00     0.162 A 
ATOM      4  C3  UNL d   1       0.257   0.821   0.703  0.00  0.00    -0.034 A 
ATOM      5  C4  UNL d   1       0.658   0.317  -0.535  0.00  0.00     0.162 A 
ATOM      6  C5  UNL d   1      -0.234  -0.407  -1.320  0.00  0.00     0.062 A 
ATOM      7  F   UNL d   1       0.159  -0.887  -2.509  0.00  0.00    -0.097 F 
ATOM      8  F1  UNL d   1       1.903   0.522  -0.988  0.00  0.00    -0.096 F 
ATOM      9  I   UNL d   1       1.588   1.904   1.880  0.00  0.00    -0.060 I 
ATOM     10  F2  UNL d   1      -1.466   1.058   2.327  0.00  0.00    -0.096 F 
ATOM     11  F3  UNL d   1      -3.186  -0.355   0.784  0.00  0.00    -0.097 F 
ATOM     12  F4  UNL d   1      -2.386  -1.332  -1.634  0.00  0.00    -0.092 F 
ENDROOT
TORSDOF 0
ENDMDL
