MODEL 1
REMARK minimizedAffinity -2.77417397
REMARK minimizedRMSD -1
REMARK  0 active torsions:
REMARK  status: ('A' for Active; 'I' for Inactive)
ROOT
ATOM      1  C   UNL d   1       1.848  -0.579   0.583  0.00  0.00     0.124 A 
ATOM      2  C1  UNL d   1       1.188   0.332  -0.230  0.00  0.00     0.062 A 
ATOM      3  C2  UNL d   1      -0.201   0.316  -0.314  0.00  0.00     0.162 A 
ATOM      4  C3  UNL d   1      -0.940  -0.615   0.417  0.00  0.00    -0.034 A 
ATOM      5  C4  UNL d   1      -0.269  -1.528   1.231  0.00  0.00     0.162 A 
ATOM      6  C5  UNL d   1       1.120  -1.508   1.312  0.00  0.00     0.062 A 
ATOM      7  F   UNL d   1       1.756  -2.389   2.098  0.00  0.00    -0.097 F 
ATOM      8  F1  UNL d   1      -0.948  -2.436   1.948  0.00  0.00    -0.096 F 
ATOM      9  I   UNL d   1      -3.017  -0.642   0.293  0.00  0.00    -0.060 I 
ATOM     10  F2  UNL d   1      -0.813   1.208  -1.107  0.00  0.00    -0.096 F 
ATOM     11  F3  UNL d   1       1.889   1.230  -0.936  0.00  0.00    -0.097 F 
ATOM     12  F4  UNL d   1       3.185  -0.561   0.662  0.00  0.00    -0.092 F 
ENDROOT
TORSDOF 0
ENDMDL
