MODEL 1
REMARK minimizedAffinity -0.554911554
REMARK minimizedRMSD -1
REMARK  0 active torsions:
REMARK  status: ('A' for Active; 'I' for Inactive)
ROOT
ATOM      1  C   UNL d   1      -1.438  -0.536  -0.882  0.00  0.00     0.124 A 
ATOM      2  C1  UNL d   1      -0.154  -0.290  -1.347  0.00  0.00     0.062 A 
ATOM      3  C2  UNL d   1       0.731   0.472  -0.589  0.00  0.00     0.162 A 
ATOM      4  C3  UNL d   1       0.335   0.993   0.642  0.00  0.00    -0.034 A 
ATOM      5  C4  UNL d   1      -0.959   0.742   1.103  0.00  0.00     0.162 A 
ATOM      6  C5  UNL d   1      -1.840  -0.020   0.342  0.00  0.00     0.062 A 
ATOM      7  F   UNL d   1      -3.080  -0.257   0.793  0.00  0.00    -0.097 F 
ATOM      8  F1  UNL d   1      -1.373   1.228   2.283  0.00  0.00    -0.096 F 
ATOM      9  I   UNL d   1       1.654   2.133   1.778  0.00  0.00    -0.060 I 
ATOM     10  F2  UNL d   1       1.966   0.694  -1.063  0.00  0.00    -0.096 F 
ATOM     11  F3  UNL d   1       0.236  -0.787  -2.530  0.00  0.00    -0.097 F 
ATOM     12  F4  UNL d   1      -2.288  -1.269  -1.614  0.00  0.00    -0.092 F 
ENDROOT
TORSDOF 0
ENDMDL
