MODEL 1
REMARK minimizedAffinity -1.35484767
REMARK minimizedRMSD -1
REMARK  0 active torsions:
REMARK  status: ('A' for Active; 'I' for Inactive)
ROOT
ATOM      1  C   UNL d   1      -1.433  -0.950  -0.086  0.00  0.00     0.124 A 
ATOM      2  C1  UNL d   1      -0.608  -0.904   1.030  0.00  0.00     0.062 A 
ATOM      3  C2  UNL d   1       0.642  -0.297   0.953  0.00  0.00     0.162 A 
ATOM      4  C3  UNL d   1       1.076   0.270  -0.246  0.00  0.00    -0.034 A 
ATOM      5  C4  UNL d   1       0.242   0.219  -1.364  0.00  0.00     0.162 A 
ATOM      6  C5  UNL d   1      -1.007  -0.388  -1.282  0.00  0.00     0.062 A 
ATOM      7  F   UNL d   1      -1.802  -0.431  -2.361  0.00  0.00    -0.097 F 
ATOM      8  F1  UNL d   1       0.628   0.755  -2.532  0.00  0.00    -0.096 F 
ATOM      9  I   UNL d   1       2.945   1.178  -0.366  0.00  0.00    -0.060 I 
ATOM     10  F2  UNL d   1       1.417  -0.268   2.047  0.00  0.00    -0.096 F 
ATOM     11  F3  UNL d   1      -1.017  -1.446   2.186  0.00  0.00    -0.097 F 
ATOM     12  F4  UNL d   1      -2.635  -1.535  -0.009  0.00  0.00    -0.092 F 
ENDROOT
TORSDOF 0
ENDMDL
