MODEL 1
REMARK minimizedAffinity -2.17870831
REMARK minimizedRMSD -1
REMARK  0 active torsions:
REMARK  status: ('A' for Active; 'I' for Inactive)
ROOT
ATOM      1  C   UNL d   1      -2.534  -1.473  -0.247  0.00  0.00     0.124 A 
ATOM      2  C1  UNL d   1      -1.863  -1.718   0.943  0.00  0.00     0.062 A 
ATOM      3  C2  UNL d   1      -0.624  -1.131   1.182  0.00  0.00     0.162 A 
ATOM      4  C3  UNL d   1      -0.048  -0.292   0.228  0.00  0.00    -0.034 A 
ATOM      5  C4  UNL d   1      -0.728  -0.050  -0.967  0.00  0.00     0.162 A 
ATOM      6  C5  UNL d   1      -1.966  -0.640  -1.201  0.00  0.00     0.062 A 
ATOM      7  F   UNL d   1      -2.613  -0.402  -2.351  0.00  0.00    -0.097 F 
ATOM      8  F1  UNL d   1      -0.202   0.751  -1.905  0.00  0.00    -0.096 F 
ATOM      9  I   UNL d   1       1.805   0.589   0.582  0.00  0.00    -0.060 I 
ATOM     10  F2  UNL d   1       0.002  -1.385   2.341  0.00  0.00    -0.096 F 
ATOM     11  F3  UNL d   1      -2.409  -2.524   1.865  0.00  0.00    -0.097 F 
ATOM     12  F4  UNL d   1      -3.726  -2.040  -0.475  0.00  0.00    -0.092 F 
ENDROOT
TORSDOF 0
ENDMDL
