MODEL 1
REMARK minimizedAffinity -4.13309431
REMARK minimizedRMSD -1
REMARK  0 active torsions:
REMARK  status: ('A' for Active; 'I' for Inactive)
ROOT
ATOM      1  C   UNL d   1      -2.627  -1.927   1.013  0.00  0.00     0.124 A 
ATOM      2  C1  UNL d   1      -2.596  -0.752   0.275  0.00  0.00     0.062 A 
ATOM      3  C2  UNL d   1      -1.418  -0.017   0.177  0.00  0.00     0.162 A 
ATOM      4  C3  UNL d   1      -0.260  -0.457   0.818  0.00  0.00    -0.034 A 
ATOM      5  C4  UNL d   1      -0.299  -1.639   1.559  0.00  0.00     0.162 A 
ATOM      6  C5  UNL d   1      -1.479  -2.369   1.654  0.00  0.00     0.062 A 
ATOM      7  F   UNL d   1      -1.507  -3.504   2.368  0.00  0.00    -0.097 F 
ATOM      8  F1  UNL d   1       0.797  -2.090   2.188  0.00  0.00    -0.096 F 
ATOM      9  I   UNL d   1       1.504   0.638   0.674  0.00  0.00    -0.060 I 
ATOM     10  F2  UNL d   1      -1.417   1.114  -0.543  0.00  0.00    -0.096 F 
ATOM     11  F3  UNL d   1      -3.705  -0.321  -0.344  0.00  0.00    -0.097 F 
ATOM     12  F4  UNL d   1      -3.763  -2.631   1.107  0.00  0.00    -0.092 F 
ENDROOT
TORSDOF 0
ENDMDL
