MODEL 1
REMARK minimizedAffinity -2.47340846
REMARK minimizedRMSD -1
REMARK  0 active torsions:
REMARK  status: ('A' for Active; 'I' for Inactive)
ROOT
ATOM      1  C   UNL d   1      -2.068  -2.355  -0.049  0.00  0.00     0.124 A 
ATOM      2  C1  UNL d   1      -1.930  -1.326  -0.970  0.00  0.00     0.062 A 
ATOM      3  C2  UNL d   1      -0.810  -0.500  -0.933  0.00  0.00     0.162 A 
ATOM      4  C3  UNL d   1       0.181  -0.700   0.027  0.00  0.00    -0.034 A 
ATOM      5  C4  UNL d   1       0.035  -1.737   0.950  0.00  0.00     0.162 A 
ATOM      6  C5  UNL d   1      -1.086  -2.560   0.909  0.00  0.00     0.062 A 
ATOM      7  F   UNL d   1      -1.218  -3.554   1.800  0.00  0.00    -0.097 F 
ATOM      8  F1  UNL d   1       0.969  -1.958   1.887  0.00  0.00    -0.096 F 
ATOM      9  I   UNL d   1       1.857   0.533   0.085  0.00  0.00    -0.060 I 
ATOM     10  F2  UNL d   1      -0.703   0.487  -1.835  0.00  0.00    -0.096 F 
ATOM     11  F3  UNL d   1      -2.878  -1.125  -1.897  0.00  0.00    -0.097 F 
ATOM     12  F4  UNL d   1      -3.147  -3.148  -0.086  0.00  0.00    -0.092 F 
ENDROOT
TORSDOF 0
ENDMDL
