MODEL 1
REMARK minimizedAffinity -3.85678792
REMARK minimizedRMSD -1
REMARK  0 active torsions:
REMARK  status: ('A' for Active; 'I' for Inactive)
ROOT
ATOM      1  C   UNL d   1      -1.860  -1.823   0.332  0.00  0.00     0.124 A 
ATOM      2  C1  UNL d   1      -1.928  -0.660  -0.422  0.00  0.00     0.062 A 
ATOM      3  C2  UNL d   1      -0.832   0.194  -0.493  0.00  0.00     0.162 A 
ATOM      4  C3  UNL d   1       0.345  -0.113   0.191  0.00  0.00    -0.034 A 
ATOM      5  C4  UNL d   1       0.406  -1.284   0.948  0.00  0.00     0.162 A 
ATOM      6  C5  UNL d   1      -0.693  -2.134   1.016  0.00  0.00     0.062 A 
ATOM      7  F   UNL d   1      -0.624  -3.258   1.745  0.00  0.00    -0.097 F 
ATOM      8  F1  UNL d   1       1.521  -1.609   1.618  0.00  0.00    -0.096 F 
ATOM      9  I   UNL d   1       1.987   1.162   0.087  0.00  0.00    -0.060 I 
ATOM     10  F2  UNL d   1      -0.926   1.311  -1.229  0.00  0.00    -0.096 F 
ATOM     11  F3  UNL d   1      -3.055  -0.357  -1.083  0.00  0.00    -0.097 F 
ATOM     12  F4  UNL d   1      -2.917  -2.643   0.400  0.00  0.00    -0.092 F 
ENDROOT
TORSDOF 0
ENDMDL
