MODEL 1
REMARK minimizedAffinity 0.39861688
REMARK minimizedRMSD -1
REMARK  0 active torsions:
REMARK  status: ('A' for Active; 'I' for Inactive)
ROOT
ATOM      1  C   UNL d   1       2.393   2.902   1.040  0.00  0.00     0.124 A 
ATOM      2  C1  UNL d   1       2.214   1.981   0.017  0.00  0.00     0.062 A 
ATOM      3  C2  UNL d   1       2.820   2.182  -1.220  0.00  0.00     0.162 A 
ATOM      4  C3  UNL d   1       3.611   3.309  -1.441  0.00  0.00    -0.034 A 
ATOM      5  C4  UNL d   1       3.786   4.231  -0.408  0.00  0.00     0.162 A 
ATOM      6  C5  UNL d   1       3.179   4.026   0.826  0.00  0.00     0.062 A 
ATOM      7  F   UNL d   1       3.353   4.917   1.813  0.00  0.00    -0.097 F 
ATOM      8  F1  UNL d   1       4.540   5.326  -0.587  0.00  0.00    -0.096 F 
ATOM      9  I   UNL d   1       4.519   3.613  -3.290  0.00  0.00    -0.060 I 
ATOM     10  F2  UNL d   1       2.630   1.275  -2.190  0.00  0.00    -0.096 F 
ATOM     11  F3  UNL d   1       1.455   0.894   0.220  0.00  0.00    -0.097 F 
ATOM     12  F4  UNL d   1       1.809   2.706   2.228  0.00  0.00    -0.092 F 
ENDROOT
TORSDOF 0
ENDMDL
