MODEL 1
REMARK minimizedAffinity 0.289673537
REMARK minimizedRMSD -1
REMARK  0 active torsions:
REMARK  status: ('A' for Active; 'I' for Inactive)
ROOT
ATOM      1  C   UNL d   1       3.363   3.682  -0.428  0.00  0.00     0.124 A 
ATOM      2  C1  UNL d   1       2.751   3.519   0.807  0.00  0.00     0.062 A 
ATOM      3  C2  UNL d   1       1.869   2.463   1.017  0.00  0.00     0.162 A 
ATOM      4  C3  UNL d   1       1.594   1.561  -0.010  0.00  0.00    -0.034 A 
ATOM      5  C4  UNL d   1       2.212   1.732  -1.250  0.00  0.00     0.162 A 
ATOM      6  C5  UNL d   1       3.093   2.788  -1.455  0.00  0.00     0.062 A 
ATOM      7  F   UNL d   1       3.684   2.944  -2.649  0.00  0.00    -0.097 F 
ATOM      8  F1  UNL d   1       1.970   0.883  -2.260  0.00  0.00    -0.096 F 
ATOM      9  I   UNL d   1       0.275  -0.019   0.300  0.00  0.00    -0.060 I 
ATOM     10  F2  UNL d   1       1.292   2.330   2.221  0.00  0.00    -0.096 F 
ATOM     11  F3  UNL d   1       3.009   4.381   1.800  0.00  0.00    -0.097 F 
ATOM     12  F4  UNL d   1       4.211   4.699  -0.628  0.00  0.00    -0.092 F 
ENDROOT
TORSDOF 0
ENDMDL
