MODEL 1
REMARK minimizedAffinity 1.5106864
REMARK minimizedRMSD -1
REMARK  0 active torsions:
REMARK  status: ('A' for Active; 'I' for Inactive)
ROOT
ATOM      1  C   UNL d   1       3.242   3.564   0.398  0.00  0.00     0.124 A 
ATOM      2  C1  UNL d   1       2.159   3.441   1.258  0.00  0.00     0.062 A 
ATOM      3  C2  UNL d   1       1.377   2.289   1.238  0.00  0.00     0.162 A 
ATOM      4  C3  UNL d   1       1.676   1.251   0.355  0.00  0.00    -0.034 A 
ATOM      5  C4  UNL d   1       2.766   1.383  -0.507  0.00  0.00     0.162 A 
ATOM      6  C5  UNL d   1       3.545   2.535  -0.483  0.00  0.00     0.062 A 
ATOM      7  F   UNL d   1       4.590   2.653  -1.314  0.00  0.00    -0.097 F 
ATOM      8  F1  UNL d   1       3.082   0.404  -1.367  0.00  0.00    -0.096 F 
ATOM      9  I   UNL d   1       0.510  -0.472   0.323  0.00  0.00    -0.060 I 
ATOM     10  F2  UNL d   1       0.337   2.197   2.079  0.00  0.00    -0.096 F 
ATOM     11  F3  UNL d   1       1.864   4.433   2.109  0.00  0.00    -0.097 F 
ATOM     12  F4  UNL d   1       3.992   4.673   0.419  0.00  0.00    -0.092 F 
ENDROOT
TORSDOF 0
ENDMDL
