MODEL 1
REMARK minimizedAffinity -3.58627868
REMARK minimizedRMSD -1
REMARK  0 active torsions:
REMARK  status: ('A' for Active; 'I' for Inactive)
ROOT
ATOM      1  C   UNL d   1      -1.458  -2.214  -0.186  0.00  0.00     0.124 A 
ATOM      2  C1  UNL d   1      -1.403  -1.124  -1.042  0.00  0.00     0.062 A 
ATOM      3  C2  UNL d   1      -0.303  -0.271  -1.020  0.00  0.00     0.162 A 
ATOM      4  C3  UNL d   1       0.752  -0.506  -0.138  0.00  0.00    -0.034 A 
ATOM      5  C4  UNL d   1       0.688  -1.604   0.722  0.00  0.00     0.162 A 
ATOM      6  C5  UNL d   1      -0.413  -2.454   0.696  0.00  0.00     0.062 A 
ATOM      7  F   UNL d   1      -0.465  -3.507   1.524  0.00  0.00    -0.097 F 
ATOM      8  F1  UNL d   1       1.685  -1.860   1.583  0.00  0.00    -0.096 F 
ATOM      9  I   UNL d   1       2.398   0.766  -0.101  0.00  0.00    -0.060 I 
ATOM     10  F2  UNL d   1      -0.276   0.775  -1.859  0.00  0.00    -0.096 F 
ATOM     11  F3  UNL d   1      -2.412  -0.890  -1.894  0.00  0.00    -0.097 F 
ATOM     12  F4  UNL d   1      -2.518  -3.032  -0.209  0.00  0.00    -0.092 F 
ENDROOT
TORSDOF 0
ENDMDL
