MODEL 1
REMARK minimizedAffinity -2.02562428
REMARK minimizedRMSD -1
REMARK  0 active torsions:
REMARK  status: ('A' for Active; 'I' for Inactive)
ROOT
ATOM      1  C   UNL d   1      -1.584  -1.778  -0.039  0.00  0.00     0.124 A 
ATOM      2  C1  UNL d   1      -1.759  -0.666  -0.851  0.00  0.00     0.062 A 
ATOM      3  C2  UNL d   1      -0.772   0.312  -0.923  0.00  0.00     0.162 A 
ATOM      4  C3  UNL d   1       0.402   0.183  -0.180  0.00  0.00    -0.034 A 
ATOM      5  C4  UNL d   1       0.571  -0.937   0.636  0.00  0.00     0.162 A 
ATOM      6  C5  UNL d   1      -0.419  -1.912   0.704  0.00  0.00     0.062 A 
ATOM      7  F   UNL d   1      -0.247  -2.985   1.490  0.00  0.00    -0.097 F 
ATOM      8  F1  UNL d   1       1.687  -1.093   1.364  0.00  0.00    -0.096 F 
ATOM      9  I   UNL d   1       1.881   1.643  -0.284  0.00  0.00    -0.060 I 
ATOM     10  F2  UNL d   1      -0.969   1.375  -1.716  0.00  0.00    -0.096 F 
ATOM     11  F3  UNL d   1      -2.884  -0.533  -1.569  0.00  0.00    -0.097 F 
ATOM     12  F4  UNL d   1      -2.536  -2.717   0.029  0.00  0.00    -0.092 F 
ENDROOT
TORSDOF 0
ENDMDL
