MODEL 1
REMARK minimizedAffinity 13.5492096
REMARK minimizedRMSD -1
REMARK  0 active torsions:
REMARK  status: ('A' for Active; 'I' for Inactive)
ROOT
ATOM      1  C2' OXE d   1       5.867   1.972  -0.617  0.00  0.00     0.078 C 
ATOM      2  C1' OXE d   1       5.842   1.587  -3.398  0.00  0.00     0.078 C 
ATOM      3  C1  OXE d   1       5.915   3.003  -2.884  0.00  0.00    -0.078 A 
ATOM      4  C2  OXE d   1       5.879   3.184  -1.522  0.00  0.00    -0.078 A 
ATOM      5  C3  OXE d   1       5.999   4.467  -0.994  0.00  0.00     0.003 A 
ATOM      6  C4  OXE d   1       6.000   5.584  -1.838  0.00  0.00    -0.002 A 
ATOM      7  C5  OXE d   1       5.997   5.424  -3.228  0.00  0.00    -0.002 A 
ATOM      8  C6  OXE d   1       5.997   4.141  -3.766  0.00  0.00     0.003 A 
ENDROOT
TORSDOF 0
ENDMDL
