MODEL 1
REMARK minimizedAffinity 11.6083841
REMARK minimizedRMSD -1
REMARK  0 active torsions:
REMARK  status: ('A' for Active; 'I' for Inactive)
ROOT
ATOM      1  C2' OXE d   1      -3.331  -0.756  -4.562  0.00  0.00     0.078 C 
ATOM      2  C1' OXE d   1      -4.063  -3.409  -5.113  0.00  0.00     0.078 C 
ATOM      3  C1  OXE d   1      -2.952  -3.178  -4.119  0.00  0.00    -0.078 A 
ATOM      4  C2  OXE d   1      -2.569  -1.878  -3.891  0.00  0.00    -0.078 A 
ATOM      5  C3  OXE d   1      -1.586  -1.605  -2.944  0.00  0.00     0.003 A 
ATOM      6  C4  OXE d   1      -0.879  -2.650  -2.335  0.00  0.00    -0.002 A 
ATOM      7  C5  OXE d   1      -1.227  -3.982  -2.583  0.00  0.00    -0.002 A 
ATOM      8  C6  OXE d   1      -2.287  -4.261  -3.439  0.00  0.00     0.003 A 
ENDROOT
TORSDOF 0
ENDMDL
