MODEL 1
REMARK minimizedAffinity 8.9999752
REMARK minimizedRMSD -1
REMARK  0 active torsions:
REMARK  status: ('A' for Active; 'I' for Inactive)
ROOT
ATOM      1  C2' OXE d   1       5.920   2.361  -2.288  0.00  0.00     0.078 C 
ATOM      2  C1' OXE d   1       5.943   2.384   0.519  0.00  0.00     0.078 C 
ATOM      3  C1  OXE d   1       4.904   1.534  -0.169  0.00  0.00    -0.078 A 
ATOM      4  C2  OXE d   1       4.870   1.566  -1.543  0.00  0.00    -0.078 A 
ATOM      5  C3  OXE d   1       3.967   0.758  -2.229  0.00  0.00     0.003 A 
ATOM      6  C4  OXE d   1       2.993   0.033  -1.532  0.00  0.00    -0.002 A 
ATOM      7  C5  OXE d   1       2.984   0.019  -0.133  0.00  0.00    -0.002 A 
ATOM      8  C6  OXE d   1       3.957   0.729   0.562  0.00  0.00     0.003 A 
ENDROOT
TORSDOF 0
ENDMDL
