MODEL 1
REMARK minimizedAffinity 7.16649151
REMARK minimizedRMSD -1
REMARK  0 active torsions:
REMARK  status: ('A' for Active; 'I' for Inactive)
ROOT
ATOM      1  C2' OXE d   1       4.118   0.758  -3.104  0.00  0.00     0.078 C 
ATOM      2  C1' OXE d   1       5.951   2.596  -2.036  0.00  0.00     0.078 C 
ATOM      3  C1  OXE d   1       4.907   2.025  -1.109  0.00  0.00    -0.078 A 
ATOM      4  C2  OXE d   1       3.986   1.162  -1.651  0.00  0.00    -0.078 A 
ATOM      5  C3  OXE d   1       3.035   0.563  -0.829  0.00  0.00     0.003 A 
ATOM      6  C4  OXE d   1       2.912   0.950   0.511  0.00  0.00    -0.002 A 
ATOM      7  C5  OXE d   1       3.816   1.858   1.073  0.00  0.00    -0.002 A 
ATOM      8  C6  OXE d   1       4.843   2.371   0.289  0.00  0.00     0.003 A 
ENDROOT
TORSDOF 0
ENDMDL
