MODEL 1
REMARK minimizedAffinity 11.6459246
REMARK minimizedRMSD -1
REMARK  0 active torsions:
REMARK  status: ('A' for Active; 'I' for Inactive)
ROOT
ATOM      1  C2' OXE d   1       3.006   0.010  -0.081  0.00  0.00     0.078 C 
ATOM      2  C1' OXE d   1       4.906   1.493   1.358  0.00  0.00     0.078 C 
ATOM      3  C1  OXE d   1       4.973   1.537  -0.149  0.00  0.00    -0.078 A 
ATOM      4  C2  OXE d   1       4.069   0.771  -0.844  0.00  0.00    -0.078 A 
ATOM      5  C3  OXE d   1       4.052   0.817  -2.235  0.00  0.00     0.003 A 
ATOM      6  C4  OXE d   1       5.044   1.516  -2.933  0.00  0.00    -0.002 A 
ATOM      7  C5  OXE d   1       6.000   2.270  -2.244  0.00  0.00    -0.002 A 
ATOM      8  C6  OXE d   1       5.952   2.326  -0.856  0.00  0.00     0.003 A 
ENDROOT
TORSDOF 0
ENDMDL
