MODEL 1
REMARK minimizedAffinity 8.35269451
REMARK minimizedRMSD -1
REMARK  0 active torsions:
REMARK  status: ('A' for Active; 'I' for Inactive)
ROOT
ATOM      1  C2' OXE d   1       5.997   2.688  -2.622  0.00  0.00     0.078 C 
ATOM      2  C1' OXE d   1       6.000   2.793   0.183  0.00  0.00     0.078 C 
ATOM      3  C1  OXE d   1       5.024   1.856  -0.485  0.00  0.00    -0.078 A 
ATOM      4  C2  OXE d   1       4.997   1.846  -1.858  0.00  0.00    -0.078 A 
ATOM      5  C3  OXE d   1       4.155   0.961  -2.525  0.00  0.00     0.003 A 
ATOM      6  C4  OXE d   1       3.227   0.193  -1.811  0.00  0.00    -0.002 A 
ATOM      7  C5  OXE d   1       3.210   0.218  -0.413  0.00  0.00    -0.002 A 
ATOM      8  C6  OXE d   1       4.129   1.010   0.266  0.00  0.00     0.003 A 
ENDROOT
TORSDOF 0
ENDMDL
