MODEL 1
REMARK minimizedAffinity 15.2228498
REMARK minimizedRMSD -1
REMARK  0 active torsions:
REMARK  status: ('A' for Active; 'I' for Inactive)
ROOT
ATOM      1  C2' OXE d   1       2.472   0.681  -0.339  0.00  0.00     0.078 C 
ATOM      2  C1' OXE d   1       4.069   1.744   1.710  0.00  0.00     0.078 C 
ATOM      3  C1  OXE d   1       4.482   2.013   0.285  0.00  0.00    -0.078 A 
ATOM      4  C2  OXE d   1       3.721   1.450  -0.711  0.00  0.00    -0.078 A 
ATOM      5  C3  OXE d   1       4.027   1.713  -2.043  0.00  0.00     0.003 A 
ATOM      6  C4  OXE d   1       5.189   2.417  -2.379  0.00  0.00    -0.002 A 
ATOM      7  C5  OXE d   1       6.000   2.966  -1.379  0.00  0.00    -0.002 A 
ATOM      8  C6  OXE d   1       5.638   2.810  -0.046  0.00  0.00     0.003 A 
ENDROOT
TORSDOF 0
ENDMDL
