MODEL 1
REMARK minimizedAffinity 6.43821335
REMARK minimizedRMSD -1
REMARK  0 active torsions:
REMARK  status: ('A' for Active; 'I' for Inactive)
ROOT
ATOM      1  C2' OXE d   1       4.483   1.129  -2.299  0.00  0.00     0.078 C 
ATOM      2  C1' OXE d   1       5.537   2.065   0.128  0.00  0.00     0.078 C 
ATOM      3  C1  OXE d   1       4.249   1.281   0.176  0.00  0.00    -0.078 A 
ATOM      4  C2  OXE d   1       3.716   0.867  -1.021  0.00  0.00    -0.078 A 
ATOM      5  C3  OXE d   1       2.559   0.094  -1.030  0.00  0.00     0.003 A 
ATOM      6  C4  OXE d   1       1.851  -0.135   0.156  0.00  0.00    -0.002 A 
ATOM      7  C5  OXE d   1       2.355   0.312   1.382  0.00  0.00    -0.002 A 
ATOM      8  C6  OXE d   1       3.573   0.983   1.414  0.00  0.00     0.003 A 
ENDROOT
TORSDOF 0
ENDMDL
