MODEL 1
REMARK minimizedAffinity 13.3039255
REMARK minimizedRMSD -1
REMARK  0 active torsions:
REMARK  status: ('A' for Active; 'I' for Inactive)
ROOT
ATOM      1  C2' OXE d   1       6.000   2.618   0.856  0.00  0.00     0.078 C 
ATOM      2  C1' OXE d   1       6.000   2.658  -1.951  0.00  0.00     0.078 C 
ATOM      3  C1  OXE d   1       4.938   1.840  -1.259  0.00  0.00    -0.078 A 
ATOM      4  C2  OXE d   1       4.974   1.788   0.114  0.00  0.00    -0.078 A 
ATOM      5  C3  OXE d   1       3.985   1.093   0.804  0.00  0.00     0.003 A 
ATOM      6  C4  OXE d   1       3.046   0.321   0.109  0.00  0.00    -0.002 A 
ATOM      7  C5  OXE d   1       3.016   0.327  -1.289  0.00  0.00    -0.002 A 
ATOM      8  C6  OXE d   1       3.926   1.114  -1.987  0.00  0.00     0.003 A 
ENDROOT
TORSDOF 0
ENDMDL
