MODEL 1
REMARK minimizedAffinity -0.618484437
REMARK minimizedRMSD -1
REMARK  0 active torsions:
REMARK  status: ('A' for Active; 'I' for Inactive)
ROOT
ATOM      1  C   UNL d   1       4.621   2.440   0.486  0.00  0.00     0.020 A 
ATOM      2  C1  UNL d   1       5.809   2.145   1.155  0.00  0.00     0.020 A 
ATOM      3  C2  UNL d   1       5.998   0.882   1.719  0.00  0.00     0.034 A 
ATOM      4  C3  UNL d   1       4.998  -0.092   1.614  0.00  0.00     0.017 A 
ATOM      5  C4  UNL d   1       3.807   0.204   0.943  0.00  0.00     0.017 A 
ATOM      6  C5  UNL d   1       3.623   1.471   0.380  0.00  0.00     0.034 A 
ATOM      7 Cl   UNL d   1       2.527  -0.946   0.773  0.00  0.00    -0.070 Cl
ATOM      8 Cl1  UNL d   1       5.300  -1.634   2.334  0.00  0.00    -0.070 Cl
ENDROOT
TORSDOF 0
ENDMDL
