MODEL 1
REMARK minimizedAffinity 2.16984296
REMARK minimizedRMSD -1
REMARK  0 active torsions:
REMARK  status: ('A' for Active; 'I' for Inactive)
ROOT
ATOM      1  C   UNL d   1       6.000  -0.204   1.503  0.00  0.00     0.020 A 
ATOM      2  C1  UNL d   1       4.792  -0.841   1.786  0.00  0.00     0.020 A 
ATOM      3  C2  UNL d   1       3.584  -0.177   1.566  0.00  0.00     0.034 A 
ATOM      4  C3  UNL d   1       3.580   1.129   1.061  0.00  0.00     0.017 A 
ATOM      5  C4  UNL d   1       4.793   1.767   0.777  0.00  0.00     0.017 A 
ATOM      6  C5  UNL d   1       6.000   1.097   1.000  0.00  0.00     0.034 A 
ATOM      7 Cl   UNL d   1       4.869   3.377   0.152  0.00  0.00    -0.070 Cl
ATOM      8 Cl1  UNL d   1       2.049   1.890   0.813  0.00  0.00    -0.070 Cl
ENDROOT
TORSDOF 0
ENDMDL
