MODEL 1
REMARK minimizedAffinity 6.26612377
REMARK minimizedRMSD -1
REMARK  0 active torsions:
REMARK  status: ('A' for Active; 'I' for Inactive)
ROOT
ATOM      1  C   UNL d   1      -1.365   2.592   2.551  0.00  0.00     0.020 A 
ATOM      2  C1  UNL d   1      -1.045   1.272   2.234  0.00  0.00     0.020 A 
ATOM      3  C2  UNL d   1      -1.857   0.229   2.684  0.00  0.00     0.034 A 
ATOM      4  C3  UNL d   1      -2.994   0.503   3.453  0.00  0.00     0.017 A 
ATOM      5  C4  UNL d   1      -3.314   1.828   3.771  0.00  0.00     0.017 A 
ATOM      6  C5  UNL d   1      -2.498   2.869   3.319  0.00  0.00     0.034 A 
ATOM      7 Cl   UNL d   1      -4.700   2.245   4.717  0.00  0.00    -0.070 Cl
ATOM      8 Cl1  UNL d   1      -3.953  -0.836   3.975  0.00  0.00    -0.070 Cl
ENDROOT
TORSDOF 0
ENDMDL
