MODEL 1
REMARK minimizedAffinity 3.66687846
REMARK minimizedRMSD -1
REMARK  0 active torsions:
REMARK  status: ('A' for Active; 'I' for Inactive)
ROOT
ATOM      1  C   UNL d   1      -0.993   0.894   2.649  0.00  0.00     0.020 A 
ATOM      2  C1  UNL d   1      -1.355   2.229   2.826  0.00  0.00     0.020 A 
ATOM      3  C2  UNL d   1      -2.593   2.548   3.386  0.00  0.00     0.034 A 
ATOM      4  C3  UNL d   1      -3.475   1.531   3.772  0.00  0.00     0.017 A 
ATOM      5  C4  UNL d   1      -3.110   0.192   3.595  0.00  0.00     0.017 A 
ATOM      6  C5  UNL d   1      -1.869  -0.123   3.033  0.00  0.00     0.034 A 
ATOM      7 Cl   UNL d   1      -4.144  -1.118   4.046  0.00  0.00    -0.070 Cl
ATOM      8 Cl1  UNL d   1      -4.990   1.999   4.459  0.00  0.00    -0.070 Cl
ENDROOT
TORSDOF 0
ENDMDL
