MODEL 1
REMARK minimizedAffinity 5.75289631
REMARK minimizedRMSD -1
REMARK  0 active torsions:
REMARK  status: ('A' for Active; 'I' for Inactive)
ROOT
ATOM      1  C   UNL d   1      -5.640   1.817   5.999  0.00  0.00     0.020 A 
ATOM      2  C1  UNL d   1      -4.899   2.997   5.959  0.00  0.00     0.020 A 
ATOM      3  C2  UNL d   1      -3.782   3.091   5.126  0.00  0.00     0.034 A 
ATOM      4  C3  UNL d   1      -3.403   2.004   4.330  0.00  0.00     0.017 A 
ATOM      5  C4  UNL d   1      -4.148   0.820   4.371  0.00  0.00     0.017 A 
ATOM      6  C5  UNL d   1      -5.266   0.731   5.207  0.00  0.00     0.034 A 
ATOM      7 Cl   UNL d   1      -3.743  -0.564   3.418  0.00  0.00    -0.070 Cl
ATOM      8 Cl1  UNL d   1      -2.011   2.191   3.323  0.00  0.00    -0.070 Cl
ENDROOT
TORSDOF 0
ENDMDL
