MODEL 1
REMARK minimizedAffinity 2.16018271
REMARK minimizedRMSD -1
REMARK  0 active torsions:
REMARK  status: ('A' for Active; 'I' for Inactive)
ROOT
ATOM      1  C   UNL d   1      -1.343  -5.997  -1.382  0.00  0.00     0.020 A 
ATOM      2  C1  UNL d   1      -1.365  -5.025  -0.383  0.00  0.00     0.020 A 
ATOM      3  C2  UNL d   1      -0.362  -4.054  -0.330  0.00  0.00     0.034 A 
ATOM      4  C3  UNL d   1       0.668  -4.054  -1.278  0.00  0.00     0.017 A 
ATOM      5  C4  UNL d   1       0.689  -5.031  -2.281  0.00  0.00     0.017 A 
ATOM      6  C5  UNL d   1      -0.318  -6.000  -2.329  0.00  0.00     0.034 A 
ATOM      7 Cl   UNL d   1       1.927  -5.095  -3.486  0.00  0.00    -0.070 Cl
ATOM      8 Cl1  UNL d   1       1.875  -2.825  -1.154  0.00  0.00    -0.070 Cl
ENDROOT
TORSDOF 0
ENDMDL
