MODEL 1
REMARK minimizedAffinity 1.24489653
REMARK minimizedRMSD -1
REMARK  0 active torsions:
REMARK  status: ('A' for Active; 'I' for Inactive)
ROOT
ATOM      1  C   UNL d   1      -2.150   2.969   2.744  0.00  0.00     0.020 A 
ATOM      2  C1  UNL d   1      -3.047   1.971   3.122  0.00  0.00     0.020 A 
ATOM      3  C2  UNL d   1      -2.761   0.633   2.842  0.00  0.00     0.034 A 
ATOM      4  C3  UNL d   1      -1.576   0.289   2.183  0.00  0.00     0.017 A 
ATOM      5  C4  UNL d   1      -0.675   1.291   1.804  0.00  0.00     0.017 A 
ATOM      6  C5  UNL d   1      -0.966   2.629   2.087  0.00  0.00     0.034 A 
ATOM      7 Cl   UNL d   1       0.808   0.944   0.988  0.00  0.00    -0.070 Cl
ATOM      8 Cl1  UNL d   1      -1.287  -1.386   1.870  0.00  0.00    -0.070 Cl
ENDROOT
TORSDOF 0
ENDMDL
