MODEL 1
REMARK minimizedAffinity 12.3892384
REMARK minimizedRMSD -1
REMARK  0 active torsions:
REMARK  status: ('A' for Active; 'I' for Inactive)
ROOT
ATOM      1  C   UNL d   1      -5.013   3.565   5.999  0.00  0.00     0.020 A 
ATOM      2  C1  UNL d   1      -6.000   2.819   5.356  0.00  0.00     0.020 A 
ATOM      3  C2  UNL d   1      -5.644   1.884   4.382  0.00  0.00     0.034 A 
ATOM      4  C3  UNL d   1      -4.299   1.692   4.048  0.00  0.00     0.017 A 
ATOM      5  C4  UNL d   1      -3.309   2.441   4.694  0.00  0.00     0.017 A 
ATOM      6  C5  UNL d   1      -3.670   3.376   5.669  0.00  0.00     0.034 A 
ATOM      7 Cl   UNL d   1      -1.628   2.260   4.336  0.00  0.00    -0.070 Cl
ATOM      8 Cl1  UNL d   1      -3.932   0.518   2.834  0.00  0.00    -0.070 Cl
ENDROOT
TORSDOF 0
ENDMDL
