MODEL 1
REMARK minimizedAffinity 4.99396801
REMARK minimizedRMSD -1
REMARK  0 active torsions:
REMARK  status: ('A' for Active; 'I' for Inactive)
ROOT
ATOM      1  C   UNL d   1      -0.368   2.461   2.712  0.00  0.00     0.020 A 
ATOM      2  C1  UNL d   1      -0.183   1.206   2.132  0.00  0.00     0.020 A 
ATOM      3  C2  UNL d   1      -1.199   0.251   2.196  0.00  0.00     0.034 A 
ATOM      4  C3  UNL d   1      -2.406   0.548   2.840  0.00  0.00     0.017 A 
ATOM      5  C4  UNL d   1      -2.591   1.808   3.421  0.00  0.00     0.017 A 
ATOM      6  C5  UNL d   1      -1.570   2.761   3.355  0.00  0.00     0.034 A 
ATOM      7 Cl   UNL d   1      -4.052   2.249   4.233  0.00  0.00    -0.070 Cl
ATOM      8 Cl1  UNL d   1      -3.619  -0.681   2.880  0.00  0.00    -0.070 Cl
ENDROOT
TORSDOF 0
ENDMDL
