MODEL 1
REMARK minimizedAffinity 6.55261564
REMARK minimizedRMSD -1
REMARK  0 active torsions:
REMARK  status: ('A' for Active; 'I' for Inactive)
ROOT
ATOM      1  C   UNL d   1      -5.194   3.375   5.846  0.00  0.00     0.020 A 
ATOM      2  C1  UNL d   1      -6.000   2.247   5.998  0.00  0.00     0.020 A 
ATOM      3  C2  UNL d   1      -5.737   1.096   5.253  0.00  0.00     0.034 A 
ATOM      4  C3  UNL d   1      -4.665   1.069   4.353  0.00  0.00     0.017 A 
ATOM      5  C4  UNL d   1      -3.857   2.202   4.201  0.00  0.00     0.017 A 
ATOM      6  C5  UNL d   1      -4.125   3.352   4.950  0.00  0.00     0.034 A 
ATOM      7 Cl   UNL d   1      -2.517   2.244   3.111  0.00  0.00    -0.070 Cl
ATOM      8 Cl1  UNL d   1      -4.398  -0.389   3.465  0.00  0.00    -0.070 Cl
ENDROOT
TORSDOF 0
ENDMDL
