MODEL 1
REMARK minimizedAffinity 2.42000175
REMARK minimizedRMSD -1
REMARK  0 active torsions:
REMARK  status: ('A' for Active; 'I' for Inactive)
ROOT
ATOM      1  C   UNL d   1      -3.054  -2.669  -2.311  0.00  0.00     0.020 A 
ATOM      2  C1  UNL d   1      -3.620  -3.362  -1.242  0.00  0.00     0.020 A 
ATOM      3  C2  UNL d   1      -2.835  -4.230  -0.479  0.00  0.00     0.034 A 
ATOM      4  C3  UNL d   1      -1.481  -4.406  -0.785  0.00  0.00     0.017 A 
ATOM      5  C4  UNL d   1      -0.914  -3.710  -1.858  0.00  0.00     0.017 A 
ATOM      6  C5  UNL d   1      -1.704  -2.842  -2.619  0.00  0.00     0.034 A 
ATOM      7 Cl   UNL d   1       0.750  -3.876  -2.296  0.00  0.00    -0.070 Cl
ATOM      8 Cl1  UNL d   1      -0.570  -5.494   0.201  0.00  0.00    -0.070 Cl
ENDROOT
TORSDOF 0
ENDMDL
