MODEL 1
REMARK minimizedAffinity 10.0117664
REMARK minimizedRMSD -1
REMARK  0 active torsions:
REMARK  status: ('A' for Active; 'I' for Inactive)
ROOT
ATOM      1  C   UNL d   1      -0.031   2.635   2.120  0.00  0.00     0.020 A 
ATOM      2  C1  UNL d   1      -0.282   1.989   3.330  0.00  0.00     0.020 A 
ATOM      3  C2  UNL d   1      -1.573   1.982   3.863  0.00  0.00     0.034 A 
ATOM      4  C3  UNL d   1      -2.617   2.623   3.187  0.00  0.00     0.017 A 
ATOM      5  C4  UNL d   1      -2.364   3.271   1.972  0.00  0.00     0.017 A 
ATOM      6  C5  UNL d   1      -1.070   3.275   1.443  0.00  0.00     0.034 A 
ATOM      7 Cl   UNL d   1      -3.601   4.083   1.080  0.00  0.00    -0.070 Cl
ATOM      8 Cl1  UNL d   1      -4.188   2.575   3.904  0.00  0.00    -0.070 Cl
ENDROOT
TORSDOF 0
ENDMDL
