MODEL 1
REMARK minimizedAffinity 7.01700878
REMARK minimizedRMSD -1
REMARK  0 active torsions:
REMARK  status: ('A' for Active; 'I' for Inactive)
ROOT
ATOM      1  C   UNL d   1      -3.411   0.201  -1.955  0.00  0.00     0.020 A 
ATOM      2  C1  UNL d   1      -2.997  -0.778  -2.857  0.00  0.00     0.020 A 
ATOM      3  C2  UNL d   1      -3.214  -2.128  -2.572  0.00  0.00     0.034 A 
ATOM      4  C3  UNL d   1      -3.848  -2.502  -1.381  0.00  0.00     0.017 A 
ATOM      5  C4  UNL d   1      -4.264  -1.519  -0.477  0.00  0.00     0.017 A 
ATOM      6  C5  UNL d   1      -4.044  -0.169  -0.767  0.00  0.00     0.034 A 
ATOM      7 Cl   UNL d   1      -5.053  -1.903   1.012  0.00  0.00    -0.070 Cl
ATOM      8 Cl1  UNL d   1      -4.085  -4.189  -1.094  0.00  0.00    -0.070 Cl
ENDROOT
TORSDOF 0
ENDMDL
