MODEL 1
REMARK minimizedAffinity 5.60979652
REMARK minimizedRMSD -1
REMARK  0 active torsions:
REMARK  status: ('A' for Active; 'I' for Inactive)
ROOT
ATOM      1  C   UNL d   1       4.146   1.790  -3.967  0.00  0.00     0.020 A 
ATOM      2  C1  UNL d   1       2.926   1.869  -3.297  0.00  0.00     0.020 A 
ATOM      3  C2  UNL d   1       2.169   3.041  -3.362  0.00  0.00     0.034 A 
ATOM      4  C3  UNL d   1       2.631   4.138  -4.098  0.00  0.00     0.017 A 
ATOM      5  C4  UNL d   1       3.856   4.057  -4.770  0.00  0.00     0.017 A 
ATOM      6  C5  UNL d   1       4.610   2.882  -4.702  0.00  0.00     0.034 A 
ATOM      7 Cl   UNL d   1       4.492   5.369  -5.699  0.00  0.00    -0.070 Cl
ATOM      8 Cl1  UNL d   1       1.643   5.555  -4.135  0.00  0.00    -0.070 Cl
ENDROOT
TORSDOF 0
ENDMDL
