MODEL 1
REMARK minimizedAffinity 11.426259
REMARK minimizedRMSD -1
REMARK  0 active torsions:
REMARK  status: ('A' for Active; 'I' for Inactive)
ROOT
ATOM      1  C   UNL d   1      -1.344   1.809   2.031  0.00  0.00     0.020 A 
ATOM      2  C1  UNL d   1      -1.846   3.035   2.465  0.00  0.00     0.020 A 
ATOM      3  C2  UNL d   1      -2.953   3.075   3.315  0.00  0.00     0.034 A 
ATOM      4  C3  UNL d   1      -3.563   1.887   3.733  0.00  0.00     0.017 A 
ATOM      5  C4  UNL d   1      -3.058   0.656   3.297  0.00  0.00     0.017 A 
ATOM      6  C5  UNL d   1      -1.949   0.622   2.447  0.00  0.00     0.034 A 
ATOM      7 Cl   UNL d   1      -3.756  -0.852   3.771  0.00  0.00    -0.070 Cl
ATOM      8 Cl1  UNL d   1      -4.928   2.011   4.784  0.00  0.00    -0.070 Cl
ENDROOT
TORSDOF 0
ENDMDL
