MODEL 1
REMARK minimizedAffinity 19.2351189
REMARK minimizedRMSD -1
REMARK  0 active torsions:
REMARK  status: ('A' for Active; 'I' for Inactive)
ROOT
ATOM      1  C   UNL d   1      -0.542   3.178  -4.460  0.00  0.00     0.020 A 
ATOM      2  C1  UNL d   1      -1.891   2.856  -4.316  0.00  0.00     0.020 A 
ATOM      3  C2  UNL d   1      -2.261   1.665  -3.687  0.00  0.00     0.034 A 
ATOM      4  C3  UNL d   1      -1.281   0.791  -3.202  0.00  0.00     0.017 A 
ATOM      5  C4  UNL d   1       0.072   1.115  -3.347  0.00  0.00     0.017 A 
ATOM      6  C5  UNL d   1       0.437   2.309  -3.977  0.00  0.00     0.034 A 
ATOM      7 Cl   UNL d   1       1.338   0.088  -2.773  0.00  0.00    -0.070 Cl
ATOM      8 Cl1  UNL d   1      -1.811  -0.664  -2.435  0.00  0.00    -0.070 Cl
ENDROOT
TORSDOF 0
ENDMDL
