MODEL 1
REMARK minimizedAffinity 12.4835091
REMARK minimizedRMSD -1
REMARK  0 active torsions:
REMARK  status: ('A' for Active; 'I' for Inactive)
ROOT
ATOM      1  C   UNL d   1      -2.533  -1.626   0.340  0.00  0.00     0.020 A 
ATOM      2  C1  UNL d   1      -1.656  -2.680   0.089  0.00  0.00     0.020 A 
ATOM      3  C2  UNL d   1      -1.036  -2.792  -1.157  0.00  0.00     0.034 A 
ATOM      4  C3  UNL d   1      -1.292  -1.847  -2.158  0.00  0.00     0.017 A 
ATOM      5  C4  UNL d   1      -2.173  -0.789  -1.905  0.00  0.00     0.017 A 
ATOM      6  C5  UNL d   1      -2.791  -0.682  -0.656  0.00  0.00     0.034 A 
ATOM      7 Cl   UNL d   1      -2.539   0.415  -3.090  0.00  0.00    -0.070 Cl
ATOM      8 Cl1  UNL d   1      -0.491  -2.047  -3.675  0.00  0.00    -0.070 Cl
ENDROOT
TORSDOF 0
ENDMDL
