MODEL 1
REMARK minimizedAffinity 17.8778133
REMARK minimizedRMSD -1
REMARK  0 active torsions:
REMARK  status: ('A' for Active; 'I' for Inactive)
ROOT
ATOM      1  C   UNL d   1      -1.876   3.422  -4.485  0.00  0.00     0.020 A 
ATOM      2  C1  UNL d   1      -0.513   3.240  -4.716  0.00  0.00     0.020 A 
ATOM      3  C2  UNL d   1       0.125   2.086  -4.258  0.00  0.00     0.034 A 
ATOM      4  C3  UNL d   1      -0.600   1.108  -3.567  0.00  0.00     0.017 A 
ATOM      5  C4  UNL d   1      -1.968   1.291  -3.336  0.00  0.00     0.017 A 
ATOM      6  C5  UNL d   1      -2.602   2.449  -3.796  0.00  0.00     0.034 A 
ATOM      7 Cl   UNL d   1      -2.929   0.129  -2.491  0.00  0.00    -0.070 Cl
ATOM      8 Cl1  UNL d   1       0.253  -0.296  -3.030  0.00  0.00    -0.070 Cl
ENDROOT
TORSDOF 0
ENDMDL
