MODEL 1
REMARK minimizedAffinity 7.21766806
REMARK minimizedRMSD -1
REMARK  0 active torsions:
REMARK  status: ('A' for Active; 'I' for Inactive)
ROOT
ATOM      1  C   UNL d   1       3.621   2.210   0.490  0.00  0.00     0.020 A 
ATOM      2  C1  UNL d   1       3.542   1.577   1.730  0.00  0.00     0.020 A 
ATOM      3  C2  UNL d   1       4.005   2.227   2.876  0.00  0.00     0.034 A 
ATOM      4  C3  UNL d   1       4.548   3.514   2.784  0.00  0.00     0.017 A 
ATOM      5  C4  UNL d   1       4.626   4.148   1.539  0.00  0.00     0.017 A 
ATOM      6  C5  UNL d   1       4.161   3.493   0.395  0.00  0.00     0.034 A 
ATOM      7 Cl   UNL d   1       5.283   5.735   1.347  0.00  0.00    -0.070 Cl
ATOM      8 Cl1  UNL d   1       5.101   4.259   4.242  0.00  0.00    -0.070 Cl
ENDROOT
TORSDOF 0
ENDMDL
