MODEL 1
REMARK minimizedAffinity 17.8396606
REMARK minimizedRMSD -1
REMARK  0 active torsions:
REMARK  status: ('A' for Active; 'I' for Inactive)
ROOT
ATOM      1  C   UNL d   1      -0.413   3.316  -4.974  0.00  0.00     0.020 A 
ATOM      2  C1  UNL d   1      -1.798   3.384  -4.836  0.00  0.00     0.020 A 
ATOM      3  C2  UNL d   1      -2.498   2.310  -4.281  0.00  0.00     0.034 A 
ATOM      4  C3  UNL d   1      -1.812   1.164  -3.863  0.00  0.00     0.017 A 
ATOM      5  C4  UNL d   1      -0.421   1.097  -4.003  0.00  0.00     0.017 A 
ATOM      6  C5  UNL d   1       0.274   2.175  -4.559  0.00  0.00     0.034 A 
ATOM      7 Cl   UNL d   1       0.494  -0.284  -3.510  0.00  0.00    -0.070 Cl
ATOM      8 Cl1  UNL d   1      -2.741  -0.126  -3.185  0.00  0.00    -0.070 Cl
ENDROOT
TORSDOF 0
ENDMDL
