MODEL 1
REMARK minimizedAffinity 21.7988777
REMARK minimizedRMSD -1
REMARK  0 active torsions:
REMARK  status: ('A' for Active; 'I' for Inactive)
ROOT
ATOM      1  C   UNL d   1      -2.645  -1.383  -0.478  0.00  0.00     0.020 A 
ATOM      2  C1  UNL d   1      -1.554  -1.977  -1.112  0.00  0.00     0.020 A 
ATOM      3  C2  UNL d   1      -0.831  -2.981  -0.463  0.00  0.00     0.034 A 
ATOM      4  C3  UNL d   1      -1.198  -3.393   0.824  0.00  0.00     0.017 A 
ATOM      5  C4  UNL d   1      -2.293  -2.796   1.458  0.00  0.00     0.017 A 
ATOM      6  C5  UNL d   1      -3.014  -1.792   0.804  0.00  0.00     0.034 A 
ATOM      7 Cl   UNL d   1      -2.807  -3.252   3.044  0.00  0.00    -0.070 Cl
ATOM      8 Cl1  UNL d   1      -0.260  -4.639   1.566  0.00  0.00    -0.070 Cl
ENDROOT
TORSDOF 0
ENDMDL
