MODEL 1
REMARK minimizedAffinity 15.6329432
REMARK minimizedRMSD -1
REMARK  0 active torsions:
REMARK  status: ('A' for Active; 'I' for Inactive)
ROOT
ATOM      1  C   UNL d   1      -1.664   2.712  -4.301  0.00  0.00     0.020 A 
ATOM      2  C1  UNL d   1      -0.333   3.057  -4.529  0.00  0.00     0.020 A 
ATOM      3  C2  UNL d   1       0.687   2.164  -4.196  0.00  0.00     0.034 A 
ATOM      4  C3  UNL d   1       0.378   0.920  -3.633  0.00  0.00     0.017 A 
ATOM      5  C4  UNL d   1      -0.959   0.574  -3.406  0.00  0.00     0.017 A 
ATOM      6  C5  UNL d   1      -1.976   1.472  -3.741  0.00  0.00     0.034 A 
ATOM      7 Cl   UNL d   1      -1.419  -0.943  -2.716  0.00  0.00    -0.070 Cl
ATOM      8 Cl1  UNL d   1       1.690  -0.136  -3.246  0.00  0.00    -0.070 Cl
ENDROOT
TORSDOF 0
ENDMDL
