MODEL 1
REMARK minimizedAffinity 10.0601206
REMARK minimizedRMSD -1
REMARK  0 active torsions:
REMARK  status: ('A' for Active; 'I' for Inactive)
ROOT
ATOM      1  C   UNL d   1      -0.489  -5.111   0.889  0.00  0.00     0.020 A 
ATOM      2  C1  UNL d   1      -0.380  -6.000  -0.180  0.00  0.00     0.020 A 
ATOM      3  C2  UNL d   1      -0.604  -5.555  -1.484  0.00  0.00     0.034 A 
ATOM      4  C3  UNL d   1      -0.940  -4.217  -1.724  0.00  0.00     0.017 A 
ATOM      5  C4  UNL d   1      -1.050  -3.326  -0.651  0.00  0.00     0.017 A 
ATOM      6  C5  UNL d   1      -0.824  -3.777   0.654  0.00  0.00     0.034 A 
ATOM      7 Cl   UNL d   1      -1.459  -1.661  -0.867  0.00  0.00    -0.070 Cl
ATOM      8 Cl1  UNL d   1      -1.203  -3.736  -3.362  0.00  0.00    -0.070 Cl
ENDROOT
TORSDOF 0
ENDMDL
