MODEL 1
REMARK minimizedAffinity 16.6284389
REMARK minimizedRMSD -1
REMARK  0 active torsions:
REMARK  status: ('A' for Active; 'I' for Inactive)
ROOT
ATOM      1  C   UNL d   1       2.511  -1.066  -1.748  0.00  0.00     0.020 A 
ATOM      2  C1  UNL d   1       1.561  -0.897  -2.755  0.00  0.00     0.020 A 
ATOM      3  C2  UNL d   1       1.153   0.387  -3.122  0.00  0.00     0.034 A 
ATOM      4  C3  UNL d   1       1.695   1.508  -2.481  0.00  0.00     0.017 A 
ATOM      5  C4  UNL d   1       2.649   1.337  -1.471  0.00  0.00     0.017 A 
ATOM      6  C5  UNL d   1       3.053   0.048  -1.108  0.00  0.00     0.034 A 
ATOM      7 Cl   UNL d   1       3.362   2.671  -0.635  0.00  0.00    -0.070 Cl
ATOM      8 Cl1  UNL d   1       1.146   3.066  -2.986  0.00  0.00    -0.070 Cl
ENDROOT
TORSDOF 0
ENDMDL
