MODEL 1
REMARK minimizedAffinity 2.03727055
REMARK minimizedRMSD -1
REMARK  0 active torsions:
REMARK  status: ('A' for Active; 'I' for Inactive)
ROOT
ATOM      1  C   UNL d   1       0.554   3.206  -4.861  0.00  0.00     0.020 A 
ATOM      2  C1  UNL d   1      -0.010   4.050  -5.817  0.00  0.00     0.020 A 
ATOM      3  C2  UNL d   1      -1.395   4.074  -5.997  0.00  0.00     0.034 A 
ATOM      4  C3  UNL d   1      -2.220   3.253  -5.220  0.00  0.00     0.017 A 
ATOM      5  C4  UNL d   1      -1.652   2.406  -4.261  0.00  0.00     0.017 A 
ATOM      6  C5  UNL d   1      -0.265   2.386  -4.085  0.00  0.00     0.034 A 
ATOM      7 Cl   UNL d   1      -2.606   1.365  -3.264  0.00  0.00    -0.070 Cl
ATOM      8 Cl1  UNL d   1      -3.924   3.335  -5.495  0.00  0.00    -0.070 Cl
ENDROOT
TORSDOF 0
ENDMDL
