MODEL 1
REMARK minimizedAffinity 8.10679817
REMARK minimizedRMSD -1
REMARK  0 active torsions:
REMARK  status: ('A' for Active; 'I' for Inactive)
ROOT
ATOM      1  C   UNL d   1      -5.999   5.347  -4.962  0.00  0.00     0.020 A 
ATOM      2  C1  UNL d   1      -4.944   6.000  -4.327  0.00  0.00     0.020 A 
ATOM      3  C2  UNL d   1      -3.706   5.366  -4.199  0.00  0.00     0.034 A 
ATOM      4  C3  UNL d   1      -3.521   4.075  -4.707  0.00  0.00     0.017 A 
ATOM      5  C4  UNL d   1      -4.581   3.420  -5.345  0.00  0.00     0.017 A 
ATOM      6  C5  UNL d   1      -5.818   4.060  -5.470  0.00  0.00     0.034 A 
ATOM      7 Cl   UNL d   1      -4.429   1.827  -5.998  0.00  0.00    -0.070 Cl
ATOM      8 Cl1  UNL d   1      -1.964   3.351  -4.515  0.00  0.00    -0.070 Cl
ENDROOT
TORSDOF 0
ENDMDL
