MODEL 1
REMARK minimizedAffinity 7.90624046
REMARK minimizedRMSD -1
REMARK  0 active torsions:
REMARK  status: ('A' for Active; 'I' for Inactive)
ROOT
ATOM      1  C   UNL d   1      -1.938  -1.889   0.692  0.00  0.00     0.020 A 
ATOM      2  C1  UNL d   1      -2.254  -2.179   2.019  0.00  0.00     0.020 A 
ATOM      3  C2  UNL d   1      -2.008  -3.455   2.533  0.00  0.00     0.034 A 
ATOM      4  C3  UNL d   1      -1.445  -4.444   1.719  0.00  0.00     0.017 A 
ATOM      5  C4  UNL d   1      -1.128  -4.152   0.387  0.00  0.00     0.017 A 
ATOM      6  C5  UNL d   1      -1.376  -2.874  -0.122  0.00  0.00     0.034 A 
ATOM      7 Cl   UNL d   1      -0.431  -5.321  -0.678  0.00  0.00    -0.070 Cl
ATOM      8 Cl1  UNL d   1      -1.168  -5.999   2.420  0.00  0.00    -0.070 Cl
ENDROOT
TORSDOF 0
ENDMDL
