MODEL 1
REMARK minimizedAffinity 4.52887774
REMARK minimizedRMSD -1
REMARK  0 active torsions:
REMARK  status: ('A' for Active; 'I' for Inactive)
ROOT
ATOM      1  C   UNL d   1       0.933  -6.000   2.934  0.00  0.00     0.020 A 
ATOM      2  C1  UNL d   1       0.120  -5.170   3.705  0.00  0.00     0.020 A 
ATOM      3  C2  UNL d   1      -0.817  -4.340   3.086  0.00  0.00     0.034 A 
ATOM      4  C3  UNL d   1      -0.944  -4.338   1.692  0.00  0.00     0.017 A 
ATOM      5  C4  UNL d   1      -0.127  -5.170   0.919  0.00  0.00     0.017 A 
ATOM      6  C5  UNL d   1       0.810  -6.000   1.544  0.00  0.00     0.034 A 
ATOM      7 Cl   UNL d   1      -0.225  -5.222  -0.806  0.00  0.00    -0.070 Cl
ATOM      8 Cl1  UNL d   1      -2.124  -3.286   0.994  0.00  0.00    -0.070 Cl
ENDROOT
TORSDOF 0
ENDMDL
