MODEL 1
REMARK minimizedAffinity 19.67313
REMARK minimizedRMSD -1
REMARK  0 active torsions:
REMARK  status: ('A' for Active; 'I' for Inactive)
ROOT
ATOM      1  C   UNL d   1      -0.211   3.206  -4.897  0.00  0.00     0.020 A 
ATOM      2  C1  UNL d   1      -1.545   3.562  -4.707  0.00  0.00     0.020 A 
ATOM      3  C2  UNL d   1      -2.406   2.705  -4.018  0.00  0.00     0.034 A 
ATOM      4  C3  UNL d   1      -1.932   1.488  -3.516  0.00  0.00     0.017 A 
ATOM      5  C4  UNL d   1      -0.593   1.131  -3.706  0.00  0.00     0.017 A 
ATOM      6  C5  UNL d   1       0.265   1.993  -4.397  0.00  0.00     0.034 A 
ATOM      7 Cl   UNL d   1       0.064  -0.355  -3.115  0.00  0.00    -0.070 Cl
ATOM      8 Cl1  UNL d   1      -3.052   0.477  -2.673  0.00  0.00    -0.070 Cl
ENDROOT
TORSDOF 0
ENDMDL
