MODEL 1
REMARK minimizedAffinity 16.7870674
REMARK minimizedRMSD -1
REMARK  0 active torsions:
REMARK  status: ('A' for Active; 'I' for Inactive)
ROOT
ATOM      1  C   UNL d   1      -0.358   3.975  -5.621  0.00  0.00     0.020 A 
ATOM      2  C1  UNL d   1       0.164   3.309  -4.513  0.00  0.00     0.020 A 
ATOM      3  C2  UNL d   1      -0.640   2.431  -3.783  0.00  0.00     0.034 A 
ATOM      4  C3  UNL d   1      -1.971   2.217  -4.160  0.00  0.00     0.017 A 
ATOM      5  C4  UNL d   1      -2.494   2.887  -5.272  0.00  0.00     0.017 A 
ATOM      6  C5  UNL d   1      -1.685   3.764  -5.999  0.00  0.00     0.034 A 
ATOM      7 Cl   UNL d   1      -4.127   2.674  -5.798  0.00  0.00    -0.070 Cl
ATOM      8 Cl1  UNL d   1      -2.908   1.117  -3.212  0.00  0.00    -0.070 Cl
ENDROOT
TORSDOF 0
ENDMDL
