MODEL 1
REMARK minimizedAffinity 7.58548546
REMARK minimizedRMSD -1
REMARK  0 active torsions:
REMARK  status: ('A' for Active; 'I' for Inactive)
ROOT
ATOM      1  C   UNL d   1       0.256  -5.592   0.206  0.00  0.00     0.020 A 
ATOM      2  C1  UNL d   1      -1.022  -5.594   0.763  0.00  0.00     0.020 A 
ATOM      3  C2  UNL d   1      -1.181  -5.721   2.145  0.00  0.00     0.034 A 
ATOM      4  C3  UNL d   1      -0.061  -5.847   2.974  0.00  0.00     0.017 A 
ATOM      5  C4  UNL d   1       1.222  -5.845   2.413  0.00  0.00     0.017 A 
ATOM      6  C5  UNL d   1       1.375  -5.717   1.029  0.00  0.00     0.034 A 
ATOM      7 Cl   UNL d   1       2.652  -5.996   3.372  0.00  0.00    -0.070 Cl
ATOM      8 Cl1  UNL d   1      -0.332  -6.000   4.673  0.00  0.00    -0.070 Cl
ENDROOT
TORSDOF 0
ENDMDL
