MODEL 1
REMARK minimizedAffinity 10.4373045
REMARK minimizedRMSD -1
REMARK  0 active torsions:
REMARK  status: ('A' for Active; 'I' for Inactive)
ROOT
ATOM      1  C   UNL d   1      -0.370  -5.846   1.091  0.00  0.00     0.020 A 
ATOM      2  C1  UNL d   1      -0.890  -5.999   2.376  0.00  0.00     0.020 A 
ATOM      3  C2  UNL d   1      -1.662  -4.983   2.942  0.00  0.00     0.034 A 
ATOM      4  C3  UNL d   1      -1.917  -3.809   2.224  0.00  0.00     0.017 A 
ATOM      5  C4  UNL d   1      -1.394  -3.656   0.934  0.00  0.00     0.017 A 
ATOM      6  C5  UNL d   1      -0.621  -4.677   0.372  0.00  0.00     0.034 A 
ATOM      7 Cl   UNL d   1      -1.665  -2.236  -0.013  0.00  0.00    -0.070 Cl
ATOM      8 Cl1  UNL d   1      -2.880  -2.593   2.986  0.00  0.00    -0.070 Cl
ENDROOT
TORSDOF 0
ENDMDL
