MODEL 1
REMARK minimizedAffinity 7.9915657
REMARK minimizedRMSD -1
REMARK  0 active torsions:
REMARK  status: ('A' for Active; 'I' for Inactive)
ROOT
ATOM      1  C   UNL d   1      -0.691  -5.244   0.499  0.00  0.00     0.020 A 
ATOM      2  C1  UNL d   1      -0.977  -5.648   1.802  0.00  0.00     0.020 A 
ATOM      3  C2  UNL d   1      -1.649  -4.784   2.669  0.00  0.00     0.034 A 
ATOM      4  C3  UNL d   1      -2.036  -3.511   2.235  0.00  0.00     0.017 A 
ATOM      5  C4  UNL d   1      -1.748  -3.106   0.926  0.00  0.00     0.017 A 
ATOM      6  C5  UNL d   1      -1.075  -3.976   0.062  0.00  0.00     0.034 A 
ATOM      7 Cl   UNL d   1      -2.194  -1.551   0.318  0.00  0.00    -0.070 Cl
ATOM      8 Cl1  UNL d   1      -2.864  -2.495   3.361  0.00  0.00    -0.070 Cl
ENDROOT
TORSDOF 0
ENDMDL
