MODEL 1
REMARK minimizedAffinity 9.84136105
REMARK minimizedRMSD -1
REMARK  0 active torsions:
REMARK  status: ('A' for Active; 'I' for Inactive)
ROOT
ATOM      1  C   UNL d   1      -2.135  -1.463  -0.532  0.00  0.00     0.020 A 
ATOM      2  C1  UNL d   1      -1.276  -2.294  -1.250  0.00  0.00     0.020 A 
ATOM      3  C2  UNL d   1      -0.756  -3.443  -0.653  0.00  0.00     0.034 A 
ATOM      4  C3  UNL d   1      -1.093  -3.765   0.667  0.00  0.00     0.017 A 
ATOM      5  C4  UNL d   1      -1.955  -2.931   1.387  0.00  0.00     0.017 A 
ATOM      6  C5  UNL d   1      -2.473  -1.781   0.784  0.00  0.00     0.034 A 
ATOM      7 Cl   UNL d   1      -2.417  -3.263   3.019  0.00  0.00    -0.070 Cl
ATOM      8 Cl1  UNL d   1      -0.412  -5.203   1.342  0.00  0.00    -0.070 Cl
ENDROOT
TORSDOF 0
ENDMDL
