MODEL 1
REMARK minimizedAffinity 18.6777191
REMARK minimizedRMSD -1
REMARK  0 active torsions:
REMARK  status: ('A' for Active; 'I' for Inactive)
ROOT
ATOM      1  C   UNL d   1      -0.465   0.550   1.742  0.00  0.00     0.023 A 
ATOM      2  C1  UNL d   1       0.469   0.997   2.677  0.00  0.00     0.003 A 
ATOM      3  C2  UNL d   1       1.115   0.084   3.513  0.00  0.00     0.048 A 
ATOM      4  C3  UNL d   1       0.823  -1.275   3.408  0.00  0.00     0.023 A 
ATOM      5  C4  UNL d   1      -0.110  -1.728   2.473  0.00  0.00     0.048 A 
ATOM      6  C5  UNL d   1      -0.754  -0.811   1.640  0.00  0.00     0.003 A 
ATOM      7  I   UNL d   1       1.784  -2.637   4.650  0.00  0.00    -0.146 I 
ENDROOT
TORSDOF 0
ENDMDL
