MODEL 1
REMARK minimizedAffinity 9.42635632
REMARK minimizedRMSD -1
REMARK  0 active torsions:
REMARK  status: ('A' for Active; 'I' for Inactive)
ROOT
ATOM      1  C   UNL d   1      -0.310   1.099   2.218  0.00  0.00     0.023 A 
ATOM      2  C1  UNL d   1       0.114  -0.164   1.804  0.00  0.00     0.003 A 
ATOM      3  C2  UNL d   1       0.874  -0.963   2.661  0.00  0.00     0.048 A 
ATOM      4  C3  UNL d   1       1.208  -0.492   3.930  0.00  0.00     0.023 A 
ATOM      5  C4  UNL d   1       0.786   0.771   4.349  0.00  0.00     0.048 A 
ATOM      6  C5  UNL d   1       0.026   1.566   3.489  0.00  0.00     0.003 A 
ATOM      7  I   UNL d   1       2.340  -1.679   5.207  0.00  0.00    -0.146 I 
ENDROOT
TORSDOF 0
ENDMDL
