MODEL 1
REMARK minimizedAffinity 8.60180855
REMARK minimizedRMSD -1
REMARK  0 active torsions:
REMARK  status: ('A' for Active; 'I' for Inactive)
ROOT
ATOM      1  C   UNL d   1       5.998   5.398   3.850  0.00  0.00     0.023 A 
ATOM      2  C1  UNL d   1       5.353   5.942   2.739  0.00  0.00     0.003 A 
ATOM      3  C2  UNL d   1       4.461   5.165   1.998  0.00  0.00     0.048 A 
ATOM      4  C3  UNL d   1       4.217   3.844   2.374  0.00  0.00     0.023 A 
ATOM      5  C4  UNL d   1       4.859   3.296   3.486  0.00  0.00     0.048 A 
ATOM      6  C5  UNL d   1       5.751   4.077   4.223  0.00  0.00     0.003 A 
ATOM      7  I   UNL d   1       2.889   2.685   1.273  0.00  0.00    -0.146 I 
ENDROOT
TORSDOF 0
ENDMDL
