MODEL 1
REMARK minimizedAffinity 9.32306862
REMARK minimizedRMSD -1
REMARK  0 active torsions:
REMARK  status: ('A' for Active; 'I' for Inactive)
ROOT
ATOM      1  C   UNL d   1      -3.704  -0.092   2.768  0.00  0.00     0.023 A 
ATOM      2  C1  UNL d   1      -3.065  -1.214   3.295  0.00  0.00     0.003 A 
ATOM      3  C2  UNL d   1      -1.674  -1.233   3.422  0.00  0.00     0.048 A 
ATOM      4  C3  UNL d   1      -0.929  -0.125   3.020  0.00  0.00     0.023 A 
ATOM      5  C4  UNL d   1      -1.564   1.000   2.493  0.00  0.00     0.048 A 
ATOM      6  C5  UNL d   1      -2.954   1.014   2.367  0.00  0.00     0.003 A 
ATOM      7  I   UNL d   1       1.141  -0.150   3.208  0.00  0.00    -0.146 I 
ENDROOT
TORSDOF 0
ENDMDL
