MODEL 1
REMARK minimizedAffinity 14.9661942
REMARK minimizedRMSD -1
REMARK  0 active torsions:
REMARK  status: ('A' for Active; 'I' for Inactive)
ROOT
ATOM      1  C   UNL d   1      -0.317  -0.383  -4.148  0.00  0.00     0.023 A 
ATOM      2  C1  UNL d   1      -0.008  -0.669  -5.478  0.00  0.00     0.003 A 
ATOM      3  C2  UNL d   1      -0.266  -1.939  -5.999  0.00  0.00     0.048 A 
ATOM      4  C3  UNL d   1      -0.834  -2.918  -5.184  0.00  0.00     0.023 A 
ATOM      5  C4  UNL d   1      -1.146  -2.636  -3.853  0.00  0.00     0.048 A 
ATOM      6  C5  UNL d   1      -0.886  -1.366  -3.337  0.00  0.00     0.003 A 
ATOM      7  I   UNL d   1      -1.219  -4.809  -5.957  0.00  0.00    -0.146 I 
ENDROOT
TORSDOF 0
ENDMDL
