MODEL 1
REMARK minimizedAffinity 4.77387524
REMARK minimizedRMSD -1
REMARK  0 active torsions:
REMARK  status: ('A' for Active; 'I' for Inactive)
ROOT
ATOM      1  C   UNL d   1       1.423  -0.280   3.425  0.00  0.00     0.023 A 
ATOM      2  C1  UNL d   1       0.867  -1.486   3.854  0.00  0.00     0.003 A 
ATOM      3  C2  UNL d   1      -0.478  -1.764   3.600  0.00  0.00     0.048 A 
ATOM      4  C3  UNL d   1      -1.260  -0.834   2.917  0.00  0.00     0.023 A 
ATOM      5  C4  UNL d   1      -0.707   0.373   2.485  0.00  0.00     0.048 A 
ATOM      6  C5  UNL d   1       0.637   0.648   2.742  0.00  0.00     0.003 A 
ATOM      7  I   UNL d   1      -3.261  -1.247   2.537  0.00  0.00    -0.146 I 
ENDROOT
TORSDOF 0
ENDMDL
