MODEL 1
REMARK minimizedAffinity 11.7960091
REMARK minimizedRMSD -1
REMARK  0 active torsions:
REMARK  status: ('A' for Active; 'I' for Inactive)
ROOT
ATOM      1  C   UNL d   1       4.101   4.349   2.994  0.00  0.00     0.023 A 
ATOM      2  C1  UNL d   1       4.314   3.346   2.048  0.00  0.00     0.003 A 
ATOM      3  C2  UNL d   1       4.859   2.121   2.438  0.00  0.00     0.048 A 
ATOM      4  C3  UNL d   1       5.188   1.905   3.776  0.00  0.00     0.023 A 
ATOM      5  C4  UNL d   1       4.975   2.905   4.726  0.00  0.00     0.048 A 
ATOM      6  C5  UNL d   1       4.431   4.129   4.331  0.00  0.00     0.003 A 
ATOM      7  I   UNL d   1       5.999   0.082   4.359  0.00  0.00    -0.146 I 
ENDROOT
TORSDOF 0
ENDMDL
