MODEL 1
REMARK minimizedAffinity 10.0013866
REMARK minimizedRMSD -1
REMARK  0 active torsions:
REMARK  status: ('A' for Active; 'I' for Inactive)
ROOT
ATOM      1  C   UNL d   1       0.204  -1.482  -4.954  0.00  0.00     0.023 A 
ATOM      2  C1  UNL d   1       0.441  -0.183  -4.506  0.00  0.00     0.003 A 
ATOM      3  C2  UNL d   1       1.650   0.450  -4.802  0.00  0.00     0.048 A 
ATOM      4  C3  UNL d   1       2.617  -0.222  -5.548  0.00  0.00     0.023 A 
ATOM      5  C4  UNL d   1       2.384  -1.523  -6.000  0.00  0.00     0.048 A 
ATOM      6  C5  UNL d   1       1.174  -2.151  -5.700  0.00  0.00     0.003 A 
ATOM      7  I   UNL d   1       4.417   0.717  -5.991  0.00  0.00    -0.146 I 
ENDROOT
TORSDOF 0
ENDMDL
