MODEL 1
REMARK minimizedAffinity 9.20020008
REMARK minimizedRMSD -1
REMARK  0 active torsions:
REMARK  status: ('A' for Active; 'I' for Inactive)
ROOT
ATOM      1  C   UNL d   1      -0.669  -0.684   3.117  0.00  0.00     0.023 A 
ATOM      2  C1  UNL d   1      -0.456   0.689   2.989  0.00  0.00     0.003 A 
ATOM      3  C2  UNL d   1       0.815   1.223   3.209  0.00  0.00     0.048 A 
ATOM      4  C3  UNL d   1       1.869   0.378   3.555  0.00  0.00     0.023 A 
ATOM      5  C4  UNL d   1       1.661  -0.996   3.683  0.00  0.00     0.048 A 
ATOM      6  C5  UNL d   1       0.388  -1.525   3.463  0.00  0.00     0.003 A 
ATOM      7  I   UNL d   1       3.763   1.170   3.882  0.00  0.00    -0.146 I 
ENDROOT
TORSDOF 0
ENDMDL
