MODEL 1
REMARK minimizedAffinity 16.0543461
REMARK minimizedRMSD -1
REMARK  0 active torsions:
REMARK  status: ('A' for Active; 'I' for Inactive)
ROOT
ATOM      1  C   UNL d   1       2.029  -1.288   3.526  0.00  0.00     0.023 A 
ATOM      2  C1  UNL d   1       0.762  -1.767   3.860  0.00  0.00     0.003 A 
ATOM      3  C2  UNL d   1      -0.376  -1.039   3.507  0.00  0.00     0.048 A 
ATOM      4  C3  UNL d   1      -0.241   0.166   2.818  0.00  0.00     0.023 A 
ATOM      5  C4  UNL d   1       1.025   0.649   2.481  0.00  0.00     0.048 A 
ATOM      6  C5  UNL d   1       2.160  -0.081   2.837  0.00  0.00     0.003 A 
ATOM      7  I   UNL d   1      -1.934   1.250   2.292  0.00  0.00    -0.146 I 
ENDROOT
TORSDOF 0
ENDMDL
