MODEL 1
REMARK minimizedAffinity 0.403043956
REMARK minimizedRMSD -1
REMARK  1 active torsions:
REMARK  status: ('A' for Active; 'I' for Inactive)
REMARK    1  A    between atoms: C1_2  and  C2_3 
ROOT
ATOM      1  C2  UNL d   1       2.914  -3.636   0.073  0.00  0.00    -0.081 A 
ATOM      2  C3  UNL d   1       1.642  -4.210   0.183  0.00  0.00     0.006 A 
ATOM      3  C4  UNL d   1       0.522  -3.411   0.428  0.00  0.00     0.002 A 
ATOM      4  C5  UNL d   1       0.655  -2.025   0.559  0.00  0.00    -0.080 A 
ATOM      5  C6  UNL d   1      -0.543  -1.152   0.792  0.00  0.00     0.076 C 
ATOM      6  C7  UNL d   1       1.928  -1.452   0.466  0.00  0.00     0.002 A 
ATOM      7  C8  UNL d   1       3.048  -2.251   0.222  0.00  0.00     0.006 A 
ENDROOT
BRANCH   1   8
ATOM      8  C1  UNL d   1       4.114  -4.487  -0.256  0.00  0.00     0.054 C 
ATOM      9  C   UNL d   1       4.048  -5.832   0.453  0.00  0.00     0.018 C 
ENDBRANCH   1   8
TORSDOF 1
ENDMDL
