MODEL 1
REMARK minimizedAffinity -4.05008507
REMARK minimizedRMSD -1
REMARK  1 active torsions:
REMARK  status: ('A' for Active; 'I' for Inactive)
REMARK    1  A    between atoms: C1_2  and  C2_3 
ROOT
ATOM      1  C2  UNL d   1       2.812  -2.934   0.323  0.00  0.00    -0.081 A 
ATOM      2  C3  UNL d   1       1.560  -3.505   0.581  0.00  0.00     0.006 A 
ATOM      3  C4  UNL d   1       0.444  -2.695   0.802  0.00  0.00     0.002 A 
ATOM      4  C5  UNL d   1       0.559  -1.302   0.761  0.00  0.00    -0.080 A 
ATOM      5  C6  UNL d   1      -0.638  -0.421   0.966  0.00  0.00     0.076 C 
ATOM      6  C7  UNL d   1       1.813  -0.730   0.520  0.00  0.00     0.002 A 
ATOM      7  C8  UNL d   1       2.930  -1.540   0.300  0.00  0.00     0.006 A 
ENDROOT
BRANCH   1   8
ATOM      8  C1  UNL d   1       4.004  -3.805   0.020  0.00  0.00     0.054 C 
ATOM      9  C   UNL d   1       3.663  -5.281   0.166  0.00  0.00     0.018 C 
ENDBRANCH   1   8
TORSDOF 1
ENDMDL
