MODEL 1
REMARK minimizedAffinity -4.9950099
REMARK minimizedRMSD -1
REMARK  1 active torsions:
REMARK  status: ('A' for Active; 'I' for Inactive)
REMARK    1  A    between atoms: C1_2  and  C2_3 
ROOT
ATOM      1  C2  UNL d   1       1.167  -1.608   0.591  0.00  0.00    -0.081 A 
ATOM      2  C3  UNL d   1       0.729  -2.934   0.488  0.00  0.00     0.006 A 
ATOM      3  C4  UNL d   1       1.641  -3.964   0.247  0.00  0.00     0.002 A 
ATOM      4  C5  UNL d   1       3.006  -3.687   0.114  0.00  0.00    -0.080 A 
ATOM      5  C6  UNL d   1       3.999  -4.788  -0.115  0.00  0.00     0.076 C 
ATOM      6  C7  UNL d   1       3.441  -2.361   0.199  0.00  0.00     0.002 A 
ATOM      7  C8  UNL d   1       2.530  -1.330   0.439  0.00  0.00     0.006 A 
ENDROOT
BRANCH   1   8
ATOM      8  C1  UNL d   1       0.195  -0.502   0.915  0.00  0.00     0.054 C 
ATOM      9  C   UNL d   1      -1.243  -0.942   0.675  0.00  0.00     0.018 C 
ENDBRANCH   1   8
TORSDOF 1
ENDMDL
