MODEL 1
REMARK minimizedAffinity 2.46933031
REMARK minimizedRMSD -1
REMARK  1 active torsions:
REMARK  status: ('A' for Active; 'I' for Inactive)
REMARK    1  A    between atoms: C1_2  and  C2_3 
ROOT
ATOM      1  C2  UNL d   1       2.342  -3.808  -0.002  0.00  0.00    -0.081 A 
ATOM      2  C3  UNL d   1       0.975  -4.111  -0.034  0.00  0.00     0.006 A 
ATOM      3  C4  UNL d   1       0.026  -3.130   0.261  0.00  0.00     0.002 A 
ATOM      4  C5  UNL d   1       0.426  -1.829   0.585  0.00  0.00    -0.080 A 
ATOM      5  C6  UNL d   1      -0.584  -0.759   0.874  0.00  0.00     0.076 C 
ATOM      6  C7  UNL d   1       1.792  -1.531   0.634  0.00  0.00     0.002 A 
ATOM      7  C8  UNL d   1       2.742  -2.511   0.340  0.00  0.00     0.006 A 
ENDROOT
BRANCH   1   8
ATOM      8  C1  UNL d   1       3.366  -4.846  -0.382  0.00  0.00     0.054 C 
ATOM      9  C   UNL d   1       3.963  -5.513   0.850  0.00  0.00     0.018 C 
ENDBRANCH   1   8
TORSDOF 1
ENDMDL
