MODEL 1
REMARK minimizedAffinity 0.522865236
REMARK minimizedRMSD -1
REMARK  1 active torsions:
REMARK  status: ('A' for Active; 'I' for Inactive)
REMARK    1  A    between atoms: C1_2  and  C2_3 
ROOT
ATOM      1  C2  UNL d   1       2.807  -3.435  -0.110  0.00  0.00    -0.081 A 
ATOM      2  C3  UNL d   1       1.530  -3.950   0.145  0.00  0.00     0.006 A 
ATOM      3  C4  UNL d   1       0.469  -3.094   0.449  0.00  0.00     0.002 A 
ATOM      4  C5  UNL d   1       0.665  -1.709   0.497  0.00  0.00    -0.080 A 
ATOM      5  C6  UNL d   1      -0.472  -0.778   0.793  0.00  0.00     0.076 C 
ATOM      6  C7  UNL d   1       1.945  -1.196   0.260  0.00  0.00     0.002 A 
ATOM      7  C8  UNL d   1       3.006  -2.051  -0.044  0.00  0.00     0.006 A 
ENDROOT
BRANCH   1   8
ATOM      8  C1  UNL d   1       3.939  -4.350  -0.502  0.00  0.00     0.054 C 
ATOM      9  C   UNL d   1       3.676  -5.780  -0.051  0.00  0.00     0.018 C 
ENDBRANCH   1   8
TORSDOF 1
ENDMDL
