MODEL 1
REMARK minimizedAffinity -3.22518444
REMARK minimizedRMSD -1
REMARK  1 active torsions:
REMARK  status: ('A' for Active; 'I' for Inactive)
REMARK    1  A    between atoms: C1_2  and  C2_3 
ROOT
ATOM      1  C2  UNL d   1       3.249  -3.977   0.032  0.00  0.00    -0.081 A 
ATOM      2  C3  UNL d   1       1.935  -4.431   0.198  0.00  0.00     0.006 A 
ATOM      3  C4  UNL d   1       0.911  -3.536   0.516  0.00  0.00     0.002 A 
ATOM      4  C5  UNL d   1       1.183  -2.172   0.667  0.00  0.00    -0.080 A 
ATOM      5  C6  UNL d   1       0.087  -1.196   0.979  0.00  0.00     0.076 C 
ATOM      6  C7  UNL d   1       2.498  -1.720   0.519  0.00  0.00     0.002 A 
ATOM      7  C8  UNL d   1       3.523  -2.615   0.201  0.00  0.00     0.006 A 
ENDROOT
BRANCH   1   8
ATOM      8  C1  UNL d   1       4.344  -4.930  -0.375  0.00  0.00     0.054 C 
ATOM      9  C   UNL d   1       4.568  -6.000   0.684  0.00  0.00     0.018 C 
ENDBRANCH   1   8
TORSDOF 1
ENDMDL
