MODEL 1
REMARK minimizedAffinity -2.85506034
REMARK minimizedRMSD -1
REMARK  1 active torsions:
REMARK  status: ('A' for Active; 'I' for Inactive)
REMARK    1  A    between atoms: C1_2  and  C2_3 
ROOT
ATOM      1  C2  UNL d   1       2.750   4.006  -3.850  0.00  0.00    -0.081 A 
ATOM      2  C3  UNL d   1       2.722   3.994  -5.249  0.00  0.00     0.006 A 
ATOM      3  C4  UNL d   1       1.687   4.627  -5.942  0.00  0.00     0.002 A 
ATOM      4  C5  UNL d   1       0.669   5.289  -5.248  0.00  0.00    -0.080 A 
ATOM      5  C6  UNL d   1      -0.431   5.999  -5.980  0.00  0.00     0.076 C 
ATOM      6  C7  UNL d   1       0.688   5.286  -3.849  0.00  0.00     0.002 A 
ATOM      7  C8  UNL d   1       1.722   4.653  -3.156  0.00  0.00     0.006 A 
ENDROOT
BRANCH   1   8
ATOM      8  C1  UNL d   1       3.899   3.379  -3.101  0.00  0.00     0.054 C 
ATOM      9  C   UNL d   1       3.745   1.867  -3.017  0.00  0.00     0.018 C 
ENDBRANCH   1   8
TORSDOF 1
ENDMDL
