MODEL 1
REMARK minimizedAffinity -2.67742658
REMARK minimizedRMSD -1
REMARK  1 active torsions:
REMARK  status: ('A' for Active; 'I' for Inactive)
REMARK    1  A    between atoms: C1_2  and  C2_3 
ROOT
ATOM      1  C2  UNL d   1       0.999  -1.950   0.209  0.00  0.00    -0.081 A 
ATOM      2  C3  UNL d   1       0.642  -3.298   0.077  0.00  0.00     0.006 A 
ATOM      3  C4  UNL d   1       1.624  -4.277  -0.094  0.00  0.00     0.002 A 
ATOM      4  C5  UNL d   1       2.978  -3.926  -0.127  0.00  0.00    -0.080 A 
ATOM      5  C6  UNL d   1       4.043  -4.971  -0.280  0.00  0.00     0.076 C 
ATOM      6  C7  UNL d   1       3.333  -2.578  -0.013  0.00  0.00     0.002 A 
ATOM      7  C8  UNL d   1       2.352  -1.598   0.157  0.00  0.00     0.006 A 
ENDROOT
BRANCH   1   8
ATOM      8  C1  UNL d   1      -0.053  -0.900   0.459  0.00  0.00     0.054 C 
ATOM      9  C   UNL d   1       0.444   0.161   1.430  0.00  0.00     0.018 C 
ENDBRANCH   1   8
TORSDOF 1
ENDMDL
