MODEL 1
REMARK minimizedAffinity 0.377754509
REMARK minimizedRMSD -1
REMARK  1 active torsions:
REMARK  status: ('A' for Active; 'I' for Inactive)
REMARK    1  A    between atoms: C1_2  and  C2_3 
ROOT
ATOM      1  C2  UNL d   1       0.462  -2.206   0.322  0.00  0.00    -0.081 A 
ATOM      2  C3  UNL d   1       0.308  -3.572   0.051  0.00  0.00     0.006 A 
ATOM      3  C4  UNL d   1       1.425  -4.378  -0.179  0.00  0.00     0.002 A 
ATOM      4  C5  UNL d   1       2.714  -3.836  -0.133  0.00  0.00    -0.080 A 
ATOM      5  C6  UNL d   1       3.923  -4.698  -0.347  0.00  0.00     0.076 C 
ATOM      6  C7  UNL d   1       2.867  -2.469   0.121  0.00  0.00     0.002 A 
ATOM      7  C8  UNL d   1       1.751  -1.662   0.349  0.00  0.00     0.006 A 
ENDROOT
BRANCH   1   8
ATOM      8  C1  UNL d   1      -0.736  -1.347   0.634  0.00  0.00     0.054 C 
ATOM      9  C   UNL d   1      -0.615  -0.706   2.009  0.00  0.00     0.018 C 
ENDBRANCH   1   8
TORSDOF 1
ENDMDL
