MODEL 1
REMARK minimizedAffinity -2.61686039
REMARK minimizedRMSD -1
REMARK  1 active torsions:
REMARK  status: ('A' for Active; 'I' for Inactive)
REMARK    1  A    between atoms: C1_2  and  C2_3 
ROOT
ATOM      1  C2  UNL d   1       2.444  -2.939  -0.329  0.00  0.00    -0.081 A 
ATOM      2  C3  UNL d   1       2.599  -1.549  -0.254  0.00  0.00     0.006 A 
ATOM      3  C4  UNL d   1       1.537  -0.739   0.153  0.00  0.00     0.002 A 
ATOM      4  C5  UNL d   1       0.305  -1.304   0.499  0.00  0.00    -0.080 A 
ATOM      5  C6  UNL d   1      -0.834  -0.447   0.966  0.00  0.00     0.076 C 
ATOM      6  C7  UNL d   1       0.144  -2.690   0.408  0.00  0.00     0.002 A 
ATOM      7  C8  UNL d   1       1.206  -3.501   0.000  0.00  0.00     0.006 A 
ENDROOT
BRANCH   1   8
ATOM      8  C1  UNL d   1       3.606  -3.821  -0.705  0.00  0.00     0.054 C 
ATOM      9  C   UNL d   1       3.516  -5.178  -0.020  0.00  0.00     0.018 C 
ENDBRANCH   1   8
TORSDOF 1
ENDMDL
