MODEL 1
REMARK minimizedAffinity -4.16014051
REMARK minimizedRMSD -1
REMARK  0 active torsions:
REMARK  status: ('A' for Active; 'I' for Inactive)
ROOT
ATOM      1  C1  BNZ d   1       1.744  -0.509   1.873  0.00  0.00     0.000 A 
ATOM      2  C2  BNZ d   1       1.494  -0.340   3.209  0.00  0.00     0.000 A 
ATOM      3  C3  BNZ d   1       0.322   0.217   3.637  0.00  0.00     0.000 A 
ATOM      4  C4  BNZ d   1      -0.582   0.640   2.729  0.00  0.00     0.000 A 
ATOM      5  C5  BNZ d   1      -0.341   0.485   1.379  0.00  0.00     0.000 A 
ATOM      6  C6  BNZ d   1       0.824  -0.112   0.953  0.00  0.00     0.000 A 
ENDROOT
TORSDOF 0
ENDMDL
