MODEL 1
REMARK minimizedAffinity -5.74263382
REMARK minimizedRMSD -1
REMARK  0 active torsions:
REMARK  status: ('A' for Active; 'I' for Inactive)
ROOT
ATOM      1  C1  BNZ d   1      -0.640   0.970   0.987  0.00  0.00     0.000 A 
ATOM      2  C2  BNZ d   1      -0.983   1.263   2.281  0.00  0.00     0.000 A 
ATOM      3  C3  BNZ d   1      -0.135   0.970   3.312  0.00  0.00     0.000 A 
ATOM      4  C4  BNZ d   1       1.035   0.350   3.054  0.00  0.00     0.000 A 
ATOM      5  C5  BNZ d   1       1.390   0.040   1.756  0.00  0.00     0.000 A 
ATOM      6  C6  BNZ d   1       0.551   0.371   0.717  0.00  0.00     0.000 A 
ENDROOT
TORSDOF 0
ENDMDL
