MODEL 1
REMARK minimizedAffinity -1.53002584
REMARK minimizedRMSD -1
REMARK  0 active torsions:
REMARK  status: ('A' for Active; 'I' for Inactive)
ROOT
ATOM      1  C1  BNZ d   1       1.193  -0.276   1.103  0.00  0.00     0.000 A 
ATOM      2  C2  BNZ d   1       0.081   0.068   0.382  0.00  0.00     0.000 A 
ATOM      3  C3  BNZ d   1      -1.086   0.401   1.012  0.00  0.00     0.000 A 
ATOM      4  C4  BNZ d   1      -1.151   0.349   2.358  0.00  0.00     0.000 A 
ATOM      5  C5  BNZ d   1      -0.041  -0.005   3.098  0.00  0.00     0.000 A 
ATOM      6  C6  BNZ d   1       1.143  -0.301   2.463  0.00  0.00     0.000 A 
ENDROOT
TORSDOF 0
ENDMDL
