MODEL 1
REMARK minimizedAffinity -1.79882801
REMARK minimizedRMSD -1
REMARK  0 active torsions:
REMARK  status: ('A' for Active; 'I' for Inactive)
ROOT
ATOM      1  C1  BNZ d   1      -1.084   0.119   2.080  0.00  0.00     0.000 A 
ATOM      2  C2  BNZ d   1      -0.802  -0.003   0.745  0.00  0.00     0.000 A 
ATOM      3  C3  BNZ d   1       0.443  -0.378   0.325  0.00  0.00     0.000 A 
ATOM      4  C4  BNZ d   1       1.415  -0.590   1.235  0.00  0.00     0.000 A 
ATOM      5  C5  BNZ d   1       1.149  -0.461   2.584  0.00  0.00     0.000 A 
ATOM      6  C6  BNZ d   1      -0.116  -0.122   3.006  0.00  0.00     0.000 A 
ENDROOT
TORSDOF 0
ENDMDL
