MODEL 1
REMARK minimizedAffinity -5.05550385
REMARK minimizedRMSD -1
REMARK  0 active torsions:
REMARK  status: ('A' for Active; 'I' for Inactive)
ROOT
ATOM      1  C1  BNZ d   1      -0.630   0.661   2.985  0.00  0.00     0.000 A 
ATOM      2  C2  BNZ d   1      -1.391   0.992   1.895  0.00  0.00     0.000 A 
ATOM      3  C3  BNZ d   1      -0.982   0.670   0.632  0.00  0.00     0.000 A 
ATOM      4  C4  BNZ d   1       0.205   0.054   0.456  0.00  0.00     0.000 A 
ATOM      5  C5  BNZ d   1       0.988  -0.278   1.544  0.00  0.00     0.000 A 
ATOM      6  C6  BNZ d   1       0.554   0.013   2.817  0.00  0.00     0.000 A 
ENDROOT
TORSDOF 0
ENDMDL
