MODEL 1
REMARK minimizedAffinity -4.48625231
REMARK minimizedRMSD -1
REMARK  0 active torsions:
REMARK  status: ('A' for Active; 'I' for Inactive)
ROOT
ATOM      1  C1  BNZ d   1      -0.114   0.191   0.978  0.00  0.00     0.000 A 
ATOM      2  C2  BNZ d   1       1.048  -0.120   1.632  0.00  0.00     0.000 A 
ATOM      3  C3  BNZ d   1       1.232   0.235   2.940  0.00  0.00     0.000 A 
ATOM      4  C4  BNZ d   1       0.271   0.933   3.578  0.00  0.00     0.000 A 
ATOM      5  C5  BNZ d   1      -0.902   1.262   2.930  0.00  0.00     0.000 A 
ATOM      6  C6  BNZ d   1      -1.100   0.870   1.626  0.00  0.00     0.000 A 
ENDROOT
TORSDOF 0
ENDMDL
