MODEL 1
REMARK minimizedAffinity -4.15362072
REMARK minimizedRMSD -1
REMARK  0 active torsions:
REMARK  status: ('A' for Active; 'I' for Inactive)
ROOT
ATOM      1  C1  BNZ d   1       0.216  -0.530   2.204  0.00  0.00     0.000 A 
ATOM      2  C2  BNZ d   1       0.500  -0.549   0.864  0.00  0.00     0.000 A 
ATOM      3  C3  BNZ d   1      -0.436  -0.164  -0.055  0.00  0.00     0.000 A 
ATOM      4  C4  BNZ d   1      -1.665   0.200   0.364  0.00  0.00     0.000 A 
ATOM      5  C5  BNZ d   1      -1.969   0.216   1.710  0.00  0.00     0.000 A 
ATOM      6  C6  BNZ d   1      -1.013  -0.135   2.635  0.00  0.00     0.000 A 
ENDROOT
TORSDOF 0
ENDMDL
