MODEL 1
REMARK minimizedAffinity -5.20187902
REMARK minimizedRMSD -1
REMARK  0 active torsions:
REMARK  status: ('A' for Active; 'I' for Inactive)
ROOT
ATOM      1  C1  BNZ d   1       0.391   0.238   0.875  0.00  0.00     0.000 A 
ATOM      2  C2  BNZ d   1       1.266  -0.118   1.867  0.00  0.00     0.000 A 
ATOM      3  C3  BNZ d   1       0.990   0.163   3.176  0.00  0.00     0.000 A 
ATOM      4  C4  BNZ d   1      -0.138   0.833   3.487  0.00  0.00     0.000 A 
ATOM      5  C5  BNZ d   1      -1.025   1.207   2.497  0.00  0.00     0.000 A 
ATOM      6  C6  BNZ d   1      -0.763   0.888   1.184  0.00  0.00     0.000 A 
ENDROOT
TORSDOF 0
ENDMDL
