MODEL 1
REMARK minimizedAffinity 20.9508038
REMARK minimizedRMSD -1
REMARK  1 active torsions:
REMARK  status: ('A' for Active; 'I' for Inactive)
REMARK    1  A    between atoms: C1_2  and  C2_3 
ROOT
ATOM      1  C2  UNL d   1       4.126  -0.423  -4.398  0.00  0.00    -0.081 A 
ATOM      2  C3  UNL d   1       2.946  -1.142  -4.174  0.00  0.00     0.006 A 
ATOM      3  C4  UNL d   1       2.578  -1.514  -2.879  0.00  0.00     0.002 A 
ATOM      4  C5  UNL d   1       3.379  -1.167  -1.786  0.00  0.00    -0.080 A 
ATOM      5  C6  UNL d   1       2.980  -1.534  -0.388  0.00  0.00     0.076 C 
ATOM      6  C7  UNL d   1       4.567  -0.463  -2.011  0.00  0.00     0.002 A 
ATOM      7  C8  UNL d   1       4.936  -0.091  -3.306  0.00  0.00     0.006 A 
ENDROOT
BRANCH   1   8
ATOM      8  C1  UNL d   1       4.493   0.036  -5.786  0.00  0.00     0.054 C 
ATOM      9  C   UNL d   1       6.000   0.005  -5.999  0.00  0.00     0.018 C 
ENDBRANCH   1   8
TORSDOF 1
ENDMDL
