MODEL 1
REMARK minimizedAffinity 9.72845268
REMARK minimizedRMSD -1
REMARK  1 active torsions:
REMARK  status: ('A' for Active; 'I' for Inactive)
REMARK    1  A    between atoms: C1_2  and  C2_3 
ROOT
ATOM      1  C2  UNL d   1       1.039  -3.759   0.592  0.00  0.00    -0.081 A 
ATOM      2  C3  UNL d   1       1.917  -2.674   0.706  0.00  0.00     0.006 A 
ATOM      3  C4  UNL d   1       1.961  -1.919   1.880  0.00  0.00     0.002 A 
ATOM      4  C5  UNL d   1       1.134  -2.239   2.962  0.00  0.00    -0.080 A 
ATOM      5  C6  UNL d   1       1.193  -1.455   4.239  0.00  0.00     0.076 C 
ATOM      6  C7  UNL d   1       0.244  -3.312   2.842  0.00  0.00     0.002 A 
ATOM      7  C8  UNL d   1       0.199  -4.067   1.668  0.00  0.00     0.006 A 
ENDROOT
BRANCH   1   8
ATOM      8  C1  UNL d   1       1.035  -4.615  -0.648  0.00  0.00     0.054 C 
ATOM      9  C   UNL d   1       1.481  -3.823  -1.869  0.00  0.00     0.018 C 
ENDBRANCH   1   8
TORSDOF 1
ENDMDL
