MODEL 1
REMARK minimizedAffinity 10.842452
REMARK minimizedRMSD -1
REMARK  1 active torsions:
REMARK  status: ('A' for Active; 'I' for Inactive)
REMARK    1  A    between atoms: C1_2  and  C2_3 
ROOT
ATOM      1  C2  UNL d   1       0.936  -3.131   0.701  0.00  0.00    -0.081 A 
ATOM      2  C3  UNL d   1      -0.068  -2.199   0.990  0.00  0.00     0.006 A 
ATOM      3  C4  UNL d   1       0.261  -0.936   1.489  0.00  0.00     0.002 A 
ATOM      4  C5  UNL d   1       1.598  -0.583   1.701  0.00  0.00    -0.080 A 
ATOM      5  C6  UNL d   1       1.966   0.780   2.207  0.00  0.00     0.076 C 
ATOM      6  C7  UNL d   1       2.600  -1.520   1.428  0.00  0.00     0.002 A 
ATOM      7  C8  UNL d   1       2.272  -2.783   0.930  0.00  0.00     0.006 A 
ENDROOT
BRANCH   1   8
ATOM      8  C1  UNL d   1       0.589  -4.470   0.102  0.00  0.00     0.054 C 
ATOM      9  C   UNL d   1       1.470  -5.575   0.667  0.00  0.00     0.018 C 
ENDBRANCH   1   8
TORSDOF 1
ENDMDL
