MODEL 1
REMARK minimizedAffinity -0.123377323
REMARK minimizedRMSD -1
REMARK  1 active torsions:
REMARK  status: ('A' for Active; 'I' for Inactive)
REMARK    1  A    between atoms: C1_2  and  C2_3 
ROOT
ATOM      1  C2  UNL d   1       4.970   5.495  -3.772  0.00  0.00    -0.081 A 
ATOM      2  C3  UNL d   1       3.892   4.687  -4.154  0.00  0.00     0.006 A 
ATOM      3  C4  UNL d   1       2.907   4.336  -3.228  0.00  0.00     0.002 A 
ATOM      4  C5  UNL d   1       2.978   4.793  -1.908  0.00  0.00    -0.080 A 
ATOM      5  C6  UNL d   1       1.911   4.449  -0.912  0.00  0.00     0.076 C 
ATOM      6  C7  UNL d   1       4.064   5.586  -1.522  0.00  0.00     0.002 A 
ATOM      7  C8  UNL d   1       5.050   5.936  -2.447  0.00  0.00     0.006 A 
ENDROOT
BRANCH   1   8
ATOM      8  C1  UNL d   1       6.000   5.928  -4.784  0.00  0.00     0.054 C 
ATOM      9  C   UNL d   1       6.000   5.012  -6.000  0.00  0.00     0.018 C 
ENDBRANCH   1   8
TORSDOF 1
ENDMDL
