MODEL 1
REMARK minimizedAffinity 6.72789001
REMARK minimizedRMSD -1
REMARK  1 active torsions:
REMARK  status: ('A' for Active; 'I' for Inactive)
REMARK    1  A    between atoms: C1_2  and  C2_3 
ROOT
ATOM      1  C2  UNL d   1       2.542  -3.113   4.108  0.00  0.00    -0.081 A 
ATOM      2  C3  UNL d   1       1.319  -2.555   3.714  0.00  0.00     0.006 A 
ATOM      3  C4  UNL d   1       1.287  -1.466   2.840  0.00  0.00     0.002 A 
ATOM      4  C5  UNL d   1       2.475  -0.922   2.340  0.00  0.00    -0.080 A 
ATOM      5  C6  UNL d   1       2.453   0.228   1.377  0.00  0.00     0.076 C 
ATOM      6  C7  UNL d   1       3.697  -1.468   2.747  0.00  0.00     0.002 A 
ATOM      7  C8  UNL d   1       3.730  -2.557   3.622  0.00  0.00     0.006 A 
ENDROOT
BRANCH   1   8
ATOM      8  C1  UNL d   1       2.578  -4.328   4.999  0.00  0.00     0.054 C 
ATOM      9  C   UNL d   1       2.505  -5.613   4.186  0.00  0.00     0.018 C 
ENDBRANCH   1   8
TORSDOF 1
ENDMDL
