MODEL 1
REMARK minimizedAffinity 3.22521019
REMARK minimizedRMSD -1
REMARK  1 active torsions:
REMARK  status: ('A' for Active; 'I' for Inactive)
REMARK    1  A    between atoms: C1_2  and  C2_3 
ROOT
ATOM      1  C2  UNL d   1      -3.148   2.635   0.600  0.00  0.00    -0.081 A 
ATOM      2  C3  UNL d   1      -3.663   2.868  -0.681  0.00  0.00     0.006 A 
ATOM      3  C4  UNL d   1      -3.247   2.090  -1.764  0.00  0.00     0.002 A 
ATOM      4  C5  UNL d   1      -2.316   1.062  -1.583  0.00  0.00    -0.080 A 
ATOM      5  C6  UNL d   1      -1.883   0.199  -2.731  0.00  0.00     0.076 C 
ATOM      6  C7  UNL d   1      -1.788   0.840  -0.306  0.00  0.00     0.002 A 
ATOM      7  C8  UNL d   1      -2.203   1.619   0.777  0.00  0.00     0.006 A 
ENDROOT
BRANCH   1   8
ATOM      8  C1  UNL d   1      -3.643   3.430   1.781  0.00  0.00     0.054 C 
ATOM      9  C   UNL d   1      -5.157   3.344   1.911  0.00  0.00     0.018 C 
ENDBRANCH   1   8
TORSDOF 1
ENDMDL
