MODEL 1
REMARK minimizedAffinity -2.77462459
REMARK minimizedRMSD -1
REMARK  1 active torsions:
REMARK  status: ('A' for Active; 'I' for Inactive)
REMARK    1  A    between atoms: C1_2  and  C2_3 
ROOT
ATOM      1  C2  UNL d   1       1.690  -4.490   4.686  0.00  0.00    -0.081 A 
ATOM      2  C3  UNL d   1       0.525  -3.794   4.338  0.00  0.00     0.006 A 
ATOM      3  C4  UNL d   1       0.579  -2.729   3.436  0.00  0.00     0.002 A 
ATOM      4  C5  UNL d   1       1.796  -2.346   2.862  0.00  0.00    -0.080 A 
ATOM      5  C6  UNL d   1       1.864  -1.223   1.869  0.00  0.00     0.076 C 
ATOM      6  C7  UNL d   1       2.962  -3.029   3.223  0.00  0.00     0.002 A 
ATOM      7  C8  UNL d   1       2.909  -4.094   4.125  0.00  0.00     0.006 A 
ENDROOT
BRANCH   1   8
ATOM      8  C1  UNL d   1       1.625  -5.680   5.608  0.00  0.00     0.054 C 
ATOM      9  C   UNL d   1       0.189  -5.999   6.000  0.00  0.00     0.018 C 
ENDBRANCH   1   8
TORSDOF 1
ENDMDL
