MODEL 1
REMARK minimizedAffinity 12.1323595
REMARK minimizedRMSD -1
REMARK  1 active torsions:
REMARK  status: ('A' for Active; 'I' for Inactive)
REMARK    1  A    between atoms: C1_2  and  C2_3 
ROOT
ATOM      1  C2  UNL d   1       2.674  -5.530  -2.632  0.00  0.00    -0.081 A 
ATOM      2  C3  UNL d   1       4.055  -5.408  -2.437  0.00  0.00     0.006 A 
ATOM      3  C4  UNL d   1       4.938  -5.559  -3.508  0.00  0.00     0.002 A 
ATOM      4  C5  UNL d   1       4.455  -5.828  -4.793  0.00  0.00    -0.080 A 
ATOM      5  C6  UNL d   1       5.390  -5.963  -5.958  0.00  0.00     0.076 C 
ATOM      6  C7  UNL d   1       3.076  -5.968  -4.985  0.00  0.00     0.002 A 
ATOM      7  C8  UNL d   1       2.193  -5.817  -3.914  0.00  0.00     0.006 A 
ENDROOT
BRANCH   1   8
ATOM      8  C1  UNL d   1       1.716  -5.303  -1.491  0.00  0.00     0.054 C 
ATOM      9  C   UNL d   1       2.446  -4.839  -0.239  0.00  0.00     0.018 C 
ENDBRANCH   1   8
TORSDOF 1
ENDMDL
