MODEL 1
REMARK minimizedAffinity 11.9573402
REMARK minimizedRMSD -1
REMARK  1 active torsions:
REMARK  status: ('A' for Active; 'I' for Inactive)
REMARK    1  A    between atoms: C1_2  and  C2_3 
ROOT
ATOM      1  C2  UNL d   1       3.104  -3.843   4.465  0.00  0.00    -0.081 A 
ATOM      2  C3  UNL d   1       3.221  -4.777   5.501  0.00  0.00     0.006 A 
ATOM      3  C4  UNL d   1       2.090  -5.427   6.000  0.00  0.00     0.002 A 
ATOM      4  C5  UNL d   1       0.825  -5.161   5.465  0.00  0.00    -0.080 A 
ATOM      5  C6  UNL d   1      -0.394  -5.874   5.971  0.00  0.00     0.076 C 
ATOM      6  C7  UNL d   1       0.705  -4.215   4.442  0.00  0.00     0.002 A 
ATOM      7  C8  UNL d   1       1.836  -3.564   3.943  0.00  0.00     0.006 A 
ENDROOT
BRANCH   1   8
ATOM      8  C1  UNL d   1       4.330  -3.188   3.881  0.00  0.00     0.054 C 
ATOM      9  C   UNL d   1       5.455  -3.111   4.903  0.00  0.00     0.018 C 
ENDBRANCH   1   8
TORSDOF 1
ENDMDL
