MODEL 1
REMARK minimizedAffinity 7.54689741
REMARK minimizedRMSD -1
REMARK  1 active torsions:
REMARK  status: ('A' for Active; 'I' for Inactive)
REMARK    1  A    between atoms: C1_2  and  C2_3 
ROOT
ATOM      1  C2  UNL d   1       3.665  -2.757   3.182  0.00  0.00    -0.081 A 
ATOM      2  C3  UNL d   1       3.332  -1.839   2.178  0.00  0.00     0.006 A 
ATOM      3  C4  UNL d   1       1.994  -1.547   1.902  0.00  0.00     0.002 A 
ATOM      4  C5  UNL d   1       0.969  -2.160   2.629  0.00  0.00    -0.080 A 
ATOM      5  C6  UNL d   1      -0.470  -1.832   2.363  0.00  0.00     0.076 C 
ATOM      6  C7  UNL d   1       1.301  -3.090   3.620  0.00  0.00     0.002 A 
ATOM      7  C8  UNL d   1       2.638  -3.383   3.897  0.00  0.00     0.006 A 
ENDROOT
BRANCH   1   8
ATOM      8  C1  UNL d   1       5.108  -3.026   3.526  0.00  0.00     0.054 C 
ATOM      9  C   UNL d   1       5.983  -3.027   2.281  0.00  0.00     0.018 C 
ENDBRANCH   1   8
TORSDOF 1
ENDMDL
