MODEL 1
REMARK minimizedAffinity 12.0239086
REMARK minimizedRMSD -1
REMARK  2 active torsions:
REMARK  status: ('A' for Active; 'I' for Inactive)
REMARK    1  A    between atoms: C1_2  and  C2_3 
REMARK    2  A    between atoms: C2_3  and  C3_4 
ROOT
ATOM      1  C3  UNL d   1      -1.177  -3.221  -0.917  0.00  0.00    -0.075 A 
ATOM      2  C4  UNL d   1      -1.013  -4.580  -1.224  0.00  0.00     0.002 A 
ATOM      3  C5  UNL d   1      -0.741  -5.506  -0.217  0.00  0.00     0.002 A 
ATOM      4  C6  UNL d   1      -0.620  -5.085   1.106  0.00  0.00    -0.004 A 
ATOM      5  C7  UNL d   1      -0.765  -3.735   1.420  0.00  0.00     0.002 A 
ATOM      6  C8  UNL d   1      -1.042  -2.807   0.414  0.00  0.00     0.002 A 
ENDROOT
BRANCH   1   7
ATOM      7  C2  UNL d   1      -1.501  -2.218  -1.999  0.00  0.00     0.056 C 
BRANCH   7   8
ATOM      8  C1  UNL d   1      -0.857  -2.533  -3.354  0.00  0.00     0.007 C 
ATOM      9  C   UNL d   1      -1.870  -2.908  -4.427  0.00  0.00     0.009 C 
ENDBRANCH   7   8
ENDBRANCH   1   7
TORSDOF 2
ENDMDL
