MODEL 1
REMARK minimizedAffinity 8.316782
REMARK minimizedRMSD -1
REMARK  2 active torsions:
REMARK  status: ('A' for Active; 'I' for Inactive)
REMARK    1  A    between atoms: C1_2  and  C2_3 
REMARK    2  A    between atoms: C2_3  and  C3_4 
ROOT
ATOM      1  C3  UNL d   1       2.510   1.064  -0.644  0.00  0.00    -0.075 A 
ATOM      2  C4  UNL d   1       2.736  -0.320  -0.626  0.00  0.00     0.002 A 
ATOM      3  C5  UNL d   1       3.044  -1.003  -1.802  0.00  0.00     0.002 A 
ATOM      4  C6  UNL d   1       3.120  -0.315  -3.011  0.00  0.00    -0.004 A 
ATOM      5  C7  UNL d   1       2.881   1.057  -3.044  0.00  0.00     0.002 A 
ATOM      6  C8  UNL d   1       2.577   1.744  -1.868  0.00  0.00     0.002 A 
ENDROOT
BRANCH   1   7
ATOM      7  C2  UNL d   1       2.206   1.815   0.630  0.00  0.00     0.056 C 
BRANCH   7   8
ATOM      8  C1  UNL d   1       3.428   2.485   1.266  0.00  0.00     0.007 C 
ATOM      9  C   UNL d   1       4.469   1.491   1.762  0.00  0.00     0.009 C 
ENDBRANCH   7   8
ENDBRANCH   1   7
TORSDOF 2
ENDMDL
