MODEL 1
REMARK minimizedAffinity 4.21915436
REMARK minimizedRMSD -1
REMARK  2 active torsions:
REMARK  status: ('A' for Active; 'I' for Inactive)
REMARK    1  A    between atoms: C1_2  and  C2_3 
REMARK    2  A    between atoms: C2_3  and  C3_4 
ROOT
ATOM      1  C3  UNL d   1      -1.766  -2.462  -0.573  0.00  0.00    -0.075 A 
ATOM      2  C4  UNL d   1      -2.259  -1.756   0.534  0.00  0.00     0.002 A 
ATOM      3  C5  UNL d   1      -1.892  -2.123   1.829  0.00  0.00     0.002 A 
ATOM      4  C6  UNL d   1      -1.038  -3.204   2.034  0.00  0.00    -0.004 A 
ATOM      5  C7  UNL d   1      -0.555  -3.923   0.943  0.00  0.00     0.002 A 
ATOM      6  C8  UNL d   1      -0.917  -3.555  -0.354  0.00  0.00     0.002 A 
ENDROOT
BRANCH   1   7
ATOM      7  C2  UNL d   1      -2.136  -2.052  -1.978  0.00  0.00     0.056 C 
BRANCH   7   8
ATOM      8  C1  UNL d   1      -1.377  -2.812  -3.070  0.00  0.00     0.007 C 
ATOM      9  C   UNL d   1      -2.183  -2.990  -4.350  0.00  0.00     0.009 C 
ENDBRANCH   7   8
ENDBRANCH   1   7
TORSDOF 2
ENDMDL
