MODEL 1
REMARK minimizedAffinity 5.73714256
REMARK minimizedRMSD -1
REMARK  2 active torsions:
REMARK  status: ('A' for Active; 'I' for Inactive)
REMARK    1  A    between atoms: C1_2  and  C2_3 
REMARK    2  A    between atoms: C2_3  and  C3_4 
ROOT
ATOM      1  C3  UNL d   1       5.977   1.240  -1.717  0.00  0.00    -0.075 A 
ATOM      2  C4  UNL d   1       5.943  -0.122  -1.382  0.00  0.00     0.002 A 
ATOM      3  C5  UNL d   1       5.951  -1.097  -2.379  0.00  0.00     0.002 A 
ATOM      4  C6  UNL d   1       5.982  -0.726  -3.721  0.00  0.00    -0.004 A 
ATOM      5  C7  UNL d   1       6.000   0.624  -4.066  0.00  0.00     0.002 A 
ATOM      6  C8  UNL d   1       5.997   1.602  -3.071  0.00  0.00     0.002 A 
ENDROOT
BRANCH   1   7
ATOM      7  C2  UNL d   1       5.999   2.300  -0.642  0.00  0.00     0.056 C 
BRANCH   7   8
ATOM      8  C1  UNL d   1       4.886   3.345  -0.775  0.00  0.00     0.007 C 
ATOM      9  C   UNL d   1       3.609   2.957  -0.042  0.00  0.00     0.009 C 
ENDBRANCH   7   8
ENDBRANCH   1   7
TORSDOF 2
ENDMDL
