MODEL 1
REMARK minimizedAffinity 20.6093254
REMARK minimizedRMSD -1
REMARK  2 active torsions:
REMARK  status: ('A' for Active; 'I' for Inactive)
REMARK    1  A    between atoms: C1_2  and  C2_3 
REMARK    2  A    between atoms: C2_3  and  C3_4 
ROOT
ATOM      1  C3  UNL d   1       4.561   3.464   4.770  0.00  0.00    -0.075 A 
ATOM      2  C4  UNL d   1       4.882   4.757   5.208  0.00  0.00     0.002 A 
ATOM      3  C5  UNL d   1       3.917   5.555   5.824  0.00  0.00     0.002 A 
ATOM      4  C6  UNL d   1       2.621   5.076   6.000  0.00  0.00    -0.004 A 
ATOM      5  C7  UNL d   1       2.287   3.799   5.553  0.00  0.00     0.002 A 
ATOM      6  C8  UNL d   1       3.252   2.997   4.941  0.00  0.00     0.002 A 
ENDROOT
BRANCH   1   7
ATOM      7  C2  UNL d   1       5.608   2.584   4.129  0.00  0.00     0.056 C 
BRANCH   7   8
ATOM      8  C1  UNL d   1       5.032   1.460   3.262  0.00  0.00     0.007 C 
ATOM      9  C   UNL d   1       6.000   0.301   3.061  0.00  0.00     0.009 C 
ENDBRANCH   7   8
ENDBRANCH   1   7
TORSDOF 2
ENDMDL
