MODEL 1
REMARK minimizedAffinity 12.66677
REMARK minimizedRMSD -1
REMARK  2 active torsions:
REMARK  status: ('A' for Active; 'I' for Inactive)
REMARK    1  A    between atoms: C1_2  and  C2_3 
REMARK    2  A    between atoms: C2_3  and  C3_4 
ROOT
ATOM      1  C3  UNL d   1      -1.020  -4.019   0.424  0.00  0.00    -0.075 A 
ATOM      2  C4  UNL d   1      -0.716  -3.144  -0.628  0.00  0.00     0.002 A 
ATOM      3  C5  UNL d   1      -1.243  -1.852  -0.651  0.00  0.00     0.002 A 
ATOM      4  C6  UNL d   1      -2.087  -1.423   0.370  0.00  0.00    -0.004 A 
ATOM      5  C7  UNL d   1      -2.410  -2.290   1.412  0.00  0.00     0.002 A 
ATOM      6  C8  UNL d   1      -1.881  -3.581   1.440  0.00  0.00     0.002 A 
ENDROOT
BRANCH   1   7
ATOM      7  C2  UNL d   1      -0.430  -5.408   0.470  0.00  0.00     0.056 C 
BRANCH   7   8
ATOM      8  C1  UNL d   1      -0.027  -5.869   1.875  0.00  0.00     0.007 C 
ATOM      9  C   UNL d   1      -1.209  -5.999   2.826  0.00  0.00     0.009 C 
ENDBRANCH   7   8
ENDBRANCH   1   7
TORSDOF 2
ENDMDL
