MODEL 1
REMARK minimizedAffinity 12.5587511
REMARK minimizedRMSD -1
REMARK  2 active torsions:
REMARK  status: ('A' for Active; 'I' for Inactive)
REMARK    1  A    between atoms: C1_2  and  C2_3 
REMARK    2  A    between atoms: C2_3  and  C3_4 
ROOT
ATOM      1  C3  UNL d   1       3.743   2.634  -0.160  0.00  0.00    -0.075 A 
ATOM      2  C4  UNL d   1       3.507   3.919   0.348  0.00  0.00     0.002 A 
ATOM      3  C5  UNL d   1       4.503   4.895   0.298  0.00  0.00     0.002 A 
ATOM      4  C6  UNL d   1       5.748   4.596  -0.251  0.00  0.00    -0.004 A 
ATOM      5  C7  UNL d   1       6.000   3.318  -0.744  0.00  0.00     0.002 A 
ATOM      6  C8  UNL d   1       5.004   2.341  -0.699  0.00  0.00     0.002 A 
ENDROOT
BRANCH   1   7
ATOM      7  C2  UNL d   1       2.660   1.582  -0.136  0.00  0.00     0.056 C 
BRANCH   7   8
ATOM      8  C1  UNL d   1       2.307   1.018  -1.516  0.00  0.00     0.007 C 
ATOM      9  C   UNL d   1       1.895  -0.447  -1.479  0.00  0.00     0.009 C 
ENDBRANCH   7   8
ENDBRANCH   1   7
TORSDOF 2
ENDMDL
