MODEL 1
REMARK minimizedAffinity 13.9643888
REMARK minimizedRMSD -1
REMARK  2 active torsions:
REMARK  status: ('A' for Active; 'I' for Inactive)
REMARK    1  A    between atoms: C1_2  and  C2_3 
REMARK    2  A    between atoms: C2_3  and  C3_4 
ROOT
ATOM      1  C3  UNL d   1       4.491   2.699   0.532  0.00  0.00    -0.075 A 
ATOM      2  C4  UNL d   1       5.356   2.485  -0.551  0.00  0.00     0.002 A 
ATOM      3  C5  UNL d   1       5.996   3.560  -1.169  0.00  0.00     0.002 A 
ATOM      4  C6  UNL d   1       5.773   4.859  -0.720  0.00  0.00    -0.004 A 
ATOM      5  C7  UNL d   1       4.903   5.085   0.344  0.00  0.00     0.002 A 
ATOM      6  C8  UNL d   1       4.265   4.011   0.968  0.00  0.00     0.002 A 
ENDROOT
BRANCH   1   7
ATOM      7  C2  UNL d   1       3.819   1.538   1.225  0.00  0.00     0.056 C 
BRANCH   7   8
ATOM      8  C1  UNL d   1       4.201   1.385   2.700  0.00  0.00     0.007 C 
ATOM      9  C   UNL d   1       5.376   0.441   2.921  0.00  0.00     0.009 C 
ENDBRANCH   7   8
ENDBRANCH   1   7
TORSDOF 2
ENDMDL
