MODEL 1
REMARK minimizedAffinity 6.72142124
REMARK minimizedRMSD -1
REMARK  2 active torsions:
REMARK  status: ('A' for Active; 'I' for Inactive)
REMARK    1  A    between atoms: C1_2  and  C2_3 
REMARK    2  A    between atoms: C2_3  and  C3_4 
ROOT
ATOM      1  C3  UNL d   1       2.991   0.350  -1.772  0.00  0.00    -0.075 A 
ATOM      2  C4  UNL d   1       3.376   1.680  -1.544  0.00  0.00     0.002 A 
ATOM      3  C5  UNL d   1       2.867   2.387  -0.454  0.00  0.00     0.002 A 
ATOM      4  C6  UNL d   1       1.963   1.779   0.414  0.00  0.00    -0.004 A 
ATOM      5  C7  UNL d   1       1.561   0.464   0.188  0.00  0.00     0.002 A 
ATOM      6  C8  UNL d   1       2.072  -0.247  -0.899  0.00  0.00     0.002 A 
ENDROOT
BRANCH   1   7
ATOM      7  C2  UNL d   1       3.560  -0.430  -2.932  0.00  0.00     0.056 C 
BRANCH   7   8
ATOM      8  C1  UNL d   1       4.994  -0.924  -2.709  0.00  0.00     0.007 C 
ATOM      9  C   UNL d   1       5.975  -0.413  -3.755  0.00  0.00     0.009 C 
ENDBRANCH   7   8
ENDBRANCH   1   7
TORSDOF 2
ENDMDL
