MODEL 1
REMARK minimizedAffinity 9.897295
REMARK minimizedRMSD -1
REMARK  2 active torsions:
REMARK  status: ('A' for Active; 'I' for Inactive)
REMARK    1  A    between atoms: C1_2  and  C2_3 
REMARK    2  A    between atoms: C2_3  and  C3_4 
ROOT
ATOM      1  C3  UNL d   1      -0.414  -1.165   0.029  0.00  0.00    -0.075 A 
ATOM      2  C4  UNL d   1      -1.725  -0.814   0.384  0.00  0.00     0.002 A 
ATOM      3  C5  UNL d   1      -2.713  -1.792   0.503  0.00  0.00     0.002 A 
ATOM      4  C6  UNL d   1      -2.406  -3.129   0.260  0.00  0.00    -0.004 A 
ATOM      5  C7  UNL d   1      -1.111  -3.488  -0.109  0.00  0.00     0.002 A 
ATOM      6  C8  UNL d   1      -0.120  -2.512  -0.225  0.00  0.00     0.002 A 
ENDROOT
BRANCH   1   7
ATOM      7  C2  UNL d   1       0.666  -0.115  -0.073  0.00  0.00     0.056 C 
BRANCH   7   8
ATOM      8  C1  UNL d   1       0.513   1.036   0.926  0.00  0.00     0.007 C 
ATOM      9  C   UNL d   1       1.818   1.773   1.197  0.00  0.00     0.009 C 
ENDBRANCH   7   8
ENDBRANCH   1   7
TORSDOF 2
ENDMDL
