MODEL 1
REMARK minimizedAffinity 7.75100327
REMARK minimizedRMSD -1
REMARK  2 active torsions:
REMARK  status: ('A' for Active; 'I' for Inactive)
REMARK    1  A    between atoms: C1_2  and  C2_3 
REMARK    2  A    between atoms: C2_3  and  C3_4 
ROOT
ATOM      1  C3  UNL d   1       3.262   0.554  -1.478  0.00  0.00    -0.075 A 
ATOM      2  C4  UNL d   1       4.034   1.660  -1.092  0.00  0.00     0.002 A 
ATOM      3  C5  UNL d   1       3.746   2.349   0.086  0.00  0.00     0.002 A 
ATOM      4  C6  UNL d   1       2.678   1.949   0.887  0.00  0.00    -0.004 A 
ATOM      5  C7  UNL d   1       1.894   0.863   0.505  0.00  0.00     0.002 A 
ATOM      6  C8  UNL d   1       2.183   0.169  -0.671  0.00  0.00     0.002 A 
ENDROOT
BRANCH   1   7
ATOM      7  C2  UNL d   1       3.586  -0.214  -2.737  0.00  0.00     0.056 C 
BRANCH   7   8
ATOM      8  C1  UNL d   1       5.058  -0.624  -2.855  0.00  0.00     0.007 C 
ATOM      9  C   UNL d   1       5.826   0.187  -3.890  0.00  0.00     0.009 C 
ENDBRANCH   7   8
ENDBRANCH   1   7
TORSDOF 2
ENDMDL
