MODEL 1
REMARK minimizedAffinity 3.86036134
REMARK minimizedRMSD -1
REMARK  0 active torsions:
REMARK  status: ('A' for Active; 'I' for Inactive)
ROOT
ATOM      1  O1  BZF d   1       0.884   4.724  -0.224  0.00  0.00    -0.204 OA
ATOM      2  C2  BZF d   1      -0.139   5.045   0.648  0.00  0.00     0.174 A 
ATOM      3  C3  BZF d   1      -0.684   3.931   1.178  0.00  0.00    -0.012 A 
ATOM      4  C3A BZF d   1       0.104   2.850   0.672  0.00  0.00    -0.107 A 
ATOM      5  C4  BZF d   1       0.067   1.496   0.851  0.00  0.00     0.055 A 
ATOM      6  C5  BZF d   1       0.932   0.713   0.155  0.00  0.00    -0.016 A 
ATOM      7  C6  BZF d   1       1.844   1.249  -0.731  0.00  0.00     0.022 A 
ATOM      8  C7  BZF d   1       1.923   2.586  -0.938  0.00  0.00     0.029 A 
ATOM      9  C7A BZF d   1       1.072   3.382  -0.211  0.00  0.00     0.058 A 
ENDROOT
TORSDOF 0
ENDMDL
