MODEL 1
REMARK minimizedAffinity -1.70506346
REMARK minimizedRMSD -1
REMARK  0 active torsions:
REMARK  status: ('A' for Active; 'I' for Inactive)
ROOT
ATOM      1  O1  BZF d   1      -0.427  -1.580  -0.575  0.00  0.00    -0.204 OA
ATOM      2  C2  BZF d   1      -1.592  -0.850  -0.701  0.00  0.00     0.174 A 
ATOM      3  C3  BZF d   1      -1.405   0.424  -0.298  0.00  0.00    -0.012 A 
ATOM      4  C3A BZF d   1      -0.012   0.517   0.018  0.00  0.00    -0.107 A 
ATOM      5  C4  BZF d   1       0.784   1.534   0.460  0.00  0.00     0.055 A 
ATOM      6  C5  BZF d   1       2.089   1.277   0.742  0.00  0.00    -0.016 A 
ATOM      7  C6  BZF d   1       2.627   0.015   0.600  0.00  0.00     0.022 A 
ATOM      8  C7  BZF d   1       1.878  -1.025   0.160  0.00  0.00     0.029 A 
ATOM      9  C7A BZF d   1       0.568  -0.761  -0.157  0.00  0.00     0.058 A 
ENDROOT
TORSDOF 0
ENDMDL
