MODEL 1
REMARK minimizedAffinity 6.51368856
REMARK minimizedRMSD -1
REMARK  0 active torsions:
REMARK  status: ('A' for Active; 'I' for Inactive)
ROOT
ATOM      1  O1  BZF d   1       3.575   1.332   1.044  0.00  0.00    -0.204 OA
ATOM      2  C2  BZF d   1       3.107   0.923   2.278  0.00  0.00     0.174 A 
ATOM      3  C3  BZF d   1       1.781   0.679   2.229  0.00  0.00    -0.012 A 
ATOM      4  C3A BZF d   1       1.414   0.864   0.859  0.00  0.00    -0.107 A 
ATOM      5  C4  BZF d   1       0.235   0.750   0.179  0.00  0.00     0.055 A 
ATOM      6  C5  BZF d   1       0.200   1.072  -1.141  0.00  0.00    -0.016 A 
ATOM      7  C6  BZF d   1       1.322   1.515  -1.810  0.00  0.00     0.022 A 
ATOM      8  C7  BZF d   1       2.515   1.639  -1.179  0.00  0.00     0.029 A 
ATOM      9  C7A BZF d   1       2.561   1.283   0.147  0.00  0.00     0.058 A 
ENDROOT
TORSDOF 0
ENDMDL
