MODEL 1
REMARK minimizedAffinity -5.62988424
REMARK minimizedRMSD -1
REMARK  0 active torsions:
REMARK  status: ('A' for Active; 'I' for Inactive)
ROOT
ATOM      1  O1  BZF d   1      -0.381  -1.021   1.081  0.00  0.00    -0.204 OA
ATOM      2  C2  BZF d   1      -0.635   0.247   0.597  0.00  0.00     0.174 A 
ATOM      3  C3  BZF d   1       0.516   0.918   0.385  0.00  0.00    -0.012 A 
ATOM      4  C3A BZF d   1       1.557  -0.021   0.673  0.00  0.00    -0.107 A 
ATOM      5  C4  BZF d   1       2.920   0.047   0.633  0.00  0.00     0.055 A 
ATOM      6  C5  BZF d   1       3.647  -1.024   1.046  0.00  0.00    -0.016 A 
ATOM      7  C6  BZF d   1       3.045  -2.175   1.510  0.00  0.00     0.022 A 
ATOM      8  C7  BZF d   1       1.696  -2.291   1.564  0.00  0.00     0.029 A 
ATOM      9  C7A BZF d   1       0.958  -1.223   1.116  0.00  0.00     0.058 A 
ENDROOT
TORSDOF 0
ENDMDL
