MODEL 1
REMARK minimizedAffinity -0.685241461
REMARK minimizedRMSD -1
REMARK  0 active torsions:
REMARK  status: ('A' for Active; 'I' for Inactive)
ROOT
ATOM      1  O1  BZF d   1      -0.251  -0.673  -0.309  0.00  0.00    -0.204 OA
ATOM      2  C2  BZF d   1      -0.256   0.132   0.814  0.00  0.00     0.174 A 
ATOM      3  C3  BZF d   1      -1.179   1.108   0.698  0.00  0.00    -0.012 A 
ATOM      4  C3A BZF d   1      -1.853   0.846  -0.537  0.00  0.00    -0.107 A 
ATOM      5  C4  BZF d   1      -2.881   1.458  -1.194  0.00  0.00     0.055 A 
ATOM      6  C5  BZF d   1      -3.253   0.995  -2.416  0.00  0.00    -0.016 A 
ATOM      7  C6  BZF d   1      -2.616  -0.074  -3.012  0.00  0.00     0.022 A 
ATOM      8  C7  BZF d   1      -1.595  -0.718  -2.396  0.00  0.00     0.029 A 
ATOM      9  C7A BZF d   1      -1.238  -0.272  -1.146  0.00  0.00     0.058 A 
ENDROOT
TORSDOF 0
ENDMDL
