MODEL 1
REMARK minimizedAffinity -2.86844802
REMARK minimizedRMSD -1
REMARK  0 active torsions:
REMARK  status: ('A' for Active; 'I' for Inactive)
ROOT
ATOM      1  O1  BZF d   1      -0.581  -1.270  -0.583  0.00  0.00    -0.204 OA
ATOM      2  C2  BZF d   1      -1.766  -0.719  -1.032  0.00  0.00     0.174 A 
ATOM      3  C3  BZF d   1      -1.775   0.616  -0.841  0.00  0.00    -0.012 A 
ATOM      4  C3A BZF d   1      -0.481   0.930  -0.318  0.00  0.00    -0.107 A 
ATOM      5  C4  BZF d   1       0.122   2.097   0.058  0.00  0.00     0.055 A 
ATOM      6  C5  BZF d   1       1.369   2.052   0.596  0.00  0.00    -0.016 A 
ATOM      7  C6  BZF d   1       2.039   0.860   0.777  0.00  0.00     0.022 A 
ATOM      8  C7  BZF d   1       1.485  -0.322   0.414  0.00  0.00     0.029 A 
ATOM      9  C7A BZF d   1       0.238  -0.277  -0.160  0.00  0.00     0.058 A 
ENDROOT
TORSDOF 0
ENDMDL
