MODEL 1
REMARK minimizedAffinity -5.55573511
REMARK minimizedRMSD -1
REMARK  0 active torsions:
REMARK  status: ('A' for Active; 'I' for Inactive)
ROOT
ATOM      1  O1  BZF d   1      -0.115   1.559   0.382  0.00  0.00    -0.204 OA
ATOM      2  C2  BZF d   1      -1.132   1.013  -0.377  0.00  0.00     0.174 A 
ATOM      3  C3  BZF d   1      -0.706  -0.091  -1.024  0.00  0.00    -0.012 A 
ATOM      4  C3A BZF d   1       0.636  -0.297  -0.573  0.00  0.00    -0.107 A 
ATOM      5  C4  BZF d   1       1.583  -1.244  -0.844  0.00  0.00     0.055 A 
ATOM      6  C5  BZF d   1       2.819  -1.117  -0.295  0.00  0.00    -0.016 A 
ATOM      7  C6  BZF d   1       3.145  -0.057   0.525  0.00  0.00     0.022 A 
ATOM      8  C7  BZF d   1       2.237   0.904   0.827  0.00  0.00     0.029 A 
ATOM      9  C7A BZF d   1       0.977   0.761   0.300  0.00  0.00     0.058 A 
ENDROOT
TORSDOF 0
ENDMDL
