MODEL 1
REMARK minimizedAffinity -4.50001669
REMARK minimizedRMSD -1
REMARK  1 active torsions:
REMARK  status: ('A' for Active; 'I' for Inactive)
REMARK    1  A    between atoms: C1_2  and  C2_3 
ROOT
ATOM      1  C2  UNL d   1       0.276  -0.225  -0.049  0.00  0.00    -0.076 A 
ATOM      2  C3  UNL d   1       1.257  -0.563  -0.997  0.00  0.00     0.004 A 
ATOM      3  C4  UNL d   1       2.025  -1.717  -0.856  0.00  0.00    -0.003 A 
ATOM      4  C5  UNL d   1       1.824  -2.554   0.237  0.00  0.00     0.000 A 
ATOM      5  C6  UNL d   1       0.843  -2.244   1.178  0.00  0.00     0.000 A 
ATOM      6  C7  UNL d   1       0.049  -1.092   1.041  0.00  0.00    -0.073 A 
ATOM      7  C8  UNL d   1      -0.991  -0.804   2.089  0.00  0.00     0.078 C 
ENDROOT
BRANCH   1   8
ATOM      8  C1  UNL d   1      -0.507   1.054  -0.241  0.00  0.00     0.053 C 
ATOM      9  C   UNL d   1      -1.335   1.044  -1.516  0.00  0.00     0.018 C 
ENDBRANCH   1   8
TORSDOF 1
ENDMDL
