MODEL 1
REMARK minimizedAffinity -3.46639371
REMARK minimizedRMSD -1
REMARK  1 active torsions:
REMARK  status: ('A' for Active; 'I' for Inactive)
REMARK    1  A    between atoms: C1_2  and  C2_3 
ROOT
ATOM      1  C2  UNL d   1      -0.647   1.248  -1.875  0.00  0.00    -0.076 A 
ATOM      2  C3  UNL d   1      -0.515   0.020  -1.204  0.00  0.00     0.004 A 
ATOM      3  C4  UNL d   1       0.335  -0.110  -0.107  0.00  0.00    -0.003 A 
ATOM      4  C5  UNL d   1       1.067   0.986   0.337  0.00  0.00     0.000 A 
ATOM      5  C6  UNL d   1       0.934   2.216  -0.305  0.00  0.00     0.000 A 
ATOM      6  C7  UNL d   1       0.069   2.369  -1.403  0.00  0.00    -0.073 A 
ATOM      7  C8  UNL d   1      -0.030   3.717  -2.062  0.00  0.00     0.078 C 
ENDROOT
BRANCH   1   8
ATOM      8  C1  UNL d   1      -1.564   1.323  -3.075  0.00  0.00     0.053 C 
ATOM      9  C   UNL d   1      -3.020   1.521  -2.684  0.00  0.00     0.018 C 
ENDBRANCH   1   8
TORSDOF 1
ENDMDL
