MODEL 1
REMARK minimizedAffinity -5.10322285
REMARK minimizedRMSD -1
REMARK  1 active torsions:
REMARK  status: ('A' for Active; 'I' for Inactive)
REMARK    1  A    between atoms: C1_2  and  C2_3 
ROOT
ATOM      1  C2  UNL d   1       1.276  -0.868   0.456  0.00  0.00    -0.076 A 
ATOM      2  C3  UNL d   1      -0.068  -1.167   0.739  0.00  0.00     0.004 A 
ATOM      3  C4  UNL d   1      -1.091  -0.301   0.358  0.00  0.00    -0.003 A 
ATOM      4  C5  UNL d   1      -0.787   0.878  -0.313  0.00  0.00     0.000 A 
ATOM      5  C6  UNL d   1       0.539   1.183  -0.617  0.00  0.00     0.000 A 
ATOM      6  C7  UNL d   1       1.581   0.312  -0.255  0.00  0.00    -0.073 A 
ATOM      7  C8  UNL d   1       2.994   0.694  -0.603  0.00  0.00     0.078 C 
ENDROOT
BRANCH   1   8
ATOM      8  C1  UNL d   1       2.346  -1.832   0.918  0.00  0.00     0.053 C 
ATOM      9  C   UNL d   1       1.813  -3.243   1.114  0.00  0.00     0.018 C 
ENDBRANCH   1   8
TORSDOF 1
ENDMDL
