MODEL 1
REMARK minimizedAffinity -3.13920093
REMARK minimizedRMSD -1
REMARK  1 active torsions:
REMARK  status: ('A' for Active; 'I' for Inactive)
REMARK    1  A    between atoms: C1_2  and  C2_3 
ROOT
ATOM      1  C2  UNL d   1       1.762  -1.145   0.518  0.00  0.00    -0.076 A 
ATOM      2  C3  UNL d   1       1.315   0.095   0.031  0.00  0.00     0.004 A 
ATOM      3  C4  UNL d   1      -0.021   0.290  -0.315  0.00  0.00    -0.003 A 
ATOM      4  C5  UNL d   1      -0.932  -0.752  -0.179  0.00  0.00     0.000 A 
ATOM      5  C6  UNL d   1      -0.509  -1.984   0.319  0.00  0.00     0.000 A 
ATOM      6  C7  UNL d   1       0.831  -2.192   0.687  0.00  0.00    -0.073 A 
ATOM      7  C8  UNL d   1       1.234  -3.543   1.213  0.00  0.00     0.078 C 
ENDROOT
BRANCH   1   8
ATOM      8  C1  UNL d   1       3.228  -1.306   0.851  0.00  0.00     0.053 C 
ATOM      9  C   UNL d   1       3.575  -0.764   2.229  0.00  0.00     0.018 C 
ENDBRANCH   1   8
TORSDOF 1
ENDMDL
