MODEL 1
REMARK minimizedAffinity -3.51249218
REMARK minimizedRMSD -1
REMARK  1 active torsions:
REMARK  status: ('A' for Active; 'I' for Inactive)
REMARK    1  A    between atoms: C1_2  and  C2_3 
ROOT
ATOM      1  C2  UNL d   1       0.464  -0.280   0.379  0.00  0.00    -0.076 A 
ATOM      2  C3  UNL d   1       1.695  -0.538  -0.247  0.00  0.00     0.004 A 
ATOM      3  C4  UNL d   1       2.382  -1.729  -0.015  0.00  0.00    -0.003 A 
ATOM      4  C5  UNL d   1       1.848  -2.681   0.846  0.00  0.00     0.000 A 
ATOM      5  C6  UNL d   1       0.618  -2.449   1.462  0.00  0.00     0.000 A 
ATOM      6  C7  UNL d   1      -0.095  -1.261   1.227  0.00  0.00    -0.073 A 
ATOM      7  C8  UNL d   1      -1.413  -1.060   1.922  0.00  0.00     0.078 C 
ENDROOT
BRANCH   1   8
ATOM      8  C1  UNL d   1      -0.222   1.041   0.111  0.00  0.00     0.053 C 
ATOM      9  C   UNL d   1      -1.142   0.985  -1.099  0.00  0.00     0.018 C 
ENDBRANCH   1   8
TORSDOF 1
ENDMDL
