MODEL 1
REMARK minimizedAffinity -2.25835276
REMARK minimizedRMSD -1
REMARK  1 active torsions:
REMARK  status: ('A' for Active; 'I' for Inactive)
REMARK    1  A    between atoms: C1_2  and  C2_3 
ROOT
ATOM      1  C2  UNL d   1       0.994  -0.709   0.563  0.00  0.00    -0.076 A 
ATOM      2  C3  UNL d   1       1.426  -0.154  -0.654  0.00  0.00     0.004 A 
ATOM      3  C4  UNL d   1       0.580   0.649  -1.417  0.00  0.00    -0.003 A 
ATOM      4  C5  UNL d   1      -0.712   0.911  -0.974  0.00  0.00     0.000 A 
ATOM      5  C6  UNL d   1      -1.151   0.383   0.239  0.00  0.00     0.000 A 
ATOM      6  C7  UNL d   1      -0.305  -0.415   1.028  0.00  0.00    -0.073 A 
ATOM      7  C8  UNL d   1      -0.833  -0.963   2.326  0.00  0.00     0.078 C 
ENDROOT
BRANCH   1   8
ATOM      8  C1  UNL d   1       1.947  -1.595   1.334  0.00  0.00     0.053 C 
ATOM      9  C   UNL d   1       3.159  -0.836   1.852  0.00  0.00     0.018 C 
ENDBRANCH   1   8
TORSDOF 1
ENDMDL
