MODEL 1
REMARK minimizedAffinity -3.65005136
REMARK minimizedRMSD -1
REMARK  1 active torsions:
REMARK  status: ('A' for Active; 'I' for Inactive)
REMARK    1  A    between atoms: C1_2  and  C2_3 
ROOT
ATOM      1  C2  UNL d   1       0.270  -0.726   0.727  0.00  0.00    -0.076 A 
ATOM      2  C3  UNL d   1       1.265  -1.509   1.338  0.00  0.00     0.004 A 
ATOM      3  C4  UNL d   1       2.617  -1.237   1.134  0.00  0.00    -0.003 A 
ATOM      4  C5  UNL d   1       2.996  -0.179   0.317  0.00  0.00     0.000 A 
ATOM      5  C6  UNL d   1       2.022   0.619  -0.283  0.00  0.00     0.000 A 
ATOM      6  C7  UNL d   1       0.655   0.370  -0.075  0.00  0.00    -0.073 A 
ATOM      7  C8  UNL d   1      -0.353   1.258  -0.752  0.00  0.00     0.078 C 
ENDROOT
BRANCH   1   8
ATOM      8  C1  UNL d   1      -1.180  -1.084   0.963  0.00  0.00     0.053 C 
ATOM      9  C   UNL d   1      -1.797  -0.294   2.107  0.00  0.00     0.018 C 
ENDBRANCH   1   8
TORSDOF 1
ENDMDL
