MODEL 1
REMARK minimizedAffinity -4.45867777
REMARK minimizedRMSD -1
REMARK  1 active torsions:
REMARK  status: ('A' for Active; 'I' for Inactive)
REMARK    1  A    between atoms: C1_2  and  C2_3 
ROOT
ATOM      1  C2  UNL d   1       0.944  -0.650   0.458  0.00  0.00    -0.076 A 
ATOM      2  C3  UNL d   1       1.456   0.050  -0.648  0.00  0.00     0.004 A 
ATOM      3  C4  UNL d   1       0.658   0.938  -1.367  0.00  0.00    -0.003 A 
ATOM      4  C5  UNL d   1      -0.665   1.142  -0.992  0.00  0.00     0.000 A 
ATOM      5  C6  UNL d   1      -1.185   0.470   0.114  0.00  0.00     0.000 A 
ATOM      6  C7  UNL d   1      -0.389  -0.417   0.860  0.00  0.00    -0.073 A 
ATOM      7  C8  UNL d   1      -1.003  -1.120   2.040  0.00  0.00     0.078 C 
ENDROOT
BRANCH   1   8
ATOM      8  C1  UNL d   1       1.848  -1.621   1.184  0.00  0.00     0.053 C 
ATOM      9  C   UNL d   1       1.493  -3.072   0.898  0.00  0.00     0.018 C 
ENDBRANCH   1   8
TORSDOF 1
ENDMDL
