MODEL 1
REMARK minimizedAffinity -5.01631832
REMARK minimizedRMSD -1
REMARK  1 active torsions:
REMARK  status: ('A' for Active; 'I' for Inactive)
REMARK    1  A    between atoms: C1_2  and  C2_3 
ROOT
ATOM      1  C2  UNL d   1       0.133   0.396   0.349  0.00  0.00    -0.076 A 
ATOM      2  C3  UNL d   1       1.374   0.482  -0.306  0.00  0.00     0.004 A 
ATOM      3  C4  UNL d   1       2.324  -0.530  -0.178  0.00  0.00    -0.003 A 
ATOM      4  C5  UNL d   1       2.049  -1.644   0.606  0.00  0.00     0.000 A 
ATOM      5  C6  UNL d   1       0.817  -1.755   1.249  0.00  0.00     0.000 A 
ATOM      6  C7  UNL d   1      -0.159  -0.752   1.118  0.00  0.00    -0.073 A 
ATOM      7  C8  UNL d   1      -1.469  -0.919   1.839  0.00  0.00     0.078 C 
ENDROOT
BRANCH   1   8
ATOM      8  C1  UNL d   1      -0.848   1.536   0.196  0.00  0.00     0.053 C 
ATOM      9  C   UNL d   1      -1.438   1.613  -1.204  0.00  0.00     0.018 C 
ENDBRANCH   1   8
TORSDOF 1
ENDMDL
