MODEL 1
REMARK minimizedAffinity -5.90679836
REMARK minimizedRMSD -1
REMARK  1 active torsions:
REMARK  status: ('A' for Active; 'I' for Inactive)
REMARK    1  A    between atoms: C1_2  and  C2_3 
ROOT
ATOM      1  C2  UNL d   1      -0.074  -0.405   0.641  0.00  0.00    -0.076 A 
ATOM      2  C3  UNL d   1      -0.797  -1.071   1.645  0.00  0.00     0.004 A 
ATOM      3  C4  UNL d   1      -0.359  -2.293   2.154  0.00  0.00    -0.003 A 
ATOM      4  C5  UNL d   1       0.810  -2.868   1.666  0.00  0.00     0.000 A 
ATOM      5  C6  UNL d   1       1.548  -2.212   0.682  0.00  0.00     0.000 A 
ATOM      6  C7  UNL d   1       1.129  -0.972   0.170  0.00  0.00    -0.073 A 
ATOM      7  C8  UNL d   1       1.962  -0.312  -0.895  0.00  0.00     0.078 C 
ENDROOT
BRANCH   1   8
ATOM      8  C1  UNL d   1      -0.613   0.904   0.109  0.00  0.00     0.053 C 
ATOM      9  C   UNL d   1      -1.252   0.757  -1.263  0.00  0.00     0.018 C 
ENDBRANCH   1   8
TORSDOF 1
ENDMDL
