MODEL 1
REMARK minimizedAffinity -5.57052183
REMARK minimizedRMSD -1
REMARK  1 active torsions:
REMARK  status: ('A' for Active; 'I' for Inactive)
REMARK    1  A    between atoms: C1_2  and  C2_3 
ROOT
ATOM      1  C2  UNL d   1       0.918  -0.365   0.185  0.00  0.00    -0.076 A 
ATOM      2  C3  UNL d   1       2.028  -0.743  -0.590  0.00  0.00     0.004 A 
ATOM      3  C4  UNL d   1       2.579  -2.019  -0.480  0.00  0.00    -0.003 A 
ATOM      4  C5  UNL d   1       2.028  -2.937   0.407  0.00  0.00     0.000 A 
ATOM      5  C6  UNL d   1       0.916  -2.585   1.170  0.00  0.00     0.000 A 
ATOM      6  C7  UNL d   1       0.338  -1.309   1.059  0.00  0.00    -0.073 A 
ATOM      7  C8  UNL d   1      -0.857  -0.981   1.912  0.00  0.00     0.078 C 
ENDROOT
BRANCH   1   8
ATOM      8  C1  UNL d   1       0.380   1.041   0.042  0.00  0.00     0.053 C 
ATOM      9  C   UNL d   1      -0.100   1.341  -1.370  0.00  0.00     0.018 C 
ENDBRANCH   1   8
TORSDOF 1
ENDMDL
