MODEL 1
REMARK minimizedAffinity -2.46887541
REMARK minimizedRMSD -1
REMARK  2 active torsions:
REMARK  status: ('A' for Active; 'I' for Inactive)
REMARK    1  A    between atoms: C1_2  and  C2_3 
REMARK    2  A    between atoms: C2_3  and  C3_4 
ROOT
ATOM      1  C3  UNL d   1       0.659  -1.095  -0.832  0.00  0.00    -0.075 A 
ATOM      2  C4  UNL d   1       0.215  -0.862  -2.141  0.00  0.00     0.002 A 
ATOM      3  C5  UNL d   1       0.451  -1.799  -3.147  0.00  0.00     0.002 A 
ATOM      4  C6  UNL d   1       1.141  -2.975  -2.860  0.00  0.00    -0.004 A 
ATOM      5  C7  UNL d   1       1.602  -3.210  -1.566  0.00  0.00     0.002 A 
ATOM      6  C8  UNL d   1       1.363  -2.275  -0.557  0.00  0.00     0.002 A 
ENDROOT
BRANCH   1   7
ATOM      7  C2  UNL d   1       0.382  -0.098   0.268  0.00  0.00     0.056 C 
BRANCH   7   8
ATOM      8  C1  UNL d   1      -0.781  -0.489   1.185  0.00  0.00     0.007 C 
ATOM      9  C   UNL d   1      -1.180   0.616   2.154  0.00  0.00     0.009 C 
ENDBRANCH   7   8
ENDBRANCH   1   7
TORSDOF 2
ENDMDL
