MODEL 1
REMARK minimizedAffinity -4.61944866
REMARK minimizedRMSD -1
REMARK  2 active torsions:
REMARK  status: ('A' for Active; 'I' for Inactive)
REMARK    1  A    between atoms: C1_2  and  C2_3 
REMARK    2  A    between atoms: C2_3  and  C3_4 
ROOT
ATOM      1  C3  UNL d   1       0.380  -1.363  -0.410  0.00  0.00    -0.075 A 
ATOM      2  C4  UNL d   1       1.519  -1.677  -1.165  0.00  0.00     0.002 A 
ATOM      3  C5  UNL d   1       1.437  -2.571  -2.233  0.00  0.00     0.002 A 
ATOM      4  C6  UNL d   1       0.220  -3.170  -2.552  0.00  0.00    -0.004 A 
ATOM      5  C7  UNL d   1      -0.915  -2.878  -1.797  0.00  0.00     0.002 A 
ATOM      6  C8  UNL d   1      -0.836  -1.981  -0.731  0.00  0.00     0.002 A 
ENDROOT
BRANCH   1   7
ATOM      7  C2  UNL d   1       0.457  -0.374   0.729  0.00  0.00     0.056 C 
BRANCH   7   8
ATOM      8  C1  UNL d   1      -0.513  -0.669   1.878  0.00  0.00     0.007 C 
ATOM      9  C   UNL d   1      -1.329   0.546   2.301  0.00  0.00     0.009 C 
ENDBRANCH   7   8
ENDBRANCH   1   7
TORSDOF 2
ENDMDL
