MODEL 1
REMARK minimizedAffinity -2.70363212
REMARK minimizedRMSD -1
REMARK  2 active torsions:
REMARK  status: ('A' for Active; 'I' for Inactive)
REMARK    1  A    between atoms: C1_2  and  C2_3 
REMARK    2  A    between atoms: C2_3  and  C3_4 
ROOT
ATOM      1  C3  UNL d   1       0.530  -1.243  -0.366  0.00  0.00    -0.075 A 
ATOM      2  C4  UNL d   1       1.017  -0.221   0.461  0.00  0.00     0.002 A 
ATOM      3  C5  UNL d   1       0.185   0.386   1.402  0.00  0.00     0.002 A 
ATOM      4  C6  UNL d   1      -1.145  -0.013   1.520  0.00  0.00    -0.004 A 
ATOM      5  C7  UNL d   1      -1.644  -1.016   0.692  0.00  0.00     0.002 A 
ATOM      6  C8  UNL d   1      -0.812  -1.628  -0.247  0.00  0.00     0.002 A 
ENDROOT
BRANCH   1   7
ATOM      7  C2  UNL d   1       1.434  -1.925  -1.366  0.00  0.00     0.056 C 
BRANCH   7   8
ATOM      8  C1  UNL d   1       0.905  -3.273  -1.867  0.00  0.00     0.007 C 
ATOM      9  C   UNL d   1       0.244  -3.188  -3.236  0.00  0.00     0.009 C 
ENDBRANCH   7   8
ENDBRANCH   1   7
TORSDOF 2
ENDMDL
