MODEL 1
REMARK minimizedAffinity -3.20012808
REMARK minimizedRMSD -1
REMARK  2 active torsions:
REMARK  status: ('A' for Active; 'I' for Inactive)
REMARK    1  A    between atoms: C1_2  and  C2_3 
REMARK    2  A    between atoms: C2_3  and  C3_4 
ROOT
ATOM      1  C3  UNL d   1      -0.174  -1.367  -0.255  0.00  0.00    -0.075 A 
ATOM      2  C4  UNL d   1       0.767  -0.517  -0.854  0.00  0.00     0.002 A 
ATOM      3  C5  UNL d   1       1.551  -0.966  -1.917  0.00  0.00     0.002 A 
ATOM      4  C6  UNL d   1       1.413  -2.270  -2.387  0.00  0.00    -0.004 A 
ATOM      5  C7  UNL d   1       0.493  -3.128  -1.788  0.00  0.00     0.002 A 
ATOM      6  C8  UNL d   1      -0.296  -2.680  -0.727  0.00  0.00     0.002 A 
ENDROOT
BRANCH   1   7
ATOM      7  C2  UNL d   1      -1.047  -0.878   0.876  0.00  0.00     0.056 C 
BRANCH   7   8
ATOM      8  C1  UNL d   1      -0.297  -0.060   1.934  0.00  0.00     0.007 C 
ATOM      9  C   UNL d   1      -1.016   1.226   2.319  0.00  0.00     0.009 C 
ENDBRANCH   7   8
ENDBRANCH   1   7
TORSDOF 2
ENDMDL
