MODEL 1
REMARK minimizedAffinity -4.37057829
REMARK minimizedRMSD -1
REMARK  2 active torsions:
REMARK  status: ('A' for Active; 'I' for Inactive)
REMARK    1  A    between atoms: C1_2  and  C2_3 
REMARK    2  A    between atoms: C2_3  and  C3_4 
ROOT
ATOM      1  C3  UNL d   1       0.157  -1.363  -0.125  0.00  0.00    -0.075 A 
ATOM      2  C4  UNL d   1       0.570  -0.043  -0.357  0.00  0.00     0.002 A 
ATOM      3  C5  UNL d   1       0.040   1.007   0.393  0.00  0.00     0.002 A 
ATOM      4  C6  UNL d   1      -0.915   0.753   1.375  0.00  0.00    -0.004 A 
ATOM      5  C7  UNL d   1      -1.345  -0.552   1.603  0.00  0.00     0.002 A 
ATOM      6  C8  UNL d   1      -0.813  -1.606   0.857  0.00  0.00     0.002 A 
ENDROOT
BRANCH   1   7
ATOM      7  C2  UNL d   1       0.748  -2.508  -0.912  0.00  0.00     0.056 C 
BRANCH   7   8
ATOM      8  C1  UNL d   1       1.613  -2.068  -2.098  0.00  0.00     0.007 C 
ATOM      9  C   UNL d   1       0.932  -2.267  -3.445  0.00  0.00     0.009 C 
ENDBRANCH   7   8
ENDBRANCH   1   7
TORSDOF 2
ENDMDL
