MODEL 1
REMARK minimizedAffinity -1.27674329
REMARK minimizedRMSD -1
REMARK  2 active torsions:
REMARK  status: ('A' for Active; 'I' for Inactive)
REMARK    1  A    between atoms: C1_2  and  C2_3 
REMARK    2  A    between atoms: C2_3  and  C3_4 
ROOT
ATOM      1  C3  UNL d   1       0.037  -0.567   0.145  0.00  0.00    -0.075 A 
ATOM      2  C4  UNL d   1       0.423   0.360   1.124  0.00  0.00     0.002 A 
ATOM      3  C5  UNL d   1      -0.502   0.837   2.052  0.00  0.00     0.002 A 
ATOM      4  C6  UNL d   1      -1.825   0.403   2.008  0.00  0.00    -0.004 A 
ATOM      5  C7  UNL d   1      -2.224  -0.505   1.030  0.00  0.00     0.002 A 
ATOM      6  C8  UNL d   1      -1.299  -0.988   0.102  0.00  0.00     0.002 A 
ENDROOT
BRANCH   1   7
ATOM      7  C2  UNL d   1       1.041  -1.110  -0.844  0.00  0.00     0.056 C 
BRANCH   7   8
ATOM      8  C1  UNL d   1       0.704  -2.509  -1.369  0.00  0.00     0.007 C 
ATOM      9  C   UNL d   1       0.273  -2.515  -2.830  0.00  0.00     0.009 C 
ENDBRANCH   7   8
ENDBRANCH   1   7
TORSDOF 2
ENDMDL
