MODEL 1
REMARK minimizedAffinity -2.20619297
REMARK minimizedRMSD -1
REMARK  2 active torsions:
REMARK  status: ('A' for Active; 'I' for Inactive)
REMARK    1  A    between atoms: C1_2  and  C2_3 
REMARK    2  A    between atoms: C2_3  and  C3_4 
ROOT
ATOM      1  C3  UNL d   1       0.074  -0.883  -0.113  0.00  0.00    -0.075 A 
ATOM      2  C4  UNL d   1       0.122   0.518  -0.157  0.00  0.00     0.002 A 
ATOM      3  C5  UNL d   1      -0.596   1.280   0.765  0.00  0.00     0.002 A 
ATOM      4  C6  UNL d   1      -1.377   0.654   1.734  0.00  0.00    -0.004 A 
ATOM      5  C7  UNL d   1      -1.445  -0.737   1.776  0.00  0.00     0.002 A 
ATOM      6  C8  UNL d   1      -0.725  -1.502   0.857  0.00  0.00     0.002 A 
ENDROOT
BRANCH   1   7
ATOM      7  C2  UNL d   1       0.872  -1.714  -1.090  0.00  0.00     0.056 C 
BRANCH   7   8
ATOM      8  C1  UNL d   1       0.013  -2.504  -2.083  0.00  0.00     0.007 C 
ATOM      9  C   UNL d   1       0.485  -3.939  -2.276  0.00  0.00     0.009 C 
ENDBRANCH   7   8
ENDBRANCH   1   7
TORSDOF 2
ENDMDL
