MODEL 1
REMARK minimizedAffinity -3.61397719
REMARK minimizedRMSD -1
REMARK  2 active torsions:
REMARK  status: ('A' for Active; 'I' for Inactive)
REMARK    1  A    between atoms: C1_2  and  C2_3 
REMARK    2  A    between atoms: C2_3  and  C3_4 
ROOT
ATOM      1  C3  UNL d   1       0.323  -1.135  -0.625  0.00  0.00    -0.075 A 
ATOM      2  C4  UNL d   1      -0.646  -2.148  -0.615  0.00  0.00     0.002 A 
ATOM      3  C5  UNL d   1      -0.484  -3.292  -1.397  0.00  0.00     0.002 A 
ATOM      4  C6  UNL d   1       0.642  -3.432  -2.206  0.00  0.00    -0.004 A 
ATOM      5  C7  UNL d   1       1.603  -2.424  -2.236  0.00  0.00     0.002 A 
ATOM      6  C8  UNL d   1       1.445  -1.281  -1.451  0.00  0.00     0.002 A 
ENDROOT
BRANCH   1   7
ATOM      7  C2  UNL d   1       0.167   0.092   0.242  0.00  0.00     0.056 C 
BRANCH   7   8
ATOM      8  C1  UNL d   1      -0.851  -0.070   1.375  0.00  0.00     0.007 C 
ATOM      9  C   UNL d   1      -1.306   1.257   1.968  0.00  0.00     0.009 C 
ENDBRANCH   7   8
ENDBRANCH   1   7
TORSDOF 2
ENDMDL
