MODEL 1
REMARK minimizedAffinity -2.39631319
REMARK minimizedRMSD -1
REMARK  2 active torsions:
REMARK  status: ('A' for Active; 'I' for Inactive)
REMARK    1  A    between atoms: C1_2  and  C2_3 
REMARK    2  A    between atoms: C2_3  and  C3_4 
ROOT
ATOM      1  C3  UNL d   1       0.385  -1.942  -0.607  0.00  0.00    -0.075 A 
ATOM      2  C4  UNL d   1       0.994  -0.736  -0.230  0.00  0.00     0.002 A 
ATOM      3  C5  UNL d   1       0.332   0.159   0.611  0.00  0.00     0.002 A 
ATOM      4  C6  UNL d   1      -0.947  -0.134   1.077  0.00  0.00    -0.004 A 
ATOM      5  C7  UNL d   1      -1.568  -1.322   0.696  0.00  0.00     0.002 A 
ATOM      6  C8  UNL d   1      -0.907  -2.221  -0.142  0.00  0.00     0.002 A 
ENDROOT
BRANCH   1   7
ATOM      7  C2  UNL d   1       1.108  -2.928  -1.493  0.00  0.00     0.056 C 
BRANCH   7   8
ATOM      8  C1  UNL d   1       0.181  -3.759  -2.387  0.00  0.00     0.007 C 
ATOM      9  C   UNL d   1      -0.288  -3.009  -3.627  0.00  0.00     0.009 C 
ENDBRANCH   7   8
ENDBRANCH   1   7
TORSDOF 2
ENDMDL
