MODEL 1
REMARK minimizedAffinity -5.22076225
REMARK minimizedRMSD -1
REMARK  2 active torsions:
REMARK  status: ('A' for Active; 'I' for Inactive)
REMARK    1  A    between atoms: C1_2  and  C2_3 
REMARK    2  A    between atoms: C2_3  and  C3_4 
ROOT
ATOM      1  C3  UNL d   1      -0.749   1.546   0.317  0.00  0.00    -0.075 A 
ATOM      2  C4  UNL d   1      -0.640   0.353  -0.412  0.00  0.00     0.002 A 
ATOM      3  C5  UNL d   1       0.170   0.286  -1.545  0.00  0.00     0.002 A 
ATOM      4  C6  UNL d   1       0.874   1.411  -1.970  0.00  0.00    -0.004 A 
ATOM      5  C7  UNL d   1       0.761   2.607  -1.263  0.00  0.00     0.002 A 
ATOM      6  C8  UNL d   1      -0.046   2.675  -0.126  0.00  0.00     0.002 A 
ENDROOT
BRANCH   1   7
ATOM      7  C2  UNL d   1      -1.601   1.617   1.561  0.00  0.00     0.056 C 
BRANCH   7   8
ATOM      8  C1  UNL d   1      -0.946   1.002   2.802  0.00  0.00     0.007 C 
ATOM      9  C   UNL d   1      -0.565  -0.461   2.618  0.00  0.00     0.009 C 
ENDBRANCH   7   8
ENDBRANCH   1   7
TORSDOF 2
ENDMDL
