MODEL 1
REMARK minimizedAffinity -1.88340175
REMARK minimizedRMSD -1
REMARK  2 active torsions:
REMARK  status: ('A' for Active; 'I' for Inactive)
REMARK    1  A    between atoms: C1_2  and  C2_3 
REMARK    2  A    between atoms: C2_3  and  C3_4 
ROOT
ATOM      1  C3  UNL d   1      -0.196   0.518   1.333  0.00  0.00    -0.075 A 
ATOM      2  C4  UNL d   1      -0.223  -0.875   1.491  0.00  0.00     0.002 A 
ATOM      3  C5  UNL d   1       0.343  -1.709   0.526  0.00  0.00     0.002 A 
ATOM      4  C6  UNL d   1       0.932  -1.162  -0.612  0.00  0.00    -0.004 A 
ATOM      5  C7  UNL d   1       0.950   0.220  -0.787  0.00  0.00     0.002 A 
ATOM      6  C8  UNL d   1       0.389   1.057   0.179  0.00  0.00     0.002 A 
ENDROOT
BRANCH   1   7
ATOM      7  C2  UNL d   1      -0.781   1.427   2.388  0.00  0.00     0.056 C 
BRANCH   7   8
ATOM      8  C1  UNL d   1      -1.574   2.610   1.822  0.00  0.00     0.007 C 
ATOM      9  C   UNL d   1      -0.703   3.816   1.496  0.00  0.00     0.009 C 
ENDBRANCH   7   8
ENDBRANCH   1   7
TORSDOF 2
ENDMDL
