MODEL 1
REMARK minimizedAffinity -2.71332359
REMARK minimizedRMSD -1
REMARK  2 active torsions:
REMARK  status: ('A' for Active; 'I' for Inactive)
REMARK    1  A    between atoms: C1_2  and  C2_3 
REMARK    2  A    between atoms: C2_3  and  C3_4 
ROOT
ATOM      1  C3  UNL d   1      -0.146  -1.121  -0.738  0.00  0.00    -0.075 A 
ATOM      2  C4  UNL d   1      -1.141  -1.443   0.197  0.00  0.00     0.002 A 
ATOM      3  C5  UNL d   1      -1.339  -0.644   1.324  0.00  0.00     0.002 A 
ATOM      4  C6  UNL d   1      -0.541   0.478   1.535  0.00  0.00    -0.004 A 
ATOM      5  C7  UNL d   1       0.461   0.798   0.621  0.00  0.00     0.002 A 
ATOM      6  C8  UNL d   1       0.659   0.003  -0.509  0.00  0.00     0.002 A 
ENDROOT
BRANCH   1   7
ATOM      7  C2  UNL d   1       0.054  -1.965  -1.974  0.00  0.00     0.056 C 
BRANCH   7   8
ATOM      8  C1  UNL d   1       0.345  -3.441  -1.682  0.00  0.00     0.007 C 
ATOM      9  C   UNL d   1       1.568  -3.648  -0.799  0.00  0.00     0.009 C 
ENDBRANCH   7   8
ENDBRANCH   1   7
TORSDOF 2
ENDMDL
