MODEL 1
REMARK minimizedAffinity -3.54330492
REMARK minimizedRMSD -1
REMARK  2 active torsions:
REMARK  status: ('A' for Active; 'I' for Inactive)
REMARK    1  A    between atoms: C1_2  and  C2_3 
REMARK    2  A    between atoms: C2_3  and  C3_4 
ROOT
ATOM      1  C3  UNL d   1      -0.213   1.052   0.705  0.00  0.00    -0.075 A 
ATOM      2  C4  UNL d   1       0.377   1.774  -0.342  0.00  0.00     0.002 A 
ATOM      3  C5  UNL d   1       0.368   3.169  -0.334  0.00  0.00     0.002 A 
ATOM      4  C6  UNL d   1      -0.239   3.859   0.713  0.00  0.00    -0.004 A 
ATOM      5  C7  UNL d   1      -0.843   3.152   1.751  0.00  0.00     0.002 A 
ATOM      6  C8  UNL d   1      -0.831   1.756   1.747  0.00  0.00     0.002 A 
ENDROOT
BRANCH   1   7
ATOM      7  C2  UNL d   1      -0.181  -0.458   0.717  0.00  0.00     0.056 C 
BRANCH   7   8
ATOM      8  C1  UNL d   1      -0.809  -1.105  -0.521  0.00  0.00     0.007 C 
ATOM      9  C   UNL d   1       0.204  -1.825  -1.401  0.00  0.00     0.009 C 
ENDBRANCH   7   8
ENDBRANCH   1   7
TORSDOF 2
ENDMDL
