MODEL 1
REMARK minimizedAffinity -1.93873703
REMARK minimizedRMSD -1
REMARK  2 active torsions:
REMARK  status: ('A' for Active; 'I' for Inactive)
REMARK    1  A    between atoms: C1_2  and  C2_3 
REMARK    2  A    between atoms: C2_3  and  C3_4 
ROOT
ATOM      1  C3  UNL d   1       0.404   0.565  -0.729  0.00  0.00    -0.075 A 
ATOM      2  C4  UNL d   1      -0.132   0.581   0.567  0.00  0.00     0.002 A 
ATOM      3  C5  UNL d   1      -0.614  -0.591   1.149  0.00  0.00     0.002 A 
ATOM      4  C6  UNL d   1      -0.576  -1.791   0.441  0.00  0.00    -0.004 A 
ATOM      5  C7  UNL d   1      -0.061  -1.816  -0.853  0.00  0.00     0.002 A 
ATOM      6  C8  UNL d   1       0.426  -0.645  -1.437  0.00  0.00     0.002 A 
ENDROOT
BRANCH   1   7
ATOM      7  C2  UNL d   1       0.954   1.825  -1.354  0.00  0.00     0.056 C 
BRANCH   7   8
ATOM      8  C1  UNL d   1      -0.007   3.017  -1.304  0.00  0.00     0.007 C 
ATOM      9  C   UNL d   1       0.225   3.925  -0.103  0.00  0.00     0.009 C 
ENDBRANCH   7   8
ENDBRANCH   1   7
TORSDOF 2
ENDMDL
