MODEL 1
REMARK minimizedAffinity 5.06921625
REMARK minimizedRMSD -1
REMARK  0 active torsions:
REMARK  status: ('A' for Active; 'I' for Inactive)
ROOT
ATOM      1  N1  IND d   1       3.683   0.482   1.066  0.00  0.00    -0.196 N 
ATOM      2  C2  IND d   1       2.684   1.393   0.865  0.00  0.00     0.054 A 
ATOM      3  C3  IND d   1       1.602   1.077   1.612  0.00  0.00    -0.031 A 
ATOM      4  C4  IND d   1       1.289  -0.831   3.312  0.00  0.00     0.051 A 
ATOM      5  C5  IND d   1       1.910  -1.941   3.811  0.00  0.00    -0.031 A 
ATOM      6  C6  IND d   1       3.180  -2.306   3.416  0.00  0.00     0.015 A 
ATOM      7  C7  IND d   1       3.885  -1.565   2.510  0.00  0.00    -0.016 A 
ATOM      8  C8  IND d   1       3.255  -0.441   1.995  0.00  0.00    -0.047 A 
ATOM      9  C9  IND d   1       1.949  -0.089   2.361  0.00  0.00    -0.096 A 
ATOM     10  HN1 IND d   1       4.451   0.485   0.678  0.00  0.00     0.298 HD
ENDROOT
TORSDOF 0
ENDMDL
