MODEL 1
REMARK minimizedAffinity 6.27771902
REMARK minimizedRMSD -1
REMARK  0 active torsions:
REMARK  status: ('A' for Active; 'I' for Inactive)
ROOT
ATOM      1  N1  IND d   1       1.762   0.954   4.889  0.00  0.00    -0.196 N 
ATOM      2  C2  IND d   1       2.113   2.106   4.242  0.00  0.00     0.054 A 
ATOM      3  C3  IND d   1       2.481   1.838   2.969  0.00  0.00    -0.031 A 
ATOM      4  C4  IND d   1       2.486  -0.405   1.706  0.00  0.00     0.051 A 
ATOM      5  C5  IND d   1       2.281  -1.744   1.888  0.00  0.00    -0.031 A 
ATOM      6  C6  IND d   1       1.882  -2.262   3.103  0.00  0.00     0.015 A 
ATOM      7  C7  IND d   1       1.661  -1.456   4.184  0.00  0.00    -0.016 A 
ATOM      8  C8  IND d   1       1.875  -0.096   4.005  0.00  0.00    -0.047 A 
ATOM      9  C9  IND d   1       2.321   0.431   2.785  0.00  0.00    -0.096 A 
ATOM     10  HN1 IND d   1       1.513   0.895   5.709  0.00  0.00     0.298 HD
ENDROOT
TORSDOF 0
ENDMDL
