MODEL 1
REMARK minimizedAffinity 11.9348259
REMARK minimizedRMSD -1
REMARK  0 active torsions:
REMARK  status: ('A' for Active; 'I' for Inactive)
ROOT
ATOM      1  N1  IND d   1      -2.998   1.899  -0.960  0.00  0.00    -0.196 N 
ATOM      2  C2  IND d   1      -3.418   2.481   0.203  0.00  0.00     0.054 A 
ATOM      3  C3  IND d   1      -4.570   3.159  -0.000  0.00  0.00    -0.031 A 
ATOM      4  C4  IND d   1      -5.994   3.361  -2.136  0.00  0.00     0.051 A 
ATOM      5  C5  IND d   1      -5.999   3.031  -3.462  0.00  0.00    -0.031 A 
ATOM      6  C6  IND d   1      -4.985   2.290  -4.033  0.00  0.00     0.015 A 
ATOM      7  C7  IND d   1      -3.929   1.839  -3.293  0.00  0.00    -0.016 A 
ATOM      8  C8  IND d   1      -3.917   2.178  -1.947  0.00  0.00    -0.047 A 
ATOM      9  C9  IND d   1      -4.922   2.966  -1.371  0.00  0.00    -0.096 A 
ATOM     10  HN1 IND d   1      -2.280   1.436  -1.058  0.00  0.00     0.298 HD
ENDROOT
TORSDOF 0
ENDMDL
