MODEL 1
REMARK minimizedAffinity 9.27659321
REMARK minimizedRMSD -1
REMARK  0 active torsions:
REMARK  status: ('A' for Active; 'I' for Inactive)
ROOT
ATOM      1  N1  IND d   1      -6.000   3.837  -3.644  0.00  0.00    -0.196 N 
ATOM      2  C2  IND d   1      -5.174   3.630  -4.714  0.00  0.00     0.054 A 
ATOM      3  C3  IND d   1      -4.163   2.799  -4.374  0.00  0.00    -0.031 A 
ATOM      4  C4  IND d   1      -3.724   1.582  -2.148  0.00  0.00     0.051 A 
ATOM      5  C5  IND d   1      -4.184   1.486  -0.864  0.00  0.00    -0.031 A 
ATOM      6  C6  IND d   1      -5.296   2.180  -0.434  0.00  0.00     0.015 A 
ATOM      7  C7  IND d   1      -6.000   2.991  -1.278  0.00  0.00    -0.016 A 
ATOM      8  C8  IND d   1      -5.532   3.097  -2.580  0.00  0.00    -0.047 A 
ATOM      9  C9  IND d   1      -4.379   2.429  -3.011  0.00  0.00    -0.096 A 
ATOM     10  HN1 IND d   1      -6.694   4.344  -3.637  0.00  0.00     0.298 HD
ENDROOT
TORSDOF 0
ENDMDL
