MODEL 1
REMARK minimizedAffinity 4.65412235
REMARK minimizedRMSD -1
REMARK  0 active torsions:
REMARK  status: ('A' for Active; 'I' for Inactive)
ROOT
ATOM      1  N1  IND d   1       1.853  -1.093   4.096  0.00  0.00    -0.196 N 
ATOM      2  C2  IND d   1       1.643  -1.815   2.954  0.00  0.00     0.054 A 
ATOM      3  C3  IND d   1       1.910  -1.060   1.864  0.00  0.00    -0.031 A 
ATOM      4  C4  IND d   1       2.802   1.351   1.725  0.00  0.00     0.051 A 
ATOM      5  C5  IND d   1       3.113   2.431   2.502  0.00  0.00    -0.031 A 
ATOM      6  C6  IND d   1       3.020   2.390   3.878  0.00  0.00     0.015 A 
ATOM      7  C7  IND d   1       2.622   1.259   4.532  0.00  0.00    -0.016 A 
ATOM      8  C8  IND d   1       2.299   0.162   3.745  0.00  0.00    -0.047 A 
ATOM      9  C9  IND d   1       2.351   0.211   2.346  0.00  0.00    -0.096 A 
ATOM     10  HN1 IND d   1       1.727  -1.376   4.898  0.00  0.00     0.298 HD
ENDROOT
TORSDOF 0
ENDMDL
