MODEL 1
REMARK minimizedAffinity 3.89550638
REMARK minimizedRMSD -1
REMARK  0 active torsions:
REMARK  status: ('A' for Active; 'I' for Inactive)
ROOT
ATOM      1  N1  IND d   1       1.969   1.146   0.194  0.00  0.00    -0.196 N 
ATOM      2  C2  IND d   1       2.800   2.058   0.785  0.00  0.00     0.054 A 
ATOM      3  C3  IND d   1       3.245   1.588   1.972  0.00  0.00    -0.031 A 
ATOM      4  C4  IND d   1       2.821  -0.690   3.093  0.00  0.00     0.051 A 
ATOM      5  C5  IND d   1       2.099  -1.842   2.953  0.00  0.00    -0.031 A 
ATOM      6  C6  IND d   1       1.282  -2.062   1.863  0.00  0.00     0.015 A 
ATOM      7  C7  IND d   1       1.166  -1.139   0.862  0.00  0.00    -0.016 A 
ATOM      8  C8  IND d   1       1.892   0.034   1.004  0.00  0.00    -0.047 A 
ATOM      9  C9  IND d   1       2.690   0.282   2.129  0.00  0.00    -0.096 A 
ATOM     10  HN1 IND d   1       1.564   1.249  -0.557  0.00  0.00     0.298 HD
ENDROOT
TORSDOF 0
ENDMDL
