MODEL 1
REMARK minimizedAffinity 7.0955348
REMARK minimizedRMSD -1
REMARK  0 active torsions:
REMARK  status: ('A' for Active; 'I' for Inactive)
ROOT
ATOM      1  N1  IND d   1       1.894  -2.214   2.320  0.00  0.00    -0.196 N 
ATOM      2  C2  IND d   1       1.726  -0.886   2.596  0.00  0.00     0.054 A 
ATOM      3  C3  IND d   1       1.950  -0.646   3.908  0.00  0.00    -0.031 A 
ATOM      4  C4  IND d   1       2.703  -2.266   5.761  0.00  0.00     0.051 A 
ATOM      5  C5  IND d   1       2.952  -3.588   6.000  0.00  0.00    -0.031 A 
ATOM      6  C6  IND d   1       2.862  -4.539   5.004  0.00  0.00     0.015 A 
ATOM      7  C7  IND d   1       2.529  -4.199   3.723  0.00  0.00    -0.016 A 
ATOM      8  C8  IND d   1       2.269  -2.858   3.478  0.00  0.00    -0.047 A 
ATOM      9  C9  IND d   1       2.317  -1.895   4.494  0.00  0.00    -0.096 A 
ATOM     10  HN1 IND d   1       1.785  -2.584   1.551  0.00  0.00     0.298 HD
ENDROOT
TORSDOF 0
ENDMDL
