MODEL 1
REMARK minimizedAffinity 10.8439665
REMARK minimizedRMSD -1
REMARK  0 active torsions:
REMARK  status: ('A' for Active; 'I' for Inactive)
ROOT
ATOM      1  N1  IND d   1      -1.130  -2.076  -2.565  0.00  0.00    -0.196 N 
ATOM      2  C2  IND d   1      -0.299  -2.535  -1.582  0.00  0.00     0.054 A 
ATOM      3  C3  IND d   1      -1.004  -3.216  -0.650  0.00  0.00    -0.031 A 
ATOM      4  C4  IND d   1      -3.514  -3.786  -0.592  0.00  0.00     0.051 A 
ATOM      5  C5  IND d   1      -4.687  -3.553  -1.254  0.00  0.00    -0.031 A 
ATOM      6  C6  IND d   1      -4.735  -2.803  -2.411  0.00  0.00     0.015 A 
ATOM      7  C7  IND d   1      -3.605  -2.265  -2.958  0.00  0.00    -0.016 A 
ATOM      8  C8  IND d   1      -2.413  -2.494  -2.286  0.00  0.00    -0.047 A 
ATOM      9  C9  IND d   1      -2.364  -3.218  -1.088  0.00  0.00    -0.096 A 
ATOM     10  HN1 IND d   1      -0.891  -1.606  -3.244  0.00  0.00     0.298 HD
ENDROOT
TORSDOF 0
ENDMDL
