MODEL 1
REMARK minimizedAffinity 7.9543848
REMARK minimizedRMSD -1
REMARK  0 active torsions:
REMARK  status: ('A' for Active; 'I' for Inactive)
ROOT
ATOM      1  N1  IND d   1       0.556  -0.530   2.481  0.00  0.00    -0.196 N 
ATOM      2  C2  IND d   1       1.589  -1.416   2.606  0.00  0.00     0.054 A 
ATOM      3  C3  IND d   1       2.710  -0.915   2.040  0.00  0.00    -0.031 A 
ATOM      4  C4  IND d   1       3.102   1.380   0.943  0.00  0.00     0.051 A 
ATOM      5  C5  IND d   1       2.448   2.518   0.562  0.00  0.00    -0.031 A 
ATOM      6  C6  IND d   1       1.103   2.703   0.809  0.00  0.00     0.015 A 
ATOM      7  C7  IND d   1       0.362   1.757   1.458  0.00  0.00    -0.016 A 
ATOM      8  C8  IND d   1       1.021   0.598   1.841  0.00  0.00    -0.047 A 
ATOM      9  C9  IND d   1       2.376   0.386   1.555  0.00  0.00    -0.096 A 
ATOM     10  HN1 IND d   1      -0.249  -0.655   2.756  0.00  0.00     0.298 HD
ENDROOT
TORSDOF 0
ENDMDL
