MODEL 1
REMARK minimizedAffinity 5.04851389
REMARK minimizedRMSD -1
REMARK  0 active torsions:
REMARK  status: ('A' for Active; 'I' for Inactive)
ROOT
ATOM      1  N1  IND d   1       1.017   2.057   1.092  0.00  0.00    -0.196 N 
ATOM      2  C2  IND d   1       2.077   2.795   1.540  0.00  0.00     0.054 A 
ATOM      3  C3  IND d   1       2.877   2.041   2.327  0.00  0.00    -0.031 A 
ATOM      4  C4  IND d   1       2.692  -0.455   2.932  0.00  0.00     0.051 A 
ATOM      5  C5  IND d   1       1.873  -1.540   2.790  0.00  0.00    -0.031 A 
ATOM      6  C6  IND d   1       0.705  -1.481   2.058  0.00  0.00     0.015 A 
ATOM      7  C7  IND d   1       0.316  -0.332   1.428  0.00  0.00    -0.016 A 
ATOM      8  C8  IND d   1       1.141   0.773   1.576  0.00  0.00    -0.047 A 
ATOM      9  C9  IND d   1       2.306   0.731   2.353  0.00  0.00    -0.096 A 
ATOM     10  HN1 IND d   1       0.379   2.347   0.593  0.00  0.00     0.298 HD
ENDROOT
TORSDOF 0
ENDMDL
