MODEL 1
REMARK minimizedAffinity 2.93924952
REMARK minimizedRMSD -1
REMARK  0 active torsions:
REMARK  status: ('A' for Active; 'I' for Inactive)
ROOT
ATOM      1  C   UNL d   1       0.383  -5.999  -6.000  0.00  0.00     0.172 C 
ATOM      2  N   UNL d   1      -0.761  -5.134  -5.833  0.00  0.00    -0.070 N 
ATOM      3  C1  UNL d   1      -0.715  -3.781  -5.628  0.00  0.00    -0.004 A 
ATOM      4  C2  UNL d   1      -2.011  -3.326  -5.519  0.00  0.00    -0.047 A 
ATOM      5  C3  UNL d   1      -2.866  -4.445  -5.663  0.00  0.00    -0.047 A 
ATOM      6  C4  UNL d   1      -2.065  -5.551  -5.855  0.00  0.00    -0.004 A 
ENDROOT
TORSDOF 0
ENDMDL
