MODEL 1
REMARK minimizedAffinity 8.33888817
REMARK minimizedRMSD -1
REMARK  0 active torsions:
REMARK  status: ('A' for Active; 'I' for Inactive)
ROOT
ATOM      1  C   UNL d   1      -1.762  -3.592  -5.319  0.00  0.00     0.172 C 
ATOM      2  N   UNL d   1      -1.077  -2.558  -4.579  0.00  0.00    -0.070 N 
ATOM      3  C1  UNL d   1      -0.303  -1.568  -5.123  0.00  0.00    -0.004 A 
ATOM      4  C2  UNL d   1       0.169  -0.787  -4.090  0.00  0.00    -0.047 A 
ATOM      5  C3  UNL d   1      -0.337  -1.328  -2.884  0.00  0.00    -0.047 A 
ATOM      6  C4  UNL d   1      -1.106  -2.424  -3.216  0.00  0.00    -0.004 A 
ENDROOT
TORSDOF 0
ENDMDL
