MODEL 1
REMARK minimizedAffinity 6.38997316
REMARK minimizedRMSD -1
REMARK  0 active torsions:
REMARK  status: ('A' for Active; 'I' for Inactive)
ROOT
ATOM      1  C   UNL d   1       5.087  -3.491   5.046  0.00  0.00     0.172 C 
ATOM      2  N   UNL d   1       3.726  -3.187   4.669  0.00  0.00    -0.070 N 
ATOM      3  C1  UNL d   1       3.330  -2.655   3.471  0.00  0.00    -0.004 A 
ATOM      4  C2  UNL d   1       1.959  -2.518   3.504  0.00  0.00    -0.047 A 
ATOM      5  C3  UNL d   1       1.516  -2.983   4.765  0.00  0.00    -0.047 A 
ATOM      6  C4  UNL d   1       2.631  -3.392   5.466  0.00  0.00    -0.004 A 
ENDROOT
TORSDOF 0
ENDMDL
