MODEL 1
REMARK minimizedAffinity 12.3794689
REMARK minimizedRMSD -1
REMARK  0 active torsions:
REMARK  status: ('A' for Active; 'I' for Inactive)
ROOT
ATOM      1  C   UNL d   1       2.768   0.085   4.019  0.00  0.00     0.172 C 
ATOM      2  N   UNL d   1       1.640  -0.294   3.201  0.00  0.00    -0.070 N 
ATOM      3  C1  UNL d   1       1.419  -1.538   2.672  0.00  0.00    -0.004 A 
ATOM      4  C2  UNL d   1       0.241  -1.491   1.958  0.00  0.00    -0.047 A 
ATOM      5  C3  UNL d   1      -0.263  -0.172   2.060  0.00  0.00    -0.047 A 
ATOM      6  C4  UNL d   1       0.623   0.547   2.835  0.00  0.00    -0.004 A 
ENDROOT
TORSDOF 0
ENDMDL
