MODEL 1
REMARK minimizedAffinity 2.69097233
REMARK minimizedRMSD -1
REMARK  0 active torsions:
REMARK  status: ('A' for Active; 'I' for Inactive)
ROOT
ATOM      1  C   UNL d   1      -0.107  -1.264  -4.457  0.00  0.00     0.172 C 
ATOM      2  N   UNL d   1      -0.773  -2.511  -4.752  0.00  0.00    -0.070 N 
ATOM      3  C1  UNL d   1      -0.943  -3.050  -5.999  0.00  0.00    -0.004 A 
ATOM      4  C2  UNL d   1      -1.623  -4.240  -5.856  0.00  0.00    -0.047 A 
ATOM      5  C3  UNL d   1      -1.871  -4.423  -4.474  0.00  0.00    -0.047 A 
ATOM      6  C4  UNL d   1      -1.334  -3.337  -3.814  0.00  0.00    -0.004 A 
ENDROOT
TORSDOF 0
ENDMDL
