MODEL 1
REMARK minimizedAffinity 2.54211092
REMARK minimizedRMSD -1
REMARK  0 active torsions:
REMARK  status: ('A' for Active; 'I' for Inactive)
ROOT
ATOM      1  C   UNL d   1       2.690  -0.457  -3.468  0.00  0.00     0.172 C 
ATOM      2  N   UNL d   1       1.310  -0.842  -3.285  0.00  0.00    -0.070 N 
ATOM      3  C1  UNL d   1       0.802  -1.497  -2.195  0.00  0.00    -0.004 A 
ATOM      4  C2  UNL d   1      -0.548  -1.678  -2.404  0.00  0.00    -0.047 A 
ATOM      5  C3  UNL d   1      -0.862  -1.113  -3.662  0.00  0.00    -0.047 A 
ATOM      6  C4  UNL d   1       0.307  -0.602  -4.186  0.00  0.00    -0.004 A 
ENDROOT
TORSDOF 0
ENDMDL
