MODEL 1
REMARK minimizedAffinity 9.65959072
REMARK minimizedRMSD -1
REMARK  0 active torsions:
REMARK  status: ('A' for Active; 'I' for Inactive)
ROOT
ATOM      1  C   UNL d   1      -0.995  -3.084  -5.854  0.00  0.00     0.172 C 
ATOM      2  N   UNL d   1      -0.155  -2.135  -5.163  0.00  0.00    -0.070 N 
ATOM      3  C1  UNL d   1       1.194  -2.260  -4.962  0.00  0.00    -0.004 A 
ATOM      4  C2  UNL d   1       1.623  -1.150  -4.267  0.00  0.00    -0.047 A 
ATOM      5  C3  UNL d   1       0.492  -0.329  -4.042  0.00  0.00    -0.047 A 
ATOM      6  C4  UNL d   1      -0.594  -0.963  -4.607  0.00  0.00    -0.004 A 
ENDROOT
TORSDOF 0
ENDMDL
