MODEL 1
REMARK minimizedAffinity 7.69239378
REMARK minimizedRMSD -1
REMARK  0 active torsions:
REMARK  status: ('A' for Active; 'I' for Inactive)
ROOT
ATOM      1  C   UNL d   1      -2.721   2.619   1.813  0.00  0.00     0.023 A 
ATOM      2  C1  UNL d   1      -1.789   2.517   0.781  0.00  0.00     0.003 A 
ATOM      3  C2  UNL d   1      -0.429   2.686   1.047  0.00  0.00     0.048 A 
ATOM      4  C3  UNL d   1      -0.008   2.955   2.349  0.00  0.00     0.023 A 
ATOM      5  C4  UNL d   1      -0.937   3.056   3.386  0.00  0.00     0.048 A 
ATOM      6  C5  UNL d   1      -2.296   2.888   3.114  0.00  0.00     0.003 A 
ATOM      7  I   UNL d   1       2.017   3.205   2.749  0.00  0.00    -0.146 I 
ENDROOT
TORSDOF 0
ENDMDL
