MODEL 1
REMARK minimizedAffinity 1.29310405
REMARK minimizedRMSD -1
REMARK  0 active torsions:
REMARK  status: ('A' for Active; 'I' for Inactive)
ROOT
ATOM      1  C   UNL d   1       2.913   3.100   2.328  0.00  0.00     0.023 A 
ATOM      2  C1  UNL d   1       1.665   3.705   2.476  0.00  0.00     0.003 A 
ATOM      3  C2  UNL d   1       0.525   3.096   1.947  0.00  0.00     0.048 A 
ATOM      4  C3  UNL d   1       0.640   1.881   1.273  0.00  0.00     0.023 A 
ATOM      5  C4  UNL d   1       1.887   1.271   1.123  0.00  0.00     0.048 A 
ATOM      6  C5  UNL d   1       3.024   1.884   1.653  0.00  0.00     0.003 A 
ATOM      7  I   UNL d   1      -1.055   0.973   0.485  0.00  0.00    -0.146 I 
ENDROOT
TORSDOF 0
ENDMDL
