MODEL 1
REMARK minimizedAffinity 4.12559223
REMARK minimizedRMSD -1
REMARK  0 active torsions:
REMARK  status: ('A' for Active; 'I' for Inactive)
ROOT
ATOM      1  C   UNL d   1      -2.660   1.195   1.297  0.00  0.00     0.023 A 
ATOM      2  C1  UNL d   1      -2.222  -0.125   1.198  0.00  0.00     0.003 A 
ATOM      3  C2  UNL d   1      -0.910  -0.400   0.808  0.00  0.00     0.048 A 
ATOM      4  C3  UNL d   1      -0.040   0.651   0.521  0.00  0.00     0.023 A 
ATOM      5  C4  UNL d   1      -0.473   1.975   0.620  0.00  0.00     0.048 A 
ATOM      6  C5  UNL d   1      -1.787   2.244   1.009  0.00  0.00     0.003 A 
ATOM      7  I   UNL d   1       1.915   0.246  -0.058  0.00  0.00    -0.146 I 
ENDROOT
TORSDOF 0
ENDMDL
