MODEL 1
REMARK minimizedAffinity 2.0240829
REMARK minimizedRMSD -1
REMARK  0 active torsions:
REMARK  status: ('A' for Active; 'I' for Inactive)
ROOT
ATOM      1  C   UNL d   1      -0.846   1.020   0.107  0.00  0.00     0.023 A 
ATOM      2  C1  UNL d   1      -1.050   2.247   0.738  0.00  0.00     0.003 A 
ATOM      3  C2  UNL d   1       0.016   2.899   1.361  0.00  0.00     0.048 A 
ATOM      4  C3  UNL d   1       1.284   2.319   1.349  0.00  0.00     0.023 A 
ATOM      5  C4  UNL d   1       1.493   1.092   0.718  0.00  0.00     0.048 A 
ATOM      6  C5  UNL d   1       0.424   0.443   0.097  0.00  0.00     0.003 A 
ATOM      7  I   UNL d   1       2.872   3.288   2.276  0.00  0.00    -0.146 I 
ENDROOT
TORSDOF 0
ENDMDL
