MODEL 1
REMARK minimizedAffinity 3.65991521
REMARK minimizedRMSD -1
REMARK  0 active torsions:
REMARK  status: ('A' for Active; 'I' for Inactive)
ROOT
ATOM      1  C   UNL d   1      -2.634   1.105   0.886  0.00  0.00     0.023 A 
ATOM      2  C1  UNL d   1      -2.220  -0.227   0.896  0.00  0.00     0.003 A 
ATOM      3  C2  UNL d   1      -0.880  -0.544   0.665  0.00  0.00     0.048 A 
ATOM      4  C3  UNL d   1       0.041   0.475   0.426  0.00  0.00     0.023 A 
ATOM      5  C4  UNL d   1      -0.369   1.810   0.416  0.00  0.00     0.048 A 
ATOM      6  C5  UNL d   1      -1.710   2.122   0.646  0.00  0.00     0.003 A 
ATOM      7  I   UNL d   1       2.036   0.005   0.083  0.00  0.00    -0.146 I 
ENDROOT
TORSDOF 0
ENDMDL
