MODEL 1
REMARK minimizedAffinity 5.39166307
REMARK minimizedRMSD -1
REMARK  0 active torsions:
REMARK  status: ('A' for Active; 'I' for Inactive)
ROOT
ATOM      1  C   UNL d   1      -2.383   2.267   1.143  0.00  0.00     0.023 A 
ATOM      2  C1  UNL d   1      -2.339   1.042   0.478  0.00  0.00     0.003 A 
ATOM      3  C2  UNL d   1      -1.123   0.549   0.001  0.00  0.00     0.048 A 
ATOM      4  C3  UNL d   1       0.045   1.286   0.193  0.00  0.00     0.023 A 
ATOM      5  C4  UNL d   1       0.006   2.512   0.858  0.00  0.00     0.048 A 
ATOM      6  C5  UNL d   1      -1.213   3.002   1.333  0.00  0.00     0.003 A 
ATOM      7  I   UNL d   1       1.857   0.554  -0.517  0.00  0.00    -0.146 I 
ENDROOT
TORSDOF 0
ENDMDL
