MODEL 1
REMARK minimizedAffinity -1.24567616
REMARK minimizedRMSD -1
REMARK  0 active torsions:
REMARK  status: ('A' for Active; 'I' for Inactive)
ROOT
ATOM      1  C   UNL d   1      -2.310   2.595   1.960  0.00  0.00     0.023 A 
ATOM      2  C1  UNL d   1      -1.922   2.864   3.273  0.00  0.00     0.003 A 
ATOM      3  C2  UNL d   1      -0.574   3.071   3.575  0.00  0.00     0.048 A 
ATOM      4  C3  UNL d   1       0.380   3.009   2.560  0.00  0.00     0.023 A 
ATOM      5  C4  UNL d   1      -0.004   2.742   1.245  0.00  0.00     0.048 A 
ATOM      6  C5  UNL d   1      -1.352   2.534   0.948  0.00  0.00     0.003 A 
ATOM      7  I   UNL d   1       2.386   3.318   3.008  0.00  0.00    -0.146 I 
ENDROOT
TORSDOF 0
ENDMDL
