MODEL 1
REMARK minimizedAffinity 4.78819847
REMARK minimizedRMSD -1
REMARK  0 active torsions:
REMARK  status: ('A' for Active; 'I' for Inactive)
ROOT
ATOM      1  C   UNL d   1      -2.439   1.344   1.492  0.00  0.00     0.023 A 
ATOM      2  C1  UNL d   1      -1.550   2.389   1.240  0.00  0.00     0.003 A 
ATOM      3  C2  UNL d   1      -0.333   2.133   0.605  0.00  0.00     0.048 A 
ATOM      4  C3  UNL d   1      -0.011   0.831   0.224  0.00  0.00     0.023 A 
ATOM      5  C4  UNL d   1      -0.898  -0.217   0.474  0.00  0.00     0.048 A 
ATOM      6  C5  UNL d   1      -2.114   0.042   1.109  0.00  0.00     0.003 A 
ATOM      7  I   UNL d   1       1.800   0.449  -0.721  0.00  0.00    -0.146 I 
ENDROOT
TORSDOF 0
ENDMDL
