MODEL 1
REMARK minimizedAffinity 7.93795061
REMARK minimizedRMSD -1
REMARK  0 active torsions:
REMARK  status: ('A' for Active; 'I' for Inactive)
ROOT
ATOM      1  C   UNL d   1      -1.451  -4.735  -1.456  0.00  0.00     0.023 A 
ATOM      2  C1  UNL d   1      -1.070  -3.708  -2.320  0.00  0.00     0.003 A 
ATOM      3  C2  UNL d   1      -0.987  -2.395  -1.852  0.00  0.00     0.048 A 
ATOM      4  C3  UNL d   1      -1.286  -2.116  -0.519  0.00  0.00     0.023 A 
ATOM      5  C4  UNL d   1      -1.666  -3.140   0.349  0.00  0.00     0.048 A 
ATOM      6  C5  UNL d   1      -1.749  -4.451  -0.123  0.00  0.00     0.003 A 
ATOM      7  I   UNL d   1      -1.162  -0.162   0.179  0.00  0.00    -0.146 I 
ENDROOT
TORSDOF 0
ENDMDL
