MODEL 1
REMARK minimizedAffinity 7.8045826
REMARK minimizedRMSD -1
REMARK  0 active torsions:
REMARK  status: ('A' for Active; 'I' for Inactive)
ROOT
ATOM      1  C   UNL d   1      -1.439   1.828   0.977  0.00  0.00     0.023 A 
ATOM      2  C1  UNL d   1      -2.639   1.116   0.967  0.00  0.00     0.003 A 
ATOM      3  C2  UNL d   1      -2.658  -0.215   0.545  0.00  0.00     0.048 A 
ATOM      4  C3  UNL d   1      -1.475  -0.827   0.134  0.00  0.00     0.023 A 
ATOM      5  C4  UNL d   1      -0.273  -0.119   0.142  0.00  0.00     0.048 A 
ATOM      6  C5  UNL d   1      -0.258   1.212   0.564  0.00  0.00     0.003 A 
ATOM      7  I   UNL d   1      -1.502  -2.808  -0.495  0.00  0.00    -0.146 I 
ENDROOT
TORSDOF 0
ENDMDL
