MODEL 1
REMARK minimizedAffinity 8.55982208
REMARK minimizedRMSD -1
REMARK  0 active torsions:
REMARK  status: ('A' for Active; 'I' for Inactive)
ROOT
ATOM      1  C   UNL d   1       0.175   3.809   3.945  0.00  0.00     0.023 A 
ATOM      2  C1  UNL d   1       1.388   3.519   3.321  0.00  0.00     0.003 A 
ATOM      3  C2  UNL d   1       1.405   2.797   2.126  0.00  0.00     0.048 A 
ATOM      4  C3  UNL d   1       0.205   2.368   1.560  0.00  0.00     0.023 A 
ATOM      5  C4  UNL d   1      -1.012   2.657   2.180  0.00  0.00     0.048 A 
ATOM      6  C5  UNL d   1      -1.023   3.379   3.375  0.00  0.00     0.003 A 
ATOM      7  I   UNL d   1       0.228   1.293  -0.219  0.00  0.00    -0.146 I 
ENDROOT
TORSDOF 0
ENDMDL
