MODEL 1
REMARK minimizedAffinity 5.81310654
REMARK minimizedRMSD -1
REMARK  0 active torsions:
REMARK  status: ('A' for Active; 'I' for Inactive)
ROOT
ATOM      1  C   UNL d   1      -0.046   3.769   2.865  0.00  0.00     0.023 A 
ATOM      2  C1  UNL d   1      -1.377   3.357   2.942  0.00  0.00     0.003 A 
ATOM      3  C2  UNL d   1      -1.946   2.631   1.893  0.00  0.00     0.048 A 
ATOM      4  C3  UNL d   1      -1.178   2.319   0.772  0.00  0.00     0.023 A 
ATOM      5  C4  UNL d   1       0.154   2.728   0.692  0.00  0.00     0.048 A 
ATOM      6  C5  UNL d   1       0.718   3.455   1.742  0.00  0.00     0.003 A 
ATOM      7  I   UNL d   1      -2.022   1.238  -0.789  0.00  0.00    -0.146 I 
ENDROOT
TORSDOF 0
ENDMDL
