MODEL 1
REMARK minimizedAffinity 1.46692348
REMARK minimizedRMSD -1
REMARK  0 active torsions:
REMARK  status: ('A' for Active; 'I' for Inactive)
ROOT
ATOM      1  C   UNL d   1      -3.541   0.485   0.844  0.00  0.00     0.023 A 
ATOM      2  C1  UNL d   1      -2.979   1.641   0.301  0.00  0.00     0.003 A 
ATOM      3  C2  UNL d   1      -1.591   1.792   0.263  0.00  0.00     0.048 A 
ATOM      4  C3  UNL d   1      -0.771   0.784   0.770  0.00  0.00     0.023 A 
ATOM      5  C4  UNL d   1      -1.330  -0.374   1.314  0.00  0.00     0.048 A 
ATOM      6  C5  UNL d   1      -2.717  -0.521   1.350  0.00  0.00     0.003 A 
ATOM      7  I   UNL d   1       1.294   1.008   0.715  0.00  0.00    -0.146 I 
ENDROOT
TORSDOF 0
ENDMDL
