MODEL 1
REMARK minimizedAffinity 4.71111965
REMARK minimizedRMSD -1
REMARK  0 active torsions:
REMARK  status: ('A' for Active; 'I' for Inactive)
ROOT
ATOM      1  C   UNL d   1      -1.134  -3.127  -2.236  0.00  0.00     0.023 A 
ATOM      2  C1  UNL d   1      -1.854  -2.522  -1.206  0.00  0.00     0.003 A 
ATOM      3  C2  UNL d   1      -2.764  -3.270  -0.456  0.00  0.00     0.048 A 
ATOM      4  C3  UNL d   1      -2.949  -4.622  -0.740  0.00  0.00     0.023 A 
ATOM      5  C4  UNL d   1      -2.229  -5.232  -1.769  0.00  0.00     0.048 A 
ATOM      6  C5  UNL d   1      -1.321  -4.481  -2.517  0.00  0.00     0.003 A 
ATOM      7  I   UNL d   1      -4.303  -5.737   0.375  0.00  0.00    -0.146 I 
ENDROOT
TORSDOF 0
ENDMDL
