MODEL 1
REMARK minimizedAffinity 3.06815052
REMARK minimizedRMSD -1
REMARK  0 active torsions:
REMARK  status: ('A' for Active; 'I' for Inactive)
ROOT
ATOM      1  C   UNL d   1       3.195   0.084  -1.456  0.00  0.00     0.023 A 
ATOM      2  C1  UNL d   1       2.238   0.685  -2.274  0.00  0.00     0.003 A 
ATOM      3  C2  UNL d   1       0.962   0.958  -1.775  0.00  0.00     0.048 A 
ATOM      4  C3  UNL d   1       0.651   0.628  -0.456  0.00  0.00     0.023 A 
ATOM      5  C4  UNL d   1       1.606   0.027   0.366  0.00  0.00     0.048 A 
ATOM      6  C5  UNL d   1       2.879  -0.244  -0.138  0.00  0.00     0.003 A 
ATOM      7  I   UNL d   1      -1.246   1.032   0.290  0.00  0.00    -0.146 I 
ENDROOT
TORSDOF 0
ENDMDL
