MODEL 1
REMARK minimizedAffinity -4.29866362
REMARK minimizedRMSD -1
REMARK  1 active torsions:
REMARK  status: ('A' for Active; 'I' for Inactive)
REMARK    1  A    between atoms: C1_2  and  C2_3 
ROOT
ATOM      1  C2  UNL d   1       0.588  -0.338   1.461  0.00  0.00    -0.076 A 
ATOM      2  C3  UNL d   1       1.084  -0.542   2.760  0.00  0.00     0.004 A 
ATOM      3  C4  UNL d   1       0.318  -0.220   3.879  0.00  0.00    -0.003 A 
ATOM      4  C5  UNL d   1      -0.957   0.311   3.716  0.00  0.00     0.000 A 
ATOM      5  C6  UNL d   1      -1.472   0.503   2.435  0.00  0.00     0.000 A 
ATOM      6  C7  UNL d   1      -0.719   0.168   1.296  0.00  0.00    -0.073 A 
ATOM      7  C8  UNL d   1      -1.320   0.402  -0.062  0.00  0.00     0.078 C 
ENDROOT
BRANCH   1   8
ATOM      8  C1  UNL d   1       1.476  -0.681   0.285  0.00  0.00     0.053 C 
ATOM      9  C   UNL d   1       2.844  -0.023   0.377  0.00  0.00     0.018 C 
ENDBRANCH   1   8
TORSDOF 1
ENDMDL
