MODEL 1
REMARK minimizedAffinity 0.0707601085
REMARK minimizedRMSD -1
REMARK  1 active torsions:
REMARK  status: ('A' for Active; 'I' for Inactive)
REMARK    1  A    between atoms: C1_2  and  C2_3 
ROOT
ATOM      1  C2  UNL d   1       2.005   0.982   0.028  0.00  0.00    -0.076 A 
ATOM      2  C3  UNL d   1       1.454  -0.243  -0.390  0.00  0.00     0.004 A 
ATOM      3  C4  UNL d   1       0.191  -0.645   0.040  0.00  0.00    -0.003 A 
ATOM      4  C5  UNL d   1      -0.543   0.171   0.894  0.00  0.00     0.000 A 
ATOM      5  C6  UNL d   1      -0.020   1.397   1.304  0.00  0.00     0.000 A 
ATOM      6  C7  UNL d   1       1.245   1.825   0.867  0.00  0.00    -0.073 A 
ATOM      7  C8  UNL d   1       1.763   3.154   1.345  0.00  0.00     0.078 C 
ENDROOT
BRANCH   1   8
ATOM      8  C1  UNL d   1       3.391   1.353  -0.449  0.00  0.00     0.053 C 
ATOM      9  C   UNL d   1       4.338   0.163  -0.470  0.00  0.00     0.018 C 
ENDBRANCH   1   8
TORSDOF 1
ENDMDL
