MODEL 1
REMARK minimizedAffinity 4.3996253
REMARK minimizedRMSD -1
REMARK  1 active torsions:
REMARK  status: ('A' for Active; 'I' for Inactive)
REMARK    1  A    between atoms: C1_2  and  C2_3 
ROOT
ATOM      1  C2  UNL d   1      -0.414  -0.323   2.477  0.00  0.00    -0.076 A 
ATOM      2  C3  UNL d   1      -1.723   0.015   2.861  0.00  0.00     0.004 A 
ATOM      3  C4  UNL d   1      -2.733   0.165   1.912  0.00  0.00    -0.003 A 
ATOM      4  C5  UNL d   1      -2.450  -0.022   0.564  0.00  0.00     0.000 A 
ATOM      5  C6  UNL d   1      -1.161  -0.375   0.166  0.00  0.00     0.000 A 
ATOM      6  C7  UNL d   1      -0.135  -0.546   1.112  0.00  0.00    -0.073 A 
ATOM      7  C8  UNL d   1       1.238  -0.922   0.627  0.00  0.00     0.078 C 
ENDROOT
BRANCH   1   8
ATOM      8  C1  UNL d   1       0.646  -0.445   3.548  0.00  0.00     0.053 C 
ATOM      9  C   UNL d   1       0.392  -1.612   4.489  0.00  0.00     0.018 C 
ENDBRANCH   1   8
TORSDOF 1
ENDMDL
