MODEL 1
REMARK minimizedAffinity -1.29480457
REMARK minimizedRMSD -1
REMARK  1 active torsions:
REMARK  status: ('A' for Active; 'I' for Inactive)
REMARK    1  A    between atoms: C1_2  and  C2_3 
ROOT
ATOM      1  C2  UNL d   1      -0.283  -0.019   2.864  0.00  0.00    -0.076 A 
ATOM      2  C3  UNL d   1      -1.642  -0.353   3.000  0.00  0.00     0.004 A 
ATOM      3  C4  UNL d   1      -2.522  -0.225   1.927  0.00  0.00    -0.003 A 
ATOM      4  C5  UNL d   1      -2.058   0.240   0.701  0.00  0.00     0.000 A 
ATOM      5  C6  UNL d   1      -0.710   0.559   0.544  0.00  0.00     0.000 A 
ATOM      6  C7  UNL d   1       0.194   0.420   1.611  0.00  0.00    -0.073 A 
ATOM      7  C8  UNL d   1       1.636   0.785   1.387  0.00  0.00     0.078 C 
ENDROOT
BRANCH   1   8
ATOM      8  C1  UNL d   1       0.620  -0.153   4.070  0.00  0.00     0.053 C 
ATOM      9  C   UNL d   1       0.879  -1.604   4.445  0.00  0.00     0.018 C 
ENDBRANCH   1   8
TORSDOF 1
ENDMDL
