MODEL 1
REMARK minimizedAffinity 1.59266508
REMARK minimizedRMSD -1
REMARK  1 active torsions:
REMARK  status: ('A' for Active; 'I' for Inactive)
REMARK    1  A    between atoms: C1_2  and  C2_3 
ROOT
ATOM      1  C2  UNL d   1      -1.845  -0.154   0.912  0.00  0.00    -0.076 A 
ATOM      2  C3  UNL d   1      -0.486   0.072   1.191  0.00  0.00     0.004 A 
ATOM      3  C4  UNL d   1       0.500  -0.240   0.257  0.00  0.00    -0.003 A 
ATOM      4  C5  UNL d   1       0.143  -0.783  -0.972  0.00  0.00     0.000 A 
ATOM      5  C6  UNL d   1      -1.201  -0.998  -1.273  0.00  0.00     0.000 A 
ATOM      6  C7  UNL d   1      -2.209  -0.674  -0.349  0.00  0.00    -0.073 A 
ATOM      7  C8  UNL d   1      -3.643  -0.933  -0.724  0.00  0.00     0.078 C 
ENDROOT
BRANCH   1   8
ATOM      8  C1  UNL d   1      -2.869   0.178   1.974  0.00  0.00     0.053 C 
ATOM      9  C   UNL d   1      -3.272  -1.036   2.796  0.00  0.00     0.018 C 
ENDBRANCH   1   8
TORSDOF 1
ENDMDL
