MODEL 1
REMARK minimizedAffinity 0.24774316
REMARK minimizedRMSD -1
REMARK  1 active torsions:
REMARK  status: ('A' for Active; 'I' for Inactive)
REMARK    1  A    between atoms: C1_2  and  C2_3 
ROOT
ATOM      1  C2  UNL d   1      -0.499  -0.275   1.174  0.00  0.00    -0.076 A 
ATOM      2  C3  UNL d   1       0.002  -0.826   2.367  0.00  0.00     0.004 A 
ATOM      3  C4  UNL d   1      -0.721  -0.740   3.556  0.00  0.00    -0.003 A 
ATOM      4  C5  UNL d   1      -1.956  -0.103   3.571  0.00  0.00     0.000 A 
ATOM      5  C6  UNL d   1      -2.476   0.434   2.393  0.00  0.00     0.000 A 
ATOM      6  C7  UNL d   1      -1.768   0.341   1.183  0.00  0.00    -0.073 A 
ATOM      7  C8  UNL d   1      -2.374   0.943  -0.055  0.00  0.00     0.078 C 
ENDROOT
BRANCH   1   8
ATOM      8  C1  UNL d   1       0.342  -0.375  -0.078  0.00  0.00     0.053 C 
ATOM      9  C   UNL d   1       0.083  -1.658  -0.854  0.00  0.00     0.018 C 
ENDBRANCH   1   8
TORSDOF 1
ENDMDL
