MODEL 1
REMARK minimizedAffinity 1.30587769
REMARK minimizedRMSD -1
REMARK  1 active torsions:
REMARK  status: ('A' for Active; 'I' for Inactive)
REMARK    1  A    between atoms: C1_2  and  C2_3 
ROOT
ATOM      1  C2  UNL d   1      -0.643  -0.596   2.713  0.00  0.00    -0.076 A 
ATOM      2  C3  UNL d   1       0.343  -0.485   1.717  0.00  0.00     0.004 A 
ATOM      3  C4  UNL d   1      -0.001  -0.461   0.366  0.00  0.00    -0.003 A 
ATOM      4  C5  UNL d   1      -1.337  -0.547  -0.010  0.00  0.00     0.000 A 
ATOM      5  C6  UNL d   1      -2.330  -0.640   0.965  0.00  0.00     0.000 A 
ATOM      6  C7  UNL d   1      -2.001  -0.649   2.332  0.00  0.00    -0.073 A 
ATOM      7  C8  UNL d   1      -3.111  -0.758   3.341  0.00  0.00     0.078 C 
ENDROOT
BRANCH   1   8
ATOM      8  C1  UNL d   1      -0.208  -0.644   4.160  0.00  0.00     0.053 C 
ATOM      9  C   UNL d   1       0.319  -2.013   4.565  0.00  0.00     0.018 C 
ENDBRANCH   1   8
TORSDOF 1
ENDMDL
