MODEL 1
REMARK minimizedAffinity 0.11794512
REMARK minimizedRMSD -1
REMARK  1 active torsions:
REMARK  status: ('A' for Active; 'I' for Inactive)
REMARK    1  A    between atoms: C1_2  and  C2_3 
ROOT
ATOM      1  C2  UNL d   1      -0.730  -1.584   4.052  0.00  0.00    -0.076 A 
ATOM      2  C3  UNL d   1      -1.628  -2.239   4.913  0.00  0.00     0.004 A 
ATOM      3  C4  UNL d   1      -2.992  -2.283   4.629  0.00  0.00    -0.003 A 
ATOM      4  C5  UNL d   1      -3.480  -1.675   3.478  0.00  0.00     0.000 A 
ATOM      5  C6  UNL d   1      -2.602  -1.037   2.603  0.00  0.00     0.000 A 
ATOM      6  C7  UNL d   1      -1.222  -0.996   2.866  0.00  0.00    -0.073 A 
ATOM      7  C8  UNL d   1      -0.321  -0.289   1.891  0.00  0.00     0.078 C 
ENDROOT
BRANCH   1   8
ATOM      8  C1  UNL d   1       0.734  -1.544   4.426  0.00  0.00     0.053 C 
ATOM      9  C   UNL d   1       0.965  -1.809   5.906  0.00  0.00     0.018 C 
ENDBRANCH   1   8
TORSDOF 1
ENDMDL
