MODEL 1
REMARK minimizedAffinity -2.42766595
REMARK minimizedRMSD -1
REMARK  1 active torsions:
REMARK  status: ('A' for Active; 'I' for Inactive)
REMARK    1  A    between atoms: C1_2  and  C2_3 
ROOT
ATOM      1  C2  UNL d   1       0.195  -0.722   1.192  0.00  0.00    -0.076 A 
ATOM      2  C3  UNL d   1       0.650  -0.821   2.519  0.00  0.00     0.004 A 
ATOM      3  C4  UNL d   1      -0.200  -0.551   3.590  0.00  0.00    -0.003 A 
ATOM      4  C5  UNL d   1      -1.518  -0.178   3.353  0.00  0.00     0.000 A 
ATOM      5  C6  UNL d   1      -1.991  -0.092   2.044  0.00  0.00     0.000 A 
ATOM      6  C7  UNL d   1      -1.153  -0.377   0.953  0.00  0.00    -0.073 A 
ATOM      7  C8  UNL d   1      -1.714  -0.262  -0.438  0.00  0.00     0.078 C 
ENDROOT
BRANCH   1   8
ATOM      8  C1  UNL d   1       1.169  -1.000   0.070  0.00  0.00     0.053 C 
ATOM      9  C   UNL d   1       2.456  -0.201   0.204  0.00  0.00     0.018 C 
ENDBRANCH   1   8
TORSDOF 1
ENDMDL
