MODEL 1
REMARK minimizedAffinity -3.83919072
REMARK minimizedRMSD -1
REMARK  1 active torsions:
REMARK  status: ('A' for Active; 'I' for Inactive)
REMARK    1  A    between atoms: C1_2  and  C2_3 
ROOT
ATOM      1  C2  UNL d   1       2.019   1.213   0.314  0.00  0.00    -0.077 A 
ATOM      2  C3  UNL d   1       2.820   2.035  -0.491  0.00  0.00     0.002 A 
ATOM      3  C4  UNL d   1       3.794   2.854   0.085  0.00  0.00     0.002 A 
ATOM      4  C5  UNL d   1       3.977   2.856   1.466  0.00  0.00    -0.004 A 
ATOM      5  C6  UNL d   1       3.184   2.044   2.275  0.00  0.00     0.002 A 
ATOM      6  C7  UNL d   1       2.209   1.226   1.701  0.00  0.00     0.002 A 
ENDROOT
BRANCH   1   7
ATOM      7  C1  UNL d   1       1.002   0.293  -0.309  0.00  0.00     0.055 C 
ATOM      8  C   UNL d   1      -0.409   0.841  -0.155  0.00  0.00     0.019 C 
ENDBRANCH   1   7
TORSDOF 1
ENDMDL
