MODEL 1
REMARK minimizedAffinity -1.46733391
REMARK minimizedRMSD -1
REMARK  1 active torsions:
REMARK  status: ('A' for Active; 'I' for Inactive)
REMARK    1  A    between atoms: C1_2  and  C2_3 
ROOT
ATOM      1  C2  UNL d   1      -0.867  -0.501  -0.574  0.00  0.00    -0.077 A 
ATOM      2  C3  UNL d   1      -0.262  -1.108   0.536  0.00  0.00     0.002 A 
ATOM      3  C4  UNL d   1       0.956  -0.632   1.025  0.00  0.00     0.002 A 
ATOM      4  C5  UNL d   1       1.577   0.454   0.414  0.00  0.00    -0.004 A 
ATOM      5  C6  UNL d   1       0.985   1.064  -0.692  0.00  0.00     0.002 A 
ATOM      6  C7  UNL d   1      -0.232   0.589  -1.183  0.00  0.00     0.002 A 
ENDROOT
BRANCH   1   7
ATOM      7  C1  UNL d   1      -2.204  -0.981  -1.073  0.00  0.00     0.055 C 
ATOM      8  C   UNL d   1      -2.621  -2.273  -0.385  0.00  0.00     0.019 C 
ENDBRANCH   1   7
TORSDOF 1
ENDMDL
