MODEL 1
REMARK minimizedAffinity -3.92368579
REMARK minimizedRMSD -1
REMARK  1 active torsions:
REMARK  status: ('A' for Active; 'I' for Inactive)
REMARK    1  A    between atoms: C1_2  and  C2_3 
ROOT
ATOM      1  C2  UNL d   1      -0.217  -1.018   0.354  0.00  0.00    -0.077 A 
ATOM      2  C3  UNL d   1      -1.590  -1.124   0.092  0.00  0.00     0.002 A 
ATOM      3  C4  UNL d   1      -2.153  -0.462  -1.001  0.00  0.00     0.002 A 
ATOM      4  C5  UNL d   1      -1.351   0.306  -1.842  0.00  0.00    -0.004 A 
ATOM      5  C6  UNL d   1       0.016   0.420  -1.588  0.00  0.00     0.002 A 
ATOM      6  C7  UNL d   1       0.580  -0.240  -0.495  0.00  0.00     0.002 A 
ENDROOT
BRANCH   1   7
ATOM      7  C1  UNL d   1       0.400  -1.770   1.504  0.00  0.00     0.055 C 
ATOM      8  C   UNL d   1      -0.627  -2.642   2.211  0.00  0.00     0.019 C 
ENDBRANCH   1   7
TORSDOF 1
ENDMDL
