MODEL 1
REMARK minimizedAffinity -4.54743147
REMARK minimizedRMSD -1
REMARK  1 active torsions:
REMARK  status: ('A' for Active; 'I' for Inactive)
REMARK    1  A    between atoms: C1_2  and  C2_3 
ROOT
ATOM      1  C2  UNL d   1       3.671   3.643  -0.743  0.00  0.00    -0.077 A 
ATOM      2  C3  UNL d   1       3.714   2.246  -0.849  0.00  0.00     0.002 A 
ATOM      3  C4  UNL d   1       2.989   1.447   0.037  0.00  0.00     0.002 A 
ATOM      4  C5  UNL d   1       2.213   2.036   1.033  0.00  0.00    -0.004 A 
ATOM      5  C6  UNL d   1       2.165   3.424   1.149  0.00  0.00     0.002 A 
ATOM      6  C7  UNL d   1       2.890   4.224   0.264  0.00  0.00     0.002 A 
ENDROOT
BRANCH   1   7
ATOM      7  C1  UNL d   1       4.413   4.507  -1.728  0.00  0.00     0.055 C 
ATOM      8  C   UNL d   1       4.960   3.683  -2.885  0.00  0.00     0.019 C 
ENDBRANCH   1   7
TORSDOF 1
ENDMDL
