MODEL 1
REMARK minimizedAffinity -2.9777658
REMARK minimizedRMSD -1
REMARK  1 active torsions:
REMARK  status: ('A' for Active; 'I' for Inactive)
REMARK    1  A    between atoms: C1_2  and  C2_3 
ROOT
ATOM      1  C2  UNL d   1       0.006   0.119  -0.266  0.00  0.00    -0.077 A 
ATOM      2  C3  UNL d   1      -0.740  -1.066  -0.329  0.00  0.00     0.002 A 
ATOM      3  C4  UNL d   1      -1.769  -1.204  -1.263  0.00  0.00     0.002 A 
ATOM      4  C5  UNL d   1      -2.059  -0.163  -2.142  0.00  0.00    -0.004 A 
ATOM      5  C6  UNL d   1      -1.324   1.020  -2.086  0.00  0.00     0.002 A 
ATOM      6  C7  UNL d   1      -0.296   1.161  -1.153  0.00  0.00     0.002 A 
ENDROOT
BRANCH   1   7
ATOM      7  C1  UNL d   1       1.148   0.252   0.707  0.00  0.00     0.055 C 
ATOM      8  C   UNL d   1       1.889   1.567   0.515  0.00  0.00     0.019 C 
ENDBRANCH   1   7
TORSDOF 1
ENDMDL
