MODEL 1
REMARK minimizedAffinity -3.10653186
REMARK minimizedRMSD -1
REMARK  1 active torsions:
REMARK  status: ('A' for Active; 'I' for Inactive)
REMARK    1  A    between atoms: C1_2  and  C2_3 
ROOT
ATOM      1  C2  UNL d   1      -0.843  -0.477  -0.726  0.00  0.00    -0.077 A 
ATOM      2  C3  UNL d   1      -1.295  -1.367   0.258  0.00  0.00     0.002 A 
ATOM      3  C4  UNL d   1      -0.442  -1.780   1.283  0.00  0.00     0.002 A 
ATOM      4  C5  UNL d   1       0.866  -1.305   1.336  0.00  0.00    -0.004 A 
ATOM      5  C6  UNL d   1       1.327  -0.421   0.361  0.00  0.00     0.002 A 
ATOM      6  C7  UNL d   1       0.476  -0.008  -0.665  0.00  0.00     0.002 A 
ENDROOT
BRANCH   1   7
ATOM      7  C1  UNL d   1      -1.776   0.008  -1.805  0.00  0.00     0.055 C 
ATOM      8  C   UNL d   1      -1.067   0.948  -2.769  0.00  0.00     0.019 C 
ENDBRANCH   1   7
TORSDOF 1
ENDMDL
