MODEL 1
REMARK minimizedAffinity 2.95149183
REMARK minimizedRMSD -1
REMARK  1 active torsions:
REMARK  status: ('A' for Active; 'I' for Inactive)
REMARK    1  A    between atoms: C1_2  and  C2_3 
ROOT
ATOM      1  C2  UNL d   1      -2.175   0.191  -2.286  0.00  0.00    -0.077 A 
ATOM      2  C3  UNL d   1      -1.517  -0.858  -2.943  0.00  0.00     0.002 A 
ATOM      3  C4  UNL d   1      -1.480  -2.134  -2.377  0.00  0.00     0.002 A 
ATOM      4  C5  UNL d   1      -2.102  -2.373  -1.154  0.00  0.00    -0.004 A 
ATOM      5  C6  UNL d   1      -2.758  -1.336  -0.491  0.00  0.00     0.002 A 
ATOM      6  C7  UNL d   1      -2.795  -0.060  -1.055  0.00  0.00     0.002 A 
ENDROOT
BRANCH   1   7
ATOM      7  C1  UNL d   1      -2.258   1.555  -2.919  0.00  0.00     0.055 C 
ATOM      8  C   UNL d   1      -1.047   1.833  -3.796  0.00  0.00     0.019 C 
ENDBRANCH   1   7
TORSDOF 1
ENDMDL
