MODEL 1
REMARK minimizedAffinity -0.861307442
REMARK minimizedRMSD -1
REMARK  1 active torsions:
REMARK  status: ('A' for Active; 'I' for Inactive)
REMARK    1  A    between atoms: C1_2  and  C2_3 
ROOT
ATOM      1  C2  UNL d   1       1.944   1.122   0.305  0.00  0.00    -0.077 A 
ATOM      2  C3  UNL d   1       2.008   1.417   1.674  0.00  0.00     0.002 A 
ATOM      3  C4  UNL d   1       2.527   2.637   2.110  0.00  0.00     0.002 A 
ATOM      4  C5  UNL d   1       2.984   3.573   1.185  0.00  0.00    -0.004 A 
ATOM      5  C6  UNL d   1       2.927   3.288  -0.179  0.00  0.00     0.002 A 
ATOM      6  C7  UNL d   1       2.409   2.069  -0.617  0.00  0.00     0.002 A 
ENDROOT
BRANCH   1   7
ATOM      7  C1  UNL d   1       1.339  -0.173  -0.170  0.00  0.00     0.055 C 
ATOM      8  C   UNL d   1       0.189   0.075  -1.136  0.00  0.00     0.019 C 
ENDBRANCH   1   7
TORSDOF 1
ENDMDL
