MODEL 1
REMARK minimizedAffinity -3.95731759
REMARK minimizedRMSD -1
REMARK  1 active torsions:
REMARK  status: ('A' for Active; 'I' for Inactive)
REMARK    1  A    between atoms: C1_2  and  C2_3 
ROOT
ATOM      1  C2  UNL d   1       3.382   3.481   0.103  0.00  0.00    -0.077 A 
ATOM      2  C3  UNL d   1       2.778   3.850   1.313  0.00  0.00     0.002 A 
ATOM      3  C4  UNL d   1       2.293   2.875   2.187  0.00  0.00     0.002 A 
ATOM      4  C5  UNL d   1       2.410   1.526   1.862  0.00  0.00    -0.004 A 
ATOM      5  C6  UNL d   1       3.008   1.148   0.660  0.00  0.00     0.002 A 
ATOM      6  C7  UNL d   1       3.492   2.121  -0.215  0.00  0.00     0.002 A 
ENDROOT
BRANCH   1   7
ATOM      7  C1  UNL d   1       3.950   4.528  -0.818  0.00  0.00     0.055 C 
ATOM      8  C   UNL d   1       4.708   3.896  -1.976  0.00  0.00     0.019 C 
ENDBRANCH   1   7
TORSDOF 1
ENDMDL
