MODEL 1
REMARK minimizedAffinity -4.12317038
REMARK minimizedRMSD -1
REMARK  1 active torsions:
REMARK  status: ('A' for Active; 'I' for Inactive)
REMARK    1  A    between atoms: C1_2  and  C2_3 
ROOT
ATOM      1  C2  UNL d   1       0.337   0.305  -0.120  0.00  0.00    -0.077 A 
ATOM      2  C3  UNL d   1      -0.512  -0.652   0.452  0.00  0.00     0.002 A 
ATOM      3  C4  UNL d   1      -1.756  -0.925  -0.120  0.00  0.00     0.002 A 
ATOM      4  C5  UNL d   1      -2.160  -0.249  -1.269  0.00  0.00    -0.004 A 
ATOM      5  C6  UNL d   1      -1.323   0.706  -1.845  0.00  0.00     0.002 A 
ATOM      6  C7  UNL d   1      -0.080   0.981  -1.274  0.00  0.00     0.002 A 
ENDROOT
BRANCH   1   7
ATOM      7  C1  UNL d   1       1.700   0.566   0.467  0.00  0.00     0.055 C 
ATOM      8  C   UNL d   1       1.866   2.028   0.853  0.00  0.00     0.019 C 
ENDBRANCH   1   7
TORSDOF 1
ENDMDL
