MODEL 1
REMARK minimizedAffinity -3.55313182
REMARK minimizedRMSD -1
REMARK  1 active torsions:
REMARK  status: ('A' for Active; 'I' for Inactive)
REMARK    1  A    between atoms: C1_2  and  C2_3 
ROOT
ATOM      1  C2  UNL d   1       3.475   3.619  -0.519  0.00  0.00    -0.077 A 
ATOM      2  C3  UNL d   1       3.230   4.109   0.772  0.00  0.00     0.002 A 
ATOM      3  C4  UNL d   1       2.717   3.268   1.761  0.00  0.00     0.002 A 
ATOM      4  C5  UNL d   1       2.449   1.932   1.472  0.00  0.00    -0.004 A 
ATOM      5  C6  UNL d   1       2.687   1.435   0.191  0.00  0.00     0.002 A 
ATOM      6  C7  UNL d   1       3.198   2.275  -0.799  0.00  0.00     0.002 A 
ENDROOT
BRANCH   1   7
ATOM      7  C1  UNL d   1       4.074   4.512  -1.573  0.00  0.00     0.055 C 
ATOM      8  C   UNL d   1       4.833   3.704  -2.617  0.00  0.00     0.019 C 
ENDBRANCH   1   7
TORSDOF 1
ENDMDL
