MODEL 1
REMARK minimizedAffinity 3.99352407
REMARK minimizedRMSD -1
REMARK  3 active torsions:
REMARK  status: ('A' for Active; 'I' for Inactive)
REMARK    1  A    between atoms: C3'_2  and  C2'_3 
REMARK    2  A    between atoms: C2'_3  and  C1'_4 
REMARK    3  A    between atoms: C1'_4  and  C1_5 
ROOT
ATOM      1  C1  N4B d   1       3.648  -4.531  -4.920  0.00  0.00    -0.075 A 
ATOM      2  C2  N4B d   1       4.007  -5.288  -3.783  0.00  0.00     0.002 A 
ATOM      3  C3  N4B d   1       5.181  -5.999  -3.775  0.00  0.00     0.002 A 
ATOM      4  C4  N4B d   1       6.000  -5.984  -4.894  0.00  0.00    -0.004 A 
ATOM      5  C5  N4B d   1       5.658  -5.231  -5.979  0.00  0.00     0.002 A 
ATOM      6  C6  N4B d   1       4.483  -4.508  -6.000  0.00  0.00     0.002 A 
ENDROOT
BRANCH   1   7
ATOM      7  C1' N4B d   1       2.332  -3.806  -5.009  0.00  0.00     0.057 C 
BRANCH   7   8
ATOM      8  C2' N4B d   1       2.480  -2.423  -4.382  0.00  0.00     0.009 C 
BRANCH   8   9
ATOM      9  C3' N4B d   1       2.094  -2.422  -2.912  0.00  0.00     0.004 C 
ATOM     10  C4' N4B d   1       1.030  -3.428  -2.590  0.00  0.00     0.003 C 
ENDBRANCH   8   9
ENDBRANCH   7   8
ENDBRANCH   1   7
TORSDOF 3
ENDMDL
