MODEL 1
REMARK minimizedAffinity 3.08573413
REMARK minimizedRMSD -1
REMARK  3 active torsions:
REMARK  status: ('A' for Active; 'I' for Inactive)
REMARK    1  A    between atoms: C3'_2  and  C2'_3 
REMARK    2  A    between atoms: C2'_3  and  C1'_4 
REMARK    3  A    between atoms: C1'_4  and  C1_5 
ROOT
ATOM      1  C1  N4B d   1      -0.798   0.833   0.521  0.00  0.00    -0.075 A 
ATOM      2  C2  N4B d   1       0.517   0.422   0.831  0.00  0.00     0.002 A 
ATOM      3  C3  N4B d   1       1.371   0.038  -0.173  0.00  0.00     0.002 A 
ATOM      4  C4  N4B d   1       0.929   0.040  -1.488  0.00  0.00    -0.004 A 
ATOM      5  C5  N4B d   1      -0.335   0.463  -1.781  0.00  0.00     0.002 A 
ATOM      6  C6  N4B d   1      -1.203   0.855  -0.782  0.00  0.00     0.002 A 
ENDROOT
BRANCH   1   7
ATOM      7  C1' N4B d   1      -1.796   1.180   1.593  0.00  0.00     0.057 C 
BRANCH   7   8
ATOM      8  C2' N4B d   1      -2.388  -0.107   2.160  0.00  0.00     0.009 C 
BRANCH   8   9
ATOM      9  C3' N4B d   1      -3.854   0.056   2.526  0.00  0.00     0.004 C 
ATOM     10  C4' N4B d   1      -4.279  -0.854   3.640  0.00  0.00     0.003 C 
ENDBRANCH   8   9
ENDBRANCH   7   8
ENDBRANCH   1   7
TORSDOF 3
ENDMDL
