MODEL 1
REMARK minimizedAffinity -1.51754367
REMARK minimizedRMSD -1
REMARK  3 active torsions:
REMARK  status: ('A' for Active; 'I' for Inactive)
REMARK    1  A    between atoms: C3'_2  and  C2'_3 
REMARK    2  A    between atoms: C2'_3  and  C1'_4 
REMARK    3  A    between atoms: C1'_4  and  C1_5 
ROOT
ATOM      1  C1  N4B d   1       0.976   4.672  -5.976  0.00  0.00    -0.075 A 
ATOM      2  C2  N4B d   1       1.115   3.267  -6.000  0.00  0.00     0.002 A 
ATOM      3  C3  N4B d   1       0.004   2.465  -5.899  0.00  0.00     0.002 A 
ATOM      4  C4  N4B d   1      -1.248   3.043  -5.754  0.00  0.00    -0.004 A 
ATOM      5  C5  N4B d   1      -1.376   4.401  -5.758  0.00  0.00     0.002 A 
ATOM      6  C6  N4B d   1      -0.269   5.219  -5.863  0.00  0.00     0.002 A 
ENDROOT
BRANCH   1   7
ATOM      7  C1' N4B d   1       2.169   5.588  -5.998  0.00  0.00     0.057 C 
BRANCH   7   8
ATOM      8  C2' N4B d   1       3.444   4.751  -5.998  0.00  0.00     0.009 C 
BRANCH   8   9
ATOM      9  C3' N4B d   1       4.689   5.611  -5.869  0.00  0.00     0.004 C 
ATOM     10  C4' N4B d   1       5.943   4.801  -5.730  0.00  0.00     0.003 C 
ENDBRANCH   8   9
ENDBRANCH   7   8
ENDBRANCH   1   7
TORSDOF 3
ENDMDL
