MODEL 1
REMARK minimizedAffinity -0.651711524
REMARK minimizedRMSD -1
REMARK  3 active torsions:
REMARK  status: ('A' for Active; 'I' for Inactive)
REMARK    1  A    between atoms: C3'_2  and  C2'_3 
REMARK    2  A    between atoms: C2'_3  and  C1'_4 
REMARK    3  A    between atoms: C1'_4  and  C1_5 
ROOT
ATOM      1  C1  N4B d   1       3.433   3.941  -5.999  0.00  0.00    -0.075 A 
ATOM      2  C2  N4B d   1       3.482   5.353  -5.993  0.00  0.00     0.002 A 
ATOM      3  C3  N4B d   1       4.694   5.997  -5.944  0.00  0.00     0.002 A 
ATOM      4  C4  N4B d   1       5.864   5.255  -5.882  0.00  0.00    -0.004 A 
ATOM      5  C5  N4B d   1       5.809   3.892  -5.914  0.00  0.00     0.002 A 
ATOM      6  C6  N4B d   1       4.598   3.231  -5.967  0.00  0.00     0.002 A 
ENDROOT
BRANCH   1   7
ATOM      7  C1' N4B d   1       2.129   3.192  -5.966  0.00  0.00     0.057 C 
BRANCH   7   8
ATOM      8  C2' N4B d   1       0.976   4.191  -5.997  0.00  0.00     0.009 C 
BRANCH   8   9
ATOM      9  C3' N4B d   1      -0.195   3.733  -5.145  0.00  0.00     0.004 C 
ATOM     10  C4' N4B d   1      -1.446   3.522  -5.945  0.00  0.00     0.003 C 
ENDBRANCH   8   9
ENDBRANCH   7   8
ENDBRANCH   1   7
TORSDOF 3
ENDMDL
