MODEL 1
REMARK minimizedAffinity -2.62517858
REMARK minimizedRMSD -1
REMARK  3 active torsions:
REMARK  status: ('A' for Active; 'I' for Inactive)
REMARK    1  A    between atoms: C3'_2  and  C2'_3 
REMARK    2  A    between atoms: C2'_3  and  C1'_4 
REMARK    3  A    between atoms: C1'_4  and  C1_5 
ROOT
ATOM      1  C1  N4B d   1       0.484   3.742  -5.930  0.00  0.00    -0.075 A 
ATOM      2  C2  N4B d   1      -0.572   2.806  -5.865  0.00  0.00     0.002 A 
ATOM      3  C3  N4B d   1      -1.875   3.241  -5.853  0.00  0.00     0.002 A 
ATOM      4  C4  N4B d   1      -2.144   4.601  -5.886  0.00  0.00    -0.004 A 
ATOM      5  C5  N4B d   1      -1.120   5.497  -5.974  0.00  0.00     0.002 A 
ATOM      6  C6  N4B d   1       0.194   5.074  -5.991  0.00  0.00     0.002 A 
ENDROOT
BRANCH   1   7
ATOM      7  C1' N4B d   1       1.926   3.319  -5.859  0.00  0.00     0.057 C 
BRANCH   7   8
ATOM      8  C2' N4B d   1       2.816   4.550  -5.999  0.00  0.00     0.009 C 
BRANCH   8   9
ATOM      9  C3' N4B d   1       4.291   4.187  -5.997  0.00  0.00     0.004 C 
ATOM     10  C4' N4B d   1       5.181   5.373  -5.775  0.00  0.00     0.003 C 
ENDBRANCH   8   9
ENDBRANCH   7   8
ENDBRANCH   1   7
TORSDOF 3
ENDMDL
