MODEL 1
REMARK minimizedAffinity 5.82049465
REMARK minimizedRMSD -1
REMARK  3 active torsions:
REMARK  status: ('A' for Active; 'I' for Inactive)
REMARK    1  A    between atoms: C3'_2  and  C2'_3 
REMARK    2  A    between atoms: C2'_3  and  C1'_4 
REMARK    3  A    between atoms: C1'_4  and  C1_5 
ROOT
ATOM      1  C1  N4B d   1      -1.188   4.786  -5.624  0.00  0.00    -0.075 A 
ATOM      2  C2  N4B d   1      -2.115   5.798  -5.957  0.00  0.00     0.002 A 
ATOM      3  C3  N4B d   1      -3.451   5.618  -5.696  0.00  0.00     0.002 A 
ATOM      4  C4  N4B d   1      -3.885   4.432  -5.123  0.00  0.00    -0.004 A 
ATOM      5  C5  N4B d   1      -2.980   3.470  -4.781  0.00  0.00     0.002 A 
ATOM      6  C6  N4B d   1      -1.634   3.639  -5.033  0.00  0.00     0.002 A 
ENDROOT
BRANCH   1   7
ATOM      7  C1' N4B d   1       0.272   4.901  -5.968  0.00  0.00     0.057 C 
BRANCH   7   8
ATOM      8  C2' N4B d   1       1.064   3.902  -5.130  0.00  0.00     0.009 C 
BRANCH   8   9
ATOM      9  C3' N4B d   1       1.987   3.050  -5.983  0.00  0.00     0.004 C 
ATOM     10  C4' N4B d   1       3.399   3.556  -5.995  0.00  0.00     0.003 C 
ENDBRANCH   8   9
ENDBRANCH   7   8
ENDBRANCH   1   7
TORSDOF 3
ENDMDL
