MODEL 1
REMARK minimizedAffinity 3.36921287
REMARK minimizedRMSD -1
REMARK  3 active torsions:
REMARK  status: ('A' for Active; 'I' for Inactive)
REMARK    1  A    between atoms: C3'_2  and  C2'_3 
REMARK    2  A    between atoms: C2'_3  and  C1'_4 
REMARK    3  A    between atoms: C1'_4  and  C1_5 
ROOT
ATOM      1  C1  N4B d   1      -4.147  -4.274  -1.854  0.00  0.00    -0.075 A 
ATOM      2  C2  N4B d   1      -2.974  -4.619  -1.147  0.00  0.00     0.002 A 
ATOM      3  C3  N4B d   1      -3.062  -5.336   0.021  0.00  0.00     0.002 A 
ATOM      4  C4  N4B d   1      -4.308  -5.701   0.509  0.00  0.00    -0.004 A 
ATOM      5  C5  N4B d   1      -5.434  -5.386  -0.192  0.00  0.00     0.002 A 
ATOM      6  C6  N4B d   1      -5.361  -4.670  -1.370  0.00  0.00     0.002 A 
ENDROOT
BRANCH   1   7
ATOM      7  C1' N4B d   1      -4.107  -3.418  -3.090  0.00  0.00     0.057 C 
BRANCH   7   8
ATOM      8  C2' N4B d   1      -4.597  -2.015  -2.743  0.00  0.00     0.009 C 
BRANCH   8   9
ATOM      9  C3' N4B d   1      -3.450  -1.081  -2.399  0.00  0.00     0.004 C 
ATOM     10  C4' N4B d   1      -3.917   0.261  -1.921  0.00  0.00     0.003 C 
ENDBRANCH   8   9
ENDBRANCH   7   8
ENDBRANCH   1   7
TORSDOF 3
ENDMDL
