MODEL 1
REMARK minimizedAffinity 11.609808
REMARK minimizedRMSD -1
REMARK  3 active torsions:
REMARK  status: ('A' for Active; 'I' for Inactive)
REMARK    1  A    between atoms: C3'_2  and  C2'_3 
REMARK    2  A    between atoms: C2'_3  and  C1'_4 
REMARK    3  A    between atoms: C1'_4  and  C1_5 
ROOT
ATOM      1  C1  N4B d   1       1.564  -3.006  -1.842  0.00  0.00    -0.075 A 
ATOM      2  C2  N4B d   1       2.229  -2.696  -0.636  0.00  0.00     0.002 A 
ATOM      3  C3  N4B d   1       2.736  -1.435  -0.435  0.00  0.00     0.002 A 
ATOM      4  C4  N4B d   1       2.606  -0.478  -1.430  0.00  0.00    -0.004 A 
ATOM      5  C5  N4B d   1       1.939  -0.778  -2.582  0.00  0.00     0.002 A 
ATOM      6  C6  N4B d   1       1.422  -2.040  -2.795  0.00  0.00     0.002 A 
ENDROOT
BRANCH   1   7
ATOM      7  C1' N4B d   1       1.069  -4.395  -2.142  0.00  0.00     0.057 C 
BRANCH   7   8
ATOM      8  C2' N4B d   1       2.113  -5.129  -2.978  0.00  0.00     0.009 C 
BRANCH   8   9
ATOM      9  C3' N4B d   1       1.481  -5.912  -4.116  0.00  0.00     0.004 C 
ATOM     10  C4' N4B d   1       2.367  -6.000  -5.323  0.00  0.00     0.003 C 
ENDBRANCH   8   9
ENDBRANCH   7   8
ENDBRANCH   1   7
TORSDOF 3
ENDMDL
