MODEL 1
REMARK minimizedAffinity -0.127806723
REMARK minimizedRMSD -1
REMARK  3 active torsions:
REMARK  status: ('A' for Active; 'I' for Inactive)
REMARK    1  A    between atoms: C3'_2  and  C2'_3 
REMARK    2  A    between atoms: C2'_3  and  C1'_4 
REMARK    3  A    between atoms: C1'_4  and  C1_5 
ROOT
ATOM      1  C1  N4B d   1       0.540   4.531  -5.296  0.00  0.00    -0.075 A 
ATOM      2  C2  N4B d   1       0.300   4.046  -3.991  0.00  0.00     0.002 A 
ATOM      3  C3  N4B d   1      -0.880   4.345  -3.354  0.00  0.00     0.002 A 
ATOM      4  C4  N4B d   1      -1.822   5.139  -3.992  0.00  0.00    -0.004 A 
ATOM      5  C5  N4B d   1      -1.593   5.582  -5.262  0.00  0.00     0.002 A 
ATOM      6  C6  N4B d   1      -0.414   5.286  -5.916  0.00  0.00     0.002 A 
ENDROOT
BRANCH   1   7
ATOM      7  C1' N4B d   1       1.850   4.302  -6.000  0.00  0.00     0.057 C 
BRANCH   7   8
ATOM      8  C2' N4B d   1       2.164   2.809  -5.999  0.00  0.00     0.009 C 
BRANCH   8   9
ATOM      9  C3' N4B d   1       3.660   2.544  -5.977  0.00  0.00     0.004 C 
ATOM     10  C4' N4B d   1       4.474   3.803  -5.998  0.00  0.00     0.003 C 
ENDBRANCH   8   9
ENDBRANCH   7   8
ENDBRANCH   1   7
TORSDOF 3
ENDMDL
