MODEL 1
REMARK minimizedAffinity 7.78853416
REMARK minimizedRMSD -1
REMARK  3 active torsions:
REMARK  status: ('A' for Active; 'I' for Inactive)
REMARK    1  A    between atoms: C3'_2  and  C2'_3 
REMARK    2  A    between atoms: C2'_3  and  C1'_4 
REMARK    3  A    between atoms: C1'_4  and  C1_5 
ROOT
ATOM      1  C1  N4B d   1      -3.069  -1.898   2.969  0.00  0.00    -0.075 A 
ATOM      2  C2  N4B d   1      -4.357  -2.029   3.534  0.00  0.00     0.002 A 
ATOM      3  C3  N4B d   1      -5.339  -1.120   3.223  0.00  0.00     0.002 A 
ATOM      4  C4  N4B d   1      -5.052  -0.067   2.369  0.00  0.00    -0.004 A 
ATOM      5  C5  N4B d   1      -3.813   0.038   1.807  0.00  0.00     0.002 A 
ATOM      6  C6  N4B d   1      -2.818  -0.870   2.108  0.00  0.00     0.002 A 
ENDROOT
BRANCH   1   7
ATOM      7  C1' N4B d   1      -1.939  -2.817   3.346  0.00  0.00     0.057 C 
BRANCH   7   8
ATOM      8  C2' N4B d   1      -1.050  -3.044   2.127  0.00  0.00     0.009 C 
BRANCH   8   9
ATOM      9  C3' N4B d   1      -1.026  -4.503   1.705  0.00  0.00     0.004 C 
ATOM     10  C4' N4B d   1      -1.246  -4.685   0.232  0.00  0.00     0.003 C 
ENDBRANCH   8   9
ENDBRANCH   7   8
ENDBRANCH   1   7
TORSDOF 3
ENDMDL
