MODEL 1
REMARK minimizedAffinity 3.46470666
REMARK minimizedRMSD -1
REMARK  3 active torsions:
REMARK  status: ('A' for Active; 'I' for Inactive)
REMARK    1  A    between atoms: C3'_2  and  C2'_3 
REMARK    2  A    between atoms: C2'_3  and  C1'_4 
REMARK    3  A    between atoms: C1'_4  and  C1_5 
ROOT
ATOM      1  C1  N4B d   1       0.201   1.199   0.094  0.00  0.00    -0.075 A 
ATOM      2  C2  N4B d   1       0.845   0.192  -0.657  0.00  0.00     0.002 A 
ATOM      3  C3  N4B d   1       1.544   0.523  -1.792  0.00  0.00     0.002 A 
ATOM      4  C4  N4B d   1       1.596   1.846  -2.203  0.00  0.00    -0.004 A 
ATOM      5  C5  N4B d   1       0.993   2.816  -1.458  0.00  0.00     0.002 A 
ATOM      6  C6  N4B d   1       0.290   2.498  -0.313  0.00  0.00     0.002 A 
ENDROOT
BRANCH   1   7
ATOM      7  C1' N4B d   1      -0.647   0.875   1.294  0.00  0.00     0.057 C 
BRANCH   7   8
ATOM      8  C2' N4B d   1      -2.018   1.524   1.129  0.00  0.00     0.009 C 
BRANCH   8   9
ATOM      9  C3' N4B d   1      -2.997   1.061   2.194  0.00  0.00     0.004 C 
ATOM     10  C4' N4B d   1      -4.425   1.336   1.827  0.00  0.00     0.003 C 
ENDBRANCH   8   9
ENDBRANCH   7   8
ENDBRANCH   1   7
TORSDOF 3
ENDMDL
