MODEL 1
REMARK minimizedAffinity 2.18276978
REMARK minimizedRMSD -1
REMARK  3 active torsions:
REMARK  status: ('A' for Active; 'I' for Inactive)
REMARK    1  A    between atoms: C3'_2  and  C2'_3 
REMARK    2  A    between atoms: C2'_3  and  C1'_4 
REMARK    3  A    between atoms: C1'_4  and  C1_5 
ROOT
ATOM      1  C1  N4B d   1      -1.485  -0.688   1.681  0.00  0.00    -0.075 A 
ATOM      2  C2  N4B d   1      -1.347  -2.019   2.132  0.00  0.00     0.002 A 
ATOM      3  C3  N4B d   1      -2.389  -2.635   2.781  0.00  0.00     0.002 A 
ATOM      4  C4  N4B d   1      -3.566  -1.938   3.006  0.00  0.00    -0.004 A 
ATOM      5  C5  N4B d   1      -3.700  -0.661   2.545  0.00  0.00     0.002 A 
ATOM      6  C6  N4B d   1      -2.663  -0.030   1.888  0.00  0.00     0.002 A 
ENDROOT
BRANCH   1   7
ATOM      7  C1' N4B d   1      -0.345   0.057   1.043  0.00  0.00     0.057 C 
BRANCH   7   8
ATOM      8  C2' N4B d   1       0.017  -0.616  -0.278  0.00  0.00     0.009 C 
BRANCH   8   9
ATOM      9  C3' N4B d   1       0.732   0.334  -1.222  0.00  0.00     0.004 C 
ATOM     10  C4' N4B d   1       1.961  -0.271  -1.833  0.00  0.00     0.003 C 
ENDBRANCH   8   9
ENDBRANCH   7   8
ENDBRANCH   1   7
TORSDOF 3
ENDMDL
