MODEL 1
REMARK minimizedAffinity 5.92330742
REMARK minimizedRMSD -1
REMARK  3 active torsions:
REMARK  status: ('A' for Active; 'I' for Inactive)
REMARK    1  A    between atoms: C3'_2  and  C2'_3 
REMARK    2  A    between atoms: C2'_3  and  C1'_4 
REMARK    3  A    between atoms: C1'_4  and  C1_5 
ROOT
ATOM      1  C1  N4B d   1       1.714  -0.708  -2.347  0.00  0.00    -0.075 A 
ATOM      2  C2  N4B d   1       2.486  -1.590  -1.558  0.00  0.00     0.002 A 
ATOM      3  C3  N4B d   1       3.266  -2.546  -2.161  0.00  0.00     0.002 A 
ATOM      4  C4  N4B d   1       3.276  -2.651  -3.544  0.00  0.00    -0.004 A 
ATOM      5  C5  N4B d   1       2.548  -1.779  -4.299  0.00  0.00     0.002 A 
ATOM      6  C6  N4B d   1       1.763  -0.811  -3.707  0.00  0.00     0.002 A 
ENDROOT
BRANCH   1   7
ATOM      7  C1' N4B d   1       0.780   0.297  -1.731  0.00  0.00     0.057 C 
BRANCH   7   8
ATOM      8  C2' N4B d   1      -0.492  -0.414  -1.278  0.00  0.00     0.009 C 
BRANCH   8   9
ATOM      9  C3' N4B d   1      -0.956  -1.448  -2.288  0.00  0.00     0.004 C 
ATOM     10  C4' N4B d   1      -2.408  -1.312  -2.635  0.00  0.00     0.003 C 
ENDBRANCH   8   9
ENDBRANCH   7   8
ENDBRANCH   1   7
TORSDOF 3
ENDMDL
