MODEL 1
REMARK minimizedAffinity 0.501783907
REMARK minimizedRMSD -1
REMARK  1 active torsions:
REMARK  status: ('A' for Active; 'I' for Inactive)
REMARK    1  A    between atoms: C1_2  and  C2_3 
ROOT
ATOM      1  C2  UNL d   1      -0.562  -2.983   1.458  0.00  0.00    -0.076 A 
ATOM      2  C3  UNL d   1       0.498  -3.883   1.251  0.00  0.00     0.004 A 
ATOM      3  C4  UNL d   1       1.011  -4.106  -0.026  0.00  0.00    -0.003 A 
ATOM      4  C5  UNL d   1       0.472  -3.433  -1.116  0.00  0.00     0.000 A 
ATOM      5  C6  UNL d   1      -0.569  -2.524  -0.927  0.00  0.00     0.000 A 
ATOM      6  C7  UNL d   1      -1.086  -2.275   0.356  0.00  0.00    -0.073 A 
ATOM      7  C8  UNL d   1      -2.213  -1.289   0.501  0.00  0.00     0.078 C 
ENDROOT
BRANCH   1   8
ATOM      8  C1  UNL d   1      -1.094  -2.802   2.862  0.00  0.00     0.053 C 
ATOM      9  C   UNL d   1      -0.748  -1.441   3.445  0.00  0.00     0.018 C 
ENDBRANCH   1   8
TORSDOF 1
ENDMDL
