MODEL 1
REMARK minimizedAffinity -0.980951548
REMARK minimizedRMSD -1
REMARK  1 active torsions:
REMARK  status: ('A' for Active; 'I' for Inactive)
REMARK    1  A    between atoms: C1_2  and  C2_3 
ROOT
ATOM      1  C2  UNL d   1       0.019  -2.316  -1.074  0.00  0.00    -0.076 A 
ATOM      2  C3  UNL d   1       0.247  -3.602  -1.592  0.00  0.00     0.004 A 
ATOM      3  C4  UNL d   1       0.600  -3.785  -2.928  0.00  0.00    -0.003 A 
ATOM      4  C5  UNL d   1       0.732  -2.684  -3.767  0.00  0.00     0.000 A 
ATOM      5  C6  UNL d   1       0.528  -1.399  -3.265  0.00  0.00     0.000 A 
ATOM      6  C7  UNL d   1       0.187  -1.196  -1.917  0.00  0.00    -0.073 A 
ATOM      7  C8  UNL d   1      -0.027   0.211  -1.430  0.00  0.00     0.078 C 
ENDROOT
BRANCH   1   8
ATOM      8  C1  UNL d   1      -0.388  -2.181   0.376  0.00  0.00     0.053 C 
ATOM      9  C   UNL d   1      -1.858  -2.499   0.601  0.00  0.00     0.018 C 
ENDBRANCH   1   8
TORSDOF 1
ENDMDL
