MODEL 1
REMARK minimizedAffinity 0.674743712
REMARK minimizedRMSD -1
REMARK  1 active torsions:
REMARK  status: ('A' for Active; 'I' for Inactive)
REMARK    1  A    between atoms: C1_2  and  C2_3 
ROOT
ATOM      1  C2  UNL d   1      -0.513  -1.574  -0.400  0.00  0.00    -0.076 A 
ATOM      2  C3  UNL d   1      -0.316  -2.781   0.293  0.00  0.00     0.004 A 
ATOM      3  C4  UNL d   1      -0.676  -2.906   1.634  0.00  0.00    -0.003 A 
ATOM      4  C5  UNL d   1      -1.241  -1.826   2.303  0.00  0.00     0.000 A 
ATOM      5  C6  UNL d   1      -1.459  -0.626   1.626  0.00  0.00     0.000 A 
ATOM      6  C7  UNL d   1      -1.117  -0.489   0.270  0.00  0.00    -0.073 A 
ATOM      7  C8  UNL d   1      -1.369   0.829  -0.409  0.00  0.00     0.078 C 
ENDROOT
BRANCH   1   8
ATOM      8  C1  UNL d   1      -0.077  -1.490  -1.845  0.00  0.00     0.053 C 
ATOM      9  C   UNL d   1      -0.309  -2.789  -2.601  0.00  0.00     0.018 C 
ENDBRANCH   1   8
TORSDOF 1
ENDMDL
