MODEL 1
REMARK minimizedAffinity 5.82783127
REMARK minimizedRMSD -1
REMARK  1 active torsions:
REMARK  status: ('A' for Active; 'I' for Inactive)
REMARK    1  A    between atoms: C1_2  and  C2_3 
ROOT
ATOM      1  C2  UNL d   1       0.195  -1.705  -2.045  0.00  0.00    -0.076 A 
ATOM      2  C3  UNL d   1       0.483  -1.896  -3.407  0.00  0.00     0.004 A 
ATOM      3  C4  UNL d   1      -0.048  -2.977  -4.108  0.00  0.00    -0.003 A 
ATOM      4  C5  UNL d   1      -0.876  -3.885  -3.458  0.00  0.00     0.000 A 
ATOM      5  C6  UNL d   1      -1.186  -3.702  -2.111  0.00  0.00     0.000 A 
ATOM      6  C7  UNL d   1      -0.672  -2.608  -1.393  0.00  0.00    -0.073 A 
ATOM      7  C8  UNL d   1      -1.034  -2.462   0.059  0.00  0.00     0.078 C 
ENDROOT
BRANCH   1   8
ATOM      8  C1  UNL d   1       0.822  -0.529  -1.330  0.00  0.00     0.053 C 
ATOM      9  C   UNL d   1       0.417   0.805  -1.937  0.00  0.00     0.018 C 
ENDBRANCH   1   8
TORSDOF 1
ENDMDL
