MODEL 1
REMARK minimizedAffinity -3.29637933
REMARK minimizedRMSD -1
REMARK  1 active torsions:
REMARK  status: ('A' for Active; 'I' for Inactive)
REMARK    1  A    between atoms: C1_2  and  C2_3 
ROOT
ATOM      1  C2  UNL d   1      -0.004  -2.694   0.229  0.00  0.00    -0.076 A 
ATOM      2  C3  UNL d   1      -0.169  -1.335  -0.093  0.00  0.00     0.004 A 
ATOM      3  C4  UNL d   1       0.011  -0.881  -1.398  0.00  0.00    -0.003 A 
ATOM      4  C5  UNL d   1       0.357  -1.777  -2.403  0.00  0.00     0.000 A 
ATOM      5  C6  UNL d   1       0.508  -3.131  -2.105  0.00  0.00     0.000 A 
ATOM      6  C7  UNL d   1       0.314  -3.609  -0.797  0.00  0.00    -0.073 A 
ATOM      7  C8  UNL d   1       0.495  -5.078  -0.531  0.00  0.00     0.078 C 
ENDROOT
BRANCH   1   8
ATOM      8  C1  UNL d   1      -0.185  -3.124   1.667  0.00  0.00     0.053 C 
ATOM      9  C   UNL d   1      -0.959  -2.104   2.488  0.00  0.00     0.018 C 
ENDBRANCH   1   8
TORSDOF 1
ENDMDL
