MODEL 1
REMARK minimizedAffinity 10.1408453
REMARK minimizedRMSD -1
REMARK  1 active torsions:
REMARK  status: ('A' for Active; 'I' for Inactive)
REMARK    1  A    between atoms: C1_2  and  C2_3 
ROOT
ATOM      1  C2  UNL d   1      -0.855  -2.757   0.208  0.00  0.00    -0.076 A 
ATOM      2  C3  UNL d   1      -1.781  -1.709   0.067  0.00  0.00     0.004 A 
ATOM      3  C4  UNL d   1      -2.290  -1.047   1.183  0.00  0.00    -0.003 A 
ATOM      4  C5  UNL d   1      -1.881  -1.422   2.458  0.00  0.00     0.000 A 
ATOM      5  C6  UNL d   1      -0.950  -2.449   2.615  0.00  0.00     0.000 A 
ATOM      6  C7  UNL d   1      -0.415  -3.115   1.500  0.00  0.00    -0.073 A 
ATOM      7  C8  UNL d   1       0.582  -4.219   1.728  0.00  0.00     0.078 C 
ENDROOT
BRANCH   1   8
ATOM      8  C1  UNL d   1      -0.358  -3.456  -1.038  0.00  0.00     0.053 C 
ATOM      9  C   UNL d   1       0.507  -2.555  -1.905  0.00  0.00     0.018 C 
ENDBRANCH   1   8
TORSDOF 1
ENDMDL
