MODEL 1
REMARK minimizedAffinity 8.50532913
REMARK minimizedRMSD -1
REMARK  1 active torsions:
REMARK  status: ('A' for Active; 'I' for Inactive)
REMARK    1  A    between atoms: C1_2  and  C2_3 
ROOT
ATOM      1  C2  UNL d   1       1.869  -0.657  -2.086  0.00  0.00    -0.076 A 
ATOM      2  C3  UNL d   1       3.166  -1.153  -1.866  0.00  0.00     0.004 A 
ATOM      3  C4  UNL d   1       3.993  -0.593  -0.895  0.00  0.00    -0.003 A 
ATOM      4  C5  UNL d   1       3.538   0.473  -0.127  0.00  0.00     0.000 A 
ATOM      5  C6  UNL d   1       2.248   0.966  -0.319  0.00  0.00     0.000 A 
ATOM      6  C7  UNL d   1       1.394   0.402  -1.283  0.00  0.00    -0.073 A 
ATOM      7  C8  UNL d   1       0.015   0.978  -1.452  0.00  0.00     0.078 C 
ENDROOT
BRANCH   1   8
ATOM      8  C1  UNL d   1       1.027  -1.287  -3.172  0.00  0.00     0.053 C 
ATOM      9  C   UNL d   1       0.146  -2.411  -2.648  0.00  0.00     0.018 C 
ENDBRANCH   1   8
TORSDOF 1
ENDMDL
