MODEL 1
REMARK minimizedAffinity 9.17152023
REMARK minimizedRMSD -1
REMARK  1 active torsions:
REMARK  status: ('A' for Active; 'I' for Inactive)
REMARK    1  A    between atoms: C1_2  and  C2_3 
ROOT
ATOM      1  C2  UNL d   1       1.035  -1.337  -1.749  0.00  0.00    -0.076 A 
ATOM      2  C3  UNL d   1       1.217  -0.382  -0.734  0.00  0.00     0.004 A 
ATOM      3  C4  UNL d   1       2.181   0.617  -0.853  0.00  0.00    -0.003 A 
ATOM      4  C5  UNL d   1       2.978   0.679  -1.991  0.00  0.00     0.000 A 
ATOM      5  C6  UNL d   1       2.799  -0.249  -3.016  0.00  0.00     0.000 A 
ATOM      6  C7  UNL d   1       1.821  -1.253  -2.919  0.00  0.00    -0.073 A 
ATOM      7  C8  UNL d   1       1.675  -2.232  -4.052  0.00  0.00     0.078 C 
ENDROOT
BRANCH   1   8
ATOM      8  C1  UNL d   1      -0.008  -2.414  -1.552  0.00  0.00     0.053 C 
ATOM      9  C   UNL d   1      -0.008  -2.973  -0.137  0.00  0.00     0.018 C 
ENDBRANCH   1   8
TORSDOF 1
ENDMDL
