MODEL 1
REMARK minimizedAffinity 2.00851011
REMARK minimizedRMSD -1
REMARK  1 active torsions:
REMARK  status: ('A' for Active; 'I' for Inactive)
REMARK    1  A    between atoms: C1_2  and  C2_3 
ROOT
ATOM      1  C2  UNL d   1      -1.767  -2.847  -0.055  0.00  0.00    -0.076 A 
ATOM      2  C3  UNL d   1      -1.137  -3.859   0.690  0.00  0.00     0.004 A 
ATOM      3  C4  UNL d   1      -0.435  -3.560   1.856  0.00  0.00    -0.003 A 
ATOM      4  C5  UNL d   1      -0.351  -2.243   2.296  0.00  0.00     0.000 A 
ATOM      5  C6  UNL d   1      -0.984  -1.229   1.579  0.00  0.00     0.000 A 
ATOM      6  C7  UNL d   1      -1.710  -1.516   0.410  0.00  0.00    -0.073 A 
ATOM      7  C8  UNL d   1      -2.369  -0.382  -0.328  0.00  0.00     0.078 C 
ENDROOT
BRANCH   1   8
ATOM      8  C1  UNL d   1      -2.491  -3.228  -1.327  0.00  0.00     0.053 C 
ATOM      9  C   UNL d   1      -1.612  -4.018  -2.284  0.00  0.00     0.018 C 
ENDBRANCH   1   8
TORSDOF 1
ENDMDL
