MODEL 1
REMARK minimizedAffinity 9.8289032
REMARK minimizedRMSD -1
REMARK  1 active torsions:
REMARK  status: ('A' for Active; 'I' for Inactive)
REMARK    1  A    between atoms: C1_2  and  C2_3 
ROOT
ATOM      1  C2  UNL d   1       0.750  -0.876  -1.727  0.00  0.00    -0.076 A 
ATOM      2  C3  UNL d   1       0.167  -1.518  -0.621  0.00  0.00     0.004 A 
ATOM      3  C4  UNL d   1      -0.512  -2.726  -0.768  0.00  0.00    -0.003 A 
ATOM      4  C5  UNL d   1      -0.618  -3.312  -2.025  0.00  0.00     0.000 A 
ATOM      5  C6  UNL d   1      -0.031  -2.698  -3.130  0.00  0.00     0.000 A 
ATOM      6  C7  UNL d   1       0.671  -1.488  -2.996  0.00  0.00    -0.073 A 
ATOM      7  C8  UNL d   1       1.280  -0.867  -4.223  0.00  0.00     0.078 C 
ENDROOT
BRANCH   1   8
ATOM      8  C1  UNL d   1       1.450   0.447  -1.510  0.00  0.00     0.053 C 
ATOM      9  C   UNL d   1       2.722   0.305  -0.688  0.00  0.00     0.018 C 
ENDBRANCH   1   8
TORSDOF 1
ENDMDL
