MODEL 1
REMARK minimizedAffinity 18.1056614
REMARK minimizedRMSD -1
REMARK  1 active torsions:
REMARK  status: ('A' for Active; 'I' for Inactive)
REMARK    1  A    between atoms: C1_2  and  C2_3 
ROOT
ATOM      1  C2  UNL d   1       2.926  -1.171  -0.523  0.00  0.00    -0.076 A 
ATOM      2  C3  UNL d   1       2.007  -1.804  -1.377  0.00  0.00     0.004 A 
ATOM      3  C4  UNL d   1       1.038  -1.070  -2.059  0.00  0.00    -0.003 A 
ATOM      4  C5  UNL d   1       0.973   0.309  -1.899  0.00  0.00     0.000 A 
ATOM      5  C6  UNL d   1       1.888   0.957  -1.069  0.00  0.00     0.000 A 
ATOM      6  C7  UNL d   1       2.882   0.233  -0.387  0.00  0.00    -0.073 A 
ATOM      7  C8  UNL d   1       3.839   0.982   0.500  0.00  0.00     0.078 C 
ENDROOT
BRANCH   1   8
ATOM      8  C1  UNL d   1       3.937  -2.021   0.212  0.00  0.00     0.053 C 
ATOM      9  C   UNL d   1       3.508  -2.337   1.637  0.00  0.00     0.018 C 
ENDBRANCH   1   8
TORSDOF 1
ENDMDL
