MODEL 1
REMARK minimizedAffinity 3.90397167
REMARK minimizedRMSD -1
REMARK  1 active torsions:
REMARK  status: ('A' for Active; 'I' for Inactive)
REMARK    1  A    between atoms: C1_2  and  C2_3 
ROOT
ATOM      1  C2  UNL d   1      -0.927  -1.152  -0.246  0.00  0.00    -0.076 A 
ATOM      2  C3  UNL d   1      -0.678  -2.490   0.107  0.00  0.00     0.004 A 
ATOM      3  C4  UNL d   1      -1.694  -3.299   0.614  0.00  0.00    -0.003 A 
ATOM      4  C5  UNL d   1      -2.975  -2.784   0.776  0.00  0.00     0.000 A 
ATOM      5  C6  UNL d   1      -3.244  -1.464   0.415  0.00  0.00     0.000 A 
ATOM      6  C7  UNL d   1      -2.236  -0.640  -0.113  0.00  0.00    -0.073 A 
ATOM      7  C8  UNL d   1      -2.580   0.778  -0.480  0.00  0.00     0.078 C 
ENDROOT
BRANCH   1   8
ATOM      8  C1  UNL d   1       0.219  -0.315  -0.765  0.00  0.00     0.053 C 
ATOM      9  C   UNL d   1       0.557  -0.623  -2.216  0.00  0.00     0.018 C 
ENDBRANCH   1   8
TORSDOF 1
ENDMDL
