MODEL 1
REMARK minimizedAffinity 1.60560131
REMARK minimizedRMSD -1
REMARK  1 active torsions:
REMARK  status: ('A' for Active; 'I' for Inactive)
REMARK    1  A    between atoms: C1_2  and  C2_3 
ROOT
ATOM      1  C2  UNL d   1      -2.480   3.606  -0.550  0.00  0.00    -0.076 A 
ATOM      2  C3  UNL d   1      -3.391   3.955  -1.561  0.00  0.00     0.004 A 
ATOM      3  C4  UNL d   1      -4.118   5.143  -1.493  0.00  0.00    -0.003 A 
ATOM      4  C5  UNL d   1      -3.945   6.000  -0.412  0.00  0.00     0.000 A 
ATOM      5  C6  UNL d   1      -3.032   5.677   0.592  0.00  0.00     0.000 A 
ATOM      6  C7  UNL d   1      -2.279   4.492   0.530  0.00  0.00    -0.073 A 
ATOM      7  C8  UNL d   1      -1.313   4.191   1.643  0.00  0.00     0.078 C 
ENDROOT
BRANCH   1   8
ATOM      8  C1  UNL d   1      -1.739   2.292  -0.665  0.00  0.00     0.053 C 
ATOM      9  C   UNL d   1      -2.424   1.169   0.099  0.00  0.00     0.018 C 
ENDBRANCH   1   8
TORSDOF 1
ENDMDL
