MODEL 1
REMARK minimizedAffinity 7.13974857
REMARK minimizedRMSD -1
REMARK  1 active torsions:
REMARK  status: ('A' for Active; 'I' for Inactive)
REMARK    1  A    between atoms: C1_2  and  C2_3 
ROOT
ATOM      1  C2  UNL d   1       1.510  -1.332  -1.636  0.00  0.00    -0.076 A 
ATOM      2  C3  UNL d   1       2.315  -1.992  -0.692  0.00  0.00     0.004 A 
ATOM      3  C4  UNL d   1       3.290  -1.302   0.028  0.00  0.00    -0.003 A 
ATOM      4  C5  UNL d   1       3.474   0.059  -0.184  0.00  0.00     0.000 A 
ATOM      5  C6  UNL d   1       2.672   0.734  -1.104  0.00  0.00     0.000 A 
ATOM      6  C7  UNL d   1       1.674   0.057  -1.826  0.00  0.00    -0.073 A 
ATOM      7  C8  UNL d   1       0.843   0.833  -2.810  0.00  0.00     0.078 C 
ENDROOT
BRANCH   1   8
ATOM      8  C1  UNL d   1       0.488  -2.137  -2.406  0.00  0.00     0.053 C 
ATOM      9  C   UNL d   1      -0.216  -3.168  -1.537  0.00  0.00     0.018 C 
ENDBRANCH   1   8
TORSDOF 1
ENDMDL
