MODEL 1
REMARK minimizedAffinity 13.1225309
REMARK minimizedRMSD -1
REMARK  0 active torsions:
REMARK  status: ('A' for Active; 'I' for Inactive)
ROOT
ATOM      1  C   UNL d   1      -0.574  -1.900  -5.801  0.00  0.00     0.023 A 
ATOM      2  C1  UNL d   1       0.156  -3.072  -6.000  0.00  0.00     0.003 A 
ATOM      3  C2  UNL d   1       1.512  -3.117  -5.668  0.00  0.00     0.048 A 
ATOM      4  C3  UNL d   1       2.131  -1.986  -5.137  0.00  0.00     0.023 A 
ATOM      5  C4  UNL d   1       1.405  -0.812  -4.935  0.00  0.00     0.048 A 
ATOM      6  C5  UNL d   1       0.050  -0.771  -5.269  0.00  0.00     0.003 A 
ATOM      7  I   UNL d   1       4.149  -2.051  -4.642  0.00  0.00    -0.146 I 
ENDROOT
TORSDOF 0
ENDMDL
