MODEL 1
REMARK minimizedAffinity 19.189579
REMARK minimizedRMSD -1
REMARK  0 active torsions:
REMARK  status: ('A' for Active; 'I' for Inactive)
ROOT
ATOM      1  C   UNL d   1       3.057   0.557   4.946  0.00  0.00     0.023 A 
ATOM      2  C1  UNL d   1       2.390   0.530   3.721  0.00  0.00     0.003 A 
ATOM      3  C2  UNL d   1       3.111   0.619   2.529  0.00  0.00     0.048 A 
ATOM      4  C3  UNL d   1       4.501   0.733   2.569  0.00  0.00     0.023 A 
ATOM      5  C4  UNL d   1       5.173   0.758   3.792  0.00  0.00     0.048 A 
ATOM      6  C5  UNL d   1       4.447   0.671   4.981  0.00  0.00     0.003 A 
ATOM      7  I   UNL d   1       5.577   0.864   0.796  0.00  0.00    -0.146 I 
ENDROOT
TORSDOF 0
ENDMDL
