MODEL 1
REMARK minimizedAffinity 19.5004826
REMARK minimizedRMSD -1
REMARK  0 active torsions:
REMARK  status: ('A' for Active; 'I' for Inactive)
ROOT
ATOM      1  C   UNL d   1       0.216   0.272   1.978  0.00  0.00     0.023 A 
ATOM      2  C1  UNL d   1      -0.686   1.328   2.105  0.00  0.00     0.003 A 
ATOM      3  C2  UNL d   1      -0.685   2.114   3.259  0.00  0.00     0.048 A 
ATOM      4  C3  UNL d   1       0.222   1.839   4.281  0.00  0.00     0.023 A 
ATOM      5  C4  UNL d   1       1.128   0.785   4.158  0.00  0.00     0.048 A 
ATOM      6  C5  UNL d   1       1.122   0.001   3.003  0.00  0.00     0.003 A 
ATOM      7  I   UNL d   1       0.226   3.009   6.000  0.00  0.00    -0.146 I 
ENDROOT
TORSDOF 0
ENDMDL
