MODEL 1
REMARK minimizedAffinity 2.0425086
REMARK minimizedRMSD -1
REMARK  0 active torsions:
REMARK  status: ('A' for Active; 'I' for Inactive)
ROOT
ATOM      1  C   UNL d   1       3.356  -1.324   5.997  0.00  0.00     0.023 A 
ATOM      2  C1  UNL d   1       2.324  -2.172   5.596  0.00  0.00     0.003 A 
ATOM      3  C2  UNL d   1       1.421  -1.759   4.614  0.00  0.00     0.048 A 
ATOM      4  C3  UNL d   1       1.557  -0.497   4.036  0.00  0.00     0.023 A 
ATOM      5  C4  UNL d   1       2.590   0.354   4.433  0.00  0.00     0.048 A 
ATOM      6  C5  UNL d   1       3.489  -0.063   5.416  0.00  0.00     0.003 A 
ATOM      7  I   UNL d   1       0.215   0.120   2.574  0.00  0.00    -0.146 I 
ENDROOT
TORSDOF 0
ENDMDL
