MODEL 1
REMARK minimizedAffinity -1.45313859
REMARK minimizedRMSD -1
REMARK  0 active torsions:
REMARK  status: ('A' for Active; 'I' for Inactive)
ROOT
ATOM      1  C   UNL d   1       0.762  -2.981  -1.815  0.00  0.00     0.172 C 
ATOM      2  N   UNL d   1       0.407  -1.839  -1.007  0.00  0.00    -0.070 N 
ATOM      3  C1  UNL d   1      -0.629  -1.785  -0.112  0.00  0.00    -0.004 A 
ATOM      4  C2  UNL d   1      -0.633  -0.529   0.453  0.00  0.00    -0.047 A 
ATOM      5  C3  UNL d   1       0.437   0.198  -0.121  0.00  0.00    -0.047 A 
ATOM      6  C4  UNL d   1       1.064  -0.637  -1.021  0.00  0.00    -0.004 A 
ENDROOT
TORSDOF 0
ENDMDL
