MODEL 1
REMARK minimizedAffinity -3.75643063
REMARK minimizedRMSD -1
REMARK  0 active torsions:
REMARK  status: ('A' for Active; 'I' for Inactive)
ROOT
ATOM      1  C   UNL d   1      -2.031   1.779   0.661  0.00  0.00     0.172 C 
ATOM      2  N   UNL d   1      -0.964   1.132  -0.066  0.00  0.00    -0.070 N 
ATOM      3  C1  UNL d   1      -0.163   1.726  -1.004  0.00  0.00    -0.004 A 
ATOM      4  C2  UNL d   1       0.728   0.778  -1.460  0.00  0.00    -0.047 A 
ATOM      5  C3  UNL d   1       0.451  -0.428  -0.772  0.00  0.00    -0.047 A 
ATOM      6  C4  UNL d   1      -0.601  -0.180   0.084  0.00  0.00    -0.004 A 
ENDROOT
TORSDOF 0
ENDMDL
