MODEL 1
REMARK minimizedAffinity -2.77696514
REMARK minimizedRMSD -1
REMARK  0 active torsions:
REMARK  status: ('A' for Active; 'I' for Inactive)
ROOT
ATOM      1  C   UNL d   1       1.518  -0.973  -0.757  0.00  0.00     0.172 C 
ATOM      2  N   UNL d   1       0.493   0.034  -0.615  0.00  0.00    -0.070 N 
ATOM      3  C1  UNL d   1       0.538   1.298  -1.140  0.00  0.00    -0.004 A 
ATOM      4  C2  UNL d   1      -0.626   1.944  -0.783  0.00  0.00    -0.047 A 
ATOM      5  C3  UNL d   1      -1.396   1.037  -0.017  0.00  0.00    -0.047 A 
ATOM      6  C4  UNL d   1      -0.680  -0.137   0.071  0.00  0.00    -0.004 A 
ENDROOT
TORSDOF 0
ENDMDL
