MODEL 1
REMARK minimizedAffinity -1.19976056
REMARK minimizedRMSD -1
REMARK  0 active torsions:
REMARK  status: ('A' for Active; 'I' for Inactive)
ROOT
ATOM      1  C   UNL d   1      -1.754   1.970   2.197  0.00  0.00     0.172 C 
ATOM      2  N   UNL d   1      -0.880   1.053   1.503  0.00  0.00    -0.070 N 
ATOM      3  C1  UNL d   1      -0.183   0.025   2.078  0.00  0.00    -0.004 A 
ATOM      4  C2  UNL d   1       0.530  -0.610   1.083  0.00  0.00    -0.047 A 
ATOM      5  C3  UNL d   1       0.252   0.061  -0.131  0.00  0.00    -0.047 A 
ATOM      6  C4  UNL d   1      -0.624   1.086   0.157  0.00  0.00    -0.004 A 
ENDROOT
TORSDOF 0
ENDMDL
