MODEL 1
REMARK minimizedAffinity -1.37025893
REMARK minimizedRMSD -1
REMARK  0 active torsions:
REMARK  status: ('A' for Active; 'I' for Inactive)
ROOT
ATOM      1  C   UNL d   1      -0.954   1.007   2.332  0.00  0.00     0.172 C 
ATOM      2  N   UNL d   1      -0.556   0.424   1.073  0.00  0.00    -0.070 N 
ATOM      3  C1  UNL d   1       0.243   1.020   0.134  0.00  0.00    -0.004 A 
ATOM      4  C2  UNL d   1       0.386   0.141  -0.918  0.00  0.00    -0.047 A 
ATOM      5  C3  UNL d   1      -0.354  -1.023  -0.601  0.00  0.00    -0.047 A 
ATOM      6  C4  UNL d   1      -0.927  -0.821   0.637  0.00  0.00    -0.004 A 
ENDROOT
TORSDOF 0
ENDMDL
