MODEL 1
REMARK minimizedAffinity -2.39194632
REMARK minimizedRMSD -1
REMARK  0 active torsions:
REMARK  status: ('A' for Active; 'I' for Inactive)
ROOT
ATOM      1  C   UNL d   1       0.396  -0.950  -0.782  0.00  0.00     0.172 C 
ATOM      2  N   UNL d   1       0.360  -2.220  -1.468  0.00  0.00    -0.070 N 
ATOM      3  C1  UNL d   1      -0.351  -2.494  -2.606  0.00  0.00    -0.004 A 
ATOM      4  C2  UNL d   1      -0.121  -3.810  -2.942  0.00  0.00    -0.047 A 
ATOM      5  C3  UNL d   1       0.758  -4.347  -1.971  0.00  0.00    -0.047 A 
ATOM      6  C4  UNL d   1       1.040  -3.341  -1.071  0.00  0.00    -0.004 A 
ENDROOT
TORSDOF 0
ENDMDL
