MODEL 1
REMARK minimizedAffinity -1.1015687
REMARK minimizedRMSD -1
REMARK  0 active torsions:
REMARK  status: ('A' for Active; 'I' for Inactive)
ROOT
ATOM      1  C   UNL d   1      -5.018  -2.241   2.968  0.00  0.00     0.172 C 
ATOM      2  N   UNL d   1      -3.940  -2.222   3.929  0.00  0.00    -0.070 N 
ATOM      3  C1  UNL d   1      -2.609  -2.361   3.638  0.00  0.00    -0.004 A 
ATOM      4  C2  UNL d   1      -1.909  -2.286   4.823  0.00  0.00    -0.047 A 
ATOM      5  C3  UNL d   1      -2.851  -2.095   5.861  0.00  0.00    -0.047 A 
ATOM      6  C4  UNL d   1      -4.101  -2.059   5.280  0.00  0.00    -0.004 A 
ENDROOT
TORSDOF 0
ENDMDL
