MODEL 1
REMARK minimizedAffinity -1.81669855
REMARK minimizedRMSD -1
REMARK  0 active torsions:
REMARK  status: ('A' for Active; 'I' for Inactive)
ROOT
ATOM      1  C   UNL d   1       1.261  -0.207  -0.289  0.00  0.00     0.172 C 
ATOM      2  N   UNL d   1       0.787  -1.459  -0.831  0.00  0.00    -0.070 N 
ATOM      3  C1  UNL d   1       1.575  -2.477  -1.295  0.00  0.00    -0.004 A 
ATOM      4  C2  UNL d   1       0.746  -3.491  -1.724  0.00  0.00    -0.047 A 
ATOM      5  C3  UNL d   1      -0.587  -3.066  -1.511  0.00  0.00    -0.047 A 
ATOM      6  C4  UNL d   1      -0.533  -1.805  -0.957  0.00  0.00    -0.004 A 
ENDROOT
TORSDOF 0
ENDMDL
