MODEL 1
REMARK minimizedAffinity -2.07388735
REMARK minimizedRMSD -1
REMARK  0 active torsions:
REMARK  status: ('A' for Active; 'I' for Inactive)
ROOT
ATOM      1  C   UNL d   1      -4.477  -2.427   2.595  0.00  0.00     0.172 C 
ATOM      2  N   UNL d   1      -3.722  -2.408   3.825  0.00  0.00    -0.070 N 
ATOM      3  C1  UNL d   1      -2.356  -2.368   3.923  0.00  0.00    -0.004 A 
ATOM      4  C2  UNL d   1      -2.029  -2.361   5.262  0.00  0.00    -0.047 A 
ATOM      5  C3  UNL d   1      -3.240  -2.399   5.994  0.00  0.00    -0.047 A 
ATOM      6  C4  UNL d   1      -4.272  -2.428   5.080  0.00  0.00    -0.004 A 
ENDROOT
TORSDOF 0
ENDMDL
