MODEL 1
REMARK minimizedAffinity -0.0747019872
REMARK minimizedRMSD -1
REMARK  0 active torsions:
REMARK  status: ('A' for Active; 'I' for Inactive)
ROOT
ATOM      1  C   UNL d   1       1.171  -0.442  -0.409  0.00  0.00     0.172 C 
ATOM      2  N   UNL d   1       0.833  -1.578  -1.233  0.00  0.00    -0.070 N 
ATOM      3  C1  UNL d   1       1.098  -2.888  -0.935  0.00  0.00    -0.004 A 
ATOM      4  C2  UNL d   1       0.619  -3.662  -1.969  0.00  0.00    -0.047 A 
ATOM      5  C3  UNL d   1       0.047  -2.787  -2.923  0.00  0.00    -0.047 A 
ATOM      6  C4  UNL d   1       0.193  -1.503  -2.442  0.00  0.00    -0.004 A 
ENDROOT
TORSDOF 0
ENDMDL
