MODEL 1
REMARK minimizedAffinity -3.45361137
REMARK minimizedRMSD -1
REMARK  0 active torsions:
REMARK  status: ('A' for Active; 'I' for Inactive)
ROOT
ATOM      1  C   UNL d   1      -0.670   1.558   2.956  0.00  0.00     0.172 C 
ATOM      2  N   UNL d   1      -0.585   0.699   1.799  0.00  0.00    -0.070 N 
ATOM      3  C1  UNL d   1      -0.134  -0.594   1.796  0.00  0.00    -0.004 A 
ATOM      4  C2  UNL d   1      -0.211  -1.065   0.503  0.00  0.00    -0.047 A 
ATOM      5  C3  UNL d   1      -0.725  -0.019  -0.299  0.00  0.00    -0.047 A 
ATOM      6  C4  UNL d   1      -0.948   1.061   0.529  0.00  0.00    -0.004 A 
ENDROOT
TORSDOF 0
ENDMDL
