MODEL 1
REMARK minimizedAffinity -3.2110827
REMARK minimizedRMSD -1
REMARK  0 active torsions:
REMARK  status: ('A' for Active; 'I' for Inactive)
ROOT
ATOM      1  C   UNL d   1       0.679  -0.879  -0.879  0.00  0.00     0.172 C 
ATOM      2  N   UNL d   1      -0.001  -0.098   0.126  0.00  0.00    -0.070 N 
ATOM      3  C1  UNL d   1      -0.139  -0.440   1.445  0.00  0.00    -0.004 A 
ATOM      4  C2  UNL d   1      -0.847   0.565   2.070  0.00  0.00    -0.047 A 
ATOM      5  C3  UNL d   1      -1.145   1.544   1.092  0.00  0.00    -0.047 A 
ATOM      6  C4  UNL d   1      -0.610   1.108  -0.102  0.00  0.00    -0.004 A 
ENDROOT
TORSDOF 0
ENDMDL
