MODEL 1
REMARK minimizedAffinity -3.13484168
REMARK minimizedRMSD -1
REMARK  0 active torsions:
REMARK  status: ('A' for Active; 'I' for Inactive)
ROOT
ATOM      1  C   UNL d   1      -0.008  -2.820  -1.942  0.00  0.00     0.172 C 
ATOM      2  N   UNL d   1       0.099  -1.794  -0.932  0.00  0.00    -0.070 N 
ATOM      3  C1  UNL d   1      -0.885  -1.438  -0.048  0.00  0.00    -0.004 A 
ATOM      4  C2  UNL d   1      -0.392  -0.426   0.747  0.00  0.00    -0.047 A 
ATOM      5  C3  UNL d   1       0.933  -0.163   0.326  0.00  0.00    -0.047 A 
ATOM      6  C4  UNL d   1       1.211  -1.024  -0.715  0.00  0.00    -0.004 A 
ENDROOT
TORSDOF 0
ENDMDL
