MODEL 1
REMARK minimizedAffinity -2.28544784
REMARK minimizedRMSD -1
REMARK  0 active torsions:
REMARK  status: ('A' for Active; 'I' for Inactive)
ROOT
ATOM      1  C   UNL d   1      -0.014  -0.849  -0.632  0.00  0.00     0.172 C 
ATOM      2  N   UNL d   1      -0.365  -0.009   0.489  0.00  0.00    -0.070 N 
ATOM      3  C1  UNL d   1      -0.253  -0.354   1.810  0.00  0.00    -0.004 A 
ATOM      4  C2  UNL d   1      -0.687   0.716   2.563  0.00  0.00    -0.047 A 
ATOM      5  C3  UNL d   1      -1.074   1.738   1.664  0.00  0.00    -0.047 A 
ATOM      6  C4  UNL d   1      -0.864   1.262   0.386  0.00  0.00    -0.004 A 
ENDROOT
TORSDOF 0
ENDMDL
