MODEL 1
REMARK minimizedAffinity -2.4476676
REMARK minimizedRMSD -1
REMARK  0 active torsions:
REMARK  status: ('A' for Active; 'I' for Inactive)
ROOT
ATOM      1  C   UNL d   1       0.588  -1.610  -1.522  0.00  0.00     0.172 C 
ATOM      2  N   UNL d   1      -0.066  -0.602  -0.723  0.00  0.00    -0.070 N 
ATOM      3  C1  UNL d   1      -1.008   0.285  -1.170  0.00  0.00    -0.004 A 
ATOM      4  C2  UNL d   1      -1.382   1.077  -0.106  0.00  0.00    -0.047 A 
ATOM      5  C3  UNL d   1      -0.638   0.652   1.020  0.00  0.00    -0.047 A 
ATOM      6  C4  UNL d   1       0.169  -0.388   0.610  0.00  0.00    -0.004 A 
ENDROOT
TORSDOF 0
ENDMDL
