MODEL 1
REMARK minimizedAffinity -3.43300939
REMARK minimizedRMSD -1
REMARK  0 active torsions:
REMARK  status: ('A' for Active; 'I' for Inactive)
ROOT
ATOM      1  C   UNL d   1       0.857  -0.547  -0.664  0.00  0.00     0.172 C 
ATOM      2  N   UNL d   1       0.509  -1.872  -1.120  0.00  0.00    -0.070 N 
ATOM      3  C1  UNL d   1      -0.695  -2.241  -1.658  0.00  0.00    -0.004 A 
ATOM      4  C2  UNL d   1      -0.627  -3.583  -1.965  0.00  0.00    -0.047 A 
ATOM      5  C3  UNL d   1       0.661  -4.037  -1.596  0.00  0.00    -0.047 A 
ATOM      6  C4  UNL d   1       1.344  -2.957  -1.076  0.00  0.00    -0.004 A 
ENDROOT
TORSDOF 0
ENDMDL
