MODEL 1
REMARK minimizedAffinity 3.58929229
REMARK minimizedRMSD -1
REMARK  0 active torsions:
REMARK  status: ('A' for Active; 'I' for Inactive)
ROOT
ATOM      1  O1  BZF d   1      -2.134  -5.976  -1.487  0.00  0.00    -0.204 OA
ATOM      2  C2  BZF d   1      -3.420  -5.999  -1.991  0.00  0.00     0.174 A 
ATOM      3  C3  BZF d   1      -3.405  -5.958  -3.339  0.00  0.00    -0.012 A 
ATOM      4  C3A BZF d   1      -2.022  -5.998  -3.702  0.00  0.00    -0.107 A 
ATOM      5  C4  BZF d   1      -1.365  -6.000  -4.900  0.00  0.00     0.055 A 
ATOM      6  C5  BZF d   1      -0.006  -5.971  -4.908  0.00  0.00    -0.016 A 
ATOM      7  C6  BZF d   1       0.726  -5.934  -3.739  0.00  0.00     0.022 A 
ATOM      8  C7  BZF d   1       0.119  -5.936  -2.527  0.00  0.00     0.029 A 
ATOM      9  C7A BZF d   1      -1.253  -5.999  -2.516  0.00  0.00     0.058 A 
ENDROOT
TORSDOF 0
ENDMDL
