MODEL 1
REMARK minimizedAffinity -1.77801526
REMARK minimizedRMSD -1
REMARK  0 active torsions:
REMARK  status: ('A' for Active; 'I' for Inactive)
ROOT
ATOM      1  O1  BZF d   1      -3.504  -5.984  -1.903  0.00  0.00    -0.204 OA
ATOM      2  C2  BZF d   1      -4.821  -6.000  -2.322  0.00  0.00     0.174 A 
ATOM      3  C3  BZF d   1      -4.896  -5.946  -3.667  0.00  0.00    -0.012 A 
ATOM      4  C3A BZF d   1      -3.540  -5.987  -4.122  0.00  0.00    -0.107 A 
ATOM      5  C4  BZF d   1      -2.964  -5.980  -5.360  0.00  0.00     0.055 A 
ATOM      6  C5  BZF d   1      -1.609  -5.954  -5.458  0.00  0.00    -0.016 A 
ATOM      7  C6  BZF d   1      -0.800  -5.929  -4.341  0.00  0.00     0.022 A 
ATOM      8  C7  BZF d   1      -1.325  -5.940  -3.092  0.00  0.00     0.029 A 
ATOM      9  C7A BZF d   1      -2.694  -6.000  -2.989  0.00  0.00     0.058 A 
ENDROOT
TORSDOF 0
ENDMDL
