MODEL 1
REMARK minimizedAffinity 0.612134576
REMARK minimizedRMSD -1
REMARK  0 active torsions:
REMARK  status: ('A' for Active; 'I' for Inactive)
ROOT
ATOM      1  O1  BZF d   1       0.349  -5.912  -4.671  0.00  0.00    -0.204 OA
ATOM      2  C2  BZF d   1      -0.115  -5.908  -5.972  0.00  0.00     0.174 A 
ATOM      3  C3  BZF d   1      -1.461  -5.985  -6.000  0.00  0.00    -0.012 A 
ATOM      4  C3A BZF d   1      -1.869  -5.948  -4.629  0.00  0.00    -0.107 A 
ATOM      5  C4  BZF d   1      -3.086  -5.975  -4.010  0.00  0.00     0.055 A 
ATOM      6  C5  BZF d   1      -3.136  -5.998  -2.652  0.00  0.00    -0.016 A 
ATOM      7  C6  BZF d   1      -1.991  -6.000  -1.883  0.00  0.00     0.022 A 
ATOM      8  C7  BZF d   1      -0.761  -5.969  -2.452  0.00  0.00     0.029 A 
ATOM      9  C7A BZF d   1      -0.707  -5.912  -3.823  0.00  0.00     0.058 A 
ENDROOT
TORSDOF 0
ENDMDL
