MODEL 1
REMARK minimizedAffinity 14.1207113
REMARK minimizedRMSD -1
REMARK  0 active torsions:
REMARK  status: ('A' for Active; 'I' for Inactive)
ROOT
ATOM      1  O1  BZF d   1      -2.166   1.028  -3.041  0.00  0.00    -0.204 OA
ATOM      2  C2  BZF d   1      -3.496   1.339  -3.249  0.00  0.00     0.174 A 
ATOM      3  C3  BZF d   1      -3.629   2.614  -3.669  0.00  0.00    -0.012 A 
ATOM      4  C3A BZF d   1      -2.292   3.103  -3.815  0.00  0.00    -0.107 A 
ATOM      5  C4  BZF d   1      -1.769   4.299  -4.217  0.00  0.00     0.055 A 
ATOM      6  C5  BZF d   1      -0.422   4.477  -4.177  0.00  0.00    -0.016 A 
ATOM      7  C6  BZF d   1       0.429   3.484  -3.737  0.00  0.00     0.022 A 
ATOM      8  C7  BZF d   1      -0.043   2.280  -3.333  0.00  0.00     0.029 A 
ATOM      9  C7A BZF d   1      -1.401   2.085  -3.403  0.00  0.00     0.058 A 
ENDROOT
TORSDOF 0
ENDMDL
