MODEL 1
REMARK minimizedAffinity 1.66312635
REMARK minimizedRMSD -1
REMARK  0 active torsions:
REMARK  status: ('A' for Active; 'I' for Inactive)
ROOT
ATOM      1  O1  BZF d   1      -3.371   2.722  -4.208  0.00  0.00    -0.204 OA
ATOM      2  C2  BZF d   1      -3.523   1.681  -3.311  0.00  0.00     0.174 A 
ATOM      3  C3  BZF d   1      -2.355   1.407  -2.696  0.00  0.00    -0.012 A 
ATOM      4  C3A BZF d   1      -1.436   2.393  -3.174  0.00  0.00    -0.107 A 
ATOM      5  C4  BZF d   1      -0.120   2.654  -2.916  0.00  0.00     0.055 A 
ATOM      6  C5  BZF d   1       0.503   3.646  -3.604  0.00  0.00    -0.016 A 
ATOM      7  C6  BZF d   1      -0.156   4.393  -4.559  0.00  0.00     0.022 A 
ATOM      8  C7  BZF d   1      -1.462   4.175  -4.845  0.00  0.00     0.029 A 
ATOM      9  C7A BZF d   1      -2.104   3.195  -4.128  0.00  0.00     0.058 A 
ENDROOT
TORSDOF 0
ENDMDL
