MODEL 1
REMARK minimizedAffinity -3.59607792
REMARK minimizedRMSD -1
REMARK  0 active torsions:
REMARK  status: ('A' for Active; 'I' for Inactive)
ROOT
ATOM      1  O1  BZF d   1      -3.814  -5.980  -3.752  0.00  0.00    -0.204 OA
ATOM      2  C2  BZF d   1      -3.912  -5.956  -2.374  0.00  0.00     0.174 A 
ATOM      3  C3  BZF d   1      -2.688  -5.964  -1.808  0.00  0.00    -0.012 A 
ATOM      4  C3A BZF d   1      -1.767  -5.902  -2.901  0.00  0.00    -0.107 A 
ATOM      5  C4  BZF d   1      -0.404  -5.865  -2.980  0.00  0.00     0.055 A 
ATOM      6  C5  BZF d   1       0.188  -5.881  -4.203  0.00  0.00    -0.016 A 
ATOM      7  C6  BZF d   1      -0.552  -5.940  -5.366  0.00  0.00     0.022 A 
ATOM      8  C7  BZF d   1      -1.906  -5.974  -5.339  0.00  0.00     0.029 A 
ATOM      9  C7A BZF d   1      -2.508  -5.924  -4.105  0.00  0.00     0.058 A 
ENDROOT
TORSDOF 0
ENDMDL
