MODEL 1
REMARK minimizedAffinity -1.24347389
REMARK minimizedRMSD -1
REMARK  0 active torsions:
REMARK  status: ('A' for Active; 'I' for Inactive)
ROOT
ATOM      1  O1  BZF d   1      -3.174  -5.039  -4.125  0.00  0.00    -0.204 OA
ATOM      2  C2  BZF d   1      -3.478  -5.246  -2.793  0.00  0.00     0.174 A 
ATOM      3  C3  BZF d   1      -2.398  -5.692  -2.119  0.00  0.00    -0.012 A 
ATOM      4  C3A BZF d   1      -1.330  -5.680  -3.071  0.00  0.00    -0.107 A 
ATOM      5  C4  BZF d   1      -0.004  -6.000  -2.999  0.00  0.00     0.055 A 
ATOM      6  C5  BZF d   1       0.751  -5.948  -4.128  0.00  0.00    -0.016 A 
ATOM      7  C6  BZF d   1       0.212  -5.587  -5.345  0.00  0.00     0.022 A 
ATOM      8  C7  BZF d   1      -1.097  -5.256  -5.466  0.00  0.00     0.029 A 
ATOM      9  C7A BZF d   1      -1.855  -5.275  -4.320  0.00  0.00     0.058 A 
ENDROOT
TORSDOF 0
ENDMDL
