MODEL 1
REMARK minimizedAffinity 5.51621151
REMARK minimizedRMSD -1
REMARK  0 active torsions:
REMARK  status: ('A' for Active; 'I' for Inactive)
ROOT
ATOM      1  O1  BZF d   1      -0.653  -5.956  -1.866  0.00  0.00    -0.204 OA
ATOM      2  C2  BZF d   1      -1.999  -5.953  -1.557  0.00  0.00     0.174 A 
ATOM      3  C3  BZF d   1      -2.747  -5.913  -2.678  0.00  0.00    -0.012 A 
ATOM      4  C3A BZF d   1      -1.811  -5.983  -3.758  0.00  0.00    -0.107 A 
ATOM      5  C4  BZF d   1      -1.944  -6.000  -5.117  0.00  0.00     0.055 A 
ATOM      6  C5  BZF d   1      -0.827  -6.000  -5.890  0.00  0.00    -0.016 A 
ATOM      7  C6  BZF d   1       0.438  -5.977  -5.339  0.00  0.00     0.022 A 
ATOM      8  C7  BZF d   1       0.620  -5.965  -3.996  0.00  0.00     0.029 A 
ATOM      9  C7A BZF d   1      -0.507  -5.999  -3.212  0.00  0.00     0.058 A 
ENDROOT
TORSDOF 0
ENDMDL
