MODEL 1
REMARK minimizedAffinity 5.02226448
REMARK minimizedRMSD -1
REMARK  0 active torsions:
REMARK  status: ('A' for Active; 'I' for Inactive)
ROOT
ATOM      1  O1  BZF d   1       0.271  -0.209   0.218  0.00  0.00    -0.204 OA
ATOM      2  C2  BZF d   1       1.346   0.396   0.840  0.00  0.00     0.174 A 
ATOM      3  C3  BZF d   1       1.734  -0.312   1.920  0.00  0.00    -0.012 A 
ATOM      4  C3A BZF d   1       0.905  -1.478   1.924  0.00  0.00    -0.107 A 
ATOM      5  C4  BZF d   1       0.823  -2.569   2.741  0.00  0.00     0.055 A 
ATOM      6  C5  BZF d   1      -0.146  -3.494   2.512  0.00  0.00    -0.016 A 
ATOM      7  C6  BZF d   1      -1.050  -3.358   1.480  0.00  0.00     0.022 A 
ATOM      8  C7  BZF d   1      -1.006  -2.295   0.640  0.00  0.00     0.029 A 
ATOM      9  C7A BZF d   1      -0.008  -1.375   0.849  0.00  0.00     0.058 A 
ENDROOT
TORSDOF 0
ENDMDL
