MODEL 1
REMARK minimizedAffinity -0.450519085
REMARK minimizedRMSD -1
REMARK  0 active torsions:
REMARK  status: ('A' for Active; 'I' for Inactive)
ROOT
ATOM      1  O1  BZF d   1       1.422  -5.964  -4.692  0.00  0.00    -0.204 OA
ATOM      2  C2  BZF d   1       0.938  -5.951  -5.985  0.00  0.00     0.174 A 
ATOM      3  C3  BZF d   1      -0.410  -5.999  -5.993  0.00  0.00    -0.012 A 
ATOM      4  C3A BZF d   1      -0.796  -5.951  -4.615  0.00  0.00    -0.107 A 
ATOM      5  C4  BZF d   1      -2.003  -5.951  -3.978  0.00  0.00     0.055 A 
ATOM      6  C5  BZF d   1      -2.033  -5.972  -2.620  0.00  0.00    -0.016 A 
ATOM      7  C6  BZF d   1      -0.877  -5.999  -1.868  0.00  0.00     0.022 A 
ATOM      8  C7  BZF d   1       0.345  -5.995  -2.455  0.00  0.00     0.029 A 
ATOM      9  C7A BZF d   1       0.379  -5.940  -3.828  0.00  0.00     0.058 A 
ENDROOT
TORSDOF 0
ENDMDL
