MODEL 1
REMARK minimizedAffinity -1.55280185
REMARK minimizedRMSD -1
REMARK  0 active torsions:
REMARK  status: ('A' for Active; 'I' for Inactive)
ROOT
ATOM      1  O1  BZF d   1       1.210  -6.000  -4.476  0.00  0.00    -0.204 OA
ATOM      2  C2  BZF d   1       0.905  -5.869  -5.817  0.00  0.00     0.174 A 
ATOM      3  C3  BZF d   1      -0.426  -5.746  -5.995  0.00  0.00    -0.012 A 
ATOM      4  C3A BZF d   1      -0.980  -5.712  -4.676  0.00  0.00    -0.107 A 
ATOM      5  C4  BZF d   1      -2.252  -5.587  -4.195  0.00  0.00     0.055 A 
ATOM      6  C5  BZF d   1      -2.462  -5.664  -2.854  0.00  0.00    -0.016 A 
ATOM      7  C6  BZF d   1      -1.425  -5.870  -1.968  0.00  0.00     0.022 A 
ATOM      8  C7  BZF d   1      -0.146  -5.994  -2.397  0.00  0.00     0.029 A 
ATOM      9  C7A BZF d   1       0.073  -5.883  -3.749  0.00  0.00     0.058 A 
ENDROOT
TORSDOF 0
ENDMDL
