MODEL 1
REMARK minimizedAffinity 0.963523865
REMARK minimizedRMSD -1
REMARK  0 active torsions:
REMARK  status: ('A' for Active; 'I' for Inactive)
ROOT
ATOM      1  O1  BZF d   1      -0.085   1.803  -3.441  0.00  0.00    -0.204 OA
ATOM      2  C2  BZF d   1      -0.404   3.049  -3.947  0.00  0.00     0.174 A 
ATOM      3  C3  BZF d   1      -0.471   3.963  -2.958  0.00  0.00    -0.012 A 
ATOM      4  C3A BZF d   1      -0.086   3.263  -1.771  0.00  0.00    -0.107 A 
ATOM      5  C4  BZF d   1       0.056   3.636  -0.465  0.00  0.00     0.055 A 
ATOM      6  C5  BZF d   1       0.376   2.693   0.460  0.00  0.00    -0.016 A 
ATOM      7  C6  BZF d   1       0.555   1.370   0.116  0.00  0.00     0.022 A 
ATOM      8  C7  BZF d   1       0.430   0.952  -1.167  0.00  0.00     0.029 A 
ATOM      9  C7A BZF d   1       0.139   1.908  -2.110  0.00  0.00     0.058 A 
ENDROOT
TORSDOF 0
ENDMDL
