MODEL 1
REMARK minimizedAffinity -3.44524622
REMARK minimizedRMSD -1
REMARK  0 active torsions:
REMARK  status: ('A' for Active; 'I' for Inactive)
ROOT
ATOM      1  O1  BZF d   1       0.969  -5.915  -3.970  0.00  0.00    -0.204 OA
ATOM      2  C2  BZF d   1       1.179  -5.900  -5.335  0.00  0.00     0.174 A 
ATOM      3  C3  BZF d   1       0.007  -5.964  -6.000  0.00  0.00    -0.012 A 
ATOM      4  C3A BZF d   1      -1.003  -5.931  -4.987  0.00  0.00    -0.107 A 
ATOM      5  C4  BZF d   1      -2.368  -5.950  -5.021  0.00  0.00     0.055 A 
ATOM      6  C5  BZF d   1      -3.057  -5.980  -3.851  0.00  0.00    -0.016 A 
ATOM      7  C6  BZF d   1      -2.415  -5.997  -2.630  0.00  0.00     0.022 A 
ATOM      8  C7  BZF d   1      -1.063  -5.974  -2.545  0.00  0.00     0.029 A 
ATOM      9  C7A BZF d   1      -0.364  -5.910  -3.726  0.00  0.00     0.058 A 
ENDROOT
TORSDOF 0
ENDMDL
