MODEL 1
REMARK minimizedAffinity 5.18643236
REMARK minimizedRMSD -1
REMARK  0 active torsions:
REMARK  status: ('A' for Active; 'I' for Inactive)
ROOT
ATOM      1  O1  BZF d   1      -0.956  -5.701  -2.402  0.00  0.00    -0.204 OA
ATOM      2  C2  BZF d   1      -1.996  -5.901  -1.515  0.00  0.00     0.174 A 
ATOM      3  C3  BZF d   1      -3.171  -5.997  -2.170  0.00  0.00    -0.012 A 
ATOM      4  C3A BZF d   1      -2.834  -5.939  -3.559  0.00  0.00    -0.107 A 
ATOM      5  C4  BZF d   1      -3.571  -5.999  -4.707  0.00  0.00     0.055 A 
ATOM      6  C5  BZF d   1      -2.945  -5.839  -5.903  0.00  0.00    -0.016 A 
ATOM      7  C6  BZF d   1      -1.587  -5.611  -5.987  0.00  0.00     0.022 A 
ATOM      8  C7  BZF d   1      -0.814  -5.548  -4.875  0.00  0.00     0.029 A 
ATOM      9  C7A BZF d   1      -1.438  -5.743  -3.667  0.00  0.00     0.058 A 
ENDROOT
TORSDOF 0
ENDMDL
