MODEL 1
REMARK minimizedAffinity -3.64518404
REMARK minimizedRMSD -1
REMARK  0 active torsions:
REMARK  status: ('A' for Active; 'I' for Inactive)
ROOT
ATOM      1  O1  BZF d   1      -2.920  -5.968  -2.412  0.00  0.00    -0.204 OA
ATOM      2  C2  BZF d   1      -1.864  -5.953  -1.521  0.00  0.00     0.174 A 
ATOM      3  C3  BZF d   1      -0.685  -5.998  -2.175  0.00  0.00    -0.012 A 
ATOM      4  C3A BZF d   1      -1.024  -5.951  -3.564  0.00  0.00    -0.107 A 
ATOM      5  C4  BZF d   1      -0.283  -5.948  -4.711  0.00  0.00     0.055 A 
ATOM      6  C5  BZF d   1      -0.922  -5.969  -5.910  0.00  0.00    -0.016 A 
ATOM      7  C6  BZF d   1      -2.298  -5.999  -5.999  0.00  0.00     0.022 A 
ATOM      8  C7  BZF d   1      -3.076  -5.998  -4.889  0.00  0.00     0.029 A 
ATOM      9  C7A BZF d   1      -2.433  -5.943  -3.676  0.00  0.00     0.058 A 
ENDROOT
TORSDOF 0
ENDMDL
