MODEL 1
REMARK minimizedAffinity -0.748342574
REMARK minimizedRMSD -1
REMARK  0 active torsions:
REMARK  status: ('A' for Active; 'I' for Inactive)
ROOT
ATOM      1  O1  BZF d   1      -0.730  -5.953  -5.958  0.00  0.00    -0.204 OA
ATOM      2  C2  BZF d   1       0.573  -5.944  -5.499  0.00  0.00     0.174 A 
ATOM      3  C3  BZF d   1       0.605  -5.902  -4.151  0.00  0.00    -0.012 A 
ATOM      4  C3A BZF d   1      -0.764  -5.977  -3.740  0.00  0.00    -0.107 A 
ATOM      5  C4  BZF d   1      -1.378  -5.995  -2.520  0.00  0.00     0.055 A 
ATOM      6  C5  BZF d   1      -2.736  -6.000  -2.465  0.00  0.00    -0.016 A 
ATOM      7  C6  BZF d   1      -3.509  -5.983  -3.607  0.00  0.00     0.022 A 
ATOM      8  C7  BZF d   1      -2.945  -5.970  -4.839  0.00  0.00     0.029 A 
ATOM      9  C7A BZF d   1      -1.573  -5.998  -4.899  0.00  0.00     0.058 A 
ENDROOT
TORSDOF 0
ENDMDL
