MODEL 1
REMARK minimizedAffinity 1.36524451
REMARK minimizedRMSD -1
REMARK  0 active torsions:
REMARK  status: ('A' for Active; 'I' for Inactive)
ROOT
ATOM      1  O1  BZF d   1       1.222  -5.952  -4.265  0.00  0.00    -0.204 OA
ATOM      2  C2  BZF d   1       0.961  -5.943  -5.621  0.00  0.00     0.174 A 
ATOM      3  C3  BZF d   1      -0.366  -6.000  -5.853  0.00  0.00    -0.012 A 
ATOM      4  C3A BZF d   1      -0.977  -5.954  -4.560  0.00  0.00    -0.107 A 
ATOM      5  C4  BZF d   1      -2.274  -5.962  -4.133  0.00  0.00     0.055 A 
ATOM      6  C5  BZF d   1      -2.530  -5.982  -2.799  0.00  0.00    -0.016 A 
ATOM      7  C6  BZF d   1      -1.515  -6.000  -1.865  0.00  0.00     0.022 A 
ATOM      8  C7  BZF d   1      -0.213  -5.988  -2.240  0.00  0.00     0.029 A 
ATOM      9  C7A BZF d   1       0.049  -5.935  -3.587  0.00  0.00     0.058 A 
ENDROOT
TORSDOF 0
ENDMDL
