MODEL 1
REMARK minimizedAffinity -0.807025135
REMARK minimizedRMSD -1
REMARK  0 active torsions:
REMARK  status: ('A' for Active; 'I' for Inactive)
ROOT
ATOM      1  C   UNL d   1      -0.752  -0.200   2.180  0.00  0.00     0.020 A 
ATOM      2  C1  UNL d   1      -0.185  -0.900   1.116  0.00  0.00     0.020 A 
ATOM      3  C2  UNL d   1       0.289  -0.208  -0.001  0.00  0.00     0.034 A 
ATOM      4  C3  UNL d   1       0.198   1.187  -0.056  0.00  0.00     0.017 A 
ATOM      5  C4  UNL d   1      -0.372   1.889   1.013  0.00  0.00     0.017 A 
ATOM      6  C5  UNL d   1      -0.845   1.192   2.129  0.00  0.00     0.034 A 
ATOM      7 Cl   UNL d   1      -0.520   3.611   1.018  0.00  0.00    -0.070 Cl
ATOM      8 Cl1  UNL d   1       0.805   1.978  -1.467  0.00  0.00    -0.070 Cl
ENDROOT
TORSDOF 0
ENDMDL
