MODEL 1
REMARK minimizedAffinity -3.23758197
REMARK minimizedRMSD -1
REMARK  0 active torsions:
REMARK  status: ('A' for Active; 'I' for Inactive)
ROOT
ATOM      1  C   UNL d   1       0.904  -0.785  -0.804  0.00  0.00     0.020 A 
ATOM      2  C1  UNL d   1       0.375  -1.341   0.360  0.00  0.00     0.020 A 
ATOM      3  C2  UNL d   1      -0.328  -0.537   1.260  0.00  0.00     0.034 A 
ATOM      4  C3  UNL d   1      -0.504   0.826   0.997  0.00  0.00     0.017 A 
ATOM      5  C4  UNL d   1       0.027   1.383  -0.172  0.00  0.00     0.017 A 
ATOM      6  C5  UNL d   1       0.730   0.573  -1.070  0.00  0.00     0.034 A 
ATOM      7 Cl   UNL d   1      -0.149   3.057  -0.565  0.00  0.00    -0.070 Cl
ATOM      8 Cl1  UNL d   1      -1.385   1.761   2.154  0.00  0.00    -0.070 Cl
ENDROOT
TORSDOF 0
ENDMDL
