MODEL 1
REMARK minimizedAffinity -3.42886949
REMARK minimizedRMSD -1
REMARK  0 active torsions:
REMARK  status: ('A' for Active; 'I' for Inactive)
ROOT
ATOM      1  C   UNL d   1      -1.037   2.981   0.168  0.00  0.00     0.020 A 
ATOM      2  C1  UNL d   1      -1.577   2.677   1.417  0.00  0.00     0.020 A 
ATOM      3  C2  UNL d   1      -1.379   1.412   1.974  0.00  0.00     0.034 A 
ATOM      4  C3  UNL d   1      -0.641   0.446   1.281  0.00  0.00     0.017 A 
ATOM      5  C4  UNL d   1      -0.100   0.751   0.027  0.00  0.00     0.017 A 
ATOM      6  C5  UNL d   1      -0.301   2.020  -0.526  0.00  0.00     0.034 A 
ATOM      7 Cl   UNL d   1       0.822  -0.389  -0.888  0.00  0.00    -0.070 Cl
ATOM      8 Cl1  UNL d   1      -0.436  -1.098   2.030  0.00  0.00    -0.070 Cl
ENDROOT
TORSDOF 0
ENDMDL
