MODEL 1
REMARK minimizedAffinity -0.857189
REMARK minimizedRMSD -1
REMARK  0 active torsions:
REMARK  status: ('A' for Active; 'I' for Inactive)
ROOT
ATOM      1  C   UNL d   1      -1.420  -0.612   2.605  0.00  0.00     0.020 A 
ATOM      2  C1  UNL d   1      -1.567   0.774   2.638  0.00  0.00     0.020 A 
ATOM      3  C2  UNL d   1      -1.071   1.554   1.591  0.00  0.00     0.034 A 
ATOM      4  C3  UNL d   1      -0.426   0.949   0.507  0.00  0.00     0.017 A 
ATOM      5  C4  UNL d   1      -0.280  -0.443   0.474  0.00  0.00     0.017 A 
ATOM      6  C5  UNL d   1      -0.778  -1.219   1.524  0.00  0.00     0.034 A 
ATOM      7 Cl   UNL d   1       0.504  -1.262  -0.831  0.00  0.00    -0.070 Cl
ATOM      8 Cl1  UNL d   1       0.162   1.975  -0.753  0.00  0.00    -0.070 Cl
ENDROOT
TORSDOF 0
ENDMDL
