MODEL 1
REMARK minimizedAffinity -1.98914433
REMARK minimizedRMSD -1
REMARK  0 active torsions:
REMARK  status: ('A' for Active; 'I' for Inactive)
ROOT
ATOM      1  C   UNL d   1      -0.763   3.143   1.499  0.00  0.00     0.020 A 
ATOM      2  C1  UNL d   1      -0.121   3.271   0.268  0.00  0.00     0.020 A 
ATOM      3  C2  UNL d   1       0.354   2.136  -0.393  0.00  0.00     0.034 A 
ATOM      4  C3  UNL d   1       0.189   0.869   0.177  0.00  0.00     0.017 A 
ATOM      5  C4  UNL d   1      -0.455   0.741   1.412  0.00  0.00     0.017 A 
ATOM      6  C5  UNL d   1      -0.930   1.880   2.070  0.00  0.00     0.034 A 
ATOM      7 Cl   UNL d   1      -0.697  -0.790   2.178  0.00  0.00    -0.070 Cl
ATOM      8 Cl1  UNL d   1       0.802  -0.491  -0.696  0.00  0.00    -0.070 Cl
ENDROOT
TORSDOF 0
ENDMDL
