MODEL 1
REMARK minimizedAffinity -3.2053442
REMARK minimizedRMSD -1
REMARK  0 active torsions:
REMARK  status: ('A' for Active; 'I' for Inactive)
ROOT
ATOM      1  C   UNL d   1      -0.141  -0.799   0.870  0.00  0.00     0.020 A 
ATOM      2  C1  UNL d   1      -0.783  -0.158   1.929  0.00  0.00     0.020 A 
ATOM      3  C2  UNL d   1      -0.817   1.237   1.983  0.00  0.00     0.034 A 
ATOM      4  C3  UNL d   1      -0.208   1.995   0.976  0.00  0.00     0.017 A 
ATOM      5  C4  UNL d   1       0.436   1.351  -0.086  0.00  0.00     0.017 A 
ATOM      6  C5  UNL d   1       0.467  -0.046  -0.135  0.00  0.00     0.034 A 
ATOM      7 Cl   UNL d   1       1.209   2.219  -1.365  0.00  0.00    -0.070 Cl
ATOM      8 Cl1  UNL d   1      -0.290   3.716   1.107  0.00  0.00    -0.070 Cl
ENDROOT
TORSDOF 0
ENDMDL
