MODEL 1
REMARK minimizedAffinity -0.757235646
REMARK minimizedRMSD -1
REMARK  0 active torsions:
REMARK  status: ('A' for Active; 'I' for Inactive)
ROOT
ATOM      1  C   UNL d   1      -0.724  -0.525   1.960  0.00  0.00     0.020 A 
ATOM      2  C1  UNL d   1      -1.264   0.737   2.206  0.00  0.00     0.020 A 
ATOM      3  C2  UNL d   1      -1.036   1.782   1.308  0.00  0.00     0.034 A 
ATOM      4  C3  UNL d   1      -0.265   1.567   0.159  0.00  0.00     0.017 A 
ATOM      5  C4  UNL d   1       0.277   0.300  -0.087  0.00  0.00     0.017 A 
ATOM      6  C5  UNL d   1       0.045  -0.742   0.816  0.00  0.00     0.034 A 
ATOM      7 Cl   UNL d   1       1.238  -0.042  -1.482  0.00  0.00    -0.070 Cl
ATOM      8 Cl1  UNL d   1      -0.024   2.904  -0.908  0.00  0.00    -0.070 Cl
ENDROOT
TORSDOF 0
ENDMDL
