MODEL 1
REMARK minimizedAffinity -2.47564101
REMARK minimizedRMSD -1
REMARK  0 active torsions:
REMARK  status: ('A' for Active; 'I' for Inactive)
ROOT
ATOM      1  C   UNL d   1      -0.416   3.599   0.725  0.00  0.00     0.020 A 
ATOM      2  C1  UNL d   1       0.230   3.347  -0.485  0.00  0.00     0.020 A 
ATOM      3  C2  UNL d   1       0.486   2.032  -0.880  0.00  0.00     0.034 A 
ATOM      4  C3  UNL d   1       0.095   0.964  -0.064  0.00  0.00     0.017 A 
ATOM      5  C4  UNL d   1      -0.553   1.217   1.150  0.00  0.00     0.017 A 
ATOM      6  C5  UNL d   1      -0.806   2.536   1.541  0.00  0.00     0.034 A 
ATOM      7 Cl   UNL d   1      -1.065  -0.049   2.209  0.00  0.00    -0.070 Cl
ATOM      8 Cl1  UNL d   1       0.442  -0.636  -0.615  0.00  0.00    -0.070 Cl
ENDROOT
TORSDOF 0
ENDMDL
