MODEL 1
REMARK minimizedAffinity -4.52495527
REMARK minimizedRMSD -1
REMARK  0 active torsions:
REMARK  status: ('A' for Active; 'I' for Inactive)
ROOT
ATOM      1  C   UNL d   1      -0.868   2.910   1.622  0.00  0.00     0.020 A 
ATOM      2  C1  UNL d   1      -1.004   1.639   2.179  0.00  0.00     0.020 A 
ATOM      3  C2  UNL d   1      -0.521   0.522   1.494  0.00  0.00     0.034 A 
ATOM      4  C3  UNL d   1       0.100   0.673   0.250  0.00  0.00     0.017 A 
ATOM      5  C4  UNL d   1       0.237   1.949  -0.308  0.00  0.00     0.017 A 
ATOM      6  C5  UNL d   1      -0.248   3.065   0.381  0.00  0.00     0.034 A 
ATOM      7 Cl   UNL d   1       0.993   2.215  -1.840  0.00  0.00    -0.070 Cl
ATOM      8 Cl1  UNL d   1       0.674  -0.753  -0.540  0.00  0.00    -0.070 Cl
ENDROOT
TORSDOF 0
ENDMDL
