MODEL 1
REMARK minimizedAffinity -1.23082852
REMARK minimizedRMSD -1
REMARK  0 active torsions:
REMARK  status: ('A' for Active; 'I' for Inactive)
ROOT
ATOM      1  C   UNL d   1      -1.533   1.403   2.234  0.00  0.00     0.020 A 
ATOM      2  C1  UNL d   1      -1.355   0.022   2.171  0.00  0.00     0.020 A 
ATOM      3  C2  UNL d   1      -0.624  -0.541   1.123  0.00  0.00     0.034 A 
ATOM      4  C3  UNL d   1      -0.068   0.278   0.133  0.00  0.00     0.017 A 
ATOM      5  C4  UNL d   1      -0.248   1.664   0.197  0.00  0.00     0.017 A 
ATOM      6  C5  UNL d   1      -0.981   2.223   1.249  0.00  0.00     0.034 A 
ATOM      7 Cl   UNL d   1       0.407   2.739  -0.987  0.00  0.00    -0.070 Cl
ATOM      8 Cl1  UNL d   1       0.824  -0.486  -1.134  0.00  0.00    -0.070 Cl
ENDROOT
TORSDOF 0
ENDMDL
