MODEL 1
REMARK minimizedAffinity -2.90960693
REMARK minimizedRMSD -1
REMARK  0 active torsions:
REMARK  status: ('A' for Active; 'I' for Inactive)
ROOT
ATOM      1  C   UNL d   1      -1.306   0.328   1.929  0.00  0.00     0.020 A 
ATOM      2  C1  UNL d   1      -0.605  -0.795   1.492  0.00  0.00     0.020 A 
ATOM      3  C2  UNL d   1       0.369  -0.669   0.499  0.00  0.00     0.034 A 
ATOM      4  C3  UNL d   1       0.645   0.585  -0.060  0.00  0.00     0.017 A 
ATOM      5  C4  UNL d   1      -0.059   1.712   0.379  0.00  0.00     0.017 A 
ATOM      6  C5  UNL d   1      -1.033   1.579   1.374  0.00  0.00     0.034 A 
ATOM      7 Cl   UNL d   1       0.227   3.291  -0.263  0.00  0.00    -0.070 Cl
ATOM      8 Cl1  UNL d   1       1.862   0.668  -1.283  0.00  0.00    -0.070 Cl
ENDROOT
TORSDOF 0
ENDMDL
