MODEL 1
REMARK minimizedAffinity -3.14233375
REMARK minimizedRMSD -1
REMARK  0 active torsions:
REMARK  status: ('A' for Active; 'I' for Inactive)
ROOT
ATOM      1  C   UNL d   1       0.710  -1.534   1.040  0.00  0.00     0.020 A 
ATOM      2  C1  UNL d   1       1.171  -1.141  -0.216  0.00  0.00     0.020 A 
ATOM      3  C2  UNL d   1       1.038   0.188  -0.624  0.00  0.00     0.034 A 
ATOM      4  C3  UNL d   1       0.443   1.128   0.225  0.00  0.00     0.017 A 
ATOM      5  C4  UNL d   1      -0.019   0.733   1.485  0.00  0.00     0.017 A 
ATOM      6  C5  UNL d   1       0.116  -0.599   1.889  0.00  0.00     0.034 A 
ATOM      7 Cl   UNL d   1      -0.764   1.836   2.587  0.00  0.00    -0.070 Cl
ATOM      8 Cl1  UNL d   1       0.312   2.754  -0.345  0.00  0.00    -0.070 Cl
ENDROOT
TORSDOF 0
ENDMDL
