MODEL 1
REMARK minimizedAffinity -2.89653444
REMARK minimizedRMSD -1
REMARK  0 active torsions:
REMARK  status: ('A' for Active; 'I' for Inactive)
ROOT
ATOM      1  C   UNL d   1       0.195   3.016   0.028  0.00  0.00     0.020 A 
ATOM      2  C1  UNL d   1      -0.481   2.994   1.247  0.00  0.00     0.020 A 
ATOM      3  C2  UNL d   1      -0.681   1.783   1.913  0.00  0.00     0.034 A 
ATOM      4  C3  UNL d   1      -0.206   0.588   1.359  0.00  0.00     0.017 A 
ATOM      5  C4  UNL d   1       0.472   0.611   0.135  0.00  0.00     0.017 A 
ATOM      6  C5  UNL d   1       0.670   1.827  -0.527  0.00  0.00     0.034 A 
ATOM      7 Cl   UNL d   1       1.087  -0.822  -0.611  0.00  0.00    -0.070 Cl
ATOM      8 Cl1  UNL d   1      -0.490  -0.873   2.237  0.00  0.00    -0.070 Cl
ENDROOT
TORSDOF 0
ENDMDL
