MODEL 1
REMARK minimizedAffinity -3.65859461
REMARK minimizedRMSD -1
REMARK  0 active torsions:
REMARK  status: ('A' for Active; 'I' for Inactive)
ROOT
ATOM      1  C   UNL d   1       1.327  -2.179  -2.040  0.00  0.00     0.020 A 
ATOM      2  C1  UNL d   1       0.029  -2.533  -2.404  0.00  0.00     0.020 A 
ATOM      3  C2  UNL d   1      -1.038  -2.255  -1.546  0.00  0.00     0.034 A 
ATOM      4  C3  UNL d   1      -0.807  -1.621  -0.319  0.00  0.00     0.017 A 
ATOM      5  C4  UNL d   1       0.497  -1.266   0.045  0.00  0.00     0.017 A 
ATOM      6  C5  UNL d   1       1.560  -1.547  -0.818  0.00  0.00     0.034 A 
ATOM      7 Cl   UNL d   1       0.860  -0.482   1.542  0.00  0.00    -0.070 Cl
ATOM      8 Cl1  UNL d   1      -2.172  -1.308   0.692  0.00  0.00    -0.070 Cl
ENDROOT
TORSDOF 0
ENDMDL
