MODEL 1
REMARK minimizedAffinity -1.91841042
REMARK minimizedRMSD -1
REMARK  0 active torsions:
REMARK  status: ('A' for Active; 'I' for Inactive)
ROOT
ATOM      1  C   UNL d   1       0.922  -1.748  -0.724  0.00  0.00     0.020 A 
ATOM      2  C1  UNL d   1       1.232  -0.453  -1.140  0.00  0.00     0.020 A 
ATOM      3  C2  UNL d   1       0.848   0.641  -0.362  0.00  0.00     0.034 A 
ATOM      4  C3  UNL d   1       0.151   0.443   0.836  0.00  0.00     0.017 A 
ATOM      5  C4  UNL d   1      -0.159  -0.857   1.253  0.00  0.00     0.017 A 
ATOM      6  C5  UNL d   1       0.228  -1.949   0.470  0.00  0.00     0.034 A 
ATOM      7 Cl   UNL d   1      -1.016  -1.180   2.718  0.00  0.00    -0.070 Cl
ATOM      8 Cl1  UNL d   1      -0.292   1.842   1.748  0.00  0.00    -0.070 Cl
ENDROOT
TORSDOF 0
ENDMDL
