MODEL 1
REMARK minimizedAffinity -1.84536672
REMARK minimizedRMSD -1
REMARK  0 active torsions:
REMARK  status: ('A' for Active; 'I' for Inactive)
ROOT
ATOM      1  C   UNL d   1       0.705  -3.114  -2.625  0.00  0.00     0.020 A 
ATOM      2  C1  UNL d   1      -0.335  -3.346  -1.727  0.00  0.00     0.020 A 
ATOM      3  C2  UNL d   1      -0.542  -2.473  -0.657  0.00  0.00     0.034 A 
ATOM      4  C3  UNL d   1       0.293  -1.363  -0.482  0.00  0.00     0.017 A 
ATOM      5  C4  UNL d   1       1.337  -1.131  -1.384  0.00  0.00     0.017 A 
ATOM      6  C5  UNL d   1       1.540  -2.008  -2.454  0.00  0.00     0.034 A 
ATOM      7 Cl   UNL d   1       2.408   0.217  -1.235  0.00  0.00    -0.070 Cl
ATOM      8 Cl1  UNL d   1      -0.022  -0.325   0.863  0.00  0.00    -0.070 Cl
ENDROOT
TORSDOF 0
ENDMDL
