MODEL 1
REMARK minimizedAffinity -1.18507814
REMARK minimizedRMSD -1
REMARK  0 active torsions:
REMARK  status: ('A' for Active; 'I' for Inactive)
ROOT
ATOM      1  C   UNL d   1       0.342   3.902  -0.907  0.00  0.00     0.020 A 
ATOM      2  C1  UNL d   1      -0.260   4.510   0.194  0.00  0.00     0.020 A 
ATOM      3  C2  UNL d   1      -0.760   3.728   1.238  0.00  0.00     0.034 A 
ATOM      4  C3  UNL d   1      -0.659   2.333   1.183  0.00  0.00     0.017 A 
ATOM      5  C4  UNL d   1      -0.054   1.723   0.077  0.00  0.00     0.017 A 
ATOM      6  C5  UNL d   1       0.444   2.511  -0.965  0.00  0.00     0.034 A 
ATOM      7 Cl   UNL d   1       0.107   0.008  -0.062  0.00  0.00    -0.070 Cl
ATOM      8 Cl1  UNL d   1      -1.298   1.428   2.509  0.00  0.00    -0.070 Cl
ENDROOT
TORSDOF 0
ENDMDL
