MODEL 1
REMARK minimizedAffinity -5.12786531
REMARK minimizedRMSD -1
REMARK  1 active torsions:
REMARK  status: ('A' for Active; 'I' for Inactive)
REMARK    1  A    between atoms: C3_4  and  O_7 
ROOT
ATOM      1  C   UNL d   1      -0.050  -0.717   0.579  0.00  0.00    -0.033 A 
ATOM      2  C1  UNL d   1       0.511   0.141  -0.370  0.00  0.00     0.039 A 
ATOM      3  C2  UNL d   1       1.891   0.146  -0.579  0.00  0.00    -0.080 A 
ATOM      4  C3  UNL d   1       2.698  -0.711   0.164  0.00  0.00     0.150 A 
ATOM      5  C4  UNL d   1       2.146  -1.571   1.107  0.00  0.00    -0.007 A 
ATOM      6  C5  UNL d   1       0.768  -1.574   1.316  0.00  0.00     0.039 A 
ENDROOT
BRANCH   4   7
ATOM      7  O   UNL d   1       4.051  -0.738  -0.003  0.00  0.00    -0.526 OA
ATOM      8  H5  UNL d   1       4.293  -0.071  -0.666  0.00  0.00     0.418 HD
ENDBRANCH   4   7
TORSDOF 1
ENDMDL
