MODEL 1
REMARK minimizedAffinity -4.36249876
REMARK minimizedRMSD -1
REMARK  1 active torsions:
REMARK  status: ('A' for Active; 'I' for Inactive)
REMARK    1  A    between atoms: C3_4  and  O_7 
ROOT
ATOM      1  C   UNL d   1      -1.913   1.096  -1.859  0.00  0.00    -0.033 A 
ATOM      2  C1  UNL d   1      -1.983   1.508  -3.191  0.00  0.00     0.039 A 
ATOM      3  C2  UNL d   1      -1.182   2.559  -3.641  0.00  0.00    -0.080 A 
ATOM      4  C3  UNL d   1      -0.315   3.188  -2.751  0.00  0.00     0.150 A 
ATOM      5  C4  UNL d   1      -0.237   2.780  -1.424  0.00  0.00    -0.007 A 
ATOM      6  C5  UNL d   1      -1.039   1.730  -0.976  0.00  0.00     0.039 A 
ENDROOT
BRANCH   4   7
ATOM      7  O   UNL d   1       0.482   4.222  -3.144  0.00  0.00    -0.526 OA
ATOM      8  H5  UNL d   1       0.301   4.413  -4.079  0.00  0.00     0.418 HD
ENDBRANCH   4   7
TORSDOF 1
ENDMDL
