MODEL 1
REMARK minimizedAffinity -5.31102371
REMARK minimizedRMSD -1
REMARK  1 active torsions:
REMARK  status: ('A' for Active; 'I' for Inactive)
REMARK    1  A    between atoms: C3_4  and  O_7 
ROOT
ATOM      1  C   UNL d   1       0.621   0.945   0.027  0.00  0.00    -0.033 A 
ATOM      2  C1  UNL d   1      -0.271   0.079   0.662  0.00  0.00     0.039 A 
ATOM      3  C2  UNL d   1       0.171  -1.159   1.132  0.00  0.00    -0.080 A 
ATOM      4  C3  UNL d   1       1.505  -1.518   0.963  0.00  0.00     0.150 A 
ATOM      5  C4  UNL d   1       2.400  -0.658   0.335  0.00  0.00    -0.007 A 
ATOM      6  C5  UNL d   1       1.957   0.577  -0.135  0.00  0.00     0.039 A 
ENDROOT
BRANCH   4   7
ATOM      7  O   UNL d   1       1.981  -2.718   1.401  0.00  0.00    -0.526 OA
ATOM      8  H5  UNL d   1       1.244  -3.219   1.789  0.00  0.00     0.418 HD
ENDBRANCH   4   7
TORSDOF 1
ENDMDL
