MODEL 1
REMARK minimizedAffinity -4.51710415
REMARK minimizedRMSD -1
REMARK  1 active torsions:
REMARK  status: ('A' for Active; 'I' for Inactive)
REMARK    1  A    between atoms: C3_4  and  O_7 
ROOT
ATOM      1  C   UNL d   1      -0.421   3.533  -2.430  0.00  0.00    -0.033 A 
ATOM      2  C1  UNL d   1      -1.025   2.683  -1.501  0.00  0.00     0.039 A 
ATOM      3  C2  UNL d   1      -2.016   1.789  -1.911  0.00  0.00    -0.080 A 
ATOM      4  C3  UNL d   1      -2.391   1.752  -3.251  0.00  0.00     0.150 A 
ATOM      5  C4  UNL d   1      -1.791   2.593  -4.183  0.00  0.00    -0.007 A 
ATOM      6  C5  UNL d   1      -0.803   3.486  -3.771  0.00  0.00     0.039 A 
ENDROOT
BRANCH   4   7
ATOM      7  O   UNL d   1      -3.357   0.899  -3.697  0.00  0.00    -0.526 OA
ATOM      8  H5  UNL d   1      -3.702   0.401  -2.938  0.00  0.00     0.418 HD
ENDBRANCH   4   7
TORSDOF 1
ENDMDL
