MODEL 1
REMARK minimizedAffinity -2.32766533
REMARK minimizedRMSD -1
REMARK  1 active torsions:
REMARK  status: ('A' for Active; 'I' for Inactive)
REMARK    1  A    between atoms: C3_4  and  O_7 
ROOT
ATOM      1  C   UNL d   1       1.076   0.863  -0.927  0.00  0.00    -0.033 A 
ATOM      2  C1  UNL d   1       2.407   0.586  -0.606  0.00  0.00     0.039 A 
ATOM      3  C2  UNL d   1       2.724  -0.545   0.148  0.00  0.00    -0.080 A 
ATOM      4  C3  UNL d   1       1.704  -1.391   0.574  0.00  0.00     0.150 A 
ATOM      5  C4  UNL d   1       0.377  -1.123   0.255  0.00  0.00    -0.007 A 
ATOM      6  C5  UNL d   1       0.061   0.007  -0.497  0.00  0.00     0.039 A 
ENDROOT
BRANCH   4   7
ATOM      7  O   UNL d   1       1.964  -2.505   1.316  0.00  0.00    -0.526 OA
ATOM      8  H5  UNL d   1       2.921  -2.546   1.483  0.00  0.00     0.418 HD
ENDBRANCH   4   7
TORSDOF 1
ENDMDL
