MODEL 1
REMARK minimizedAffinity -3.38461971
REMARK minimizedRMSD -1
REMARK  1 active torsions:
REMARK  status: ('A' for Active; 'I' for Inactive)
REMARK    1  A    between atoms: C3_4  and  O_7 
ROOT
ATOM      1  C   UNL d   1      -0.654   0.853   0.236  0.00  0.00    -0.033 A 
ATOM      2  C1  UNL d   1      -1.302  -0.079   1.049  0.00  0.00     0.039 A 
ATOM      3  C2  UNL d   1      -0.706  -1.314   1.310  0.00  0.00    -0.080 A 
ATOM      4  C3  UNL d   1       0.537  -1.604   0.755  0.00  0.00     0.150 A 
ATOM      5  C4  UNL d   1       1.190  -0.679  -0.052  0.00  0.00    -0.007 A 
ATOM      6  C5  UNL d   1       0.593   0.554  -0.313  0.00  0.00     0.039 A 
ENDROOT
BRANCH   4   7
ATOM      7  O   UNL d   1       1.156  -2.799   0.978  0.00  0.00    -0.526 OA
ATOM      8  H5  UNL d   1       0.574  -3.348   1.529  0.00  0.00     0.418 HD
ENDBRANCH   4   7
TORSDOF 1
ENDMDL
