MODEL 1
REMARK minimizedAffinity -2.6979239
REMARK minimizedRMSD -1
REMARK  1 active torsions:
REMARK  status: ('A' for Active; 'I' for Inactive)
REMARK    1  A    between atoms: C3_4  and  O_7 
ROOT
ATOM      1  C   UNL d   1      -0.321   1.041  -0.491  0.00  0.00    -0.033 A 
ATOM      2  C1  UNL d   1      -0.753   0.091   0.435  0.00  0.00     0.039 A 
ATOM      3  C2  UNL d   1       0.113  -0.921   0.856  0.00  0.00    -0.080 A 
ATOM      4  C3  UNL d   1       1.406  -0.970   0.344  0.00  0.00     0.150 A 
ATOM      5  C4  UNL d   1       1.845  -0.024  -0.577  0.00  0.00    -0.007 A 
ATOM      6  C5  UNL d   1       0.979   0.985  -0.996  0.00  0.00     0.039 A 
ENDROOT
BRANCH   4   7
ATOM      7  O   UNL d   1       2.285  -1.941   0.720  0.00  0.00    -0.526 OA
ATOM      8  H5  UNL d   1       1.835  -2.541   1.338  0.00  0.00     0.418 HD
ENDBRANCH   4   7
TORSDOF 1
ENDMDL
