MODEL 1
REMARK minimizedAffinity -4.55069065
REMARK minimizedRMSD -1
REMARK  1 active torsions:
REMARK  status: ('A' for Active; 'I' for Inactive)
REMARK    1  A    between atoms: C3_4  and  O_7 
ROOT
ATOM      1  C   UNL d   1       0.596   0.500  -0.187  0.00  0.00    -0.033 A 
ATOM      2  C1  UNL d   1       1.958   0.199  -0.130  0.00  0.00     0.039 A 
ATOM      3  C2  UNL d   1       2.376  -1.112   0.103  0.00  0.00    -0.080 A 
ATOM      4  C3  UNL d   1       1.423  -2.113   0.276  0.00  0.00     0.150 A 
ATOM      5  C4  UNL d   1       0.065  -1.821   0.216  0.00  0.00    -0.007 A 
ATOM      6  C5  UNL d   1      -0.351  -0.510  -0.015  0.00  0.00     0.039 A 
ENDROOT
BRANCH   4   7
ATOM      7  O   UNL d   1       1.783  -3.407   0.510  0.00  0.00    -0.526 OA
ATOM      8  H5  UNL d   1       2.753  -3.453   0.553  0.00  0.00     0.418 HD
ENDBRANCH   4   7
TORSDOF 1
ENDMDL
