MODEL 1
REMARK minimizedAffinity -4.22718763
REMARK minimizedRMSD -1
REMARK  1 active torsions:
REMARK  status: ('A' for Active; 'I' for Inactive)
REMARK    1  A    between atoms: C3_4  and  O_7 
ROOT
ATOM      1  C   UNL d   1       0.176   0.246  -0.378  0.00  0.00    -0.033 A 
ATOM      2  C1  UNL d   1      -0.649  -0.724   0.194  0.00  0.00     0.039 A 
ATOM      3  C2  UNL d   1      -0.093  -1.886   0.733  0.00  0.00    -0.080 A 
ATOM      4  C3  UNL d   1       1.287  -2.065   0.694  0.00  0.00     0.150 A 
ATOM      5  C4  UNL d   1       2.115  -1.101   0.128  0.00  0.00    -0.007 A 
ATOM      6  C5  UNL d   1       1.558   0.059  -0.410  0.00  0.00     0.039 A 
ENDROOT
BRANCH   4   7
ATOM      7  O   UNL d   1       1.875  -3.185   1.202  0.00  0.00    -0.526 OA
ATOM      8  H5  UNL d   1       1.178  -3.775   1.534  0.00  0.00     0.418 HD
ENDBRANCH   4   7
TORSDOF 1
ENDMDL
