MODEL 1
REMARK minimizedAffinity -3.79554963
REMARK minimizedRMSD -1
REMARK  1 active torsions:
REMARK  status: ('A' for Active; 'I' for Inactive)
REMARK    1  A    between atoms: C3_4  and  O_7 
ROOT
ATOM      1  C   UNL d   1      -1.099   0.570   0.310  0.00  0.00    -0.033 A 
ATOM      2  C1  UNL d   1      -1.512  -0.296   1.325  0.00  0.00     0.039 A 
ATOM      3  C2  UNL d   1      -0.809  -1.478   1.566  0.00  0.00    -0.080 A 
ATOM      4  C3  UNL d   1       0.304  -1.782   0.787  0.00  0.00     0.150 A 
ATOM      5  C4  UNL d   1       0.724  -0.922  -0.223  0.00  0.00    -0.007 A 
ATOM      6  C5  UNL d   1       0.020   0.257  -0.463  0.00  0.00     0.039 A 
ENDROOT
BRANCH   4   7
ATOM      7  O   UNL d   1       1.019  -2.926   0.982  0.00  0.00    -0.526 OA
ATOM      8  H5  UNL d   1       0.597  -3.435   1.693  0.00  0.00     0.418 HD
ENDBRANCH   4   7
TORSDOF 1
ENDMDL
