MODEL 1
REMARK minimizedAffinity -4.40764046
REMARK minimizedRMSD -1
REMARK  1 active torsions:
REMARK  status: ('A' for Active; 'I' for Inactive)
REMARK    1  A    between atoms: C3_4  and  O_7 
ROOT
ATOM      1  C   UNL d   1      -0.010   0.811  -0.049  0.00  0.00    -0.033 A 
ATOM      2  C1  UNL d   1       1.345   0.667  -0.356  0.00  0.00     0.039 A 
ATOM      3  C2  UNL d   1       1.998  -0.538  -0.089  0.00  0.00    -0.080 A 
ATOM      4  C3  UNL d   1       1.287  -1.589   0.484  0.00  0.00     0.150 A 
ATOM      5  C4  UNL d   1      -0.063  -1.453   0.789  0.00  0.00    -0.007 A 
ATOM      6  C5  UNL d   1      -0.714  -0.249   0.522  0.00  0.00     0.039 A 
ENDROOT
BRANCH   4   7
ATOM      7  O   UNL d   1       1.883  -2.782   0.767  0.00  0.00    -0.526 OA
ATOM      8  H5  UNL d   1       2.823  -2.720   0.530  0.00  0.00     0.418 HD
ENDBRANCH   4   7
TORSDOF 1
ENDMDL
