MODEL 1
REMARK minimizedAffinity -1.6177249
REMARK minimizedRMSD -1
REMARK  1 active torsions:
REMARK  status: ('A' for Active; 'I' for Inactive)
REMARK    1  A    between atoms: C3_4  and  O_7 
ROOT
ATOM      1  C   UNL d   1       0.529   4.068  -3.676  0.00  0.00    -0.033 A 
ATOM      2  C1  UNL d   1      -0.419   4.183  -4.695  0.00  0.00     0.039 A 
ATOM      3  C2  UNL d   1      -1.547   3.361  -4.697  0.00  0.00    -0.080 A 
ATOM      4  C3  UNL d   1      -1.717   2.430  -3.676  0.00  0.00     0.150 A 
ATOM      5  C4  UNL d   1      -0.779   2.313  -2.656  0.00  0.00    -0.007 A 
ATOM      6  C5  UNL d   1       0.348   3.134  -2.656  0.00  0.00     0.039 A 
ENDROOT
BRANCH   4   7
ATOM      7  O   UNL d   1      -2.800   1.603  -3.639  0.00  0.00    -0.526 OA
ATOM      8  H5  UNL d   1      -3.348   1.778  -4.422  0.00  0.00     0.418 HD
ENDBRANCH   4   7
TORSDOF 1
ENDMDL
