MODEL 1
REMARK minimizedAffinity -3.57445598
REMARK minimizedRMSD -1
REMARK  1 active torsions:
REMARK  status: ('A' for Active; 'I' for Inactive)
REMARK    1  A    between atoms: C3_4  and  O_7 
ROOT
ATOM      1  C   UNL d   1       1.822  -2.249   0.855  0.00  0.00    -0.033 A 
ATOM      2  C1  UNL d   1       2.589  -1.170   0.411  0.00  0.00     0.039 A 
ATOM      3  C2  UNL d   1       1.969   0.029   0.054  0.00  0.00    -0.080 A 
ATOM      4  C3  UNL d   1       0.584   0.136   0.146  0.00  0.00     0.150 A 
ATOM      5  C4  UNL d   1      -0.186  -0.934   0.592  0.00  0.00    -0.007 A 
ATOM      6  C5  UNL d   1       0.435  -2.131   0.947  0.00  0.00     0.039 A 
ENDROOT
BRANCH   4   7
ATOM      7  O   UNL d   1      -0.066   1.284  -0.196  0.00  0.00    -0.526 OA
ATOM      8  H5  UNL d   1       0.590   1.927  -0.512  0.00  0.00     0.418 HD
ENDBRANCH   4   7
TORSDOF 1
ENDMDL
