MODEL 1
REMARK minimizedAffinity -2.81958795
REMARK minimizedRMSD -1
REMARK  1 active torsions:
REMARK  status: ('A' for Active; 'I' for Inactive)
REMARK    1  A    between atoms: C3_4  and  O_7 
ROOT
ATOM      1  C   UNL d   1       0.145  -2.955   0.672  0.00  0.00    -0.033 A 
ATOM      2  C1  UNL d   1       1.524  -2.742   0.615  0.00  0.00     0.039 A 
ATOM      3  C2  UNL d   1       2.027  -1.445   0.502  0.00  0.00    -0.080 A 
ATOM      4  C3  UNL d   1       1.143  -0.371   0.448  0.00  0.00     0.150 A 
ATOM      5  C4  UNL d   1      -0.231  -0.576   0.507  0.00  0.00    -0.007 A 
ATOM      6  C5  UNL d   1      -0.732  -1.872   0.619  0.00  0.00     0.039 A 
ENDROOT
BRANCH   4   7
ATOM      7  O   UNL d   1       1.588   0.913   0.333  0.00  0.00    -0.526 OA
ATOM      8  H5  UNL d   1       2.557   0.899   0.274  0.00  0.00     0.418 HD
ENDBRANCH   4   7
TORSDOF 1
ENDMDL
