MODEL 1
REMARK minimizedAffinity -5.1414175
REMARK minimizedRMSD -1
REMARK  1 active torsions:
REMARK  status: ('A' for Active; 'I' for Inactive)
REMARK    1  A    between atoms: C3_4  and  O_7 
ROOT
ATOM      1  C   UNL d   1       0.635   0.765   0.341  0.00  0.00    -0.033 A 
ATOM      2  C1  UNL d   1       1.933   0.265   0.457  0.00  0.00     0.039 A 
ATOM      3  C2  UNL d   1       2.150  -1.113   0.513  0.00  0.00    -0.080 A 
ATOM      4  C3  UNL d   1       1.062  -1.980   0.451  0.00  0.00     0.150 A 
ATOM      5  C4  UNL d   1      -0.234  -1.489   0.332  0.00  0.00    -0.007 A 
ATOM      6  C5  UNL d   1      -0.449  -0.112   0.277  0.00  0.00     0.039 A 
ENDROOT
BRANCH   4   7
ATOM      7  O   UNL d   1       1.224  -3.332   0.506  0.00  0.00    -0.526 OA
ATOM      8  H5  UNL d   1       2.170  -3.524   0.618  0.00  0.00     0.418 HD
ENDBRANCH   4   7
TORSDOF 1
ENDMDL
