MODEL 1
REMARK minimizedAffinity -4.58708429
REMARK minimizedRMSD -1
REMARK  1 active torsions:
REMARK  status: ('A' for Active; 'I' for Inactive)
REMARK    1  A    between atoms: C3_4  and  O_7 
ROOT
ATOM      1  C   UNL d   1       0.941   0.023  -0.019  0.00  0.00    -0.033 A 
ATOM      2  C1  UNL d   1       2.276  -0.266   0.269  0.00  0.00     0.039 A 
ATOM      3  C2  UNL d   1       2.647  -1.558   0.646  0.00  0.00    -0.080 A 
ATOM      4  C3  UNL d   1       1.675  -2.551   0.729  0.00  0.00     0.150 A 
ATOM      5  C4  UNL d   1       0.344  -2.271   0.440  0.00  0.00    -0.007 A 
ATOM      6  C5  UNL d   1      -0.025  -0.980   0.065  0.00  0.00     0.039 A 
ENDROOT
BRANCH   4   7
ATOM      7  O   UNL d   1       1.989  -3.826   1.097  0.00  0.00    -0.526 OA
ATOM      8  H5  UNL d   1       2.940  -3.864   1.294  0.00  0.00     0.418 HD
ENDBRANCH   4   7
TORSDOF 1
ENDMDL
