MODEL 1
REMARK minimizedAffinity -0.915799856
REMARK minimizedRMSD -1
REMARK  1 active torsions:
REMARK  status: ('A' for Active; 'I' for Inactive)
REMARK    1  A    between atoms: C3_4  and  O_7 
ROOT
ATOM      1  C   UNL d   1      -0.556   0.009  -0.184  0.00  0.00    -0.033 A 
ATOM      2  C1  UNL d   1       0.449   0.976  -0.114  0.00  0.00     0.039 A 
ATOM      3  C2  UNL d   1       1.727   0.627   0.326  0.00  0.00    -0.080 A 
ATOM      4  C3  UNL d   1       1.987  -0.691   0.691  0.00  0.00     0.150 A 
ATOM      5  C4  UNL d   1       0.992  -1.660   0.620  0.00  0.00    -0.007 A 
ATOM      6  C5  UNL d   1      -0.284  -1.309   0.182  0.00  0.00     0.039 A 
ENDROOT
BRANCH   4   7
ATOM      7  O   UNL d   1       3.218  -1.079   1.131  0.00  0.00    -0.526 OA
ATOM      8  H5  UNL d   1       3.796  -0.298   1.155  0.00  0.00     0.418 HD
ENDBRANCH   4   7
TORSDOF 1
ENDMDL
