MODEL 1
REMARK minimizedAffinity -1.62346494
REMARK minimizedRMSD -1
REMARK  0 active torsions:
REMARK  status: ('A' for Active; 'I' for Inactive)
ROOT
ATOM      1  C   UNL d   1      -0.389   3.278  -1.146  0.00  0.00     0.077 C 
ATOM      2  C1  UNL d   1      -0.173   2.043  -0.322  0.00  0.00    -0.074 A 
ATOM      3  C2  UNL d   1      -0.073   2.118   1.071  0.00  0.00    -0.005 A 
ATOM      4  C3  UNL d   1       0.119   0.960   1.825  0.00  0.00     0.006 A 
ATOM      5  C4  UNL d   1       0.212  -0.281   1.195  0.00  0.00    -0.005 A 
ATOM      6  C5  UNL d   1       0.113  -0.375  -0.196  0.00  0.00    -0.074 A 
ATOM      7  C6  UNL d   1       0.201  -1.703  -0.889  0.00  0.00     0.077 C 
ATOM      8  C7  UNL d   1      -0.087   0.791  -0.947  0.00  0.00    -0.001 A 
ENDROOT
TORSDOF 0
ENDMDL
