MODEL 1
REMARK minimizedAffinity -0.444118738
REMARK minimizedRMSD -1
REMARK  0 active torsions:
REMARK  status: ('A' for Active; 'I' for Inactive)
ROOT
ATOM      1  C   UNL d   1      -0.219  -0.172   1.054  0.00  0.00     0.077 C 
ATOM      2  C1  UNL d   1      -0.230   1.272   0.652  0.00  0.00    -0.074 A 
ATOM      3  C2  UNL d   1      -0.097   2.285   1.607  0.00  0.00    -0.005 A 
ATOM      4  C3  UNL d   1      -0.100   3.625   1.217  0.00  0.00     0.006 A 
ATOM      5  C4  UNL d   1      -0.237   3.964  -0.129  0.00  0.00    -0.005 A 
ATOM      6  C5  UNL d   1      -0.370   2.965  -1.099  0.00  0.00    -0.074 A 
ATOM      7  C6  UNL d   1      -0.508   3.312  -2.551  0.00  0.00     0.077 C 
ATOM      8  C7  UNL d   1      -0.359   1.621  -0.700  0.00  0.00    -0.001 A 
ENDROOT
TORSDOF 0
ENDMDL
