MODEL 1
REMARK minimizedAffinity -5.36758089
REMARK minimizedRMSD -1
REMARK  0 active torsions:
REMARK  status: ('A' for Active; 'I' for Inactive)
ROOT
ATOM      1  C   UNL d   1      -0.466   3.722  -0.746  0.00  0.00     0.077 C 
ATOM      2  C1  UNL d   1      -0.350   2.415  -0.021  0.00  0.00    -0.074 A 
ATOM      3  C2  UNL d   1      -0.336   2.366   1.377  0.00  0.00    -0.005 A 
ATOM      4  C3  UNL d   1      -0.237   1.142   2.037  0.00  0.00     0.006 A 
ATOM      5  C4  UNL d   1      -0.150  -0.045   1.308  0.00  0.00    -0.005 A 
ATOM      6  C5  UNL d   1      -0.163  -0.016  -0.090  0.00  0.00    -0.074 A 
ATOM      7  C6  UNL d   1      -0.081  -1.283  -0.889  0.00  0.00     0.077 C 
ATOM      8  C7  UNL d   1      -0.271   1.218  -0.747  0.00  0.00    -0.001 A 
ENDROOT
TORSDOF 0
ENDMDL
