MODEL 1
REMARK minimizedAffinity -3.2354207
REMARK minimizedRMSD -1
REMARK  0 active torsions:
REMARK  status: ('A' for Active; 'I' for Inactive)
ROOT
ATOM      1  C   UNL d   1       0.287   0.413  -2.439  0.00  0.00     0.077 C 
ATOM      2  C1  UNL d   1       0.136   0.241  -0.957  0.00  0.00    -0.074 A 
ATOM      3  C2  UNL d   1       0.567  -0.928  -0.321  0.00  0.00    -0.005 A 
ATOM      4  C3  UNL d   1       0.428  -1.070   1.060  0.00  0.00     0.006 A 
ATOM      5  C4  UNL d   1      -0.143  -0.047   1.817  0.00  0.00    -0.005 A 
ATOM      6  C5  UNL d   1      -0.579   1.129   1.199  0.00  0.00    -0.074 A 
ATOM      7  C6  UNL d   1      -1.187   2.243   2.000  0.00  0.00     0.077 C 
ATOM      8  C7  UNL d   1      -0.430   1.268  -0.188  0.00  0.00    -0.001 A 
ENDROOT
TORSDOF 0
ENDMDL
