MODEL 1
REMARK minimizedAffinity -1.2905972
REMARK minimizedRMSD -1
REMARK  0 active torsions:
REMARK  status: ('A' for Active; 'I' for Inactive)
ROOT
ATOM      1  C   UNL d   1       0.421   0.337   0.938  0.00  0.00     0.077 C 
ATOM      2  C1  UNL d   1       0.334  -0.787  -0.051  0.00  0.00    -0.074 A 
ATOM      3  C2  UNL d   1       1.045  -0.741  -1.255  0.00  0.00    -0.005 A 
ATOM      4  C3  UNL d   1       0.962  -1.799  -2.161  0.00  0.00     0.006 A 
ATOM      5  C4  UNL d   1       0.169  -2.910  -1.873  0.00  0.00    -0.005 A 
ATOM      6  C5  UNL d   1      -0.548  -2.974  -0.675  0.00  0.00    -0.074 A 
ATOM      7  C6  UNL d   1      -1.398  -4.165  -0.346  0.00  0.00     0.077 C 
ATOM      8  C7  UNL d   1      -0.454  -1.911   0.234  0.00  0.00    -0.001 A 
ENDROOT
TORSDOF 0
ENDMDL
