MODEL 1
REMARK minimizedAffinity -2.02281451
REMARK minimizedRMSD -1
REMARK  0 active torsions:
REMARK  status: ('A' for Active; 'I' for Inactive)
ROOT
ATOM      1  C   UNL d   1      -0.235   3.801   0.381  0.00  0.00     0.077 C 
ATOM      2  C1  UNL d   1      -0.101   2.374   0.822  0.00  0.00    -0.074 A 
ATOM      3  C2  UNL d   1      -0.085   2.040   2.181  0.00  0.00    -0.005 A 
ATOM      4  C3  UNL d   1       0.031   0.708   2.576  0.00  0.00     0.006 A 
ATOM      5  C4  UNL d   1       0.132  -0.303   1.619  0.00  0.00    -0.005 A 
ATOM      6  C5  UNL d   1       0.117   0.011   0.257  0.00  0.00    -0.074 A 
ATOM      7  C6  UNL d   1       0.215  -1.064  -0.785  0.00  0.00     0.077 C 
ATOM      8  C7  UNL d   1      -0.007   1.352  -0.133  0.00  0.00    -0.001 A 
ENDROOT
TORSDOF 0
ENDMDL
