MODEL 1
REMARK minimizedAffinity -5.40917349
REMARK minimizedRMSD -1
REMARK  0 active torsions:
REMARK  status: ('A' for Active; 'I' for Inactive)
ROOT
ATOM      1  C   UNL d   1      -0.005  -1.186  -0.084  0.00  0.00     0.078 C 
ATOM      2  C1  UNL d   1       0.054   0.312  -0.064  0.00  0.00    -0.077 A 
ATOM      3  C2  UNL d   1      -0.919   1.063   0.606  0.00  0.00    -0.001 A 
ATOM      4  C3  UNL d   1      -0.858   2.458   0.608  0.00  0.00     0.003 A 
ATOM      5  C4  UNL d   1       0.174   3.113  -0.061  0.00  0.00    -0.005 A 
ATOM      6  C5  UNL d   1       1.146   2.374  -0.733  0.00  0.00     0.003 A 
ATOM      7  C6  UNL d   1       1.086   0.980  -0.736  0.00  0.00    -0.001 A 
ENDROOT
TORSDOF 0
ENDMDL
