MODEL 1
REMARK minimizedAffinity -5.64953566
REMARK minimizedRMSD -1
REMARK  0 active torsions:
REMARK  status: ('A' for Active; 'I' for Inactive)
ROOT
ATOM      1  C   UNL d   1       0.240  -0.718   0.712  0.00  0.00     0.078 C 
ATOM      2  C1  UNL d   1       0.709   0.681   0.445  0.00  0.00    -0.077 A 
ATOM      3  C2  UNL d   1       1.993   1.095   0.818  0.00  0.00    -0.001 A 
ATOM      4  C3  UNL d   1       2.413   2.403   0.572  0.00  0.00     0.003 A 
ATOM      5  C4  UNL d   1       1.554   3.309  -0.048  0.00  0.00    -0.005 A 
ATOM      6  C5  UNL d   1       0.273   2.907  -0.421  0.00  0.00     0.003 A 
ATOM      7  C6  UNL d   1      -0.149   1.599  -0.175  0.00  0.00    -0.001 A 
ENDROOT
TORSDOF 0
ENDMDL
