MODEL 1
REMARK minimizedAffinity -2.46120238
REMARK minimizedRMSD -1
REMARK  0 active torsions:
REMARK  status: ('A' for Active; 'I' for Inactive)
ROOT
ATOM      1  C   UNL d   1      -1.273   1.901  -0.036  0.00  0.00     0.078 C 
ATOM      2  C1  UNL d   1       0.205   1.934   0.215  0.00  0.00    -0.077 A 
ATOM      3  C2  UNL d   1       1.011   0.827  -0.079  0.00  0.00    -0.001 A 
ATOM      4  C3  UNL d   1       2.384   0.869   0.169  0.00  0.00     0.003 A 
ATOM      5  C4  UNL d   1       2.962   2.013   0.714  0.00  0.00    -0.005 A 
ATOM      6  C5  UNL d   1       2.168   3.118   1.011  0.00  0.00     0.003 A 
ATOM      7  C6  UNL d   1       0.795   3.079   0.764  0.00  0.00    -0.001 A 
ENDROOT
TORSDOF 0
ENDMDL
