MODEL 1
REMARK minimizedAffinity -5.10050201
REMARK minimizedRMSD -1
REMARK  0 active torsions:
REMARK  status: ('A' for Active; 'I' for Inactive)
ROOT
ATOM      1  C   UNL d   1       3.170   1.560   0.374  0.00  0.00     0.078 C 
ATOM      2  C1  UNL d   1       1.705   1.780   0.142  0.00  0.00    -0.077 A 
ATOM      3  C2  UNL d   1       1.232   2.986  -0.390  0.00  0.00    -0.001 A 
ATOM      4  C3  UNL d   1      -0.135   3.181  -0.592  0.00  0.00     0.003 A 
ATOM      5  C4  UNL d   1      -1.041   2.175  -0.264  0.00  0.00    -0.005 A 
ATOM      6  C5  UNL d   1      -0.580   0.972   0.268  0.00  0.00     0.003 A 
ATOM      7  C6  UNL d   1       0.787   0.775   0.471  0.00  0.00    -0.001 A 
ENDROOT
TORSDOF 0
ENDMDL
