MODEL 1
REMARK minimizedAffinity -5.46781111
REMARK minimizedRMSD -1
REMARK  0 active torsions:
REMARK  status: ('A' for Active; 'I' for Inactive)
ROOT
ATOM      1  C   UNL d   1       0.867   3.955   0.009  0.00  0.00     0.078 C 
ATOM      2  C1  UNL d   1       0.358   2.559   0.211  0.00  0.00    -0.077 A 
ATOM      3  C2  UNL d   1       1.230   1.465   0.199  0.00  0.00    -0.001 A 
ATOM      4  C3  UNL d   1       0.741   0.170   0.379  0.00  0.00     0.003 A 
ATOM      5  C4  UNL d   1      -0.623  -0.043   0.570  0.00  0.00    -0.005 A 
ATOM      6  C5  UNL d   1      -1.499   1.040   0.580  0.00  0.00     0.003 A 
ATOM      7  C6  UNL d   1      -1.012   2.336   0.401  0.00  0.00    -0.001 A 
ENDROOT
TORSDOF 0
ENDMDL
