MODEL 1
REMARK minimizedAffinity -2.28380537
REMARK minimizedRMSD -1
REMARK  0 active torsions:
REMARK  status: ('A' for Active; 'I' for Inactive)
ROOT
ATOM      1  C   UNL d   1      -0.245  -0.643   0.155  0.00  0.00     0.078 C 
ATOM      2  C1  UNL d   1      -0.318  -1.866  -0.710  0.00  0.00    -0.077 A 
ATOM      3  C2  UNL d   1      -1.066  -2.983  -0.319  0.00  0.00    -0.001 A 
ATOM      4  C3  UNL d   1      -1.116  -4.118  -1.130  0.00  0.00     0.003 A 
ATOM      5  C4  UNL d   1      -0.420  -4.147  -2.336  0.00  0.00    -0.005 A 
ATOM      6  C5  UNL d   1       0.329  -3.041  -2.733  0.00  0.00     0.003 A 
ATOM      7  C6  UNL d   1       0.381  -1.906  -1.924  0.00  0.00    -0.001 A 
ENDROOT
TORSDOF 0
ENDMDL
