MODEL 1
REMARK minimizedAffinity -5.85336208
REMARK minimizedRMSD -1
REMARK  0 active torsions:
REMARK  status: ('A' for Active; 'I' for Inactive)
ROOT
ATOM      1  C   UNL d   1      -1.283   1.237   0.382  0.00  0.00     0.078 C 
ATOM      2  C1  UNL d   1       0.170   1.598   0.476  0.00  0.00    -0.077 A 
ATOM      3  C2  UNL d   1       1.152   0.608   0.600  0.00  0.00    -0.001 A 
ATOM      4  C3  UNL d   1       2.500   0.959   0.696  0.00  0.00     0.003 A 
ATOM      5  C4  UNL d   1       2.877   2.300   0.669  0.00  0.00    -0.005 A 
ATOM      6  C5  UNL d   1       1.906   3.293   0.548  0.00  0.00     0.003 A 
ATOM      7  C6  UNL d   1       0.558   2.944   0.452  0.00  0.00    -0.001 A 
ENDROOT
TORSDOF 0
ENDMDL
