MODEL 1
REMARK minimizedAffinity -2.49625015
REMARK minimizedRMSD -1
REMARK  0 active torsions:
REMARK  status: ('A' for Active; 'I' for Inactive)
ROOT
ATOM      1  C   UNL d   1       0.417   3.136   1.023  0.00  0.00     0.078 C 
ATOM      2  C1  UNL d   1       0.208   1.694   0.668  0.00  0.00    -0.077 A 
ATOM      3  C2  UNL d   1      -1.036   1.236   0.217  0.00  0.00    -0.001 A 
ATOM      4  C3  UNL d   1      -1.219  -0.111  -0.101  0.00  0.00     0.003 A 
ATOM      5  C4  UNL d   1      -0.163  -1.010   0.029  0.00  0.00    -0.005 A 
ATOM      6  C5  UNL d   1       1.078  -0.564   0.479  0.00  0.00     0.003 A 
ATOM      7  C6  UNL d   1       1.263   0.782   0.798  0.00  0.00    -0.001 A 
ENDROOT
TORSDOF 0
ENDMDL
