MODEL 1
REMARK minimizedAffinity -4.76292181
REMARK minimizedRMSD -1
REMARK  0 active torsions:
REMARK  status: ('A' for Active; 'I' for Inactive)
ROOT
ATOM      1  C   UNL d   1      -0.014  -0.991  -0.010  0.00  0.00     0.078 C 
ATOM      2  C1  UNL d   1       0.004   0.507   0.051  0.00  0.00    -0.077 A 
ATOM      3  C2  UNL d   1       1.195   1.222  -0.125  0.00  0.00    -0.001 A 
ATOM      4  C3  UNL d   1       1.198   2.616  -0.057  0.00  0.00     0.003 A 
ATOM      5  C4  UNL d   1       0.013   3.307   0.189  0.00  0.00    -0.005 A 
ATOM      6  C5  UNL d   1      -1.177   2.604   0.367  0.00  0.00     0.003 A 
ATOM      7  C6  UNL d   1      -1.182   1.210   0.299  0.00  0.00    -0.001 A 
ENDROOT
TORSDOF 0
ENDMDL
