MODEL 1
REMARK minimizedAffinity -4.68070459
REMARK minimizedRMSD -1
REMARK  0 active torsions:
REMARK  status: ('A' for Active; 'I' for Inactive)
ROOT
ATOM      1  C   UNL d   1      -0.014  -0.604  -0.326  0.00  0.00     0.078 C 
ATOM      2  C1  UNL d   1       0.421   0.784   0.038  0.00  0.00    -0.077 A 
ATOM      3  C2  UNL d   1       1.730   1.042   0.461  0.00  0.00    -0.001 A 
ATOM      4  C3  UNL d   1       2.118   2.338   0.806  0.00  0.00     0.003 A 
ATOM      5  C4  UNL d   1       1.202   3.386   0.732  0.00  0.00    -0.005 A 
ATOM      6  C5  UNL d   1      -0.104   3.138   0.314  0.00  0.00     0.003 A 
ATOM      7  C6  UNL d   1      -0.494   1.843  -0.031  0.00  0.00    -0.001 A 
ENDROOT
TORSDOF 0
ENDMDL
