MODEL 1
REMARK minimizedAffinity -3.47387171
REMARK minimizedRMSD -1
REMARK  0 active torsions:
REMARK  status: ('A' for Active; 'I' for Inactive)
ROOT
ATOM      1  C   UNL d   1       0.731  -0.600  -1.664  0.00  0.00     0.078 C 
ATOM      2  C1  UNL d   1       0.211   0.488  -0.774  0.00  0.00    -0.077 A 
ATOM      3  C2  UNL d   1       0.448   1.837  -1.069  0.00  0.00    -0.001 A 
ATOM      4  C3  UNL d   1      -0.035   2.839  -0.226  0.00  0.00     0.003 A 
ATOM      5  C4  UNL d   1      -0.756   2.504   0.918  0.00  0.00    -0.005 A 
ATOM      6  C5  UNL d   1      -0.995   1.165   1.221  0.00  0.00     0.003 A 
ATOM      7  C6  UNL d   1      -0.514   0.162   0.379  0.00  0.00    -0.001 A 
ENDROOT
TORSDOF 0
ENDMDL
