MODEL 1
REMARK minimizedAffinity -2.60658598
REMARK minimizedRMSD -1
REMARK  0 active torsions:
REMARK  status: ('A' for Active; 'I' for Inactive)
ROOT
ATOM      1  C   UNL d   1      -0.402  -2.053  -0.472  0.00  0.00     0.078 C 
ATOM      2  C1  UNL d   1      -0.444  -0.626  -0.012  0.00  0.00    -0.077 A 
ATOM      3  C2  UNL d   1      -1.657  -0.014   0.327  0.00  0.00    -0.001 A 
ATOM      4  C3  UNL d   1      -1.682   1.318   0.745  0.00  0.00     0.003 A 
ATOM      5  C4  UNL d   1      -0.499   2.049   0.826  0.00  0.00    -0.005 A 
ATOM      6  C5  UNL d   1       0.713   1.448   0.489  0.00  0.00     0.003 A 
ATOM      7  C6  UNL d   1       0.740   0.117   0.071  0.00  0.00    -0.001 A 
ENDROOT
TORSDOF 0
ENDMDL
