MODEL 1
REMARK minimizedAffinity -4.53846216
REMARK minimizedRMSD -1
REMARK  0 active torsions:
REMARK  status: ('A' for Active; 'I' for Inactive)
ROOT
ATOM      1  C   UNL d   1       0.256  -1.099  -0.239  0.00  0.00     0.078 C 
ATOM      2  C1  UNL d   1      -0.044   0.356  -0.032  0.00  0.00    -0.077 A 
ATOM      3  C2  UNL d   1       0.845   1.345  -0.467  0.00  0.00    -0.001 A 
ATOM      4  C3  UNL d   1       0.557   2.695  -0.259  0.00  0.00     0.003 A 
ATOM      5  C4  UNL d   1      -0.621   3.067   0.385  0.00  0.00    -0.005 A 
ATOM      6  C5  UNL d   1      -1.512   2.090   0.824  0.00  0.00     0.003 A 
ATOM      7  C6  UNL d   1      -1.225   0.739   0.617  0.00  0.00    -0.001 A 
ENDROOT
TORSDOF 0
ENDMDL
