MODEL 1
REMARK minimizedAffinity -2.26901555
REMARK minimizedRMSD -1
REMARK  1 active torsions:
REMARK  status: ('A' for Active; 'I' for Inactive)
REMARK    1  A    between atoms: C1_2  and  C2_3 
ROOT
ATOM      1  C2  UNL d   1       0.307  -0.480  -0.418  0.00  0.00    -0.081 A 
ATOM      2  C3  UNL d   1       0.672  -0.360   0.928  0.00  0.00     0.006 A 
ATOM      3  C4  UNL d   1       0.197   0.704   1.698  0.00  0.00     0.002 A 
ATOM      4  C5  UNL d   1      -0.658   1.660   1.138  0.00  0.00    -0.080 A 
ATOM      5  C6  UNL d   1      -1.200   2.790   1.962  0.00  0.00     0.076 C 
ATOM      6  C7  UNL d   1      -1.009   1.549  -0.212  0.00  0.00     0.002 A 
ATOM      7  C8  UNL d   1      -0.533   0.486  -0.982  0.00  0.00     0.006 A 
ENDROOT
BRANCH   1   8
ATOM      8  C1  UNL d   1       0.766  -1.662  -1.234  0.00  0.00     0.054 C 
ATOM      9  C   UNL d   1      -0.150  -2.862  -1.034  0.00  0.00     0.018 C 
ENDBRANCH   1   8
TORSDOF 1
ENDMDL
