MODEL 1
REMARK minimizedAffinity -4.52447462
REMARK minimizedRMSD -1
REMARK  1 active torsions:
REMARK  status: ('A' for Active; 'I' for Inactive)
REMARK    1  A    between atoms: C1_2  and  C2_3 
ROOT
ATOM      1  C2  UNL d   1      -0.436  -1.790  -0.770  0.00  0.00    -0.081 A 
ATOM      2  C3  UNL d   1      -1.283  -1.597   0.328  0.00  0.00     0.006 A 
ATOM      3  C4  UNL d   1      -1.049  -0.555   1.229  0.00  0.00     0.002 A 
ATOM      4  C5  UNL d   1       0.030   0.315   1.042  0.00  0.00    -0.080 A 
ATOM      5  C6  UNL d   1       0.274   1.457   1.984  0.00  0.00     0.076 C 
ATOM      6  C7  UNL d   1       0.886   0.112  -0.045  0.00  0.00     0.002 A 
ATOM      7  C8  UNL d   1       0.654  -0.930  -0.945  0.00  0.00     0.006 A 
ENDROOT
BRANCH   1   8
ATOM      8  C1  UNL d   1      -0.723  -2.873  -1.778  0.00  0.00     0.054 C 
ATOM      9  C   UNL d   1      -0.690  -4.252  -1.134  0.00  0.00     0.018 C 
ENDBRANCH   1   8
TORSDOF 1
ENDMDL
