MODEL 1
REMARK minimizedAffinity -4.86704636
REMARK minimizedRMSD -1
REMARK  1 active torsions:
REMARK  status: ('A' for Active; 'I' for Inactive)
REMARK    1  A    between atoms: C1_2  and  C2_3 
ROOT
ATOM      1  C2  UNL d   1      -0.132  -0.067   0.145  0.00  0.00    -0.081 A 
ATOM      2  C3  UNL d   1      -1.361  -0.731   0.051  0.00  0.00     0.006 A 
ATOM      3  C4  UNL d   1      -1.431  -2.017  -0.490  0.00  0.00     0.002 A 
ATOM      4  C5  UNL d   1      -0.274  -2.662  -0.939  0.00  0.00    -0.080 A 
ATOM      5  C6  UNL d   1      -0.331  -4.054  -1.495  0.00  0.00     0.076 C 
ATOM      6  C7  UNL d   1       0.952  -1.991  -0.862  0.00  0.00     0.002 A 
ATOM      7  C8  UNL d   1       1.022  -0.705  -0.321  0.00  0.00     0.006 A 
ENDROOT
BRANCH   1   8
ATOM      8  C1  UNL d   1      -0.044   1.294   0.788  0.00  0.00     0.054 C 
ATOM      9  C   UNL d   1       0.038   1.185   2.304  0.00  0.00     0.018 C 
ENDBRANCH   1   8
TORSDOF 1
ENDMDL
