MODEL 1
REMARK minimizedAffinity -2.20469308
REMARK minimizedRMSD -1
REMARK  1 active torsions:
REMARK  status: ('A' for Active; 'I' for Inactive)
REMARK    1  A    between atoms: C1_2  and  C2_3 
ROOT
ATOM      1  C2  UNL d   1      -0.234  -1.295  -0.888  0.00  0.00    -0.081 A 
ATOM      2  C3  UNL d   1      -1.164  -1.615  -1.884  0.00  0.00     0.006 A 
ATOM      3  C4  UNL d   1      -1.478  -2.949  -2.157  0.00  0.00     0.002 A 
ATOM      4  C5  UNL d   1      -0.873  -3.983  -1.435  0.00  0.00    -0.080 A 
ATOM      5  C6  UNL d   1      -1.223  -5.417  -1.698  0.00  0.00     0.076 C 
ATOM      6  C7  UNL d   1       0.070  -3.663  -0.452  0.00  0.00     0.002 A 
ATOM      7  C8  UNL d   1       0.385  -2.330  -0.178  0.00  0.00     0.006 A 
ENDROOT
BRANCH   1   8
ATOM      8  C1  UNL d   1       0.059   0.144  -0.546  0.00  0.00     0.054 C 
ATOM      9  C   UNL d   1       0.436   0.299   0.920  0.00  0.00     0.018 C 
ENDBRANCH   1   8
TORSDOF 1
ENDMDL
