MODEL 1
REMARK minimizedAffinity 2.96576047
REMARK minimizedRMSD -1
REMARK  1 active torsions:
REMARK  status: ('A' for Active; 'I' for Inactive)
REMARK    1  A    between atoms: C1_2  and  C2_3 
ROOT
ATOM      1  C2  UNL d   1       0.085  -1.466  -2.493  0.00  0.00    -0.081 A 
ATOM      2  C3  UNL d   1      -0.541  -1.910  -3.665  0.00  0.00     0.006 A 
ATOM      3  C4  UNL d   1      -1.205  -3.138  -3.691  0.00  0.00     0.002 A 
ATOM      4  C5  UNL d   1      -1.263  -3.938  -2.545  0.00  0.00    -0.080 A 
ATOM      5  C6  UNL d   1      -1.999  -5.245  -2.551  0.00  0.00     0.076 C 
ATOM      6  C7  UNL d   1      -0.623  -3.503  -1.379  0.00  0.00     0.002 A 
ATOM      7  C8  UNL d   1       0.042  -2.275  -1.353  0.00  0.00     0.006 A 
ENDROOT
BRANCH   1   8
ATOM      8  C1  UNL d   1       0.747  -0.112  -2.444  0.00  0.00     0.054 C 
ATOM      9  C   UNL d   1      -0.127   0.905  -1.724  0.00  0.00     0.018 C 
ENDBRANCH   1   8
TORSDOF 1
ENDMDL
