MODEL 1
REMARK minimizedAffinity 0.220991313
REMARK minimizedRMSD -1
REMARK  1 active torsions:
REMARK  status: ('A' for Active; 'I' for Inactive)
REMARK    1  A    between atoms: C1_2  and  C2_3 
ROOT
ATOM      1  C2  UNL d   1       0.231   1.348   0.971  0.00  0.00    -0.081 A 
ATOM      2  C3  UNL d   1       0.705   0.038   0.834  0.00  0.00     0.006 A 
ATOM      3  C4  UNL d   1       0.855  -0.782   1.955  0.00  0.00     0.002 A 
ATOM      4  C5  UNL d   1       0.526  -0.309   3.230  0.00  0.00    -0.080 A 
ATOM      5  C6  UNL d   1       0.654  -1.189   4.437  0.00  0.00     0.076 C 
ATOM      6  C7  UNL d   1       0.070   1.006   3.369  0.00  0.00     0.002 A 
ATOM      7  C8  UNL d   1      -0.080   1.826   2.249  0.00  0.00     0.006 A 
ENDROOT
BRANCH   1   8
ATOM      8  C1  UNL d   1       0.007   2.213  -0.242  0.00  0.00     0.054 C 
ATOM      9  C   UNL d   1      -0.079   1.376  -1.510  0.00  0.00     0.018 C 
ENDBRANCH   1   8
TORSDOF 1
ENDMDL
