MODEL 1
REMARK minimizedAffinity -4.32927418
REMARK minimizedRMSD -1
REMARK  0 active torsions:
REMARK  status: ('A' for Active; 'I' for Inactive)
ROOT
ATOM      1  C   UNL d   1      -1.161   3.279   1.191  0.00  0.00    -0.002 A 
ATOM      2  C1  UNL d   1      -0.515   3.322  -0.036  0.00  0.00     0.010 A 
ATOM      3  C2  UNL d   1      -0.049   2.150  -0.635  0.00  0.00     0.041 A 
ATOM      4  C3  UNL d   1      -0.247   0.922   0.026  0.00  0.00    -0.075 A 
ATOM      5  S   UNL d   1       0.238  -0.641  -0.518  0.00  0.00     0.015 SA
ATOM      6  C4  UNL d   1      -0.402  -1.403   0.865  0.00  0.00     0.022 A 
ATOM      7  C5  UNL d   1      -0.975  -0.502   1.731  0.00  0.00     0.026 A 
ATOM      8  C6  UNL d   1      -0.895   0.852   1.262  0.00  0.00    -0.082 A 
ATOM      9  C7  UNL d   1      -1.355   2.058   1.844  0.00  0.00     0.045 A 
ENDROOT
TORSDOF 0
ENDMDL
