MODEL 1
REMARK minimizedAffinity -1.28501177
REMARK minimizedRMSD -1
REMARK  0 active torsions:
REMARK  status: ('A' for Active; 'I' for Inactive)
ROOT
ATOM      1  C   UNL d   1      -0.200   0.328   1.030  0.00  0.00    -0.002 A 
ATOM      2  C1  UNL d   1      -1.494  -0.069   0.727  0.00  0.00     0.010 A 
ATOM      3  C2  UNL d   1      -1.730  -1.019  -0.269  0.00  0.00     0.041 A 
ATOM      4  C3  UNL d   1      -0.633  -1.569  -0.960  0.00  0.00    -0.075 A 
ATOM      5  S   UNL d   1      -0.681  -2.748  -2.218  0.00  0.00     0.015 SA
ATOM      6  C4  UNL d   1       1.015  -2.752  -2.381  0.00  0.00     0.022 A 
ATOM      7  C5  UNL d   1       1.620  -1.881  -1.506  0.00  0.00     0.026 A 
ATOM      8  C6  UNL d   1       0.680  -1.185  -0.672  0.00  0.00    -0.082 A 
ATOM      9  C7  UNL d   1       0.886  -0.220   0.342  0.00  0.00     0.045 A 
ENDROOT
TORSDOF 0
ENDMDL
