MODEL 1
REMARK minimizedAffinity 1.41047633
REMARK minimizedRMSD -1
REMARK  0 active torsions:
REMARK  status: ('A' for Active; 'I' for Inactive)
ROOT
ATOM      1  C   UNL d   1       1.087  -1.043   0.771  0.00  0.00    -0.002 A 
ATOM      2  C1  UNL d   1       1.328  -0.498  -0.482  0.00  0.00     0.010 A 
ATOM      3  C2  UNL d   1       0.626   0.628  -0.914  0.00  0.00     0.041 A 
ATOM      4  C3  UNL d   1      -0.331   1.205  -0.057  0.00  0.00    -0.075 A 
ATOM      5  S   UNL d   1      -1.311   2.588  -0.373  0.00  0.00     0.015 SA
ATOM      6  C4  UNL d   1      -2.072   2.490   1.149  0.00  0.00     0.022 A 
ATOM      7  C5  UNL d   1      -1.603   1.433   1.893  0.00  0.00     0.026 A 
ATOM      8  C6  UNL d   1      -0.591   0.676   1.210  0.00  0.00    -0.082 A 
ATOM      9  C7  UNL d   1       0.137  -0.468   1.619  0.00  0.00     0.045 A 
ENDROOT
TORSDOF 0
ENDMDL
