MODEL 1
REMARK minimizedAffinity -3.27492118
REMARK minimizedRMSD -1
REMARK  0 active torsions:
REMARK  status: ('A' for Active; 'I' for Inactive)
ROOT
ATOM      1  C   UNL d   1      -2.632   1.287   1.567  0.00  0.00    -0.002 A 
ATOM      2  C1  UNL d   1      -1.947   2.420   1.151  0.00  0.00     0.010 A 
ATOM      3  C2  UNL d   1      -0.848   2.312   0.297  0.00  0.00     0.041 A 
ATOM      4  C3  UNL d   1      -0.445   1.033  -0.137  0.00  0.00    -0.075 A 
ATOM      5  S   UNL d   1       0.872   0.658  -1.184  0.00  0.00     0.015 SA
ATOM      6  C4  UNL d   1       0.557  -1.015  -1.104  0.00  0.00     0.022 A 
ATOM      7  C5  UNL d   1      -0.523  -1.298  -0.302  0.00  0.00     0.026 A 
ATOM      8  C6  UNL d   1      -1.119  -0.122   0.268  0.00  0.00    -0.082 A 
ATOM      9  C7  UNL d   1      -2.229   0.021   1.135  0.00  0.00     0.045 A 
ENDROOT
TORSDOF 0
ENDMDL
