MODEL 1
REMARK minimizedAffinity -2.70764828
REMARK minimizedRMSD -1
REMARK  0 active torsions:
REMARK  status: ('A' for Active; 'I' for Inactive)
ROOT
ATOM      1  C   UNL d   1       0.083  -0.960  -1.135  0.00  0.00    -0.002 A 
ATOM      2  C1  UNL d   1       0.795  -1.194   0.032  0.00  0.00     0.010 A 
ATOM      3  C2  UNL d   1       0.504  -0.481   1.197  0.00  0.00     0.041 A 
ATOM      4  C3  UNL d   1      -0.528   0.479   1.169  0.00  0.00    -0.075 A 
ATOM      5  S   UNL d   1      -1.061   1.471   2.474  0.00  0.00     0.015 SA
ATOM      6  C4  UNL d   1      -2.248   2.227   1.513  0.00  0.00     0.022 A 
ATOM      7  C5  UNL d   1      -2.251   1.747   0.225  0.00  0.00     0.026 A 
ATOM      8  C6  UNL d   1      -1.260   0.731   0.005  0.00  0.00    -0.082 A 
ATOM      9  C7  UNL d   1      -0.940  -0.008  -1.159  0.00  0.00     0.045 A 
ENDROOT
TORSDOF 0
ENDMDL
