MODEL 1
REMARK minimizedAffinity 0.464633346
REMARK minimizedRMSD -1
REMARK  0 active torsions:
REMARK  status: ('A' for Active; 'I' for Inactive)
ROOT
ATOM      1  C   UNL d   1      -1.280   1.041   2.331  0.00  0.00    -0.002 A 
ATOM      2  C1  UNL d   1      -0.930   2.131   1.546  0.00  0.00     0.010 A 
ATOM      3  C2  UNL d   1      -0.133   1.963   0.412  0.00  0.00     0.041 A 
ATOM      4  C3  UNL d   1       0.310   0.669   0.075  0.00  0.00    -0.075 A 
ATOM      5  S   UNL d   1       1.294   0.224  -1.268  0.00  0.00     0.015 SA
ATOM      6  C4  UNL d   1       1.272  -1.424  -0.834  0.00  0.00     0.022 A 
ATOM      7  C5  UNL d   1       0.537  -1.647   0.307  0.00  0.00     0.026 A 
ATOM      8  C6  UNL d   1      -0.030  -0.444   0.849  0.00  0.00    -0.082 A 
ATOM      9  C7  UNL d   1      -0.839  -0.242   1.993  0.00  0.00     0.045 A 
ENDROOT
TORSDOF 0
ENDMDL
