MODEL 1
REMARK minimizedAffinity -4.05002546
REMARK minimizedRMSD -1
REMARK  0 active torsions:
REMARK  status: ('A' for Active; 'I' for Inactive)
ROOT
ATOM      1  C   UNL d   1      -2.285   1.200  -0.065  0.00  0.00    -0.002 A 
ATOM      2  C1  UNL d   1      -1.358   2.201  -0.316  0.00  0.00     0.010 A 
ATOM      3  C2  UNL d   1      -0.040   1.881  -0.650  0.00  0.00     0.041 A 
ATOM      4  C3  UNL d   1       0.332   0.525  -0.730  0.00  0.00    -0.075 A 
ATOM      5  S   UNL d   1       1.889  -0.104  -1.123  0.00  0.00     0.015 SA
ATOM      6  C4  UNL d   1       1.359  -1.717  -0.967  0.00  0.00     0.022 A 
ATOM      7  C5  UNL d   1       0.029  -1.792  -0.624  0.00  0.00     0.026 A 
ATOM      8  C6  UNL d   1      -0.584  -0.501  -0.482  0.00  0.00    -0.082 A 
ATOM      9  C7  UNL d   1      -1.912  -0.144  -0.145  0.00  0.00     0.045 A 
ENDROOT
TORSDOF 0
ENDMDL
