MODEL 1
REMARK minimizedAffinity -5.43135309
REMARK minimizedRMSD -1
REMARK  0 active torsions:
REMARK  status: ('A' for Active; 'I' for Inactive)
ROOT
ATOM      1  C   UNL d   1      -0.725   3.732   0.022  0.00  0.00    -0.002 A 
ATOM      2  C1  UNL d   1      -1.567   3.236   1.007  0.00  0.00     0.010 A 
ATOM      3  C2  UNL d   1      -1.637   1.864   1.257  0.00  0.00     0.041 A 
ATOM      4  C3  UNL d   1      -0.838   0.990   0.494  0.00  0.00    -0.075 A 
ATOM      5  S   UNL d   1      -0.757  -0.727   0.624  0.00  0.00     0.015 SA
ATOM      6  C4  UNL d   1       0.397  -0.842  -0.624  0.00  0.00     0.022 A 
ATOM      7  C5  UNL d   1       0.725   0.389  -1.139  0.00  0.00     0.026 A 
ATOM      8  C6  UNL d   1       0.019   1.466  -0.503  0.00  0.00    -0.082 A 
ATOM      9  C7  UNL d   1       0.067   2.862  -0.733  0.00  0.00     0.045 A 
ENDROOT
TORSDOF 0
ENDMDL
