MODEL 1
REMARK minimizedAffinity -3.20730925
REMARK minimizedRMSD -1
REMARK  0 active torsions:
REMARK  status: ('A' for Active; 'I' for Inactive)
ROOT
ATOM      1  C   UNL d   1      -0.649   3.653   0.164  0.00  0.00    -0.002 A 
ATOM      2  C1  UNL d   1      -1.245   3.184   1.327  0.00  0.00     0.010 A 
ATOM      3  C2  UNL d   1      -1.033   1.872   1.754  0.00  0.00     0.041 A 
ATOM      4  C3  UNL d   1      -0.202   1.031   0.986  0.00  0.00    -0.075 A 
ATOM      5  S   UNL d   1       0.202  -0.612   1.315  0.00  0.00     0.015 SA
ATOM      6  C4  UNL d   1       1.175  -0.730  -0.079  0.00  0.00     0.022 A 
ATOM      7  C5  UNL d   1       1.202   0.446  -0.790  0.00  0.00     0.026 A 
ATOM      8  C6  UNL d   1       0.409   1.481  -0.187  0.00  0.00    -0.082 A 
ATOM      9  C7  UNL d   1       0.173   2.816  -0.594  0.00  0.00     0.045 A 
ENDROOT
TORSDOF 0
ENDMDL
