MODEL 1
REMARK minimizedAffinity -6.20959234
REMARK minimizedRMSD -1
REMARK  0 active torsions:
REMARK  status: ('A' for Active; 'I' for Inactive)
ROOT
ATOM      1  C   UNL d   1      -1.445   3.651   0.349  0.00  0.00    -0.002 A 
ATOM      2  C1  UNL d   1      -0.874   3.815  -0.905  0.00  0.00     0.010 A 
ATOM      3  C2  UNL d   1      -0.242   2.746  -1.543  0.00  0.00     0.041 A 
ATOM      4  C3  UNL d   1      -0.194   1.497  -0.894  0.00  0.00    -0.075 A 
ATOM      5  S   UNL d   1       0.526   0.046  -1.485  0.00  0.00     0.015 SA
ATOM      6  C4  UNL d   1       0.092  -0.827  -0.086  0.00  0.00     0.022 A 
ATOM      7  C5  UNL d   1      -0.586  -0.046   0.819  0.00  0.00     0.026 A 
ATOM      8  C6  UNL d   1      -0.763   1.306   0.368  0.00  0.00    -0.082 A 
ATOM      9  C7  UNL d   1      -1.396   2.410   0.990  0.00  0.00     0.045 A 
ENDROOT
TORSDOF 0
ENDMDL
