MODEL 1
REMARK minimizedAffinity 0.120545685
REMARK minimizedRMSD -1
REMARK  0 active torsions:
REMARK  status: ('A' for Active; 'I' for Inactive)
ROOT
ATOM      1  C   UNL d   1      -1.824   1.111   2.142  0.00  0.00    -0.002 A 
ATOM      2  C1  UNL d   1      -1.412  -0.189   2.396  0.00  0.00     0.010 A 
ATOM      3  C2  UNL d   1      -0.470  -0.810   1.574  0.00  0.00     0.041 A 
ATOM      4  C3  UNL d   1       0.059  -0.094   0.482  0.00  0.00    -0.075 A 
ATOM      5  S   UNL d   1       1.225  -0.650  -0.659  0.00  0.00     0.015 SA
ATOM      6  C4  UNL d   1       1.205   0.826  -1.511  0.00  0.00     0.022 A 
ATOM      7  C5  UNL d   1       0.335   1.732  -0.953  0.00  0.00     0.026 A 
ATOM      8  C6  UNL d   1      -0.339   1.217   0.206  0.00  0.00    -0.082 A 
ATOM      9  C7  UNL d   1      -1.297   1.818   1.057  0.00  0.00     0.045 A 
ENDROOT
TORSDOF 0
ENDMDL
