MODEL 1
REMARK minimizedAffinity -3.20832062
REMARK minimizedRMSD -1
REMARK  0 active torsions:
REMARK  status: ('A' for Active; 'I' for Inactive)
ROOT
ATOM      1  C   UNL d   1       2.028  -1.611  -1.803  0.00  0.00    -0.002 A 
ATOM      2  C1  UNL d   1       0.922  -2.275  -2.313  0.00  0.00     0.010 A 
ATOM      3  C2  UNL d   1      -0.329  -2.141  -1.706  0.00  0.00     0.041 A 
ATOM      4  C3  UNL d   1      -0.450  -1.318  -0.570  0.00  0.00    -0.075 A 
ATOM      5  S   UNL d   1      -1.882  -1.002   0.337  0.00  0.00     0.015 SA
ATOM      6  C4  UNL d   1      -1.059   0.023   1.422  0.00  0.00     0.022 A 
ATOM      7  C5  UNL d   1       0.276   0.133   1.115  0.00  0.00     0.026 A 
ATOM      8  C6  UNL d   1       0.649  -0.637  -0.039  0.00  0.00    -0.082 A 
ATOM      9  C7  UNL d   1       1.904  -0.795  -0.675  0.00  0.00     0.045 A 
ENDROOT
TORSDOF 0
ENDMDL
