MODEL 1
REMARK minimizedAffinity -4.95645428
REMARK minimizedRMSD -1
REMARK  0 active torsions:
REMARK  status: ('A' for Active; 'I' for Inactive)
ROOT
ATOM      1  C   UNL d   1       3.588  -0.799   0.764  0.00  0.00    -0.002 A 
ATOM      2  C1  UNL d   1       3.391   0.551   1.017  0.00  0.00     0.010 A 
ATOM      3  C2  UNL d   1       2.135   1.133   0.833  0.00  0.00     0.041 A 
ATOM      4  C3  UNL d   1       1.069   0.326   0.387  0.00  0.00    -0.075 A 
ATOM      5  S   UNL d   1      -0.556   0.820   0.092  0.00  0.00     0.015 SA
ATOM      6  C4  UNL d   1      -1.027  -0.749  -0.376  0.00  0.00     0.022 A 
ATOM      7  C5  UNL d   1       0.017  -1.641  -0.315  0.00  0.00     0.026 A 
ATOM      8  C6  UNL d   1       1.243  -1.036   0.126  0.00  0.00    -0.082 A 
ATOM      9  C7  UNL d   1       2.528  -1.596   0.322  0.00  0.00     0.045 A 
ENDROOT
TORSDOF 0
ENDMDL
