MODEL 1
REMARK minimizedAffinity -4.92486382
REMARK minimizedRMSD -1
REMARK  0 active torsions:
REMARK  status: ('A' for Active; 'I' for Inactive)
ROOT
ATOM      1  C   UNL d   1       3.318  -1.001   1.115  0.00  0.00    -0.002 A 
ATOM      2  C1  UNL d   1       3.365   0.385   1.118  0.00  0.00     0.010 A 
ATOM      3  C2  UNL d   1       2.261   1.134   0.705  0.00  0.00     0.041 A 
ATOM      4  C3  UNL d   1       1.098   0.459   0.286  0.00  0.00    -0.075 A 
ATOM      5  S   UNL d   1      -0.375   1.168  -0.262  0.00  0.00     0.015 SA
ATOM      6  C4  UNL d   1      -1.102  -0.353  -0.512  0.00  0.00     0.022 A 
ATOM      7  C5  UNL d   1      -0.255  -1.388  -0.191  0.00  0.00     0.026 A 
ATOM      8  C6  UNL d   1       1.026  -0.937   0.275  0.00  0.00    -0.082 A 
ATOM      9  C7  UNL d   1       2.162  -1.668   0.699  0.00  0.00     0.045 A 
ENDROOT
TORSDOF 0
ENDMDL
