MODEL 1
REMARK minimizedAffinity -2.8316226
REMARK minimizedRMSD -1
REMARK  0 active torsions:
REMARK  status: ('A' for Active; 'I' for Inactive)
ROOT
ATOM      1  C   UNL d   1      -1.277   0.333  -0.114  0.00  0.00    -0.002 A 
ATOM      2  C1  UNL d   1      -1.394  -0.545  -1.182  0.00  0.00     0.010 A 
ATOM      3  C2  UNL d   1      -0.400  -1.492  -1.435  0.00  0.00     0.041 A 
ATOM      4  C3  UNL d   1       0.724  -1.543  -0.588  0.00  0.00    -0.075 A 
ATOM      5  S   UNL d   1       2.066  -2.620  -0.705  0.00  0.00     0.015 SA
ATOM      6  C4  UNL d   1       2.826  -1.940   0.661  0.00  0.00     0.022 A 
ATOM      7  C5  UNL d   1       2.088  -0.915   1.205  0.00  0.00     0.026 A 
ATOM      8  C6  UNL d   1       0.864  -0.670   0.495  0.00  0.00    -0.082 A 
ATOM      9  C7  UNL d   1      -0.160   0.279   0.725  0.00  0.00     0.045 A 
ENDROOT
TORSDOF 0
ENDMDL
