MODEL 1
REMARK minimizedAffinity 1.15147078
REMARK minimizedRMSD -1
REMARK  0 active torsions:
REMARK  status: ('A' for Active; 'I' for Inactive)
ROOT
ATOM      1  C   UNL d   1       1.355  -2.640  -0.722  0.00  0.00    -0.002 A 
ATOM      2  C1  UNL d   1       2.224  -1.606  -1.041  0.00  0.00     0.010 A 
ATOM      3  C2  UNL d   1       1.732  -0.343  -1.375  0.00  0.00     0.041 A 
ATOM      4  C3  UNL d   1       0.339  -0.133  -1.382  0.00  0.00    -0.075 A 
ATOM      5  S   UNL d   1      -0.491   1.330  -1.759  0.00  0.00     0.015 SA
ATOM      6  C4  UNL d   1      -2.018   0.618  -1.505  0.00  0.00     0.022 A 
ATOM      7  C5  UNL d   1      -1.916  -0.704  -1.142  0.00  0.00     0.026 A 
ATOM      8  C6  UNL d   1      -0.556  -1.159  -1.064  0.00  0.00    -0.082 A 
ATOM      9  C7  UNL d   1      -0.027  -2.428  -0.730  0.00  0.00     0.045 A 
ENDROOT
TORSDOF 0
ENDMDL
