MODEL 1
REMARK minimizedAffinity -5.28166294
REMARK minimizedRMSD -1
REMARK  1 active torsions:
REMARK  status: ('A' for Active; 'I' for Inactive)
REMARK    1  A    between atoms: C3_4  and  O_7 
ROOT
ATOM      1  C   UNL d   1      -0.996   1.687   2.131  0.00  0.00    -0.033 A 
ATOM      2  C1  UNL d   1      -0.696   0.939   0.991  0.00  0.00     0.039 A 
ATOM      3  C2  UNL d   1       0.354   0.020   1.013  0.00  0.00    -0.080 A 
ATOM      4  C3  UNL d   1       1.096  -0.143   2.180  0.00  0.00     0.150 A 
ATOM      5  C4  UNL d   1       0.800   0.596   3.321  0.00  0.00    -0.007 A 
ATOM      6  C5  UNL d   1      -0.249   1.514   3.297  0.00  0.00     0.039 A 
ENDROOT
BRANCH   4   7
ATOM      7  O   UNL d   1       2.133  -1.024   2.247  0.00  0.00    -0.526 OA
ATOM      8  H5  UNL d   1       2.240  -1.442   1.377  0.00  0.00     0.418 HD
ENDBRANCH   4   7
TORSDOF 1
ENDMDL
