MODEL 1
REMARK minimizedAffinity -5.51942682
REMARK minimizedRMSD -1
REMARK  1 active torsions:
REMARK  status: ('A' for Active; 'I' for Inactive)
REMARK    1  A    between atoms: C3_4  and  O_7 
ROOT
ATOM      1  C   UNL d   1       1.330  -0.778   0.823  0.00  0.00    -0.033 A 
ATOM      2  C1  UNL d   1       0.144  -0.321   0.247  0.00  0.00     0.039 A 
ATOM      3  C2  UNL d   1      -0.744   0.456   0.994  0.00  0.00    -0.080 A 
ATOM      4  C3  UNL d   1      -0.433   0.769   2.315  0.00  0.00     0.150 A 
ATOM      5  C4  UNL d   1       0.749   0.320   2.894  0.00  0.00    -0.007 A 
ATOM      6  C5  UNL d   1       1.634  -0.456   2.147  0.00  0.00     0.039 A 
ENDROOT
BRANCH   4   7
ATOM      7  O   UNL d   1      -1.270   1.520   3.085  0.00  0.00    -0.526 OA
ATOM      8  H5  UNL d   1      -2.060   1.734   2.562  0.00  0.00     0.418 HD
ENDBRANCH   4   7
TORSDOF 1
ENDMDL
