MODEL 1
REMARK minimizedAffinity -1.83425856
REMARK minimizedRMSD -1
REMARK  1 active torsions:
REMARK  status: ('A' for Active; 'I' for Inactive)
REMARK    1  A    between atoms: C3_4  and  O_7 
ROOT
ATOM      1  C   UNL d   1       2.023   0.707  -4.295  0.00  0.00    -0.033 A 
ATOM      2  C1  UNL d   1       2.711  -0.242  -3.537  0.00  0.00     0.039 A 
ATOM      3  C2  UNL d   1       2.121  -0.786  -2.394  0.00  0.00    -0.080 A 
ATOM      4  C3  UNL d   1       0.846  -0.372  -2.021  0.00  0.00     0.150 A 
ATOM      5  C4  UNL d   1       0.153   0.571  -2.773  0.00  0.00    -0.007 A 
ATOM      6  C5  UNL d   1       0.744   1.113  -3.914  0.00  0.00     0.039 A 
ENDROOT
BRANCH   4   7
ATOM      7  O   UNL d   1       0.231  -0.871  -0.910  0.00  0.00    -0.526 OA
ATOM      8  H5  UNL d   1       0.840  -1.490  -0.474  0.00  0.00     0.418 HD
ENDBRANCH   4   7
TORSDOF 1
ENDMDL
