MODEL 1
REMARK minimizedAffinity -0.682099283
REMARK minimizedRMSD -1
REMARK  1 active torsions:
REMARK  status: ('A' for Active; 'I' for Inactive)
REMARK    1  A    between atoms: C3_4  and  O_7 
ROOT
ATOM      1  C   UNL d   1       1.277  -0.555   1.238  0.00  0.00    -0.033 A 
ATOM      2  C1  UNL d   1       0.948  -1.068  -0.018  0.00  0.00     0.039 A 
ATOM      3  C2  UNL d   1       0.244  -0.282  -0.932  0.00  0.00    -0.080 A 
ATOM      4  C3  UNL d   1      -0.125   1.013  -0.579  0.00  0.00     0.150 A 
ATOM      5  C4  UNL d   1       0.202   1.532   0.670  0.00  0.00    -0.007 A 
ATOM      6  C5  UNL d   1       0.905   0.745   1.582  0.00  0.00     0.039 A 
ENDROOT
BRANCH   4   7
ATOM      7  O   UNL d   1      -0.818   1.816  -1.435  0.00  0.00    -0.526 OA
ATOM      8  H5  UNL d   1      -0.999   1.315  -2.248  0.00  0.00     0.418 HD
ENDBRANCH   4   7
TORSDOF 1
ENDMDL
