MODEL 1
REMARK minimizedAffinity -3.98545122
REMARK minimizedRMSD -1
REMARK  2 active torsions:
REMARK  status: ('A' for Active; 'I' for Inactive)
REMARK    1  A    between atoms: C1_2  and  C2_3 
REMARK    2  A    between atoms: C2_3  and  C3_4 
ROOT
ATOM      1  C3  UNL d   1       0.019   0.278   0.250  0.00  0.00    -0.075 A 
ATOM      2  C4  UNL d   1       0.172  -0.966  -0.379  0.00  0.00     0.002 A 
ATOM      3  C5  UNL d   1       1.265  -1.780  -0.081  0.00  0.00     0.002 A 
ATOM      4  C6  UNL d   1       2.221  -1.359   0.840  0.00  0.00    -0.004 A 
ATOM      5  C7  UNL d   1       2.088  -0.118   1.459  0.00  0.00     0.002 A 
ATOM      6  C8  UNL d   1       0.993   0.698   1.165  0.00  0.00     0.002 A 
ENDROOT
BRANCH   1   7
ATOM      7  C2  UNL d   1      -1.177   1.151  -0.047  0.00  0.00     0.056 C 
BRANCH   7   8
ATOM      8  C1  UNL d   1      -2.077   1.409   1.167  0.00  0.00     0.007 C 
ATOM      9  C   UNL d   1      -3.444   0.748   1.051  0.00  0.00     0.009 C 
ENDBRANCH   7   8
ENDBRANCH   1   7
TORSDOF 2
ENDMDL
