MODEL 1
REMARK minimizedAffinity -4.76743507
REMARK minimizedRMSD -1
REMARK  2 active torsions:
REMARK  status: ('A' for Active; 'I' for Inactive)
REMARK    1  A    between atoms: C1_2  and  C2_3 
REMARK    2  A    between atoms: C2_3  and  C3_4 
ROOT
ATOM      1  C3  UNL d   1       0.005  -0.055   0.008  0.00  0.00    -0.075 A 
ATOM      2  C4  UNL d   1       0.291  -1.371  -0.383  0.00  0.00     0.002 A 
ATOM      3  C5  UNL d   1       1.597  -1.860  -0.325  0.00  0.00     0.002 A 
ATOM      4  C6  UNL d   1       2.633  -1.038   0.114  0.00  0.00    -0.004 A 
ATOM      5  C7  UNL d   1       2.362   0.277   0.490  0.00  0.00     0.002 A 
ATOM      6  C8  UNL d   1       1.056   0.767   0.437  0.00  0.00     0.002 A 
ENDROOT
BRANCH   1   7
ATOM      7  C2  UNL d   1      -1.410   0.470  -0.024  0.00  0.00     0.056 C 
BRANCH   7   8
ATOM      8  C1  UNL d   1      -2.035   0.665   1.361  0.00  0.00     0.007 C 
ATOM      9  C   UNL d   1      -3.279   1.544   1.341  0.00  0.00     0.009 C 
ENDBRANCH   7   8
ENDBRANCH   1   7
TORSDOF 2
ENDMDL
