MODEL 1
REMARK minimizedAffinity -4.86880636
REMARK minimizedRMSD -1
REMARK  2 active torsions:
REMARK  status: ('A' for Active; 'I' for Inactive)
REMARK    1  A    between atoms: C1_2  and  C2_3 
REMARK    2  A    between atoms: C2_3  and  C3_4 
ROOT
ATOM      1  C3  UNL d   1       0.016  -0.086  -0.094  0.00  0.00    -0.075 A 
ATOM      2  C4  UNL d   1       0.939   0.484   0.795  0.00  0.00     0.002 A 
ATOM      3  C5  UNL d   1       2.170  -0.130   1.028  0.00  0.00     0.002 A 
ATOM      4  C6  UNL d   1       2.489  -1.324   0.385  0.00  0.00    -0.004 A 
ATOM      5  C7  UNL d   1       1.572  -1.908  -0.487  0.00  0.00     0.002 A 
ATOM      6  C8  UNL d   1       0.342  -1.293  -0.725  0.00  0.00     0.002 A 
ENDROOT
BRANCH   1   7
ATOM      7  C2  UNL d   1      -1.306   0.590  -0.372  0.00  0.00     0.056 C 
BRANCH   7   8
ATOM      8  C1  UNL d   1      -2.202   0.739   0.861  0.00  0.00     0.007 C 
ATOM      9  C   UNL d   1      -3.678   0.889   0.516  0.00  0.00     0.009 C 
ENDBRANCH   7   8
ENDBRANCH   1   7
TORSDOF 2
ENDMDL
