MODEL 1
REMARK minimizedAffinity -0.115382396
REMARK minimizedRMSD -1
REMARK  0 active torsions:
REMARK  status: ('A' for Active; 'I' for Inactive)
ROOT
ATOM      1  C1  BNZ d   1       1.336  -0.638   2.508  0.00  0.00     0.000 A 
ATOM      2  C2  BNZ d   1       2.051  -0.972   1.388  0.00  0.00     0.000 A 
ATOM      3  C3  BNZ d   1       3.256  -1.608   1.491  0.00  0.00     0.000 A 
ATOM      4  C4  BNZ d   1       3.764  -1.872   2.713  0.00  0.00     0.000 A 
ATOM      5  C5  BNZ d   1       3.060  -1.533   3.851  0.00  0.00     0.000 A 
ATOM      6  C6  BNZ d   1       1.828  -0.928   3.742  0.00  0.00     0.000 A 
ENDROOT
TORSDOF 0
ENDMDL
