MODEL 1
REMARK minimizedAffinity -1.02026057
REMARK minimizedRMSD -1
REMARK  0 active torsions:
REMARK  status: ('A' for Active; 'I' for Inactive)
ROOT
ATOM      1  C1  BNZ d   1       2.477  -1.489   2.457  0.00  0.00     0.000 A 
ATOM      2  C2  BNZ d   1       2.181  -2.825   2.406  0.00  0.00     0.000 A 
ATOM      3  C3  BNZ d   1       2.065  -3.561   3.552  0.00  0.00     0.000 A 
ATOM      4  C4  BNZ d   1       2.285  -2.969   4.744  0.00  0.00     0.000 A 
ATOM      5  C5  BNZ d   1       2.593  -1.625   4.812  0.00  0.00     0.000 A 
ATOM      6  C6  BNZ d   1       2.670  -0.879   3.658  0.00  0.00     0.000 A 
ENDROOT
TORSDOF 0
ENDMDL
