MODEL 1
REMARK minimizedAffinity -0.712191284
REMARK minimizedRMSD -1
REMARK  0 active torsions:
REMARK  status: ('A' for Active; 'I' for Inactive)
ROOT
ATOM      1  C1  BNZ d   1       1.786  -2.927   3.627  0.00  0.00     0.000 A 
ATOM      2  C2  BNZ d   1       1.296  -1.980   2.767  0.00  0.00     0.000 A 
ATOM      3  C3  BNZ d   1       2.097  -0.976   2.302  0.00  0.00     0.000 A 
ATOM      4  C4  BNZ d   1       3.375  -0.896   2.726  0.00  0.00     0.000 A 
ATOM      5  C5  BNZ d   1       3.881  -1.838   3.600  0.00  0.00     0.000 A 
ATOM      6  C6  BNZ d   1       3.083  -2.870   4.036  0.00  0.00     0.000 A 
ENDROOT
TORSDOF 0
ENDMDL
