MODEL 1
REMARK minimizedAffinity -0.785369873
REMARK minimizedRMSD -1
REMARK  0 active torsions:
REMARK  status: ('A' for Active; 'I' for Inactive)
ROOT
ATOM      1  C1  BNZ d   1       2.096  -2.597   4.453  0.00  0.00     0.000 A 
ATOM      2  C2  BNZ d   1       2.188  -1.237   4.324  0.00  0.00     0.000 A 
ATOM      3  C3  BNZ d   1       2.408  -0.663   3.103  0.00  0.00     0.000 A 
ATOM      4  C4  BNZ d   1       2.577  -1.450   2.021  0.00  0.00     0.000 A 
ATOM      5  C5  BNZ d   1       2.497  -2.824   2.137  0.00  0.00     0.000 A 
ATOM      6  C6  BNZ d   1       2.236  -3.396   3.360  0.00  0.00     0.000 A 
ENDROOT
TORSDOF 0
ENDMDL
