MODEL 1
REMARK minimizedAffinity -0.313054532
REMARK minimizedRMSD -1
REMARK  0 active torsions:
REMARK  status: ('A' for Active; 'I' for Inactive)
ROOT
ATOM      1  C1  BNZ d   1      -5.998   2.643  -4.692  0.00  0.00     0.000 A 
ATOM      2  C2  BNZ d   1      -5.998   2.172  -3.407  0.00  0.00     0.000 A 
ATOM      3  C3  BNZ d   1      -5.975   0.829  -3.154  0.00  0.00     0.000 A 
ATOM      4  C4  BNZ d   1      -5.991  -0.041  -4.185  0.00  0.00     0.000 A 
ATOM      5  C5  BNZ d   1      -6.000   0.419  -5.487  0.00  0.00     0.000 A 
ATOM      6  C6  BNZ d   1      -5.984   1.772  -5.738  0.00  0.00     0.000 A 
ENDROOT
TORSDOF 0
ENDMDL
