MODEL 1
REMARK minimizedAffinity 2.60441661
REMARK minimizedRMSD -1
REMARK  0 active torsions:
REMARK  status: ('A' for Active; 'I' for Inactive)
ROOT
ATOM      1  C1  BNZ d   1      -5.624   3.369   1.114  0.00  0.00     0.000 A 
ATOM      2  C2  BNZ d   1      -4.304   3.618   0.848  0.00  0.00     0.000 A 
ATOM      3  C3  BNZ d   1      -3.338   3.331   1.772  0.00  0.00     0.000 A 
ATOM      4  C4  BNZ d   1      -3.696   2.832   2.973  0.00  0.00     0.000 A 
ATOM      5  C5  BNZ d   1      -5.023   2.584   3.259  0.00  0.00     0.000 A 
ATOM      6  C6  BNZ d   1      -5.989   2.838   2.312  0.00  0.00     0.000 A 
ENDROOT
TORSDOF 0
ENDMDL
