MODEL 1
REMARK minimizedAffinity -4.20638847
REMARK minimizedRMSD -1
REMARK  0 active torsions:
REMARK  status: ('A' for Active; 'I' for Inactive)
ROOT
ATOM      1  C   UNL d   1       0.587  -2.783  -1.573  0.00  0.00     0.020 A 
ATOM      2  C1  UNL d   1      -0.215  -3.359  -0.589  0.00  0.00     0.020 A 
ATOM      3  C2  UNL d   1      -0.775  -2.562   0.411  0.00  0.00     0.034 A 
ATOM      4  C3  UNL d   1      -0.535  -1.183   0.429  0.00  0.00     0.017 A 
ATOM      5  C4  UNL d   1       0.269  -0.605  -0.560  0.00  0.00     0.017 A 
ATOM      6  C5  UNL d   1       0.828  -1.408  -1.559  0.00  0.00     0.034 A 
ATOM      7 Cl   UNL d   1       0.611   1.089  -0.604  0.00  0.00    -0.070 Cl
ATOM      8 Cl1  UNL d   1      -1.261  -0.257   1.694  0.00  0.00    -0.070 Cl
ENDROOT
TORSDOF 0
ENDMDL
