MODEL 1
REMARK minimizedAffinity -4.56379128
REMARK minimizedRMSD -1
REMARK  0 active torsions:
REMARK  status: ('A' for Active; 'I' for Inactive)
ROOT
ATOM      1  C   UNL d   1       0.395  -2.939  -1.790  0.00  0.00     0.020 A 
ATOM      2  C1  UNL d   1       0.103  -3.662  -0.634  0.00  0.00     0.020 A 
ATOM      3  C2  UNL d   1      -0.426  -3.010   0.482  0.00  0.00     0.034 A 
ATOM      4  C3  UNL d   1      -0.665  -1.632   0.444  0.00  0.00     0.017 A 
ATOM      5  C4  UNL d   1      -0.372  -0.907  -0.717  0.00  0.00     0.017 A 
ATOM      6  C5  UNL d   1       0.158  -1.565  -1.831  0.00  0.00     0.034 A 
ATOM      7 Cl   UNL d   1      -0.640   0.796  -0.839  0.00  0.00    -0.070 Cl
ATOM      8 Cl1  UNL d   1      -1.321  -0.891   1.861  0.00  0.00    -0.070 Cl
ENDROOT
TORSDOF 0
ENDMDL
