MODEL 1
REMARK minimizedAffinity -3.18060684
REMARK minimizedRMSD -1
REMARK  0 active torsions:
REMARK  status: ('A' for Active; 'I' for Inactive)
ROOT
ATOM      1  C   UNL d   1      -0.049  -0.539  -0.346  0.00  0.00     0.020 A 
ATOM      2  C1  UNL d   1      -0.516  -1.314   0.715  0.00  0.00     0.020 A 
ATOM      3  C2  UNL d   1      -0.441  -2.707   0.647  0.00  0.00     0.034 A 
ATOM      4  C3  UNL d   1       0.101  -3.329  -0.483  0.00  0.00     0.017 A 
ATOM      5  C4  UNL d   1       0.570  -2.550  -1.547  0.00  0.00     0.017 A 
ATOM      6  C5  UNL d   1       0.493  -1.156  -1.474  0.00  0.00     0.034 A 
ATOM      7 Cl   UNL d   1       1.253  -3.246  -2.974  0.00  0.00    -0.070 Cl
ATOM      8 Cl1  UNL d   1       0.162  -5.056  -0.498  0.00  0.00    -0.070 Cl
ENDROOT
TORSDOF 0
ENDMDL
