MODEL 1
REMARK minimizedAffinity -5.16614771
REMARK minimizedRMSD -1
REMARK  0 active torsions:
REMARK  status: ('A' for Active; 'I' for Inactive)
ROOT
ATOM      1  C   UNL d   1       0.168  -3.791  -0.540  0.00  0.00     0.020 A 
ATOM      2  C1  UNL d   1       0.564  -3.389  -1.815  0.00  0.00     0.020 A 
ATOM      3  C2  UNL d   1       0.587  -2.032  -2.144  0.00  0.00     0.034 A 
ATOM      4  C3  UNL d   1       0.212  -1.072  -1.197  0.00  0.00     0.017 A 
ATOM      5  C4  UNL d   1      -0.185  -1.476   0.082  0.00  0.00     0.017 A 
ATOM      6  C5  UNL d   1      -0.206  -2.836   0.406  0.00  0.00     0.034 A 
ATOM      7 Cl   UNL d   1      -0.661  -0.350   1.304  0.00  0.00    -0.070 Cl
ATOM      8 Cl1  UNL d   1       0.264   0.588  -1.672  0.00  0.00    -0.070 Cl
ENDROOT
TORSDOF 0
ENDMDL
