MODEL 1
REMARK minimizedAffinity -3.88154602
REMARK minimizedRMSD -1
REMARK  0 active torsions:
REMARK  status: ('A' for Active; 'I' for Inactive)
ROOT
ATOM      1  C   UNL d   1       0.557   0.128   0.498  0.00  0.00     0.020 A 
ATOM      2  C1  UNL d   1      -0.730   0.552   0.826  0.00  0.00     0.020 A 
ATOM      3  C2  UNL d   1      -1.798  -0.346   0.768  0.00  0.00     0.034 A 
ATOM      4  C3  UNL d   1      -1.580  -1.674   0.381  0.00  0.00     0.017 A 
ATOM      5  C4  UNL d   1      -0.288  -2.099   0.052  0.00  0.00     0.017 A 
ATOM      6  C5  UNL d   1       0.777  -1.195   0.112  0.00  0.00     0.034 A 
ATOM      7 Cl   UNL d   1       0.058  -3.721  -0.433  0.00  0.00    -0.070 Cl
ATOM      8 Cl1  UNL d   1      -2.947  -2.730   0.332  0.00  0.00    -0.070 Cl
ENDROOT
TORSDOF 0
ENDMDL
