MODEL 1
REMARK minimizedAffinity -3.55355954
REMARK minimizedRMSD -1
REMARK  0 active torsions:
REMARK  status: ('A' for Active; 'I' for Inactive)
ROOT
ATOM      1  C   UNL d   1       0.225  -4.284  -0.203  0.00  0.00     0.020 A 
ATOM      2  C1  UNL d   1       0.173  -3.457   0.919  0.00  0.00     0.020 A 
ATOM      3  C2  UNL d   1       0.089  -2.072   0.761  0.00  0.00     0.034 A 
ATOM      4  C3  UNL d   1       0.057  -1.510  -0.521  0.00  0.00     0.017 A 
ATOM      5  C4  UNL d   1       0.109  -2.341  -1.645  0.00  0.00     0.017 A 
ATOM      6  C5  UNL d   1       0.193  -3.728  -1.482  0.00  0.00     0.034 A 
ATOM      7 Cl   UNL d   1       0.074  -1.722  -3.258  0.00  0.00    -0.070 Cl
ATOM      8 Cl1  UNL d   1      -0.048   0.210  -0.641  0.00  0.00    -0.070 Cl
ENDROOT
TORSDOF 0
ENDMDL
