MODEL 1
REMARK minimizedAffinity -1.54623902
REMARK minimizedRMSD -1
REMARK  0 active torsions:
REMARK  status: ('A' for Active; 'I' for Inactive)
ROOT
ATOM      1  C   UNL d   1      -0.367  -2.227   1.283  0.00  0.00     0.020 A 
ATOM      2  C1  UNL d   1      -0.351  -0.899   1.709  0.00  0.00     0.020 A 
ATOM      3  C2  UNL d   1      -0.201   0.131   0.778  0.00  0.00     0.034 A 
ATOM      4  C3  UNL d   1      -0.065  -0.165  -0.584  0.00  0.00     0.017 A 
ATOM      5  C4  UNL d   1      -0.080  -1.498  -1.010  0.00  0.00     0.017 A 
ATOM      6  C5  UNL d   1      -0.231  -2.525  -0.073  0.00  0.00     0.034 A 
ATOM      7 Cl   UNL d   1       0.082  -1.941  -2.672  0.00  0.00    -0.070 Cl
ATOM      8 Cl1  UNL d   1       0.117   1.159  -1.679  0.00  0.00    -0.070 Cl
ENDROOT
TORSDOF 0
ENDMDL
