MODEL 1
REMARK minimizedAffinity -4.05038881
REMARK minimizedRMSD -1
REMARK  0 active torsions:
REMARK  status: ('A' for Active; 'I' for Inactive)
ROOT
ATOM      1  C   UNL d   1      -0.018  -2.621  -1.883  0.00  0.00     0.020 A 
ATOM      2  C1  UNL d   1      -0.529  -3.329  -0.795  0.00  0.00     0.020 A 
ATOM      3  C2  UNL d   1      -0.906  -2.649   0.365  0.00  0.00     0.034 A 
ATOM      4  C3  UNL d   1      -0.773  -1.258   0.441  0.00  0.00     0.017 A 
ATOM      5  C4  UNL d   1      -0.260  -0.548  -0.651  0.00  0.00     0.017 A 
ATOM      6  C5  UNL d   1       0.116  -1.234  -1.811  0.00  0.00     0.034 A 
ATOM      7 Cl   UNL d   1      -0.067   1.169  -0.633  0.00  0.00    -0.070 Cl
ATOM      8 Cl1  UNL d   1      -1.260  -0.483   1.906  0.00  0.00    -0.070 Cl
ENDROOT
TORSDOF 0
ENDMDL
