MODEL 1
REMARK minimizedAffinity -5.43299246
REMARK minimizedRMSD -1
REMARK  0 active torsions:
REMARK  status: ('A' for Active; 'I' for Inactive)
ROOT
ATOM      1  C   UNL d   1      -0.072  -3.939   0.082  0.00  0.00     0.020 A 
ATOM      2  C1  UNL d   1      -0.081  -2.963   1.078  0.00  0.00     0.020 A 
ATOM      3  C2  UNL d   1      -0.046  -1.611   0.731  0.00  0.00     0.034 A 
ATOM      4  C3  UNL d   1      -0.001  -1.230  -0.615  0.00  0.00     0.017 A 
ATOM      5  C4  UNL d   1       0.008  -2.210  -1.614  0.00  0.00     0.017 A 
ATOM      6  C5  UNL d   1      -0.028  -3.563  -1.261  0.00  0.00     0.034 A 
ATOM      7 Cl   UNL d   1       0.062  -1.818  -3.296  0.00  0.00    -0.070 Cl
ATOM      8 Cl1  UNL d   1       0.041   0.460  -0.971  0.00  0.00    -0.070 Cl
ENDROOT
TORSDOF 0
ENDMDL
