MODEL 1
REMARK minimizedAffinity -1.29444873
REMARK minimizedRMSD -1
REMARK  0 active torsions:
REMARK  status: ('A' for Active; 'I' for Inactive)
ROOT
ATOM      1  C   UNL d   1       1.915   3.442  -0.043  0.00  0.00     0.020 A 
ATOM      2  C1  UNL d   1       0.558   3.486   0.272  0.00  0.00     0.020 A 
ATOM      3  C2  UNL d   1      -0.164   2.300   0.420  0.00  0.00     0.034 A 
ATOM      4  C3  UNL d   1       0.471   1.064   0.252  0.00  0.00     0.017 A 
ATOM      5  C4  UNL d   1       1.834   1.020  -0.064  0.00  0.00     0.017 A 
ATOM      6  C5  UNL d   1       2.552   2.211  -0.211  0.00  0.00     0.034 A 
ATOM      7 Cl   UNL d   1       2.687  -0.466  -0.287  0.00  0.00    -0.070 Cl
ATOM      8 Cl1  UNL d   1      -0.482  -0.363   0.450  0.00  0.00    -0.070 Cl
ENDROOT
TORSDOF 0
ENDMDL
