MODEL 1
REMARK minimizedAffinity -4.85207987
REMARK minimizedRMSD -1
REMARK  0 active torsions:
REMARK  status: ('A' for Active; 'I' for Inactive)
ROOT
ATOM      1  C   UNL d   1      -0.109  -3.423  -0.425  0.00  0.00     0.020 A 
ATOM      2  C1  UNL d   1       0.518  -2.781  -1.492  0.00  0.00     0.020 A 
ATOM      3  C2  UNL d   1       0.716  -1.399  -1.457  0.00  0.00     0.034 A 
ATOM      4  C3  UNL d   1       0.286  -0.654  -0.353  0.00  0.00     0.017 A 
ATOM      5  C4  UNL d   1      -0.344  -1.299   0.718  0.00  0.00     0.017 A 
ATOM      6  C5  UNL d   1      -0.539  -2.683   0.678  0.00  0.00     0.034 A 
ATOM      7 Cl   UNL d   1      -0.901  -0.448   2.115  0.00  0.00    -0.070 Cl
ATOM      8 Cl1  UNL d   1       0.563   1.051  -0.377  0.00  0.00    -0.070 Cl
ENDROOT
TORSDOF 0
ENDMDL
