MODEL 1
REMARK minimizedAffinity -2.14784837
REMARK minimizedRMSD -1
REMARK  0 active torsions:
REMARK  status: ('A' for Active; 'I' for Inactive)
ROOT
ATOM      1  C   UNL d   1      -0.614  -2.497   1.300  0.00  0.00     0.020 A 
ATOM      2  C1  UNL d   1      -0.630  -1.234   1.891  0.00  0.00     0.020 A 
ATOM      3  C2  UNL d   1      -0.400  -0.097   1.113  0.00  0.00     0.034 A 
ATOM      4  C3  UNL d   1      -0.153  -0.220  -0.259  0.00  0.00     0.017 A 
ATOM      5  C4  UNL d   1      -0.138  -1.489  -0.851  0.00  0.00     0.017 A 
ATOM      6  C5  UNL d   1      -0.369  -2.624  -0.068  0.00  0.00     0.034 A 
ATOM      7 Cl   UNL d   1       0.158  -1.721  -2.538  0.00  0.00    -0.070 Cl
ATOM      8 Cl1  UNL d   1       0.123   1.228  -1.159  0.00  0.00    -0.070 Cl
ENDROOT
TORSDOF 0
ENDMDL
