MODEL 1
REMARK minimizedAffinity -3.85021591
REMARK minimizedRMSD -1
REMARK  0 active torsions:
REMARK  status: ('A' for Active; 'I' for Inactive)
ROOT
ATOM      1  C   UNL d   1      -0.893  -1.330   1.621  0.00  0.00     0.020 A 
ATOM      2  C1  UNL d   1      -1.022   0.058   1.594  0.00  0.00     0.020 A 
ATOM      3  C2  UNL d   1      -0.830   0.753   0.398  0.00  0.00     0.034 A 
ATOM      4  C3  UNL d   1      -0.506   0.061  -0.775  0.00  0.00     0.017 A 
ATOM      5  C4  UNL d   1      -0.376  -1.332  -0.746  0.00  0.00     0.017 A 
ATOM      6  C5  UNL d   1      -0.570  -2.024   0.454  0.00  0.00     0.034 A 
ATOM      7 Cl   UNL d   1       0.020  -2.255  -2.153  0.00  0.00    -0.070 Cl
ATOM      8 Cl1  UNL d   1      -0.283   0.986  -2.217  0.00  0.00    -0.070 Cl
ENDROOT
TORSDOF 0
ENDMDL
