MODEL 1
REMARK minimizedAffinity -1.37246788
REMARK minimizedRMSD -1
REMARK  0 active torsions:
REMARK  status: ('A' for Active; 'I' for Inactive)
ROOT
ATOM      1  C   UNL d   1      -1.126  -0.026   0.916  0.00  0.00     0.020 A 
ATOM      2  C1  UNL d   1      -0.636   0.695  -0.172  0.00  0.00     0.020 A 
ATOM      3  C2  UNL d   1       0.057   0.036  -1.190  0.00  0.00     0.034 A 
ATOM      4  C3  UNL d   1       0.263  -1.346  -1.122  0.00  0.00     0.017 A 
ATOM      5  C4  UNL d   1      -0.229  -2.069  -0.028  0.00  0.00     0.017 A 
ATOM      6  C5  UNL d   1      -0.923  -1.404   0.988  0.00  0.00     0.034 A 
ATOM      7 Cl   UNL d   1      -0.015  -3.777   0.126  0.00  0.00    -0.070 Cl
ATOM      8 Cl1  UNL d   1       1.128  -2.095  -2.416  0.00  0.00    -0.070 Cl
ENDROOT
TORSDOF 0
ENDMDL
