MODEL 1
REMARK minimizedAffinity 8.68046761
REMARK minimizedRMSD -1
REMARK  2 active torsions:
REMARK  status: ('A' for Active; 'I' for Inactive)
REMARK    1  A    between atoms: C2'_3  and  C1'_4 
REMARK    2  A    between atoms: C1'_4  and  C1_5 
ROOT
ATOM      1  C1  I4B d   1      -0.207   2.688  -0.137  0.00  0.00    -0.075 A 
ATOM      2  C2  I4B d   1      -0.788   3.799   0.422  0.00  0.00     0.003 A 
ATOM      3  C3  I4B d   1      -1.363   3.728   1.715  0.00  0.00     0.002 A 
ATOM      4  C4  I4B d   1      -1.380   2.523   2.386  0.00  0.00    -0.004 A 
ATOM      5  C5  I4B d   1      -0.770   1.403   1.827  0.00  0.00     0.002 A 
ATOM      6  C6  I4B d   1      -0.169   1.489   0.562  0.00  0.00     0.003 A 
ENDROOT
BRANCH   1   7
ATOM      7  C1' I4B d   1       0.361   2.790  -1.517  0.00  0.00     0.060 C 
BRANCH   7   8
ATOM      8  C2' I4B d   1       0.115   1.472  -2.222  0.00  0.00    -0.013 C 
ATOM      9  C4' I4B d   1      -1.316   1.354  -2.675  0.00  0.00     0.013 C 
ATOM     10  C3' I4B d   1       1.060   1.384  -3.383  0.00  0.00     0.013 C 
ENDBRANCH   7   8
ENDBRANCH   1   7
TORSDOF 2
ENDMDL
