MODEL 1
REMARK minimizedAffinity 14.7810173
REMARK minimizedRMSD -1
REMARK  2 active torsions:
REMARK  status: ('A' for Active; 'I' for Inactive)
REMARK    1  A    between atoms: C2'_3  and  C1'_4 
REMARK    2  A    between atoms: C1'_4  and  C1_5 
ROOT
ATOM      1  C1  I4B d   1       1.416  -3.332  -3.432  0.00  0.00    -0.075 A 
ATOM      2  C2  I4B d   1       2.667  -3.789  -3.763  0.00  0.00     0.003 A 
ATOM      3  C3  I4B d   1       2.931  -4.257  -5.073  0.00  0.00     0.002 A 
ATOM      4  C4  I4B d   1       1.909  -4.298  -5.999  0.00  0.00    -0.004 A 
ATOM      5  C5  I4B d   1       0.647  -3.813  -5.668  0.00  0.00     0.002 A 
ATOM      6  C6  I4B d   1       0.401  -3.316  -4.380  0.00  0.00     0.003 A 
ENDROOT
BRANCH   1   7
ATOM      7  C1' I4B d   1       1.163  -2.876  -2.030  0.00  0.00     0.060 C 
BRANCH   7   8
ATOM      8  C2' I4B d   1       1.937  -3.784  -1.096  0.00  0.00    -0.013 C 
ATOM      9  C4' I4B d   1       1.592  -3.508   0.343  0.00  0.00     0.013 C 
ATOM     10  C3' I4B d   1       1.623  -5.203  -1.466  0.00  0.00     0.013 C 
ENDBRANCH   7   8
ENDBRANCH   1   7
TORSDOF 2
ENDMDL
