MODEL 1
REMARK minimizedAffinity 7.73041773
REMARK minimizedRMSD -1
REMARK  2 active torsions:
REMARK  status: ('A' for Active; 'I' for Inactive)
REMARK    1  A    between atoms: C2'_3  and  C1'_4 
REMARK    2  A    between atoms: C1'_4  and  C1_5 
ROOT
ATOM      1  C1  I4B d   1      -0.825   2.009   1.729  0.00  0.00    -0.075 A 
ATOM      2  C2  I4B d   1       0.456   2.101   2.213  0.00  0.00     0.003 A 
ATOM      3  C3  I4B d   1       0.732   1.781   3.564  0.00  0.00     0.002 A 
ATOM      4  C4  I4B d   1      -0.304   1.424   4.404  0.00  0.00    -0.004 A 
ATOM      5  C5  I4B d   1      -1.598   1.308   3.905  0.00  0.00     0.002 A 
ATOM      6  C6  I4B d   1      -1.859   1.591   2.557  0.00  0.00     0.003 A 
ENDROOT
BRANCH   1   7
ATOM      7  C1' I4B d   1      -1.087   2.386   0.305  0.00  0.00     0.060 C 
BRANCH   7   8
ATOM      8  C2' I4B d   1      -0.179   3.547  -0.044  0.00  0.00    -0.013 C 
ATOM      9  C4' I4B d   1       0.164   3.549  -1.511  0.00  0.00     0.013 C 
ATOM     10  C3' I4B d   1      -0.875   4.815   0.351  0.00  0.00     0.013 C 
ENDBRANCH   7   8
ENDBRANCH   1   7
TORSDOF 2
ENDMDL
