MODEL 1
REMARK minimizedAffinity 17.7852306
REMARK minimizedRMSD -1
REMARK  2 active torsions:
REMARK  status: ('A' for Active; 'I' for Inactive)
REMARK    1  A    between atoms: C2'_3  and  C1'_4 
REMARK    2  A    between atoms: C1'_4  and  C1_5 
ROOT
ATOM      1  C1  I4B d   1       1.885  -4.281  -0.801  0.00  0.00    -0.075 A 
ATOM      2  C2  I4B d   1       2.953  -5.143  -0.771  0.00  0.00     0.003 A 
ATOM      3  C3  I4B d   1       3.209  -6.000  -1.868  0.00  0.00     0.002 A 
ATOM      4  C4  I4B d   1       2.349  -5.999  -2.947  0.00  0.00    -0.004 A 
ATOM      5  C5  I4B d   1       1.279  -5.108  -2.986  0.00  0.00     0.002 A 
ATOM      6  C6  I4B d   1       1.053  -4.235  -1.912  0.00  0.00     0.003 A 
ENDROOT
BRANCH   1   7
ATOM      7  C1' I4B d   1       1.624  -3.413   0.389  0.00  0.00     0.060 C 
BRANCH   7   8
ATOM      8  C2' I4B d   1       2.718  -2.367   0.452  0.00  0.00    -0.013 C 
ATOM      9  C4' I4B d   1       2.249  -1.130   1.171  0.00  0.00     0.013 C 
ATOM     10  C3' I4B d   1       3.902  -2.977   1.141  0.00  0.00     0.013 C 
ENDBRANCH   7   8
ENDBRANCH   1   7
TORSDOF 2
ENDMDL
