MODEL 1
REMARK minimizedAffinity 5.70341587
REMARK minimizedRMSD -1
REMARK  2 active torsions:
REMARK  status: ('A' for Active; 'I' for Inactive)
REMARK    1  A    between atoms: C2'_3  and  C1'_4 
REMARK    2  A    between atoms: C1'_4  and  C1_5 
ROOT
ATOM      1  C1  I4B d   1      -0.705   2.411   1.235  0.00  0.00    -0.075 A 
ATOM      2  C2  I4B d   1       0.284   2.116   0.330  0.00  0.00     0.003 A 
ATOM      3  C3  I4B d   1       0.321   2.771  -0.925  0.00  0.00     0.002 A 
ATOM      4  C4  I4B d   1      -0.672   3.672  -1.251  0.00  0.00    -0.004 A 
ATOM      5  C5  I4B d   1      -1.661   3.987  -0.323  0.00  0.00     0.002 A 
ATOM      6  C6  I4B d   1      -1.671   3.362   0.932  0.00  0.00     0.003 A 
ENDROOT
BRANCH   1   7
ATOM      7  C1' I4B d   1      -0.734   1.676   2.537  0.00  0.00     0.060 C 
BRANCH   7   8
ATOM      8  C2' I4B d   1       0.563   1.967   3.266  0.00  0.00    -0.013 C 
ATOM      9  C4' I4B d   1       1.248   3.180   2.695  0.00  0.00     0.013 C 
ATOM     10  C3' I4B d   1       0.244   2.159   4.718  0.00  0.00     0.013 C 
ENDBRANCH   7   8
ENDBRANCH   1   7
TORSDOF 2
ENDMDL
