MODEL 1
REMARK minimizedAffinity 8.75514507
REMARK minimizedRMSD -1
REMARK  2 active torsions:
REMARK  status: ('A' for Active; 'I' for Inactive)
REMARK    1  A    between atoms: C2'_3  and  C1'_4 
REMARK    2  A    between atoms: C1'_4  and  C1_5 
ROOT
ATOM      1  C1  I4B d   1      -0.362   3.245   0.153  0.00  0.00    -0.075 A 
ATOM      2  C2  I4B d   1      -0.156   3.027  -1.187  0.00  0.00     0.003 A 
ATOM      3  C3  I4B d   1      -0.431   4.049  -2.127  0.00  0.00     0.002 A 
ATOM      4  C4  I4B d   1      -0.954   5.250  -1.691  0.00  0.00    -0.004 A 
ATOM      5  C5  I4B d   1      -1.141   5.478  -0.331  0.00  0.00     0.002 A 
ATOM      6  C6  I4B d   1      -0.831   4.474   0.598  0.00  0.00     0.003 A 
ENDROOT
BRANCH   1   7
ATOM      7  C1' I4B d   1      -0.093   2.132   1.115  0.00  0.00     0.060 C 
BRANCH   7   8
ATOM      8  C2' I4B d   1      -1.176   2.159   2.174  0.00  0.00    -0.013 C 
ATOM      9  C4' I4B d   1      -2.527   1.860   1.580  0.00  0.00     0.013 C 
ATOM     10  C3' I4B d   1      -0.815   1.156   3.230  0.00  0.00     0.013 C 
ENDBRANCH   7   8
ENDBRANCH   1   7
TORSDOF 2
ENDMDL
