MODEL 1
REMARK minimizedAffinity -4.17765093
REMARK minimizedRMSD -1
REMARK  2 active torsions:
REMARK  status: ('A' for Active; 'I' for Inactive)
REMARK    1  A    between atoms: C2'_3  and  C1'_4 
REMARK    2  A    between atoms: C1'_4  and  C1_5 
ROOT
ATOM      1  C1  I4B d   1      -0.976   2.796   1.975  0.00  0.00    -0.075 A 
ATOM      2  C2  I4B d   1      -1.680   1.631   1.794  0.00  0.00     0.003 A 
ATOM      3  C3  I4B d   1      -1.679   0.635   2.800  0.00  0.00     0.002 A 
ATOM      4  C4  I4B d   1      -0.925   0.820   3.940  0.00  0.00    -0.004 A 
ATOM      5  C5  I4B d   1      -0.230   2.011   4.132  0.00  0.00     0.002 A 
ATOM      6  C6  I4B d   1      -0.266   3.011   3.149  0.00  0.00     0.003 A 
ENDROOT
BRANCH   1   7
ATOM      7  C1' I4B d   1      -0.972   3.813   0.879  0.00  0.00     0.060 C 
BRANCH   7   8
ATOM      8  C2' I4B d   1       0.258   3.577   0.026  0.00  0.00    -0.013 C 
ATOM      9  C4' I4B d   1      -0.037   2.628  -1.105  0.00  0.00     0.013 C 
ATOM     10  C3' I4B d   1       0.727   4.905  -0.489  0.00  0.00     0.013 C 
ENDBRANCH   7   8
ENDBRANCH   1   7
TORSDOF 2
ENDMDL
