MODEL 1
REMARK minimizedAffinity 9.36175537
REMARK minimizedRMSD -1
REMARK  2 active torsions:
REMARK  status: ('A' for Active; 'I' for Inactive)
REMARK    1  A    between atoms: C2'_3  and  C1'_4 
REMARK    2  A    between atoms: C1'_4  and  C1_5 
ROOT
ATOM      1  C1  I4B d   1      -1.231   2.654  -1.041  0.00  0.00    -0.075 A 
ATOM      2  C2  I4B d   1      -1.873   1.447  -0.923  0.00  0.00     0.003 A 
ATOM      3  C3  I4B d   1      -2.595   0.913  -2.018  0.00  0.00     0.002 A 
ATOM      4  C4  I4B d   1      -2.690   1.639  -3.187  0.00  0.00    -0.004 A 
ATOM      5  C5  I4B d   1      -2.019   2.852  -3.313  0.00  0.00     0.002 A 
ATOM      6  C6  I4B d   1      -1.274   3.358  -2.237  0.00  0.00     0.003 A 
ENDROOT
BRANCH   1   7
ATOM      7  C1' I4B d   1      -0.505   3.203   0.147  0.00  0.00     0.060 C 
BRANCH   7   8
ATOM      8  C2' I4B d   1       0.960   3.329  -0.219  0.00  0.00    -0.013 C 
ATOM      9  C4' I4B d   1       1.149   3.352  -1.713  0.00  0.00     0.013 C 
ATOM     10  C3' I4B d   1       1.489   4.581   0.413  0.00  0.00     0.013 C 
ENDBRANCH   7   8
ENDBRANCH   1   7
TORSDOF 2
ENDMDL
