MODEL 1
REMARK minimizedAffinity -4.15012693
REMARK minimizedRMSD -1
REMARK  0 active torsions:
REMARK  status: ('A' for Active; 'I' for Inactive)
ROOT
ATOM      1  C2' OXE d   1      -1.370   2.168  -1.803  0.00  0.00     0.078 C 
ATOM      2  C1' OXE d   1      -1.554   2.165   0.998  0.00  0.00     0.078 C 
ATOM      3  C1  OXE d   1      -0.692   1.112   0.349  0.00  0.00    -0.078 A 
ATOM      4  C2  OXE d   1      -0.645   1.091  -1.024  0.00  0.00    -0.078 A 
ATOM      5  C3  OXE d   1       0.178   0.175  -1.672  0.00  0.00     0.003 A 
ATOM      6  C4  OXE d   1       0.838  -0.824  -0.945  0.00  0.00    -0.002 A 
ATOM      7  C5  OXE d   1       0.771  -0.846   0.452  0.00  0.00    -0.002 A 
ATOM      8  C6  OXE d   1       0.046   0.139   1.115  0.00  0.00     0.003 A 
ENDROOT
TORSDOF 0
ENDMDL
