MODEL 1
REMARK minimizedAffinity -4.67427254
REMARK minimizedRMSD -1
REMARK  0 active torsions:
REMARK  status: ('A' for Active; 'I' for Inactive)
ROOT
ATOM      1  C2' OXE d   1      -1.478   2.531   1.493  0.00  0.00     0.078 C 
ATOM      2  C1' OXE d   1      -1.234   2.296  -1.294  0.00  0.00     0.078 C 
ATOM      3  C1  OXE d   1      -0.606   1.223  -0.440  0.00  0.00    -0.078 A 
ATOM      4  C2  OXE d   1      -0.691   1.370   0.924  0.00  0.00    -0.078 A 
ATOM      5  C3  OXE d   1      -0.177   0.381   1.757  0.00  0.00     0.003 A 
ATOM      6  C4  OXE d   1       0.559  -0.684   1.223  0.00  0.00    -0.002 A 
ATOM      7  C5  OXE d   1       0.690  -0.832  -0.161  0.00  0.00    -0.002 A 
ATOM      8  C6  OXE d   1       0.079   0.087  -1.006  0.00  0.00     0.003 A 
ENDROOT
TORSDOF 0
ENDMDL
