MODEL 1
REMARK minimizedAffinity -4.02929974
REMARK minimizedRMSD -1
REMARK  0 active torsions:
REMARK  status: ('A' for Active; 'I' for Inactive)
ROOT
ATOM      1  C2' OXE d   1       0.006  -0.885  -0.755  0.00  0.00     0.078 C 
ATOM      2  C1' OXE d   1       0.337  -0.544   2.012  0.00  0.00     0.078 C 
ATOM      3  C1  OXE d   1      -0.305   0.579   1.236  0.00  0.00    -0.078 A 
ATOM      4  C2  OXE d   1      -0.421   0.423  -0.124  0.00  0.00    -0.078 A 
ATOM      5  C3  OXE d   1      -1.055   1.405  -0.880  0.00  0.00     0.003 A 
ATOM      6  C4  OXE d   1      -1.438   2.616  -0.290  0.00  0.00    -0.002 A 
ATOM      7  C5  OXE d   1      -1.293   2.812   1.087  0.00  0.00    -0.002 A 
ATOM      8  C6  OXE d   1      -0.769   1.789   1.870  0.00  0.00     0.003 A 
ENDROOT
TORSDOF 0
ENDMDL
