MODEL 1
REMARK minimizedAffinity -4.76136208
REMARK minimizedRMSD -1
REMARK  0 active torsions:
REMARK  status: ('A' for Active; 'I' for Inactive)
ROOT
ATOM      1  C2' OXE d   1      -2.846  -1.062  -0.394  0.00  0.00     0.078 C 
ATOM      2  C1' OXE d   1      -0.270  -0.032   0.037  0.00  0.00     0.078 C 
ATOM      3  C1  OXE d   1      -0.396  -1.499  -0.287  0.00  0.00    -0.078 A 
ATOM      4  C2  OXE d   1      -1.663  -2.005  -0.450  0.00  0.00    -0.078 A 
ATOM      5  C3  OXE d   1      -1.832  -3.341  -0.804  0.00  0.00     0.003 A 
ATOM      6  C4  OXE d   1      -0.734  -4.208  -0.844  0.00  0.00    -0.002 A 
ATOM      7  C5  OXE d   1       0.563  -3.722  -0.642  0.00  0.00    -0.002 A 
ATOM      8  C6  OXE d   1       0.752  -2.365  -0.405  0.00  0.00     0.003 A 
ENDROOT
TORSDOF 0
ENDMDL
