MODEL 1
REMARK minimizedAffinity -2.61639953
REMARK minimizedRMSD -1
REMARK  0 active torsions:
REMARK  status: ('A' for Active; 'I' for Inactive)
ROOT
ATOM      1  C2' OXE d   1      -1.428   2.535   1.709  0.00  0.00     0.078 C 
ATOM      2  C1' OXE d   1       0.347   0.796   3.014  0.00  0.00     0.078 C 
ATOM      3  C1  OXE d   1       0.168   0.632   1.526  0.00  0.00    -0.078 A 
ATOM      4  C2  OXE d   1      -0.737   1.456   0.903  0.00  0.00    -0.078 A 
ATOM      5  C3  OXE d   1      -0.900   1.383  -0.478  0.00  0.00     0.003 A 
ATOM      6  C4  OXE d   1      -0.265   0.375  -1.214  0.00  0.00    -0.002 A 
ATOM      7  C5  OXE d   1       0.631  -0.501  -0.592  0.00  0.00    -0.002 A 
ATOM      8  C6  OXE d   1       0.891  -0.359   0.766  0.00  0.00     0.003 A 
ENDROOT
TORSDOF 0
ENDMDL
