MODEL 1
REMARK minimizedAffinity -4.91530943
REMARK minimizedRMSD -1
REMARK  0 active torsions:
REMARK  status: ('A' for Active; 'I' for Inactive)
ROOT
ATOM      1  C2' OXE d   1      -0.434   1.911  -1.745  0.00  0.00     0.078 C 
ATOM      2  C1' OXE d   1       0.459  -0.572  -0.788  0.00  0.00     0.078 C 
ATOM      3  C1  OXE d   1      -0.022   0.440   0.222  0.00  0.00    -0.078 A 
ATOM      4  C2  OXE d   1      -0.413   1.669  -0.251  0.00  0.00    -0.078 A 
ATOM      5  C3  OXE d   1      -0.917   2.619   0.632  0.00  0.00     0.003 A 
ATOM      6  C4  OXE d   1      -0.884   2.391   2.013  0.00  0.00    -0.002 A 
ATOM      7  C5  OXE d   1      -0.453   1.160   2.520  0.00  0.00    -0.002 A 
ATOM      8  C6  OXE d   1      -0.059   0.161   1.637  0.00  0.00     0.003 A 
ENDROOT
TORSDOF 0
ENDMDL
