MODEL 1
REMARK minimizedAffinity -1.26400077
REMARK minimizedRMSD -1
REMARK  0 active torsions:
REMARK  status: ('A' for Active; 'I' for Inactive)
ROOT
ATOM      1  C2' OXE d   1       0.447   0.387   2.756  0.00  0.00     0.078 C 
ATOM      2  C1' OXE d   1      -1.371   2.260   1.721  0.00  0.00     0.078 C 
ATOM      3  C1  OXE d   1      -0.688   1.331   0.749  0.00  0.00    -0.078 A 
ATOM      4  C2  OXE d   1       0.234   0.449   1.258  0.00  0.00    -0.078 A 
ATOM      5  C3  OXE d   1       0.852  -0.468   0.412  0.00  0.00     0.003 A 
ATOM      6  C4  OXE d   1       0.658  -0.397  -0.972  0.00  0.00    -0.002 A 
ATOM      7  C5  OXE d   1      -0.248   0.520  -1.516  0.00  0.00    -0.002 A 
ATOM      8  C6  OXE d   1      -0.959   1.360  -0.667  0.00  0.00     0.003 A 
ENDROOT
TORSDOF 0
ENDMDL
