MODEL 1
REMARK minimizedAffinity -6.01625299
REMARK minimizedRMSD -1
REMARK  0 active torsions:
REMARK  status: ('A' for Active; 'I' for Inactive)
ROOT
ATOM      1  C2' OXE d   1      -0.001  -0.408   2.224  0.00  0.00     0.078 C 
ATOM      2  C1' OXE d   1      -1.292   2.056   1.842  0.00  0.00     0.078 C 
ATOM      3  C1  OXE d   1      -0.682   1.386   0.636  0.00  0.00    -0.078 A 
ATOM      4  C2  OXE d   1      -0.012   0.204   0.840  0.00  0.00    -0.078 A 
ATOM      5  C3  OXE d   1       0.522  -0.482  -0.248  0.00  0.00     0.003 A 
ATOM      6  C4  OXE d   1       0.516   0.096  -1.523  0.00  0.00    -0.002 A 
ATOM      7  C5  OXE d   1      -0.127   1.318  -1.745  0.00  0.00    -0.002 A 
ATOM      8  C6  OXE d   1      -0.766   1.954  -0.687  0.00  0.00     0.003 A 
ENDROOT
TORSDOF 0
ENDMDL
