MODEL 1
REMARK minimizedAffinity -4.25663757
REMARK minimizedRMSD -1
REMARK  0 active torsions:
REMARK  status: ('A' for Active; 'I' for Inactive)
ROOT
ATOM      1  C2' OXE d   1      -0.367   1.471  -1.869  0.00  0.00     0.078 C 
ATOM      2  C1' OXE d   1       0.481  -1.033  -0.926  0.00  0.00     0.078 C 
ATOM      3  C1  OXE d   1      -0.024  -0.035   0.085  0.00  0.00    -0.078 A 
ATOM      4  C2  OXE d   1      -0.393   1.205  -0.380  0.00  0.00    -0.078 A 
ATOM      5  C3  OXE d   1      -0.918   2.144   0.503  0.00  0.00     0.003 A 
ATOM      6  C4  OXE d   1      -0.929   1.893   1.881  0.00  0.00    -0.002 A 
ATOM      7  C5  OXE d   1      -0.521   0.652   2.380  0.00  0.00    -0.002 A 
ATOM      8  C6  OXE d   1      -0.106  -0.336   1.493  0.00  0.00     0.003 A 
ENDROOT
TORSDOF 0
ENDMDL
