MODEL 1
REMARK minimizedAffinity -4.58627081
REMARK minimizedRMSD -1
REMARK  0 active torsions:
REMARK  status: ('A' for Active; 'I' for Inactive)
ROOT
ATOM      1  C   UNL d   1      -1.188  -0.966   2.895  0.00  0.00     0.077 C 
ATOM      2  C1  UNL d   1      -0.303  -0.395   1.827  0.00  0.00    -0.074 A 
ATOM      3  C2  UNL d   1       0.925   0.192   2.149  0.00  0.00    -0.005 A 
ATOM      4  C3  UNL d   1       1.742   0.710   1.144  0.00  0.00     0.006 A 
ATOM      5  C4  UNL d   1       1.340   0.646  -0.191  0.00  0.00    -0.005 A 
ATOM      6  C5  UNL d   1       0.117   0.061  -0.532  0.00  0.00    -0.074 A 
ATOM      7  C6  UNL d   1      -0.326  -0.025  -1.962  0.00  0.00     0.077 C 
ATOM      8  C7  UNL d   1      -0.696  -0.463   0.483  0.00  0.00    -0.001 A 
ENDROOT
TORSDOF 0
ENDMDL
