MODEL 1
REMARK minimizedAffinity -0.946287036
REMARK minimizedRMSD -1
REMARK  0 active torsions:
REMARK  status: ('A' for Active; 'I' for Inactive)
ROOT
ATOM      1  C   UNL d   1      -2.614  -0.659   0.947  0.00  0.00     0.077 C 
ATOM      2  C1  UNL d   1      -1.184  -0.352   0.616  0.00  0.00    -0.074 A 
ATOM      3  C2  UNL d   1      -0.261  -0.053   1.624  0.00  0.00    -0.005 A 
ATOM      4  C3  UNL d   1       1.068   0.220   1.301  0.00  0.00     0.006 A 
ATOM      5  C4  UNL d   1       1.487   0.199  -0.030  0.00  0.00    -0.005 A 
ATOM      6  C5  UNL d   1       0.579  -0.098  -1.051  0.00  0.00    -0.074 A 
ATOM      7  C6  UNL d   1       1.014  -0.135  -2.485  0.00  0.00     0.077 C 
ATOM      8  C7  UNL d   1      -0.754  -0.379  -0.718  0.00  0.00    -0.001 A 
ENDROOT
TORSDOF 0
ENDMDL
