MODEL 1
REMARK minimizedAffinity -4.78548431
REMARK minimizedRMSD -1
REMARK  0 active torsions:
REMARK  status: ('A' for Active; 'I' for Inactive)
ROOT
ATOM      1  C   UNL d   1      -2.812   0.431   0.887  0.00  0.00     0.077 C 
ATOM      2  C1  UNL d   1      -1.324   0.246   0.885  0.00  0.00    -0.074 A 
ATOM      3  C2  UNL d   1      -0.620   0.070   2.081  0.00  0.00    -0.005 A 
ATOM      4  C3  UNL d   1       0.763  -0.111   2.064  0.00  0.00     0.006 A 
ATOM      5  C4  UNL d   1       1.455  -0.118   0.852  0.00  0.00    -0.005 A 
ATOM      6  C5  UNL d   1       0.768   0.055  -0.354  0.00  0.00    -0.074 A 
ATOM      7  C6  UNL d   1       1.496   0.039  -1.666  0.00  0.00     0.077 C 
ATOM      8  C7  UNL d   1      -0.622   0.229  -0.328  0.00  0.00    -0.001 A 
ENDROOT
TORSDOF 0
ENDMDL
