MODEL 1
REMARK minimizedAffinity -3.61427927
REMARK minimizedRMSD -1
REMARK  0 active torsions:
REMARK  status: ('A' for Active; 'I' for Inactive)
ROOT
ATOM      1  C   UNL d   1       0.734   0.419  -1.375  0.00  0.00     0.077 C 
ATOM      2  C1  UNL d   1       0.073   0.122  -0.062  0.00  0.00    -0.074 A 
ATOM      3  C2  UNL d   1       0.819   0.055   1.120  0.00  0.00    -0.005 A 
ATOM      4  C3  UNL d   1       0.188  -0.213   2.335  0.00  0.00     0.006 A 
ATOM      5  C4  UNL d   1      -1.191  -0.417   2.381  0.00  0.00    -0.005 A 
ATOM      6  C5  UNL d   1      -1.953  -0.353   1.210  0.00  0.00    -0.074 A 
ATOM      7  C6  UNL d   1      -3.438  -0.560   1.243  0.00  0.00     0.077 C 
ATOM      8  C7  UNL d   1      -1.314  -0.076  -0.006  0.00  0.00    -0.001 A 
ENDROOT
TORSDOF 0
ENDMDL
