MODEL 1
REMARK minimizedAffinity -4.73769474
REMARK minimizedRMSD -1
REMARK  0 active torsions:
REMARK  status: ('A' for Active; 'I' for Inactive)
ROOT
ATOM      1  C   UNL d   1       0.780  -0.321  -1.537  0.00  0.00     0.077 C 
ATOM      2  C1  UNL d   1      -0.312  -0.173  -0.519  0.00  0.00    -0.074 A 
ATOM      3  C2  UNL d   1      -1.603   0.204  -0.900  0.00  0.00    -0.005 A 
ATOM      4  C3  UNL d   1      -2.610   0.328   0.058  0.00  0.00     0.006 A 
ATOM      5  C4  UNL d   1      -2.336   0.077   1.402  0.00  0.00    -0.005 A 
ATOM      6  C5  UNL d   1      -1.051  -0.302   1.802  0.00  0.00    -0.074 A 
ATOM      7  C6  UNL d   1      -0.741  -0.585   3.242  0.00  0.00     0.077 C 
ATOM      8  C7  UNL d   1      -0.046  -0.432   0.833  0.00  0.00    -0.001 A 
ENDROOT
TORSDOF 0
ENDMDL
