MODEL 1
REMARK minimizedAffinity -3.36074615
REMARK minimizedRMSD -1
REMARK  0 active torsions:
REMARK  status: ('A' for Active; 'I' for Inactive)
ROOT
ATOM      1  C   UNL d   1      -1.091  -1.050   3.290  0.00  0.00     0.077 C 
ATOM      2  C1  UNL d   1      -0.504  -0.637   1.973  0.00  0.00    -0.074 A 
ATOM      3  C2  UNL d   1      -1.241  -0.753   0.789  0.00  0.00    -0.005 A 
ATOM      4  C3  UNL d   1      -0.685  -0.356  -0.427  0.00  0.00     0.006 A 
ATOM      5  C4  UNL d   1       0.611   0.160  -0.472  0.00  0.00    -0.005 A 
ATOM      6  C5  UNL d   1       1.362   0.284   0.701  0.00  0.00    -0.074 A 
ATOM      7  C6  UNL d   1       2.752   0.846   0.671  0.00  0.00     0.077 C 
ATOM      8  C7  UNL d   1       0.794  -0.110   1.920  0.00  0.00    -0.001 A 
ENDROOT
TORSDOF 0
ENDMDL
