MODEL 1
REMARK minimizedAffinity -5.48795462
REMARK minimizedRMSD -1
REMARK  0 active torsions:
REMARK  status: ('A' for Active; 'I' for Inactive)
ROOT
ATOM      1  C   UNL d   1      -0.876  -1.129   2.628  0.00  0.00     0.077 C 
ATOM      2  C1  UNL d   1      -0.145  -0.627   1.419  0.00  0.00    -0.074 A 
ATOM      3  C2  UNL d   1       0.881   0.316   1.539  0.00  0.00    -0.005 A 
ATOM      4  C3  UNL d   1       1.559   0.767   0.406  0.00  0.00     0.006 A 
ATOM      5  C4  UNL d   1       1.218   0.280  -0.856  0.00  0.00    -0.005 A 
ATOM      6  C5  UNL d   1       0.195  -0.664  -0.996  0.00  0.00    -0.074 A 
ATOM      7  C6  UNL d   1      -0.177  -1.204  -2.345  0.00  0.00     0.077 C 
ATOM      8  C7  UNL d   1      -0.476  -1.117   0.148  0.00  0.00    -0.001 A 
ENDROOT
TORSDOF 0
ENDMDL
