MODEL 1
REMARK minimizedAffinity -3.41044545
REMARK minimizedRMSD -1
REMARK  0 active torsions:
REMARK  status: ('A' for Active; 'I' for Inactive)
ROOT
ATOM      1  C   UNL d   1       0.853   0.121  -1.475  0.00  0.00     0.077 C 
ATOM      2  C1  UNL d   1       0.210  -0.034  -0.129  0.00  0.00    -0.074 A 
ATOM      3  C2  UNL d   1       0.978  -0.023   1.040  0.00  0.00    -0.005 A 
ATOM      4  C3  UNL d   1       0.366  -0.159   2.285  0.00  0.00     0.006 A 
ATOM      5  C4  UNL d   1      -1.019  -0.308   2.375  0.00  0.00    -0.005 A 
ATOM      6  C5  UNL d   1      -1.803  -0.321   1.217  0.00  0.00    -0.074 A 
ATOM      7  C6  UNL d   1      -3.294  -0.470   1.296  0.00  0.00     0.077 C 
ATOM      8  C7  UNL d   1      -1.181  -0.177  -0.031  0.00  0.00    -0.001 A 
ENDROOT
TORSDOF 0
ENDMDL
