MODEL 1
REMARK minimizedAffinity -3.47228193
REMARK minimizedRMSD -1
REMARK  0 active torsions:
REMARK  status: ('A' for Active; 'I' for Inactive)
ROOT
ATOM      1  C   UNL d   1       2.042   0.193   2.464  0.00  0.00     0.077 C 
ATOM      2  C1  UNL d   1       0.932  -0.074   1.492  0.00  0.00    -0.074 A 
ATOM      3  C2  UNL d   1      -0.291  -0.598   1.923  0.00  0.00    -0.005 A 
ATOM      4  C3  UNL d   1      -1.318  -0.832   1.009  0.00  0.00     0.006 A 
ATOM      5  C4  UNL d   1      -1.133  -0.546  -0.344  0.00  0.00    -0.005 A 
ATOM      6  C5  UNL d   1       0.083  -0.021  -0.794  0.00  0.00    -0.074 A 
ATOM      7  C6  UNL d   1       0.295   0.301  -2.244  0.00  0.00     0.077 C 
ATOM      8  C7  UNL d   1       1.107   0.218   0.132  0.00  0.00    -0.001 A 
ENDROOT
TORSDOF 0
ENDMDL
