MODEL 1
REMARK minimizedAffinity -4.6416769
REMARK minimizedRMSD -1
REMARK  0 active torsions:
REMARK  status: ('A' for Active; 'I' for Inactive)
ROOT
ATOM      1  C   UNL d   1      -1.122  -0.589   3.500  0.00  0.00     0.077 C 
ATOM      2  C1  UNL d   1      -0.645  -0.198   2.133  0.00  0.00    -0.074 A 
ATOM      3  C2  UNL d   1      -1.517  -0.200   1.039  0.00  0.00    -0.005 A 
ATOM      4  C3  UNL d   1      -1.061   0.175  -0.224  0.00  0.00     0.006 A 
ATOM      5  C4  UNL d   1       0.268   0.556  -0.407  0.00  0.00    -0.005 A 
ATOM      6  C5  UNL d   1       1.155   0.566   0.675  0.00  0.00    -0.074 A 
ATOM      7  C6  UNL d   1       2.585   0.982   0.497  0.00  0.00     0.077 C 
ATOM      8  C7  UNL d   1       0.688   0.194   1.943  0.00  0.00    -0.001 A 
ENDROOT
TORSDOF 0
ENDMDL
