MODEL 1
REMARK minimizedAffinity -5.37903833
REMARK minimizedRMSD -1
REMARK  0 active torsions:
REMARK  status: ('A' for Active; 'I' for Inactive)
ROOT
ATOM      1  C   UNL d   1      -2.569  -0.376   3.104  0.00  0.00     0.077 C 
ATOM      2  C1  UNL d   1      -1.342  -0.149   2.273  0.00  0.00    -0.074 A 
ATOM      3  C2  UNL d   1      -0.142   0.264   2.862  0.00  0.00    -0.005 A 
ATOM      4  C3  UNL d   1       0.995   0.462   2.077  0.00  0.00     0.006 A 
ATOM      5  C4  UNL d   1       0.942   0.250   0.699  0.00  0.00    -0.005 A 
ATOM      6  C5  UNL d   1      -0.248  -0.163   0.093  0.00  0.00    -0.074 A 
ATOM      7  C6  UNL d   1      -0.319  -0.405  -1.385  0.00  0.00     0.077 C 
ATOM      8  C7  UNL d   1      -1.384  -0.367   0.889  0.00  0.00    -0.001 A 
ENDROOT
TORSDOF 0
ENDMDL
