MODEL 1
REMARK minimizedAffinity -2.95688534
REMARK minimizedRMSD -1
REMARK  0 active torsions:
REMARK  status: ('A' for Active; 'I' for Inactive)
ROOT
ATOM      1  C   UNL d   1      -2.339  -1.868   1.503  0.00  0.00     0.077 C 
ATOM      2  C1  UNL d   1      -1.288  -0.803   1.396  0.00  0.00    -0.074 A 
ATOM      3  C2  UNL d   1      -0.799  -0.158   2.537  0.00  0.00    -0.005 A 
ATOM      4  C3  UNL d   1       0.185   0.824   2.422  0.00  0.00     0.006 A 
ATOM      5  C4  UNL d   1       0.688   1.171   1.168  0.00  0.00    -0.005 A 
ATOM      6  C5  UNL d   1       0.212   0.537   0.016  0.00  0.00    -0.074 A 
ATOM      7  C6  UNL d   1       0.750   0.891  -1.338  0.00  0.00     0.077 C 
ATOM      8  C7  UNL d   1      -0.772  -0.454   0.140  0.00  0.00    -0.001 A 
ENDROOT
TORSDOF 0
ENDMDL
