MODEL 1
REMARK minimizedAffinity -5.62994957
REMARK minimizedRMSD -1
REMARK  0 active torsions:
REMARK  status: ('A' for Active; 'I' for Inactive)
ROOT
ATOM      1  C   UNL d   1       0.038   0.181  -1.122  0.00  0.00     0.077 C 
ATOM      2  C1  UNL d   1      -0.398   0.177   0.313  0.00  0.00    -0.074 A 
ATOM      3  C2  UNL d   1       0.539   0.125   1.349  0.00  0.00    -0.005 A 
ATOM      4  C3  UNL d   1       0.118   0.132   2.679  0.00  0.00     0.006 A 
ATOM      5  C4  UNL d   1      -1.242   0.190   2.985  0.00  0.00    -0.005 A 
ATOM      6  C5  UNL d   1      -2.194   0.244   1.962  0.00  0.00    -0.074 A 
ATOM      7  C6  UNL d   1      -3.659   0.317   2.274  0.00  0.00     0.077 C 
ATOM      8  C7  UNL d   1      -1.763   0.244   0.629  0.00  0.00    -0.001 A 
ENDROOT
TORSDOF 0
ENDMDL
