MODEL 1
REMARK minimizedAffinity -4.50893879
REMARK minimizedRMSD -1
REMARK  0 active torsions:
REMARK  status: ('A' for Active; 'I' for Inactive)
ROOT
ATOM      1  C   UNL d   1       0.681   0.352  -2.245  0.00  0.00     0.077 C 
ATOM      2  C1  UNL d   1      -0.205   0.326  -1.035  0.00  0.00    -0.074 A 
ATOM      3  C2  UNL d   1      -1.467   0.929  -1.055  0.00  0.00    -0.005 A 
ATOM      4  C3  UNL d   1      -2.283   0.889   0.075  0.00  0.00     0.006 A 
ATOM      5  C4  UNL d   1      -1.847   0.247   1.235  0.00  0.00    -0.005 A 
ATOM      6  C5  UNL d   1      -0.589  -0.363   1.273  0.00  0.00    -0.074 A 
ATOM      7  C6  UNL d   1      -0.109  -1.066   2.508  0.00  0.00     0.077 C 
ATOM      8  C7  UNL d   1       0.223  -0.324   0.131  0.00  0.00    -0.001 A 
ENDROOT
TORSDOF 0
ENDMDL
