MODEL 1
REMARK minimizedAffinity -3.28108716
REMARK minimizedRMSD -1
REMARK  0 active torsions:
REMARK  status: ('A' for Active; 'I' for Inactive)
ROOT
ATOM      1  C   UNL d   1       2.740   0.638   0.721  0.00  0.00     0.077 C 
ATOM      2  C1  UNL d   1       1.272   0.354   0.834  0.00  0.00    -0.074 A 
ATOM      3  C2  UNL d   1       0.463   0.283  -0.305  0.00  0.00    -0.005 A 
ATOM      4  C3  UNL d   1      -0.899   0.009  -0.185  0.00  0.00     0.006 A 
ATOM      5  C4  UNL d   1      -1.466  -0.197   1.074  0.00  0.00    -0.005 A 
ATOM      6  C5  UNL d   1      -0.673  -0.130   2.224  0.00  0.00    -0.074 A 
ATOM      7  C6  UNL d   1      -1.265  -0.358   3.583  0.00  0.00     0.077 C 
ATOM      8  C7  UNL d   1       0.696   0.139   2.094  0.00  0.00    -0.001 A 
ENDROOT
TORSDOF 0
ENDMDL
