MODEL 1
REMARK minimizedAffinity -3.25192237
REMARK minimizedRMSD -1
REMARK  0 active torsions:
REMARK  status: ('A' for Active; 'I' for Inactive)
ROOT
ATOM      1  C   UNL d   1      -0.310   0.675  -1.253  0.00  0.00     0.077 C 
ATOM      2  C1  UNL d   1       0.351  -0.159  -2.310  0.00  0.00    -0.074 A 
ATOM      3  C2  UNL d   1      -0.330  -1.215  -2.922  0.00  0.00    -0.005 A 
ATOM      4  C3  UNL d   1       0.294  -1.976  -3.911  0.00  0.00     0.006 A 
ATOM      5  C4  UNL d   1       1.604  -1.688  -4.296  0.00  0.00    -0.005 A 
ATOM      6  C5  UNL d   1       2.301  -0.635  -3.695  0.00  0.00    -0.074 A 
ATOM      7  C6  UNL d   1       3.706  -0.306  -4.104  0.00  0.00     0.077 C 
ATOM      8  C7  UNL d   1       1.664   0.129  -2.707  0.00  0.00    -0.001 A 
ENDROOT
TORSDOF 0
ENDMDL
