MODEL 1
REMARK minimizedAffinity -2.71653914
REMARK minimizedRMSD -1
REMARK  0 active torsions:
REMARK  status: ('A' for Active; 'I' for Inactive)
ROOT
ATOM      1  C   UNL d   1      -1.012  -1.066   3.068  0.00  0.00     0.077 C 
ATOM      2  C1  UNL d   1      -1.213  -0.544   1.676  0.00  0.00    -0.074 A 
ATOM      3  C2  UNL d   1      -2.486  -0.512   1.098  0.00  0.00    -0.005 A 
ATOM      4  C3  UNL d   1      -2.660  -0.015  -0.194  0.00  0.00     0.006 A 
ATOM      5  C4  UNL d   1      -1.564   0.455  -0.919  0.00  0.00    -0.005 A 
ATOM      6  C5  UNL d   1      -0.284   0.432  -0.357  0.00  0.00    -0.074 A 
ATOM      7  C6  UNL d   1       0.903   0.942  -1.119  0.00  0.00     0.077 C 
ATOM      8  C7  UNL d   1      -0.119  -0.063   0.944  0.00  0.00    -0.001 A 
ENDROOT
TORSDOF 0
ENDMDL
