MODEL 1
REMARK minimizedAffinity -0.587302387
REMARK minimizedRMSD -1
REMARK  3 active torsions:
REMARK  status: ('A' for Active; 'I' for Inactive)
REMARK    1  A    between atoms: C3'_2  and  C2'_3 
REMARK    2  A    between atoms: C2'_3  and  C1'_4 
REMARK    3  A    between atoms: C1'_4  and  C1_5 
ROOT
ATOM      1  C1  N4B d   1       2.291  -1.336  -0.926  0.00  0.00    -0.075 A 
ATOM      2  C2  N4B d   1       1.620  -0.110  -0.723  0.00  0.00     0.002 A 
ATOM      3  C3  N4B d   1       0.248  -0.067  -0.744  0.00  0.00     0.002 A 
ATOM      4  C4  N4B d   1      -0.472  -1.228  -0.983  0.00  0.00    -0.004 A 
ATOM      5  C5  N4B d   1       0.183  -2.413  -1.153  0.00  0.00     0.002 A 
ATOM      6  C6  N4B d   1       1.562  -2.472  -1.131  0.00  0.00     0.002 A 
ENDROOT
BRANCH   1   7
ATOM      7  C1' N4B d   1       3.791  -1.418  -0.998  0.00  0.00     0.057 C 
BRANCH   7   8
ATOM      8  C2' N4B d   1       4.377  -0.016  -0.856  0.00  0.00     0.009 C 
BRANCH   8   9
ATOM      9  C3' N4B d   1       4.932   0.504  -2.171  0.00  0.00     0.004 C 
ATOM     10  C4' N4B d   1       5.999   1.540  -1.981  0.00  0.00     0.003 C 
ENDBRANCH   8   9
ENDBRANCH   7   8
ENDBRANCH   1   7
TORSDOF 3
ENDMDL
