MODEL 1
REMARK minimizedAffinity -0.321076959
REMARK minimizedRMSD -1
REMARK  3 active torsions:
REMARK  status: ('A' for Active; 'I' for Inactive)
REMARK    1  A    between atoms: C3'_2  and  C2'_3 
REMARK    2  A    between atoms: C2'_3  and  C1'_4 
REMARK    3  A    between atoms: C1'_4  and  C1_5 
ROOT
ATOM      1  C1  N4B d   1       2.372  -0.974  -0.864  0.00  0.00    -0.075 A 
ATOM      2  C2  N4B d   1       2.441  -2.259  -1.445  0.00  0.00     0.002 A 
ATOM      3  C3  N4B d   1       3.423  -2.548  -2.361  0.00  0.00     0.002 A 
ATOM      4  C4  N4B d   1       4.331  -1.565  -2.724  0.00  0.00    -0.004 A 
ATOM      5  C5  N4B d   1       4.274  -0.334  -2.140  0.00  0.00     0.002 A 
ATOM      6  C6  N4B d   1       3.295  -0.031  -1.215  0.00  0.00     0.002 A 
ENDROOT
BRANCH   1   7
ATOM      7  C1' N4B d   1       1.265  -0.586   0.077  0.00  0.00     0.057 C 
BRANCH   7   8
ATOM      8  C2' N4B d   1      -0.009  -0.334  -0.724  0.00  0.00     0.009 C 
BRANCH   8   9
ATOM      9  C3' N4B d   1      -0.638  -1.628  -1.212  0.00  0.00     0.004 C 
ATOM     10  C4' N4B d   1      -0.950  -1.604  -2.679  0.00  0.00     0.003 C 
ENDBRANCH   8   9
ENDBRANCH   7   8
ENDBRANCH   1   7
TORSDOF 3
ENDMDL
