MODEL 1
REMARK minimizedAffinity -1.6726737
REMARK minimizedRMSD -1
REMARK  3 active torsions:
REMARK  status: ('A' for Active; 'I' for Inactive)
REMARK    1  A    between atoms: C3'_2  and  C2'_3 
REMARK    2  A    between atoms: C2'_3  and  C1'_4 
REMARK    3  A    between atoms: C1'_4  and  C1_5 
ROOT
ATOM      1  C1  N4B d   1       3.090  -0.740  -1.255  0.00  0.00    -0.075 A 
ATOM      2  C2  N4B d   1       3.179  -1.996  -1.894  0.00  0.00     0.002 A 
ATOM      3  C3  N4B d   1       4.178  -2.233  -2.806  0.00  0.00     0.002 A 
ATOM      4  C4  N4B d   1       5.084  -1.227  -3.108  0.00  0.00    -0.004 A 
ATOM      5  C5  N4B d   1       5.006  -0.025  -2.468  0.00  0.00     0.002 A 
ATOM      6  C6  N4B d   1       4.010   0.226  -1.546  0.00  0.00     0.002 A 
ENDROOT
BRANCH   1   7
ATOM      7  C1' N4B d   1       1.965  -0.405  -0.315  0.00  0.00     0.057 C 
BRANCH   7   8
ATOM      8  C2' N4B d   1       0.644  -0.850  -0.936  0.00  0.00     0.009 C 
BRANCH   8   9
ATOM      9  C3' N4B d   1      -0.471   0.148  -0.677  0.00  0.00     0.004 C 
ATOM     10  C4' N4B d   1      -0.128   1.136   0.398  0.00  0.00     0.003 C 
ENDBRANCH   8   9
ENDBRANCH   7   8
ENDBRANCH   1   7
TORSDOF 3
ENDMDL
