MODEL 1
REMARK minimizedAffinity -4.87492275
REMARK minimizedRMSD -1
REMARK  3 active torsions:
REMARK  status: ('A' for Active; 'I' for Inactive)
REMARK    1  A    between atoms: C3'_2  and  C2'_3 
REMARK    2  A    between atoms: C2'_3  and  C1'_4 
REMARK    3  A    between atoms: C1'_4  and  C1_5 
ROOT
ATOM      1  C1  N4B d   1       1.962  -1.908  -1.330  0.00  0.00    -0.075 A 
ATOM      2  C2  N4B d   1       3.323  -1.908  -1.708  0.00  0.00     0.002 A 
ATOM      3  C3  N4B d   1       4.062  -0.755  -1.610  0.00  0.00     0.002 A 
ATOM      4  C4  N4B d   1       3.460   0.410  -1.158  0.00  0.00    -0.004 A 
ATOM      5  C5  N4B d   1       2.151   0.395  -0.771  0.00  0.00     0.002 A 
ATOM      6  C6  N4B d   1       1.398  -0.758  -0.860  0.00  0.00     0.002 A 
ENDROOT
BRANCH   1   7
ATOM      7  C1' N4B d   1       1.091  -3.123  -1.500  0.00  0.00     0.057 C 
BRANCH   7   8
ATOM      8  C2' N4B d   1      -0.363  -2.682  -1.640  0.00  0.00     0.009 C 
BRANCH   8   9
ATOM      9  C3' N4B d   1      -0.716  -2.338  -3.077  0.00  0.00     0.004 C 
ATOM     10  C4' N4B d   1      -1.816  -3.197  -3.626  0.00  0.00     0.003 C 
ENDBRANCH   8   9
ENDBRANCH   7   8
ENDBRANCH   1   7
TORSDOF 3
ENDMDL
