MODEL 1
REMARK minimizedAffinity 0.505683303
REMARK minimizedRMSD -1
REMARK  3 active torsions:
REMARK  status: ('A' for Active; 'I' for Inactive)
REMARK    1  A    between atoms: C3'_2  and  C2'_3 
REMARK    2  A    between atoms: C2'_3  and  C1'_4 
REMARK    3  A    between atoms: C1'_4  and  C1_5 
ROOT
ATOM      1  C1  N4B d   1      -2.926   3.016   2.640  0.00  0.00    -0.075 A 
ATOM      2  C2  N4B d   1      -1.626   3.057   3.191  0.00  0.00     0.002 A 
ATOM      3  C3  N4B d   1      -0.802   4.123   2.926  0.00  0.00     0.002 A 
ATOM      4  C4  N4B d   1      -1.247   5.146   2.102  0.00  0.00    -0.004 A 
ATOM      5  C5  N4B d   1      -2.513   5.112   1.595  0.00  0.00     0.002 A 
ATOM      6  C6  N4B d   1      -3.354   4.048   1.856  0.00  0.00     0.002 A 
ENDROOT
BRANCH   1   7
ATOM      7  C1' N4B d   1      -3.833   1.831   2.832  0.00  0.00     0.057 C 
BRANCH   7   8
ATOM      8  C2' N4B d   1      -4.527   1.514   1.511  0.00  0.00     0.009 C 
BRANCH   8   9
ATOM      9  C3' N4B d   1      -3.860   0.361   0.781  0.00  0.00     0.004 C 
ATOM     10  C4' N4B d   1      -4.626  -0.080  -0.430  0.00  0.00     0.003 C 
ENDBRANCH   8   9
ENDBRANCH   7   8
ENDBRANCH   1   7
TORSDOF 3
ENDMDL
