MODEL 1
REMARK minimizedAffinity 0.207217067
REMARK minimizedRMSD -1
REMARK  3 active torsions:
REMARK  status: ('A' for Active; 'I' for Inactive)
REMARK    1  A    between atoms: C3'_2  and  C2'_3 
REMARK    2  A    between atoms: C2'_3  and  C1'_4 
REMARK    3  A    between atoms: C1'_4  and  C1_5 
ROOT
ATOM      1  C1  N4B d   1       2.436  -1.120  -1.293  0.00  0.00    -0.075 A 
ATOM      2  C2  N4B d   1       2.964  -1.898  -2.347  0.00  0.00     0.002 A 
ATOM      3  C3  N4B d   1       4.064  -1.457  -3.041  0.00  0.00     0.002 A 
ATOM      4  C4  N4B d   1       4.639  -0.239  -2.713  0.00  0.00    -0.004 A 
ATOM      5  C5  N4B d   1       4.139   0.494  -1.677  0.00  0.00     0.002 A 
ATOM      6  C6  N4B d   1       3.036   0.062  -0.969  0.00  0.00     0.002 A 
ENDROOT
BRANCH   1   7
ATOM      7  C1' N4B d   1       1.183  -1.519  -0.562  0.00  0.00     0.057 C 
BRANCH   7   8
ATOM      8  C2' N4B d   1       0.317  -0.282  -0.341  0.00  0.00     0.009 C 
BRANCH   8   9
ATOM      9  C3' N4B d   1      -0.708  -0.101  -1.447  0.00  0.00     0.004 C 
ATOM     10  C4' N4B d   1      -0.986  -1.371  -2.195  0.00  0.00     0.003 C 
ENDBRANCH   8   9
ENDBRANCH   7   8
ENDBRANCH   1   7
TORSDOF 3
ENDMDL
