MODEL 1
REMARK minimizedAffinity -1.12689924
REMARK minimizedRMSD -1
REMARK  3 active torsions:
REMARK  status: ('A' for Active; 'I' for Inactive)
REMARK    1  A    between atoms: C3'_2  and  C2'_3 
REMARK    2  A    between atoms: C2'_3  and  C1'_4 
REMARK    3  A    between atoms: C1'_4  and  C1_5 
ROOT
ATOM      1  C1  N4B d   1       1.322  -0.698  -0.506  0.00  0.00    -0.075 A 
ATOM      2  C2  N4B d   1       0.183  -1.252  -1.131  0.00  0.00     0.002 A 
ATOM      3  C3  N4B d   1      -1.072  -0.936  -0.673  0.00  0.00     0.002 A 
ATOM      4  C4  N4B d   1      -1.213  -0.088   0.415  0.00  0.00    -0.004 A 
ATOM      5  C5  N4B d   1      -0.109   0.463   0.997  0.00  0.00     0.002 A 
ATOM      6  C6  N4B d   1       1.160   0.158   0.545  0.00  0.00     0.002 A 
ENDROOT
BRANCH   1   7
ATOM      7  C1' N4B d   1       2.718  -1.081  -0.916  0.00  0.00     0.057 C 
BRANCH   7   8
ATOM      8  C2' N4B d   1       3.262  -0.031  -1.880  0.00  0.00     0.009 C 
BRANCH   8   9
ATOM      9  C3' N4B d   1       4.360   0.807  -1.247  0.00  0.00     0.004 C 
ATOM     10  C4' N4B d   1       5.221   1.499  -2.262  0.00  0.00     0.003 C 
ENDBRANCH   8   9
ENDBRANCH   7   8
ENDBRANCH   1   7
TORSDOF 3
ENDMDL
