MODEL 1
REMARK minimizedAffinity -3.57287645
REMARK minimizedRMSD -1
REMARK  0 active torsions:
REMARK  status: ('A' for Active; 'I' for Inactive)
ROOT
ATOM      1  C2' OXE d   1      -1.612   0.055   2.411  0.00  0.00     0.078 C 
ATOM      2  C1' OXE d   1       0.734  -1.101   3.431  0.00  0.00     0.078 C 
ATOM      3  C1  OXE d   1       0.838   0.268   2.806  0.00  0.00    -0.078 A 
ATOM      4  C2  OXE d   1      -0.306   0.806   2.267  0.00  0.00    -0.078 A 
ATOM      5  C3  OXE d   1      -0.277   2.089   1.728  0.00  0.00     0.003 A 
ATOM      6  C4  OXE d   1       0.937   2.773   1.590  0.00  0.00    -0.002 A 
ATOM      7  C5  OXE d   1       2.121   2.226   2.096  0.00  0.00    -0.002 A 
ATOM      8  C6  OXE d   1       2.081   0.996   2.743  0.00  0.00     0.003 A 
ENDROOT
TORSDOF 0
ENDMDL
