MODEL 1
REMARK minimizedAffinity -1.23272884
REMARK minimizedRMSD -1
REMARK  0 active torsions:
REMARK  status: ('A' for Active; 'I' for Inactive)
ROOT
ATOM      1  C2' OXE d   1      -2.070   0.315   0.543  0.00  0.00     0.078 C 
ATOM      2  C1' OXE d   1      -0.604   2.149   2.081  0.00  0.00     0.078 C 
ATOM      3  C1  OXE d   1       0.166   1.134   1.274  0.00  0.00    -0.078 A 
ATOM      4  C2  OXE d   1      -0.560   0.211   0.561  0.00  0.00    -0.078 A 
ATOM      5  C3  OXE d   1       0.100  -0.713  -0.243  0.00  0.00     0.003 A 
ATOM      6  C4  OXE d   1       1.497  -0.809  -0.213  0.00  0.00    -0.002 A 
ATOM      7  C5  OXE d   1       2.255   0.096   0.537  0.00  0.00    -0.002 A 
ATOM      8  C6  OXE d   1       1.608   1.099   1.251  0.00  0.00     0.003 A 
ENDROOT
TORSDOF 0
ENDMDL
