MODEL 1
REMARK minimizedAffinity -2.65861011
REMARK minimizedRMSD -1
REMARK  0 active torsions:
REMARK  status: ('A' for Active; 'I' for Inactive)
ROOT
ATOM      1  C2' OXE d   1      -1.965   0.308   0.144  0.00  0.00     0.078 C 
ATOM      2  C1' OXE d   1      -1.095   0.542   2.803  0.00  0.00     0.078 C 
ATOM      3  C1  OXE d   1      -0.088   0.103   1.769  0.00  0.00    -0.078 A 
ATOM      4  C2  OXE d   1      -0.534  -0.054   0.478  0.00  0.00    -0.078 A 
ATOM      5  C3  OXE d   1       0.365  -0.404  -0.524  0.00  0.00     0.003 A 
ATOM      6  C4  OXE d   1       1.685  -0.746  -0.205  0.00  0.00    -0.002 A 
ATOM      7  C5  OXE d   1       2.150  -0.632   1.109  0.00  0.00    -0.002 A 
ATOM      8  C6  OXE d   1       1.289  -0.169   2.099  0.00  0.00     0.003 A 
ENDROOT
TORSDOF 0
ENDMDL
