MODEL 1
REMARK minimizedAffinity 1.41546345
REMARK minimizedRMSD -1
REMARK  0 active torsions:
REMARK  status: ('A' for Active; 'I' for Inactive)
ROOT
ATOM      1  C2' OXE d   1      -2.719  -0.432  -0.340  0.00  0.00     0.078 C 
ATOM      2  C1' OXE d   1      -2.048   0.449   2.240  0.00  0.00     0.078 C 
ATOM      3  C1  OXE d   1      -0.926   0.010   1.332  0.00  0.00    -0.078 A 
ATOM      4  C2  OXE d   1      -1.267  -0.463   0.088  0.00  0.00    -0.078 A 
ATOM      5  C3  OXE d   1      -0.267  -0.829  -0.808  0.00  0.00     0.003 A 
ATOM      6  C4  OXE d   1       1.072  -0.865  -0.401  0.00  0.00    -0.002 A 
ATOM      7  C5  OXE d   1       1.437  -0.424   0.876  0.00  0.00    -0.002 A 
ATOM      8  C6  OXE d   1       0.457   0.055   1.738  0.00  0.00     0.003 A 
ENDROOT
TORSDOF 0
ENDMDL
