MODEL 1
REMARK minimizedAffinity -3.73307824
REMARK minimizedRMSD -1
REMARK  0 active torsions:
REMARK  status: ('A' for Active; 'I' for Inactive)
ROOT
ATOM      1  C2' OXE d   1      -2.775   0.361   0.794  0.00  0.00     0.078 C 
ATOM      2  C1' OXE d   1      -0.963   1.933   2.252  0.00  0.00     0.078 C 
ATOM      3  C1  OXE d   1      -0.398   0.921   1.286  0.00  0.00    -0.078 A 
ATOM      4  C2  OXE d   1      -1.291   0.124   0.612  0.00  0.00    -0.078 A 
ATOM      5  C3  OXE d   1      -0.826  -0.788  -0.331  0.00  0.00     0.003 A 
ATOM      6  C4  OXE d   1       0.548  -1.008  -0.486  0.00  0.00    -0.002 A 
ATOM      7  C5  OXE d   1       1.475  -0.235   0.220  0.00  0.00    -0.002 A 
ATOM      8  C6  OXE d   1       1.020   0.761   1.077  0.00  0.00     0.003 A 
ENDROOT
TORSDOF 0
ENDMDL
