MODEL 1
REMARK minimizedAffinity -3.58390188
REMARK minimizedRMSD -1
REMARK  0 active torsions:
REMARK  status: ('A' for Active; 'I' for Inactive)
ROOT
ATOM      1  C2' OXE d   1       1.149  -0.435   3.082  0.00  0.00     0.078 C 
ATOM      2  C1' OXE d   1      -1.461   0.181   2.250  0.00  0.00     0.078 C 
ATOM      3  C1  OXE d   1      -0.460  -0.215   1.193  0.00  0.00    -0.078 A 
ATOM      4  C2  OXE d   1       0.826  -0.469   1.603  0.00  0.00    -0.078 A 
ATOM      5  C3  OXE d   1       1.775  -0.892   0.676  0.00  0.00     0.003 A 
ATOM      6  C4  OXE d   1       1.471  -0.911  -0.690  0.00  0.00    -0.002 A 
ATOM      7  C5  OXE d   1       0.177  -0.616  -1.134  0.00  0.00    -0.002 A 
ATOM      8  C6  OXE d   1      -0.809  -0.309  -0.203  0.00  0.00     0.003 A 
ENDROOT
TORSDOF 0
ENDMDL
