MODEL 1
REMARK minimizedAffinity -3.60993838
REMARK minimizedRMSD -1
REMARK  0 active torsions:
REMARK  status: ('A' for Active; 'I' for Inactive)
ROOT
ATOM      1  C2' OXE d   1       2.180  -1.096   0.371  0.00  0.00     0.078 C 
ATOM      2  C1' OXE d   1       1.940  -0.495   3.102  0.00  0.00     0.078 C 
ATOM      3  C1  OXE d   1       0.744  -0.242   2.219  0.00  0.00    -0.078 A 
ATOM      4  C2  OXE d   1       0.886  -0.495   0.876  0.00  0.00    -0.078 A 
ATOM      5  C3  OXE d   1      -0.204  -0.331   0.025  0.00  0.00     0.003 A 
ATOM      6  C4  OXE d   1      -1.394   0.235   0.498  0.00  0.00    -0.002 A 
ATOM      7  C5  OXE d   1      -1.546   0.537   1.856  0.00  0.00    -0.002 A 
ATOM      8  C6  OXE d   1      -0.503   0.266   2.735  0.00  0.00     0.003 A 
ENDROOT
TORSDOF 0
ENDMDL
