MODEL 1
REMARK minimizedAffinity -4.9958539
REMARK minimizedRMSD -1
REMARK  0 active torsions:
REMARK  status: ('A' for Active; 'I' for Inactive)
ROOT
ATOM      1  C2' OXE d   1       1.503  -0.465  -0.652  0.00  0.00     0.078 C 
ATOM      2  C1' OXE d   1       1.703  -0.431   2.148  0.00  0.00     0.078 C 
ATOM      3  C1  OXE d   1       0.385  -0.033   1.532  0.00  0.00    -0.078 A 
ATOM      4  C2  OXE d   1       0.310  -0.007   0.161  0.00  0.00    -0.078 A 
ATOM      5  C3  OXE d   1      -0.898   0.299  -0.458  0.00  0.00     0.003 A 
ATOM      6  C4  OXE d   1      -1.994   0.731   0.300  0.00  0.00    -0.002 A 
ATOM      7  C5  OXE d   1      -1.926   0.750   1.697  0.00  0.00    -0.002 A 
ATOM      8  C6  OXE d   1      -0.760   0.332   2.329  0.00  0.00     0.003 A 
ENDROOT
TORSDOF 0
ENDMDL
