MODEL 1
REMARK minimizedAffinity 16.1950645
REMARK minimizedRMSD -1
REMARK  0 active torsions:
REMARK  status: ('A' for Active; 'I' for Inactive)
ROOT
ATOM      1  C   UNL d   1      -3.503   1.527   0.669  0.00  0.00     0.023 A 
ATOM      2  C1  UNL d   1      -4.897   1.517   0.718  0.00  0.00     0.003 A 
ATOM      3  C2  UNL d   1      -5.614   0.533   0.035  0.00  0.00     0.048 A 
ATOM      4  C3  UNL d   1      -4.930  -0.439  -0.696  0.00  0.00     0.023 A 
ATOM      5  C4  UNL d   1      -3.536  -0.433  -0.747  0.00  0.00     0.048 A 
ATOM      6  C5  UNL d   1      -2.823   0.554  -0.063  0.00  0.00     0.003 A 
ATOM      7  I   UNL d   1      -5.995  -1.905  -1.714  0.00  0.00    -0.146 I 
ENDROOT
TORSDOF 0
ENDMDL
