MODEL 1
REMARK minimizedAffinity 12.8784037
REMARK minimizedRMSD -1
REMARK  0 active torsions:
REMARK  status: ('A' for Active; 'I' for Inactive)
ROOT
ATOM      1  C   UNL d   1      -4.063  -2.929  -5.275  0.00  0.00     0.023 A 
ATOM      2  C1  UNL d   1      -3.860  -4.103  -4.549  0.00  0.00     0.003 A 
ATOM      3  C2  UNL d   1      -2.879  -4.150  -3.556  0.00  0.00     0.048 A 
ATOM      4  C3  UNL d   1      -2.105  -3.020  -3.295  0.00  0.00     0.023 A 
ATOM      5  C4  UNL d   1      -2.305  -1.843  -4.019  0.00  0.00     0.048 A 
ATOM      6  C5  UNL d   1      -3.287  -1.801  -5.011  0.00  0.00     0.003 A 
ATOM      7  I   UNL d   1      -0.644  -3.088  -1.819  0.00  0.00    -0.146 I 
ENDROOT
TORSDOF 0
ENDMDL
