MODEL 1
REMARK minimizedAffinity 3.98060179
REMARK minimizedRMSD -1
REMARK  0 active torsions:
REMARK  status: ('A' for Active; 'I' for Inactive)
ROOT
ATOM      1  C   UNL d   1       3.003   0.396   0.265  0.00  0.00     0.023 A 
ATOM      2  C1  UNL d   1       2.911   0.084  -1.092  0.00  0.00     0.003 A 
ATOM      3  C2  UNL d   1       3.768   0.695  -2.009  0.00  0.00     0.048 A 
ATOM      4  C3  UNL d   1       4.716   1.615  -1.564  0.00  0.00     0.023 A 
ATOM      5  C4  UNL d   1       4.813   1.930  -0.207  0.00  0.00     0.048 A 
ATOM      6  C5  UNL d   1       3.953   1.318   0.706  0.00  0.00     0.003 A 
ATOM      7  I   UNL d   1       5.994   2.525  -2.928  0.00  0.00    -0.146 I 
ENDROOT
TORSDOF 0
ENDMDL
