MODEL 1
REMARK minimizedAffinity 17.7058964
REMARK minimizedRMSD -1
REMARK  0 active torsions:
REMARK  status: ('A' for Active; 'I' for Inactive)
ROOT
ATOM      1  C   UNL d   1       2.708  -0.255   0.673  0.00  0.00     0.023 A 
ATOM      2  C1  UNL d   1       2.511  -0.320  -0.706  0.00  0.00     0.003 A 
ATOM      3  C2  UNL d   1       3.399   0.325  -1.571  0.00  0.00     0.048 A 
ATOM      4  C3  UNL d   1       4.481   1.032  -1.049  0.00  0.00     0.023 A 
ATOM      5  C4  UNL d   1       4.683   1.099   0.331  0.00  0.00     0.048 A 
ATOM      6  C5  UNL d   1       3.792   0.454   1.191  0.00  0.00     0.003 A 
ATOM      7  I   UNL d   1       5.803   1.992  -2.333  0.00  0.00    -0.146 I 
ENDROOT
TORSDOF 0
ENDMDL
