MODEL 1
REMARK minimizedAffinity 14.7557058
REMARK minimizedRMSD -1
REMARK  0 active torsions:
REMARK  status: ('A' for Active; 'I' for Inactive)
ROOT
ATOM      1  C   UNL d   1      -1.465   0.604  -0.668  0.00  0.00     0.023 A 
ATOM      2  C1  UNL d   1      -1.773  -0.757  -0.671  0.00  0.00     0.003 A 
ATOM      3  C2  UNL d   1      -3.074  -1.180  -0.391  0.00  0.00     0.048 A 
ATOM      4  C3  UNL d   1      -4.062  -0.237  -0.110  0.00  0.00     0.023 A 
ATOM      5  C4  UNL d   1      -3.759   1.125  -0.107  0.00  0.00     0.048 A 
ATOM      6  C5  UNL d   1      -2.456   1.544  -0.386  0.00  0.00     0.003 A 
ATOM      7  I   UNL d   1      -5.999  -0.865   0.306  0.00  0.00    -0.146 I 
ENDROOT
TORSDOF 0
ENDMDL
