MODEL 1
REMARK minimizedAffinity 14.2926197
REMARK minimizedRMSD -1
REMARK  0 active torsions:
REMARK  status: ('A' for Active; 'I' for Inactive)
ROOT
ATOM      1  N1  IND d   1       5.500  -4.531   5.980  0.00  0.00    -0.196 N 
ATOM      2  C2  IND d   1       6.000  -3.259   6.000  0.00  0.00     0.054 A 
ATOM      3  C3  IND d   1       5.989  -2.730   4.756  0.00  0.00    -0.031 A 
ATOM      4  C4  IND d   1       5.102  -3.737   2.558  0.00  0.00     0.051 A 
ATOM      5  C5  IND d   1       4.586  -4.887   2.032  0.00  0.00    -0.031 A 
ATOM      6  C6  IND d   1       4.340  -5.999   2.811  0.00  0.00     0.015 A 
ATOM      7  C7  IND d   1       4.592  -5.998   4.154  0.00  0.00    -0.016 A 
ATOM      8  C8  IND d   1       5.123  -4.834   4.690  0.00  0.00    -0.047 A 
ATOM      9  C9  IND d   1       5.415  -3.717   3.897  0.00  0.00    -0.096 A 
ATOM     10  HN1 IND d   1       5.432  -5.054   6.660  0.00  0.00     0.298 HD
ENDROOT
TORSDOF 0
ENDMDL
