MODEL 1
REMARK minimizedAffinity 10.5827637
REMARK minimizedRMSD -1
REMARK  0 active torsions:
REMARK  status: ('A' for Active; 'I' for Inactive)
ROOT
ATOM      1  N1  IND d   1       4.640   5.601  -5.969  0.00  0.00    -0.196 N 
ATOM      2  C2  IND d   1       3.454   5.983  -5.407  0.00  0.00     0.054 A 
ATOM      3  C3  IND d   1       2.889   4.945  -4.750  0.00  0.00    -0.031 A 
ATOM      4  C4  IND d   1       3.784   2.560  -4.383  0.00  0.00     0.051 A 
ATOM      5  C5  IND d   1       4.809   1.728  -4.736  0.00  0.00    -0.031 A 
ATOM      6  C6  IND d   1       5.853   2.154  -5.531  0.00  0.00     0.015 A 
ATOM      7  C7  IND d   1       5.917   3.437  -5.996  0.00  0.00    -0.016 A 
ATOM      8  C8  IND d   1       4.874   4.282  -5.646  0.00  0.00    -0.047 A 
ATOM      9  C9  IND d   1       3.790   3.844  -4.875  0.00  0.00    -0.096 A 
ATOM     10  HN1 IND d   1       5.154   6.101  -6.444  0.00  0.00     0.298 HD
ENDROOT
TORSDOF 0
ENDMDL
