MODEL 1
REMARK minimizedAffinity 13.5512486
REMARK minimizedRMSD -1
REMARK  0 active torsions:
REMARK  status: ('A' for Active; 'I' for Inactive)
ROOT
ATOM      1  N1  IND d   1       1.420  -2.435   0.518  0.00  0.00    -0.196 N 
ATOM      2  C2  IND d   1       2.332  -1.425   0.380  0.00  0.00     0.054 A 
ATOM      3  C3  IND d   1       2.073  -0.434   1.262  0.00  0.00    -0.031 A 
ATOM      4  C4  IND d   1       0.266  -0.302   3.092  0.00  0.00     0.051 A 
ATOM      5  C5  IND d   1      -0.823  -0.968   3.580  0.00  0.00    -0.031 A 
ATOM      6  C6  IND d   1      -1.227  -2.182   3.064  0.00  0.00     0.015 A 
ATOM      7  C7  IND d   1      -0.547  -2.784   2.043  0.00  0.00    -0.016 A 
ATOM      8  C8  IND d   1       0.556  -2.108   1.540  0.00  0.00    -0.047 A 
ATOM      9  C9  IND d   1       0.945  -0.855   2.032  0.00  0.00    -0.096 A 
ATOM     10  HN1 IND d   1       1.391  -3.153   0.046  0.00  0.00     0.298 HD
ENDROOT
TORSDOF 0
ENDMDL
