MODEL 1
REMARK minimizedAffinity 5.0312252
REMARK minimizedRMSD -1
REMARK  0 active torsions:
REMARK  status: ('A' for Active; 'I' for Inactive)
ROOT
ATOM      1  N1  IND d   1       5.992   3.242  -5.512  0.00  0.00    -0.196 N 
ATOM      2  C2  IND d   1       5.534   1.977  -5.269  0.00  0.00     0.054 A 
ATOM      3  C3  IND d   1       4.182   1.965  -5.236  0.00  0.00    -0.031 A 
ATOM      4  C4  IND d   1       2.518   3.884  -5.654  0.00  0.00     0.051 A 
ATOM      5  C5  IND d   1       2.461   5.231  -5.878  0.00  0.00    -0.031 A 
ATOM      6  C6  IND d   1       3.602   5.999  -5.996  0.00  0.00     0.015 A 
ATOM      7  C7  IND d   1       4.847   5.444  -5.906  0.00  0.00    -0.016 A 
ATOM      8  C8  IND d   1       4.908   4.078  -5.672  0.00  0.00    -0.047 A 
ATOM      9  C9  IND d   1       3.754   3.300  -5.509  0.00  0.00    -0.096 A 
ATOM     10  HN1 IND d   1       6.818   3.476  -5.557  0.00  0.00     0.298 HD
ENDROOT
TORSDOF 0
ENDMDL
