MODEL 1
REMARK minimizedAffinity 13.3194332
REMARK minimizedRMSD -1
REMARK  0 active torsions:
REMARK  status: ('A' for Active; 'I' for Inactive)
ROOT
ATOM      1  N1  IND d   1       3.456   2.358   1.688  0.00  0.00    -0.196 N 
ATOM      2  C2  IND d   1       4.562   2.411   0.887  0.00  0.00     0.054 A 
ATOM      3  C3  IND d   1       4.642   1.300   0.121  0.00  0.00    -0.031 A 
ATOM      4  C4  IND d   1       3.012  -0.685  -0.055  0.00  0.00     0.051 A 
ATOM      5  C5  IND d   1       1.877  -1.200   0.505  0.00  0.00    -0.031 A 
ATOM      6  C6  IND d   1       1.194  -0.540   1.507  0.00  0.00     0.015 A 
ATOM      7  C7  IND d   1       1.618   0.670   1.980  0.00  0.00    -0.016 A 
ATOM      8  C8  IND d   1       2.774   1.192   1.418  0.00  0.00    -0.047 A 
ATOM      9  C9  IND d   1       3.495   0.507   0.431  0.00  0.00    -0.096 A 
ATOM     10  HN1 IND d   1       3.225   2.953   2.264  0.00  0.00     0.298 HD
ENDROOT
TORSDOF 0
ENDMDL
