MODEL 1
REMARK minimizedAffinity 14.3267422
REMARK minimizedRMSD -1
REMARK  0 active torsions:
REMARK  status: ('A' for Active; 'I' for Inactive)
ROOT
ATOM      1  N1  IND d   1       2.818   4.868  -4.839  0.00  0.00    -0.196 N 
ATOM      2  C2  IND d   1       3.258   5.991  -5.482  0.00  0.00     0.054 A 
ATOM      3  C3  IND d   1       4.490   5.785  -6.000  0.00  0.00    -0.031 A 
ATOM      4  C4  IND d   1       5.927   3.649  -6.000  0.00  0.00     0.051 A 
ATOM      5  C5  IND d   1       5.964   2.375  -5.505  0.00  0.00    -0.031 A 
ATOM      6  C6  IND d   1       4.932   1.856  -4.749  0.00  0.00     0.015 A 
ATOM      7  C7  IND d   1       3.815   2.591  -4.470  0.00  0.00    -0.016 A 
ATOM      8  C8  IND d   1       3.777   3.887  -4.965  0.00  0.00    -0.047 A 
ATOM      9  C9  IND d   1       4.840   4.433  -5.696  0.00  0.00    -0.096 A 
ATOM     10  HN1 IND d   1       2.068   4.788  -4.426  0.00  0.00     0.298 HD
ENDROOT
TORSDOF 0
ENDMDL
