MODEL 1
REMARK minimizedAffinity 3.13603067
REMARK minimizedRMSD -1
REMARK  0 active torsions:
REMARK  status: ('A' for Active; 'I' for Inactive)
ROOT
ATOM      1  N1  IND d   1       2.486   4.714  -5.648  0.00  0.00    -0.196 N 
ATOM      2  C2  IND d   1       2.937   5.989  -5.840  0.00  0.00     0.054 A 
ATOM      3  C3  IND d   1       4.283   5.997  -5.970  0.00  0.00    -0.031 A 
ATOM      4  C4  IND d   1       5.935   4.023  -5.999  0.00  0.00     0.051 A 
ATOM      5  C5  IND d   1       5.999   2.669  -5.823  0.00  0.00    -0.031 A 
ATOM      6  C6  IND d   1       4.872   1.912  -5.578  0.00  0.00     0.015 A 
ATOM      7  C7  IND d   1       3.632   2.482  -5.510  0.00  0.00    -0.016 A 
ATOM      8  C8  IND d   1       3.564   3.857  -5.681  0.00  0.00    -0.047 A 
ATOM      9  C9  IND d   1       4.710   4.636  -5.888  0.00  0.00    -0.096 A 
ATOM     10  HN1 IND d   1       1.666   4.485  -5.526  0.00  0.00     0.298 HD
ENDROOT
TORSDOF 0
ENDMDL
