MODEL 1
REMARK minimizedAffinity 1.69258034
REMARK minimizedRMSD -1
REMARK  1 active torsions:
REMARK  status: ('A' for Active; 'I' for Inactive)
REMARK    1  A    between atoms: C1_2  and  C2_3 
ROOT
ATOM      1  C2  UNL d   1       0.137   1.094  -0.429  0.00  0.00    -0.081 A 
ATOM      2  C3  UNL d   1      -0.709   0.184   0.216  0.00  0.00     0.006 A 
ATOM      3  C4  UNL d   1      -1.972  -0.103  -0.309  0.00  0.00     0.002 A 
ATOM      4  C5  UNL d   1      -2.405   0.508  -1.491  0.00  0.00    -0.080 A 
ATOM      5  C6  UNL d   1      -3.745   0.186  -2.081  0.00  0.00     0.076 C 
ATOM      6  C7  UNL d   1      -1.566   1.430  -2.126  0.00  0.00     0.002 A 
ATOM      7  C8  UNL d   1      -0.304   1.718  -1.601  0.00  0.00     0.006 A 
ENDROOT
BRANCH   1   8
ATOM      8  C1  UNL d   1       1.525   1.357   0.099  0.00  0.00     0.054 C 
ATOM      9  C   UNL d   1       2.561   0.507  -0.621  0.00  0.00     0.018 C 
ENDBRANCH   1   8
TORSDOF 1
ENDMDL
