MODEL 1
REMARK minimizedAffinity -0.955612779
REMARK minimizedRMSD -1
REMARK  1 active torsions:
REMARK  status: ('A' for Active; 'I' for Inactive)
REMARK    1  A    between atoms: C1_2  and  C2_3 
ROOT
ATOM      1  C2  UNL d   1       1.162  -1.231   0.848  0.00  0.00    -0.081 A 
ATOM      2  C3  UNL d   1       1.220  -1.976   2.033  0.00  0.00     0.006 A 
ATOM      3  C4  UNL d   1       0.133  -1.995   2.911  0.00  0.00     0.002 A 
ATOM      4  C5  UNL d   1      -1.030  -1.276   2.616  0.00  0.00    -0.080 A 
ATOM      5  C6  UNL d   1      -2.215  -1.312   3.535  0.00  0.00     0.076 C 
ATOM      6  C7  UNL d   1      -1.081  -0.518   1.441  0.00  0.00     0.002 A 
ATOM      7  C8  UNL d   1       0.005  -0.498   0.563  0.00  0.00     0.006 A 
ENDROOT
BRANCH   1   8
ATOM      8  C1  UNL d   1       2.307  -1.261  -0.132  0.00  0.00     0.054 C 
ATOM      9  C   UNL d   1       2.323  -0.012  -1.002  0.00  0.00     0.018 C 
ENDBRANCH   1   8
TORSDOF 1
ENDMDL
