MODEL 1
REMARK minimizedAffinity -0.632406056
REMARK minimizedRMSD -1
REMARK  1 active torsions:
REMARK  status: ('A' for Active; 'I' for Inactive)
REMARK    1  A    between atoms: C1_2  and  C2_3 
ROOT
ATOM      1  C2  UNL d   1      -1.706   1.700  -0.067  0.00  0.00    -0.081 A 
ATOM      2  C3  UNL d   1      -2.253   1.043  -1.177  0.00  0.00     0.006 A 
ATOM      3  C4  UNL d   1      -2.145   1.599  -2.453  0.00  0.00     0.002 A 
ATOM      4  C5  UNL d   1      -1.481   2.816  -2.644  0.00  0.00    -0.080 A 
ATOM      5  C6  UNL d   1      -1.332   3.409  -4.013  0.00  0.00     0.076 C 
ATOM      6  C7  UNL d   1      -0.950   3.481  -1.533  0.00  0.00     0.002 A 
ATOM      7  C8  UNL d   1      -1.059   2.926  -0.256  0.00  0.00     0.006 A 
ENDROOT
BRANCH   1   8
ATOM      8  C1  UNL d   1      -1.765   1.072   1.301  0.00  0.00     0.054 C 
ATOM      9  C   UNL d   1      -0.817  -0.114   1.407  0.00  0.00     0.018 C 
ENDBRANCH   1   8
TORSDOF 1
ENDMDL
