MODEL 1
REMARK minimizedAffinity 1.00753415
REMARK minimizedRMSD -1
REMARK  1 active torsions:
REMARK  status: ('A' for Active; 'I' for Inactive)
REMARK    1  A    between atoms: C1_2  and  C2_3 
ROOT
ATOM      1  C2  UNL d   1      -0.645  -0.618   1.275  0.00  0.00    -0.081 A 
ATOM      2  C3  UNL d   1      -1.020  -1.649   0.405  0.00  0.00     0.006 A 
ATOM      3  C4  UNL d   1      -2.167  -1.528  -0.384  0.00  0.00     0.002 A 
ATOM      4  C5  UNL d   1      -2.952  -0.372  -0.322  0.00  0.00    -0.080 A 
ATOM      5  C6  UNL d   1      -4.168  -0.217  -1.186  0.00  0.00     0.076 C 
ATOM      6  C7  UNL d   1      -2.586   0.651   0.559  0.00  0.00     0.002 A 
ATOM      7  C8  UNL d   1      -1.441   0.530   1.349  0.00  0.00     0.006 A 
ENDROOT
BRANCH   1   8
ATOM      8  C1  UNL d   1       0.626  -0.718   2.080  0.00  0.00     0.054 C 
ATOM      9  C   UNL d   1       1.519  -1.839   1.566  0.00  0.00     0.018 C 
ENDBRANCH   1   8
TORSDOF 1
ENDMDL
