MODEL 1
REMARK minimizedAffinity 1.97034621
REMARK minimizedRMSD -1
REMARK  1 active torsions:
REMARK  status: ('A' for Active; 'I' for Inactive)
REMARK    1  A    between atoms: C1_2  and  C2_3 
ROOT
ATOM      1  C2  UNL d   1       1.111  -1.038   0.743  0.00  0.00    -0.081 A 
ATOM      2  C3  UNL d   1       1.055   0.356   0.625  0.00  0.00     0.006 A 
ATOM      3  C4  UNL d   1       1.905   1.027  -0.257  0.00  0.00     0.002 A 
ATOM      4  C5  UNL d   1       2.820   0.315  -1.041  0.00  0.00    -0.080 A 
ATOM      5  C6  UNL d   1       3.717   1.020  -2.013  0.00  0.00     0.076 C 
ATOM      6  C7  UNL d   1       2.888  -1.076  -0.910  0.00  0.00     0.002 A 
ATOM      7  C8  UNL d   1       2.038  -1.748  -0.028  0.00  0.00     0.006 A 
ENDROOT
BRANCH   1   8
ATOM      8  C1  UNL d   1       0.151  -1.771   1.646  0.00  0.00     0.054 C 
ATOM      9  C   UNL d   1      -1.150  -0.998   1.812  0.00  0.00     0.018 C 
ENDBRANCH   1   8
TORSDOF 1
ENDMDL
