MODEL 1
REMARK minimizedAffinity 7.09886551
REMARK minimizedRMSD -1
REMARK  1 active torsions:
REMARK  status: ('A' for Active; 'I' for Inactive)
REMARK    1  A    between atoms: C1_2  and  C2_3 
ROOT
ATOM      1  C2  UNL d   1      -3.052   1.504  -1.552  0.00  0.00    -0.081 A 
ATOM      2  C3  UNL d   1      -1.994   1.972  -0.763  0.00  0.00     0.006 A 
ATOM      3  C4  UNL d   1      -1.904   1.616   0.585  0.00  0.00     0.002 A 
ATOM      4  C5  UNL d   1      -2.866   0.781   1.163  0.00  0.00    -0.080 A 
ATOM      5  C6  UNL d   1      -2.765   0.367   2.601  0.00  0.00     0.076 C 
ATOM      6  C7  UNL d   1      -3.932   0.327   0.380  0.00  0.00     0.002 A 
ATOM      7  C8  UNL d   1      -4.022   0.684  -0.968  0.00  0.00     0.006 A 
ENDROOT
BRANCH   1   8
ATOM      8  C1  UNL d   1      -3.116   1.834  -3.022  0.00  0.00     0.054 C 
ATOM      9  C   UNL d   1      -1.994   2.780  -3.426  0.00  0.00     0.018 C 
ENDBRANCH   1   8
TORSDOF 1
ENDMDL
