MODEL 1
REMARK minimizedAffinity 5.75881338
REMARK minimizedRMSD -1
REMARK  1 active torsions:
REMARK  status: ('A' for Active; 'I' for Inactive)
REMARK    1  A    between atoms: C1_2  and  C2_3 
ROOT
ATOM      1  C2  UNL d   1      -1.651  -1.263   1.839  0.00  0.00    -0.081 A 
ATOM      2  C3  UNL d   1      -1.958  -1.900   0.631  0.00  0.00     0.006 A 
ATOM      3  C4  UNL d   1      -2.686  -1.233  -0.357  0.00  0.00     0.002 A 
ATOM      4  C5  UNL d   1      -3.114   0.084  -0.156  0.00  0.00    -0.080 A 
ATOM      5  C6  UNL d   1      -3.871   0.821  -1.221  0.00  0.00     0.076 C 
ATOM      6  C7  UNL d   1      -2.823   0.715   1.058  0.00  0.00     0.002 A 
ATOM      7  C8  UNL d   1      -2.095   0.048   2.046  0.00  0.00     0.006 A 
ENDROOT
BRANCH   1   8
ATOM      8  C1  UNL d   1      -0.810  -1.956   2.880  0.00  0.00     0.054 C 
ATOM      9  C   UNL d   1       0.667  -1.914   2.516  0.00  0.00     0.018 C 
ENDBRANCH   1   8
TORSDOF 1
ENDMDL
