MODEL 1
REMARK minimizedAffinity 10.8292093
REMARK minimizedRMSD -1
REMARK  1 active torsions:
REMARK  status: ('A' for Active; 'I' for Inactive)
REMARK    1  A    between atoms: C1_2  and  C2_3 
ROOT
ATOM      1  C2  UNL d   1      -3.532   1.220  -1.732  0.00  0.00    -0.081 A 
ATOM      2  C3  UNL d   1      -4.148   1.489  -2.960  0.00  0.00     0.006 A 
ATOM      3  C4  UNL d   1      -3.495   2.257  -3.926  0.00  0.00     0.002 A 
ATOM      4  C5  UNL d   1      -2.214   2.763  -3.685  0.00  0.00    -0.080 A 
ATOM      5  C6  UNL d   1      -1.490   3.564  -4.726  0.00  0.00     0.076 C 
ATOM      6  C7  UNL d   1      -1.605   2.509  -2.451  0.00  0.00     0.002 A 
ATOM      7  C8  UNL d   1      -2.257   1.741  -1.484  0.00  0.00     0.006 A 
ENDROOT
BRANCH   1   8
ATOM      8  C1  UNL d   1      -4.206   0.338  -0.712  0.00  0.00     0.054 C 
ATOM      9  C   UNL d   1      -3.667   0.597   0.687  0.00  0.00     0.018 C 
ENDBRANCH   1   8
TORSDOF 1
ENDMDL
