MODEL 1
REMARK minimizedAffinity 6.67247057
REMARK minimizedRMSD -1
REMARK  1 active torsions:
REMARK  status: ('A' for Active; 'I' for Inactive)
REMARK    1  A    between atoms: C1_2  and  C2_3 
ROOT
ATOM      1  C2  UNL d   1      -2.134   2.112  -1.322  0.00  0.00    -0.081 A 
ATOM      2  C3  UNL d   1      -1.472   2.698  -0.235  0.00  0.00     0.006 A 
ATOM      3  C4  UNL d   1      -1.594   2.153   1.045  0.00  0.00     0.002 A 
ATOM      4  C5  UNL d   1      -2.371   1.010   1.259  0.00  0.00    -0.080 A 
ATOM      5  C6  UNL d   1      -2.486   0.397   2.624  0.00  0.00     0.076 C 
ATOM      6  C7  UNL d   1      -3.047   0.435   0.177  0.00  0.00     0.002 A 
ATOM      7  C8  UNL d   1      -2.926   0.980  -1.103  0.00  0.00     0.006 A 
ENDROOT
BRANCH   1   8
ATOM      8  C1  UNL d   1      -1.953   2.659  -2.715  0.00  0.00     0.054 C 
ATOM      9  C   UNL d   1      -0.613   3.366  -2.862  0.00  0.00     0.018 C 
ENDBRANCH   1   8
TORSDOF 1
ENDMDL
