MODEL 1
REMARK minimizedAffinity 6.50133944
REMARK minimizedRMSD -1
REMARK  1 active torsions:
REMARK  status: ('A' for Active; 'I' for Inactive)
REMARK    1  A    between atoms: C1_2  and  C2_3 
ROOT
ATOM      1  C2  UNL d   1      -2.965   0.384  -1.384  0.00  0.00    -0.081 A 
ATOM      2  C3  UNL d   1      -2.808  -0.976  -1.088  0.00  0.00     0.006 A 
ATOM      3  C4  UNL d   1      -2.552  -1.390   0.222  0.00  0.00     0.002 A 
ATOM      4  C5  UNL d   1      -2.456  -0.454   1.256  0.00  0.00    -0.080 A 
ATOM      5  C6  UNL d   1      -2.212  -0.887   2.671  0.00  0.00     0.076 C 
ATOM      6  C7  UNL d   1      -2.595   0.906   0.957  0.00  0.00     0.002 A 
ATOM      7  C8  UNL d   1      -2.851   1.321  -0.352  0.00  0.00     0.006 A 
ENDROOT
BRANCH   1   8
ATOM      8  C1  UNL d   1      -3.305   0.828  -2.784  0.00  0.00     0.054 C 
ATOM      9  C   UNL d   1      -3.093   2.326  -2.955  0.00  0.00     0.018 C 
ENDBRANCH   1   8
TORSDOF 1
ENDMDL
