MODEL 1
REMARK minimizedAffinity 6.44626856
REMARK minimizedRMSD -1
REMARK  0 active torsions:
REMARK  status: ('A' for Active; 'I' for Inactive)
ROOT
ATOM      1  C4' PXY d   1      -1.785  -0.850   3.097  0.00  0.00     0.077 C 
ATOM      2  C1' PXY d   1       2.875  -3.602   1.066  0.00  0.00     0.077 C 
ATOM      3  C1  PXY d   1       1.645  -2.890   1.594  0.00  0.00    -0.082 A 
ATOM      4  C2  PXY d   1       1.680  -1.581   1.786  0.00  0.00     0.003 A 
ATOM      5  C3  PXY d   1       0.587  -0.926   2.293  0.00  0.00     0.003 A 
ATOM      6  C4  PXY d   1      -0.570  -1.609   2.556  0.00  0.00    -0.082 A 
ATOM      7  C5  PXY d   1      -0.616  -2.943   2.353  0.00  0.00     0.003 A 
ATOM      8  C6  PXY d   1       0.517  -3.596   1.876  0.00  0.00     0.003 A 
ENDROOT
TORSDOF 0
ENDMDL
