MODEL 1
REMARK minimizedAffinity 9.05243301
REMARK minimizedRMSD -1
REMARK  0 active torsions:
REMARK  status: ('A' for Active; 'I' for Inactive)
ROOT
ATOM      1  C4' PXY d   1       3.848   5.998  -5.994  0.00  0.00     0.077 C 
ATOM      2  C1' PXY d   1       5.638   0.657  -4.695  0.00  0.00     0.077 C 
ATOM      3  C1  PXY d   1       5.177   2.063  -5.027  0.00  0.00    -0.082 A 
ATOM      4  C2  PXY d   1       3.976   2.251  -5.548  0.00  0.00     0.003 A 
ATOM      5  C3  PXY d   1       3.555   3.512  -5.884  0.00  0.00     0.003 A 
ATOM      6  C4  PXY d   1       4.352   4.597  -5.634  0.00  0.00    -0.082 A 
ATOM      7  C5  PXY d   1       5.575   4.415  -5.093  0.00  0.00     0.003 A 
ATOM      8  C6  PXY d   1       5.999   3.122  -4.797  0.00  0.00     0.003 A 
ENDROOT
TORSDOF 0
ENDMDL
