MODEL 1
REMARK minimizedAffinity 7.37352562
REMARK minimizedRMSD -1
REMARK  0 active torsions:
REMARK  status: ('A' for Active; 'I' for Inactive)
ROOT
ATOM      1  C4' PXY d   1       5.804   5.389  -5.999  0.00  0.00     0.077 C 
ATOM      2  C1' PXY d   1       0.224   3.967  -5.490  0.00  0.00     0.077 C 
ATOM      3  C1  PXY d   1       1.684   4.351  -5.631  0.00  0.00    -0.082 A 
ATOM      4  C2  PXY d   1       2.618   3.420  -5.520  0.00  0.00     0.003 A 
ATOM      5  C3  PXY d   1       3.945   3.755  -5.613  0.00  0.00     0.003 A 
ATOM      6  C4  PXY d   1       4.317   5.046  -5.874  0.00  0.00    -0.082 A 
ATOM      7  C5  PXY d   1       3.370   5.999  -5.999  0.00  0.00     0.003 A 
ATOM      8  C6  PXY d   1       2.030   5.646  -5.860  0.00  0.00     0.003 A 
ENDROOT
TORSDOF 0
ENDMDL
