MODEL 1
REMARK minimizedAffinity 4.481318
REMARK minimizedRMSD -1
REMARK  0 active torsions:
REMARK  status: ('A' for Active; 'I' for Inactive)
ROOT
ATOM      1  C4' PXY d   1      -5.992   0.013  -4.522  0.00  0.00     0.077 C 
ATOM      2  C1' PXY d   1      -1.514   2.553  -1.894  0.00  0.00     0.077 C 
ATOM      3  C1  PXY d   1      -2.688   1.878  -2.573  0.00  0.00    -0.082 A 
ATOM      4  C2  PXY d   1      -2.880   2.050  -3.871  0.00  0.00     0.003 A 
ATOM      5  C3  PXY d   1      -3.956   1.472  -4.496  0.00  0.00     0.003 A 
ATOM      6  C4  PXY d   1      -4.814   0.668  -3.795  0.00  0.00    -0.082 A 
ATOM      7  C5  PXY d   1      -4.619   0.479  -2.473  0.00  0.00     0.003 A 
ATOM      8  C6  PXY d   1      -3.545   1.107  -1.850  0.00  0.00     0.003 A 
ENDROOT
TORSDOF 0
ENDMDL
