MODEL 1
REMARK minimizedAffinity 8.78110218
REMARK minimizedRMSD -1
REMARK  0 active torsions:
REMARK  status: ('A' for Active; 'I' for Inactive)
ROOT
ATOM      1  C4' PXY d   1       0.273  -1.418  -0.973  0.00  0.00     0.077 C 
ATOM      2  C1' PXY d   1       3.060  -2.041   4.053  0.00  0.00     0.077 C 
ATOM      3  C1  PXY d   1       2.332  -1.890   2.732  0.00  0.00    -0.082 A 
ATOM      4  C2  PXY d   1       2.237  -0.696   2.170  0.00  0.00     0.003 A 
ATOM      5  C3  PXY d   1       1.554  -0.536   0.991  0.00  0.00     0.003 A 
ATOM      6  C4  PXY d   1       1.008  -1.618   0.355  0.00  0.00    -0.082 A 
ATOM      7  C5  PXY d   1       1.109  -2.842   0.917  0.00  0.00     0.003 A 
ATOM      8  C6  PXY d   1       1.771  -2.976   2.134  0.00  0.00     0.003 A 
ENDROOT
TORSDOF 0
ENDMDL
