MODEL 1
REMARK minimizedAffinity 15.7417669
REMARK minimizedRMSD -1
REMARK  0 active torsions:
REMARK  status: ('A' for Active; 'I' for Inactive)
ROOT
ATOM      1  C4' PXY d   1       2.886  -4.605   0.253  0.00  0.00     0.077 C 
ATOM      2  C1' PXY d   1       0.915   0.098   2.975  0.00  0.00     0.077 C 
ATOM      3  C1  PXY d   1       1.421  -1.137   2.255  0.00  0.00    -0.082 A 
ATOM      4  C2  PXY d   1       2.416  -1.836   2.776  0.00  0.00     0.003 A 
ATOM      5  C3  PXY d   1       2.907  -2.937   2.122  0.00  0.00     0.003 A 
ATOM      6  C4  PXY d   1       2.338  -3.357   0.950  0.00  0.00    -0.082 A 
ATOM      7  C5  PXY d   1       1.315  -2.655   0.417  0.00  0.00     0.003 A 
ATOM      8  C6  PXY d   1       0.858  -1.517   1.076  0.00  0.00     0.003 A 
ENDROOT
TORSDOF 0
ENDMDL
