MODEL 1
REMARK minimizedAffinity 14.8494806
REMARK minimizedRMSD -1
REMARK  0 active torsions:
REMARK  status: ('A' for Active; 'I' for Inactive)
ROOT
ATOM      1  C4' PXY d   1      -4.201  -1.858  -1.715  0.00  0.00     0.077 C 
ATOM      2  C1' PXY d   1      -1.172   2.910  -2.940  0.00  0.00     0.077 C 
ATOM      3  C1  PXY d   1      -1.955   1.653  -2.618  0.00  0.00    -0.082 A 
ATOM      4  C2  PXY d   1      -3.210   1.542  -3.023  0.00  0.00     0.003 A 
ATOM      5  C3  PXY d   1      -3.943   0.426  -2.712  0.00  0.00     0.003 A 
ATOM      6  C4  PXY d   1      -3.369  -0.611  -2.026  0.00  0.00    -0.082 A 
ATOM      7  C5  PXY d   1      -2.086  -0.510  -1.619  0.00  0.00     0.003 A 
ATOM      8  C6  PXY d   1      -1.372   0.649  -1.908  0.00  0.00     0.003 A 
ENDROOT
TORSDOF 0
ENDMDL
