MODEL 1
REMARK minimizedAffinity 8.74636745
REMARK minimizedRMSD -1
REMARK  0 active torsions:
REMARK  status: ('A' for Active; 'I' for Inactive)
ROOT
ATOM      1  C4' PXY d   1       0.779  -0.287   3.023  0.00  0.00     0.077 C 
ATOM      2  C1' PXY d   1       1.996  -5.253   0.326  0.00  0.00     0.077 C 
ATOM      3  C1  PXY d   1       1.664  -3.952   1.030  0.00  0.00    -0.082 A 
ATOM      4  C2  PXY d   1       2.616  -3.053   1.227  0.00  0.00     0.003 A 
ATOM      5  C3  PXY d   1       2.340  -1.885   1.890  0.00  0.00     0.003 A 
ATOM      6  C4  PXY d   1       1.066  -1.610   2.309  0.00  0.00    -0.082 A 
ATOM      7  C5  PXY d   1       0.088  -2.517   2.102  0.00  0.00     0.003 A 
ATOM      8  C6  PXY d   1       0.396  -3.714   1.464  0.00  0.00     0.003 A 
ENDROOT
TORSDOF 0
ENDMDL
