MODEL 1
REMARK minimizedAffinity 2.65716863
REMARK minimizedRMSD -1
REMARK  0 active torsions:
REMARK  status: ('A' for Active; 'I' for Inactive)
ROOT
ATOM      1  C4' PXY d   1       0.214   4.892  -6.000  0.00  0.00     0.077 C 
ATOM      2  C1' PXY d   1      -2.707   1.288  -2.552  0.00  0.00     0.077 C 
ATOM      3  C1  PXY d   1      -1.944   2.243  -3.448  0.00  0.00    -0.082 A 
ATOM      4  C2  PXY d   1      -1.776   1.947  -4.726  0.00  0.00     0.003 A 
ATOM      5  C3  PXY d   1      -1.061   2.784  -5.544  0.00  0.00     0.003 A 
ATOM      6  C4  PXY d   1      -0.558   3.962  -5.060  0.00  0.00    -0.082 A 
ATOM      7  C5  PXY d   1      -0.734   4.276  -3.759  0.00  0.00     0.003 A 
ATOM      8  C6  PXY d   1      -1.428   3.394  -2.936  0.00  0.00     0.003 A 
ENDROOT
TORSDOF 0
ENDMDL
