MODEL 1
REMARK minimizedAffinity 5.98796844
REMARK minimizedRMSD -1
REMARK  0 active torsions:
REMARK  status: ('A' for Active; 'I' for Inactive)
ROOT
ATOM      1  C4' PXY d   1       1.796   5.041  -5.782  0.00  0.00     0.077 C 
ATOM      2  C1' PXY d   1      -2.329   1.812  -3.336  0.00  0.00     0.077 C 
ATOM      3  C1  PXY d   1      -1.243   2.649  -3.984  0.00  0.00    -0.082 A 
ATOM      4  C2  PXY d   1      -0.782   3.720  -3.360  0.00  0.00     0.003 A 
ATOM      5  C3  PXY d   1       0.176   4.506  -3.946  0.00  0.00     0.003 A 
ATOM      6  C4  PXY d   1       0.707   4.162  -5.161  0.00  0.00    -0.082 A 
ATOM      7  C5  PXY d   1       0.249   3.064  -5.799  0.00  0.00     0.003 A 
ATOM      8  C6  PXY d   1      -0.754   2.303  -5.206  0.00  0.00     0.003 A 
ENDROOT
TORSDOF 0
ENDMDL
