MODEL 1
REMARK minimizedAffinity 2.44731832
REMARK minimizedRMSD -1
REMARK  0 active torsions:
REMARK  status: ('A' for Active; 'I' for Inactive)
ROOT
ATOM      1  C4' PXY d   1       4.190  -3.104   0.819  0.00  0.00     0.077 C 
ATOM      2  C1' PXY d   1      -0.932  -1.040  -0.889  0.00  0.00     0.077 C 
ATOM      3  C1  PXY d   1       0.413  -1.571  -0.433  0.00  0.00    -0.082 A 
ATOM      4  C2  PXY d   1       1.068  -2.432  -1.195  0.00  0.00     0.003 A 
ATOM      5  C3  PXY d   1       2.271  -2.946  -0.783  0.00  0.00     0.003 A 
ATOM      6  C4  PXY d   1       2.833  -2.535   0.395  0.00  0.00    -0.082 A 
ATOM      7  C5  PXY d   1       2.176  -1.648   1.172  0.00  0.00     0.003 A 
ATOM      8  C6  PXY d   1       0.937  -1.169   0.756  0.00  0.00     0.003 A 
ENDROOT
TORSDOF 0
ENDMDL
