MODEL 1
REMARK minimizedAffinity 2.49806976
REMARK minimizedRMSD -1
REMARK  0 active torsions:
REMARK  status: ('A' for Active; 'I' for Inactive)
ROOT
ATOM      1  C   UNL d   1       4.229  -2.439   3.323  0.00  0.00     0.078 C 
ATOM      2  C1  UNL d   1       3.440  -2.286   2.057  0.00  0.00    -0.077 A 
ATOM      3  C2  UNL d   1       2.409  -1.344   1.959  0.00  0.00    -0.001 A 
ATOM      4  C3  UNL d   1       1.676  -1.219   0.778  0.00  0.00     0.003 A 
ATOM      5  C4  UNL d   1       1.966  -2.034  -0.314  0.00  0.00    -0.005 A 
ATOM      6  C5  UNL d   1       2.989  -2.976  -0.226  0.00  0.00     0.003 A 
ATOM      7  C6  UNL d   1       3.723  -3.102   0.955  0.00  0.00    -0.001 A 
ENDROOT
TORSDOF 0
ENDMDL
