MODEL 1
REMARK minimizedAffinity 2.76476192
REMARK minimizedRMSD -1
REMARK  0 active torsions:
REMARK  status: ('A' for Active; 'I' for Inactive)
ROOT
ATOM      1  C   UNL d   1       2.365  -3.843  -0.198  0.00  0.00     0.078 C 
ATOM      2  C1  UNL d   1       3.635  -4.581   0.104  0.00  0.00    -0.077 A 
ATOM      3  C2  UNL d   1       4.551  -4.886  -0.910  0.00  0.00    -0.001 A 
ATOM      4  C3  UNL d   1       5.724  -5.583  -0.616  0.00  0.00     0.003 A 
ATOM      5  C4  UNL d   1       5.992  -5.982   0.692  0.00  0.00    -0.005 A 
ATOM      6  C5  UNL d   1       5.085  -5.685   1.707  0.00  0.00     0.003 A 
ATOM      7  C6  UNL d   1       3.912  -4.989   1.415  0.00  0.00    -0.001 A 
ENDROOT
TORSDOF 0
ENDMDL
