MODEL 1
REMARK minimizedAffinity 0.654953957
REMARK minimizedRMSD -1
REMARK  0 active torsions:
REMARK  status: ('A' for Active; 'I' for Inactive)
ROOT
ATOM      1  C   UNL d   1       4.094  -3.954   5.056  0.00  0.00     0.078 C 
ATOM      2  C1  UNL d   1       3.587  -3.984   3.645  0.00  0.00    -0.077 A 
ATOM      3  C2  UNL d   1       4.448  -4.258   2.575  0.00  0.00    -0.001 A 
ATOM      4  C3  UNL d   1       3.965  -4.274   1.266  0.00  0.00     0.003 A 
ATOM      5  C4  UNL d   1       2.619  -4.015   1.014  0.00  0.00    -0.005 A 
ATOM      6  C5  UNL d   1       1.755  -3.740   2.072  0.00  0.00     0.003 A 
ATOM      7  C6  UNL d   1       2.237  -3.724   3.382  0.00  0.00    -0.001 A 
ENDROOT
TORSDOF 0
ENDMDL
