MODEL 1
REMARK minimizedAffinity -2.26271963
REMARK minimizedRMSD -1
REMARK  0 active torsions:
REMARK  status: ('A' for Active; 'I' for Inactive)
ROOT
ATOM      1  C   UNL d   1       1.674  -1.774  -0.001  0.00  0.00     0.078 C 
ATOM      2  C1  UNL d   1       0.679  -1.171   0.945  0.00  0.00    -0.077 A 
ATOM      3  C2  UNL d   1       0.844  -1.280   2.331  0.00  0.00    -0.001 A 
ATOM      4  C3  UNL d   1      -0.095  -0.722   3.200  0.00  0.00     0.003 A 
ATOM      5  C4  UNL d   1      -1.207  -0.053   2.692  0.00  0.00    -0.005 A 
ATOM      6  C5  UNL d   1      -1.381   0.058   1.314  0.00  0.00     0.003 A 
ATOM      7  C6  UNL d   1      -0.443  -0.499   0.444  0.00  0.00    -0.001 A 
ENDROOT
TORSDOF 0
ENDMDL
