MODEL 1
REMARK minimizedAffinity 2.77883863
REMARK minimizedRMSD -1
REMARK  0 active torsions:
REMARK  status: ('A' for Active; 'I' for Inactive)
ROOT
ATOM      1  C   UNL d   1       2.258  -0.495  -0.443  0.00  0.00     0.078 C 
ATOM      2  C1  UNL d   1       3.568   0.111  -0.033  0.00  0.00    -0.077 A 
ATOM      3  C2  UNL d   1       4.658  -0.696   0.315  0.00  0.00    -0.001 A 
ATOM      4  C3  UNL d   1       5.868  -0.118   0.703  0.00  0.00     0.003 A 
ATOM      5  C4  UNL d   1       5.999   1.269   0.749  0.00  0.00    -0.005 A 
ATOM      6  C5  UNL d   1       4.919   2.079   0.406  0.00  0.00     0.003 A 
ATOM      7  C6  UNL d   1       3.708   1.504   0.018  0.00  0.00    -0.001 A 
ENDROOT
TORSDOF 0
ENDMDL
