MODEL 1
REMARK minimizedAffinity -0.848194361
REMARK minimizedRMSD -1
REMARK  0 active torsions:
REMARK  status: ('A' for Active; 'I' for Inactive)
ROOT
ATOM      1  C   UNL d   1       4.279   4.567  -6.000  0.00  0.00     0.078 C 
ATOM      2  C1  UNL d   1       4.565   3.143  -5.627  0.00  0.00    -0.077 A 
ATOM      3  C2  UNL d   1       5.742   2.797  -4.952  0.00  0.00    -0.001 A 
ATOM      4  C3  UNL d   1       6.000   1.466  -4.620  0.00  0.00     0.003 A 
ATOM      5  C4  UNL d   1       5.086   0.471  -4.959  0.00  0.00    -0.005 A 
ATOM      6  C5  UNL d   1       3.913   0.805  -5.633  0.00  0.00     0.003 A 
ATOM      7  C6  UNL d   1       3.654   2.135  -5.966  0.00  0.00    -0.001 A 
ENDROOT
TORSDOF 0
ENDMDL
