MODEL 1
REMARK minimizedAffinity -2.2622509
REMARK minimizedRMSD -1
REMARK  0 active torsions:
REMARK  status: ('A' for Active; 'I' for Inactive)
ROOT
ATOM      1  C   UNL d   1      -6.000   0.757  -4.507  0.00  0.00     0.078 C 
ATOM      2  C1  UNL d   1      -4.634   0.171  -4.710  0.00  0.00    -0.077 A 
ATOM      3  C2  UNL d   1      -3.856   0.524  -5.819  0.00  0.00    -0.001 A 
ATOM      4  C3  UNL d   1      -2.590  -0.036  -5.999  0.00  0.00     0.003 A 
ATOM      5  C4  UNL d   1      -2.092  -0.953  -5.076  0.00  0.00    -0.005 A 
ATOM      6  C5  UNL d   1      -2.861  -1.312  -3.970  0.00  0.00     0.003 A 
ATOM      7  C6  UNL d   1      -4.127  -0.753  -3.788  0.00  0.00    -0.001 A 
ENDROOT
TORSDOF 0
ENDMDL
