MODEL 1
REMARK minimizedAffinity -3.57163143
REMARK minimizedRMSD -1
REMARK  0 active torsions:
REMARK  status: ('A' for Active; 'I' for Inactive)
ROOT
ATOM      1  C   UNL d   1       1.278  -0.948   2.578  0.00  0.00     0.023 A 
ATOM      2  C1  UNL d   1      -0.108  -0.884   2.440  0.00  0.00     0.003 A 
ATOM      3  C2  UNL d   1      -0.672  -0.400   1.258  0.00  0.00     0.048 A 
ATOM      4  C3  UNL d   1       0.156   0.018   0.218  0.00  0.00     0.023 A 
ATOM      5  C4  UNL d   1       1.544  -0.044   0.351  0.00  0.00     0.048 A 
ATOM      6  C5  UNL d   1       2.104  -0.528   1.535  0.00  0.00     0.003 A 
ATOM      7  I   UNL d   1      -0.680   0.739  -1.543  0.00  0.00    -0.146 I 
ENDROOT
TORSDOF 0
ENDMDL
