MODEL 1
REMARK minimizedAffinity -1.40317619
REMARK minimizedRMSD -1
REMARK  0 active torsions:
REMARK  status: ('A' for Active; 'I' for Inactive)
ROOT
ATOM      1  C   UNL d   1       0.572  -2.039   2.281  0.00  0.00     0.023 A 
ATOM      2  C1  UNL d   1      -0.470  -1.118   2.389  0.00  0.00     0.003 A 
ATOM      3  C2  UNL d   1      -0.770  -0.272   1.319  0.00  0.00     0.048 A 
ATOM      4  C3  UNL d   1      -0.023  -0.352   0.144  0.00  0.00     0.023 A 
ATOM      5  C4  UNL d   1       1.021  -1.272   0.031  0.00  0.00     0.048 A 
ATOM      6  C5  UNL d   1       1.317  -2.115   1.104  0.00  0.00     0.003 A 
ATOM      7  I   UNL d   1      -0.467   0.907  -1.449  0.00  0.00    -0.146 I 
ENDROOT
TORSDOF 0
ENDMDL
