MODEL 1
REMARK minimizedAffinity -4.22292519
REMARK minimizedRMSD -1
REMARK  0 active torsions:
REMARK  status: ('A' for Active; 'I' for Inactive)
ROOT
ATOM      1  C   UNL d   1       0.022  -0.353  -1.792  0.00  0.00     0.023 A 
ATOM      2  C1  UNL d   1       1.184  -1.114  -1.660  0.00  0.00     0.003 A 
ATOM      3  C2  UNL d   1       1.634  -1.490  -0.393  0.00  0.00     0.048 A 
ATOM      4  C3  UNL d   1       0.916  -1.103   0.738  0.00  0.00     0.023 A 
ATOM      5  C4  UNL d   1      -0.248  -0.342   0.611  0.00  0.00     0.048 A 
ATOM      6  C5  UNL d   1      -0.693   0.032  -0.658  0.00  0.00     0.003 A 
ATOM      7  I   UNL d   1       1.584  -1.661   2.626  0.00  0.00    -0.146 I 
ENDROOT
TORSDOF 0
ENDMDL
