MODEL 1
REMARK minimizedAffinity -0.274248451
REMARK minimizedRMSD -1
REMARK  0 active torsions:
REMARK  status: ('A' for Active; 'I' for Inactive)
ROOT
ATOM      1  C   UNL d   1       0.596  -1.089   0.007  0.00  0.00     0.023 A 
ATOM      2  C1  UNL d   1       1.086  -0.879  -1.282  0.00  0.00     0.003 A 
ATOM      3  C2  UNL d   1       0.450   0.026  -2.134  0.00  0.00     0.048 A 
ATOM      4  C3  UNL d   1      -0.676   0.719  -1.690  0.00  0.00     0.023 A 
ATOM      5  C4  UNL d   1      -1.169   0.513  -0.401  0.00  0.00     0.048 A 
ATOM      6  C5  UNL d   1      -0.530  -0.393   0.447  0.00  0.00     0.003 A 
ATOM      7  I   UNL d   1      -1.624   2.067  -2.956  0.00  0.00    -0.146 I 
ENDROOT
TORSDOF 0
ENDMDL
