MODEL 1
REMARK minimizedAffinity -4.38514662
REMARK minimizedRMSD -1
REMARK  0 active torsions:
REMARK  status: ('A' for Active; 'I' for Inactive)
ROOT
ATOM      1  C   UNL d   1       1.331  -1.587   2.408  0.00  0.00     0.023 A 
ATOM      2  C1  UNL d   1       2.224  -1.123   1.442  0.00  0.00     0.003 A 
ATOM      3  C2  UNL d   1       1.747  -0.452   0.314  0.00  0.00     0.048 A 
ATOM      4  C3  UNL d   1       0.376  -0.248   0.159  0.00  0.00     0.023 A 
ATOM      5  C4  UNL d   1      -0.521  -0.711   1.123  0.00  0.00     0.048 A 
ATOM      6  C5  UNL d   1      -0.040  -1.382   2.249  0.00  0.00     0.003 A 
ATOM      7  I   UNL d   1      -0.336   0.750  -1.519  0.00  0.00    -0.146 I 
ENDROOT
TORSDOF 0
ENDMDL
