MODEL 1
REMARK minimizedAffinity -6.00504303
REMARK minimizedRMSD -1
REMARK  1 active torsions:
REMARK  status: ('A' for Active; 'I' for Inactive)
REMARK    1  A    between atoms: C1_2  and  C2_3 
ROOT
ATOM      1  C2  UNL d   1      -0.107   0.969  -0.013  0.00  0.00    -0.077 A 
ATOM      2  C3  UNL d   1      -0.853   0.621   1.122  0.00  0.00     0.002 A 
ATOM      3  C4  UNL d   1      -1.772   1.520   1.667  0.00  0.00     0.002 A 
ATOM      4  C5  UNL d   1      -1.957   2.770   1.081  0.00  0.00    -0.004 A 
ATOM      5  C6  UNL d   1      -1.219   3.127  -0.047  0.00  0.00     0.002 A 
ATOM      6  C7  UNL d   1      -0.299   2.230  -0.592  0.00  0.00     0.002 A 
ENDROOT
BRANCH   1   7
ATOM      7  C1  UNL d   1       0.849  -0.018  -0.631  0.00  0.00     0.055 C 
ATOM      8  C   UNL d   1       0.198  -1.382  -0.809  0.00  0.00     0.019 C 
ENDBRANCH   1   7
TORSDOF 1
ENDMDL
