MODEL 1
REMARK minimizedAffinity -5.21291208
REMARK minimizedRMSD -1
REMARK  1 active torsions:
REMARK  status: ('A' for Active; 'I' for Inactive)
REMARK    1  A    between atoms: C1_2  and  C2_3 
ROOT
ATOM      1  C2  UNL d   1      -0.115   0.033   0.178  0.00  0.00    -0.077 A 
ATOM      2  C3  UNL d   1      -0.616   1.225  -0.365  0.00  0.00     0.002 A 
ATOM      3  C4  UNL d   1      -1.554   1.982   0.338  0.00  0.00     0.002 A 
ATOM      4  C5  UNL d   1      -1.996   1.560   1.590  0.00  0.00    -0.004 A 
ATOM      5  C6  UNL d   1      -1.506   0.375   2.138  0.00  0.00     0.002 A 
ATOM      6  C7  UNL d   1      -0.569  -0.384   1.436  0.00  0.00     0.002 A 
ENDROOT
BRANCH   1   7
ATOM      7  C1  UNL d   1       0.933  -0.760  -0.557  0.00  0.00     0.055 C 
ATOM      8  C   UNL d   1       0.302  -1.813  -1.456  0.00  0.00     0.019 C 
ENDBRANCH   1   7
TORSDOF 1
ENDMDL
