MODEL 1
REMARK minimizedAffinity -4.51028824
REMARK minimizedRMSD -1
REMARK  1 active torsions:
REMARK  status: ('A' for Active; 'I' for Inactive)
REMARK    1  A    between atoms: C1_2  and  C2_3 
ROOT
ATOM      1  C2  UNL d   1      -1.073   0.903   0.372  0.00  0.00    -0.077 A 
ATOM      2  C3  UNL d   1      -0.606  -0.346   0.804  0.00  0.00     0.002 A 
ATOM      3  C4  UNL d   1       0.474  -0.956   0.165  0.00  0.00     0.002 A 
ATOM      4  C5  UNL d   1       1.099  -0.323  -0.908  0.00  0.00    -0.004 A 
ATOM      5  C6  UNL d   1       0.641   0.919  -1.346  0.00  0.00     0.002 A 
ATOM      6  C7  UNL d   1      -0.440   1.529  -0.709  0.00  0.00     0.002 A 
ENDROOT
BRANCH   1   7
ATOM      7  C1  UNL d   1      -2.207   1.585   1.092  0.00  0.00     0.055 C 
ATOM      8  C   UNL d   1      -1.718   2.302   2.342  0.00  0.00     0.019 C 
ENDBRANCH   1   7
TORSDOF 1
ENDMDL
