MODEL 1
REMARK minimizedAffinity -1.37349486
REMARK minimizedRMSD -1
REMARK  1 active torsions:
REMARK  status: ('A' for Active; 'I' for Inactive)
REMARK    1  A    between atoms: C1_2  and  C2_3 
ROOT
ATOM      1  C2  UNL d   1      -0.697   1.110   0.301  0.00  0.00    -0.077 A 
ATOM      2  C3  UNL d   1      -0.139  -0.135   0.624  0.00  0.00     0.002 A 
ATOM      3  C4  UNL d   1       0.827  -0.712  -0.203  0.00  0.00     0.002 A 
ATOM      4  C5  UNL d   1       1.247  -0.049  -1.354  0.00  0.00    -0.004 A 
ATOM      5  C6  UNL d   1       0.696   1.189  -1.685  0.00  0.00     0.002 A 
ATOM      6  C7  UNL d   1      -0.271   1.766  -0.861  0.00  0.00     0.002 A 
ENDROOT
BRANCH   1   7
ATOM      7  C1  UNL d   1      -1.704   1.756   1.216  0.00  0.00     0.055 C 
ATOM      8  C   UNL d   1      -1.091   2.082   2.571  0.00  0.00     0.019 C 
ENDBRANCH   1   7
TORSDOF 1
ENDMDL
