MODEL 1
REMARK minimizedAffinity -4.18364096
REMARK minimizedRMSD -1
REMARK  1 active torsions:
REMARK  status: ('A' for Active; 'I' for Inactive)
REMARK    1  A    between atoms: C1_2  and  C2_3 
ROOT
ATOM      1  C2  UNL d   1       0.126  -0.155  -0.022  0.00  0.00    -0.077 A 
ATOM      2  C3  UNL d   1      -0.714   0.756  -0.679  0.00  0.00     0.002 A 
ATOM      3  C4  UNL d   1      -1.607   1.545   0.049  0.00  0.00     0.002 A 
ATOM      4  C5  UNL d   1      -1.664   1.436   1.437  0.00  0.00    -0.004 A 
ATOM      5  C6  UNL d   1      -0.834   0.532   2.099  0.00  0.00     0.002 A 
ATOM      6  C7  UNL d   1       0.057  -0.259   1.373  0.00  0.00     0.002 A 
ENDROOT
BRANCH   1   7
ATOM      7  C1  UNL d   1       1.123  -0.972  -0.801  0.00  0.00     0.055 C 
ATOM      8  C   UNL d   1       0.486  -2.234  -1.363  0.00  0.00     0.019 C 
ENDBRANCH   1   7
TORSDOF 1
ENDMDL
