MODEL 1
REMARK minimizedAffinity -5.52560711
REMARK minimizedRMSD -1
REMARK  1 active torsions:
REMARK  status: ('A' for Active; 'I' for Inactive)
REMARK    1  A    between atoms: C1_2  and  C2_3 
ROOT
ATOM      1  C2  UNL d   1       0.137   0.276   0.047  0.00  0.00    -0.077 A 
ATOM      2  C3  UNL d   1      -0.286   1.420  -0.645  0.00  0.00     0.002 A 
ATOM      3  C4  UNL d   1      -1.252   2.263  -0.091  0.00  0.00     0.002 A 
ATOM      4  C5  UNL d   1      -1.800   1.973   1.157  0.00  0.00    -0.004 A 
ATOM      5  C6  UNL d   1      -1.387   0.836   1.851  0.00  0.00     0.002 A 
ATOM      6  C7  UNL d   1      -0.423  -0.008   1.299  0.00  0.00     0.002 A 
ENDROOT
BRANCH   1   7
ATOM      7  C1  UNL d   1       1.214  -0.608  -0.526  0.00  0.00     0.055 C 
ATOM      8  C   UNL d   1       0.638  -1.615  -1.511  0.00  0.00     0.019 C 
ENDBRANCH   1   7
TORSDOF 1
ENDMDL
