MODEL 1
REMARK minimizedAffinity -3.68994927
REMARK minimizedRMSD -1
REMARK  1 active torsions:
REMARK  status: ('A' for Active; 'I' for Inactive)
REMARK    1  A    between atoms: C1_2  and  C2_3 
ROOT
ATOM      1  C2  UNL d   1      -0.567   0.635   1.074  0.00  0.00    -0.077 A 
ATOM      2  C3  UNL d   1      -0.299   1.065  -0.233  0.00  0.00     0.002 A 
ATOM      3  C4  UNL d   1       0.422   0.252  -1.110  0.00  0.00     0.002 A 
ATOM      4  C5  UNL d   1       0.877  -0.996  -0.691  0.00  0.00    -0.004 A 
ATOM      5  C6  UNL d   1       0.617  -1.432   0.608  0.00  0.00     0.002 A 
ATOM      6  C7  UNL d   1      -0.102  -0.621   1.486  0.00  0.00     0.002 A 
ENDROOT
BRANCH   1   7
ATOM      7  C1  UNL d   1      -1.387   1.489   2.006  0.00  0.00     0.055 C 
ATOM      8  C   UNL d   1      -2.647   2.000   1.324  0.00  0.00     0.019 C 
ENDBRANCH   1   7
TORSDOF 1
ENDMDL
