MODEL 1
REMARK minimizedAffinity -5.43500996
REMARK minimizedRMSD -1
REMARK  1 active torsions:
REMARK  status: ('A' for Active; 'I' for Inactive)
REMARK    1  A    between atoms: C1_2  and  C2_3 
ROOT
ATOM      1  C2  UNL d   1       0.240   0.369   0.041  0.00  0.00    -0.077 A 
ATOM      2  C3  UNL d   1      -0.168  -0.324   1.189  0.00  0.00     0.002 A 
ATOM      3  C4  UNL d   1      -1.251   0.134   1.942  0.00  0.00     0.002 A 
ATOM      4  C5  UNL d   1      -1.936   1.283   1.553  0.00  0.00    -0.004 A 
ATOM      5  C6  UNL d   1      -1.537   1.980   0.414  0.00  0.00     0.002 A 
ATOM      6  C7  UNL d   1      -0.454   1.525  -0.340  0.00  0.00     0.002 A 
ENDROOT
BRANCH   1   7
ATOM      7  C1  UNL d   1       1.377  -0.151  -0.801  0.00  0.00     0.055 C 
ATOM      8  C   UNL d   1       1.055  -1.520  -1.382  0.00  0.00     0.019 C 
ENDBRANCH   1   7
TORSDOF 1
ENDMDL
