MODEL 1
REMARK minimizedAffinity -5.7639308
REMARK minimizedRMSD -1
REMARK  1 active torsions:
REMARK  status: ('A' for Active; 'I' for Inactive)
REMARK    1  A    between atoms: C1_2  and  C2_3 
ROOT
ATOM      1  C2  UNL d   1      -0.782   1.456   0.345  0.00  0.00    -0.077 A 
ATOM      2  C3  UNL d   1      -1.003   1.473   1.730  0.00  0.00     0.002 A 
ATOM      3  C4  UNL d   1      -0.571   0.411   2.527  0.00  0.00     0.002 A 
ATOM      4  C5  UNL d   1       0.089  -0.672   1.950  0.00  0.00    -0.004 A 
ATOM      5  C6  UNL d   1       0.312  -0.699   0.574  0.00  0.00     0.002 A 
ATOM      6  C7  UNL d   1      -0.121   0.361  -0.225  0.00  0.00     0.002 A 
ENDROOT
BRANCH   1   7
ATOM      7  C1  UNL d   1      -1.204   2.623  -0.509  0.00  0.00     0.055 C 
ATOM      8  C   UNL d   1      -0.040   3.156  -1.332  0.00  0.00     0.019 C 
ENDBRANCH   1   7
TORSDOF 1
ENDMDL
