MODEL 1
REMARK minimizedAffinity -6.23380756
REMARK minimizedRMSD -1
REMARK  1 active torsions:
REMARK  status: ('A' for Active; 'I' for Inactive)
REMARK    1  A    between atoms: C1_2  and  C2_3 
ROOT
ATOM      1  C2  UNL d   1      -0.289   0.770   0.163  0.00  0.00    -0.077 A 
ATOM      2  C3  UNL d   1      -1.439   0.581   0.941  0.00  0.00     0.002 A 
ATOM      3  C4  UNL d   1      -2.250   1.667   1.278  0.00  0.00     0.002 A 
ATOM      4  C5  UNL d   1      -1.922   2.947   0.837  0.00  0.00    -0.004 A 
ATOM      5  C6  UNL d   1      -0.779   3.145   0.064  0.00  0.00     0.002 A 
ATOM      6  C7  UNL d   1       0.034   2.062  -0.273  0.00  0.00     0.002 A 
ENDROOT
BRANCH   1   7
ATOM      7  C1  UNL d   1       0.560  -0.407  -0.243  0.00  0.00     0.055 C 
ATOM      8  C   UNL d   1       1.985   0.023  -0.563  0.00  0.00     0.019 C 
ENDBRANCH   1   7
TORSDOF 1
ENDMDL
