MODEL 1
REMARK minimizedAffinity -5.21641493
REMARK minimizedRMSD -1
REMARK  1 active torsions:
REMARK  status: ('A' for Active; 'I' for Inactive)
REMARK    1  A    between atoms: C1_2  and  C2_3 
ROOT
ATOM      1  C2  UNL d   1      -0.023   0.037   0.036  0.00  0.00    -0.077 A 
ATOM      2  C3  UNL d   1      -0.231  -0.620   1.257  0.00  0.00     0.002 A 
ATOM      3  C4  UNL d   1      -1.131  -0.104   2.192  0.00  0.00     0.002 A 
ATOM      4  C5  UNL d   1      -1.832   1.067   1.914  0.00  0.00    -0.004 A 
ATOM      5  C6  UNL d   1      -1.630   1.729   0.704  0.00  0.00     0.002 A 
ATOM      6  C7  UNL d   1      -0.730   1.216  -0.231  0.00  0.00     0.002 A 
ENDROOT
BRANCH   1   7
ATOM      7  C1  UNL d   1       0.910  -0.544  -0.994  0.00  0.00     0.055 C 
ATOM      8  C   UNL d   1       0.283  -1.739  -1.698  0.00  0.00     0.019 C 
ENDBRANCH   1   7
TORSDOF 1
ENDMDL
