MODEL 1
REMARK minimizedAffinity -1.75658941
REMARK minimizedRMSD -1
REMARK  0 active torsions:
REMARK  status: ('A' for Active; 'I' for Inactive)
ROOT
ATOM      1  C2' OXE d   1      -2.657  -2.523  -4.209  0.00  0.00     0.078 C 
ATOM      2  C1' OXE d   1      -2.220  -4.290  -2.072  0.00  0.00     0.078 C 
ATOM      3  C1  OXE d   1      -1.835  -2.845  -1.879  0.00  0.00    -0.078 A 
ATOM      4  C2  OXE d   1      -2.009  -1.997  -2.946  0.00  0.00    -0.078 A 
ATOM      5  C3  OXE d   1      -1.721  -0.642  -2.805  0.00  0.00     0.003 A 
ATOM      6  C4  OXE d   1      -1.113  -0.165  -1.637  0.00  0.00    -0.002 A 
ATOM      7  C5  OXE d   1      -0.890  -1.020  -0.553  0.00  0.00    -0.002 A 
ATOM      8  C6  OXE d   1      -1.283  -2.351  -0.642  0.00  0.00     0.003 A 
ENDROOT
TORSDOF 0
ENDMDL
