MODEL 1
REMARK minimizedAffinity -3.63849711
REMARK minimizedRMSD -1
REMARK  0 active torsions:
REMARK  status: ('A' for Active; 'I' for Inactive)
ROOT
ATOM      1  C2' OXE d   1      -1.899  -2.279  -3.724  0.00  0.00     0.078 C 
ATOM      2  C1' OXE d   1      -1.071  -0.869  -1.443  0.00  0.00     0.078 C 
ATOM      3  C1  OXE d   1      -2.148  -1.911  -1.273  0.00  0.00    -0.078 A 
ATOM      4  C2  OXE d   1      -2.580  -2.563  -2.402  0.00  0.00    -0.078 A 
ATOM      5  C3  OXE d   1      -3.533  -3.572  -2.294  0.00  0.00     0.003 A 
ATOM      6  C4  OXE d   1      -4.164  -3.822  -1.069  0.00  0.00    -0.002 A 
ATOM      7  C5  OXE d   1      -3.767  -3.141   0.086  0.00  0.00    -0.002 A 
ATOM      8  C6  OXE d   1      -2.733  -2.215   0.010  0.00  0.00     0.003 A 
ENDROOT
TORSDOF 0
ENDMDL
