MODEL 1
REMARK minimizedAffinity -3.45745277
REMARK minimizedRMSD -1
REMARK  0 active torsions:
REMARK  status: ('A' for Active; 'I' for Inactive)
ROOT
ATOM      1  C2' OXE d   1      -3.480  -3.871  -0.882  0.00  0.00     0.078 C 
ATOM      2  C1' OXE d   1      -2.315  -2.893  -3.242  0.00  0.00     0.078 C 
ATOM      3  C1  OXE d   1      -1.896  -2.263  -1.937  0.00  0.00    -0.078 A 
ATOM      4  C2  OXE d   1      -2.506  -2.716  -0.792  0.00  0.00    -0.078 A 
ATOM      5  C3  OXE d   1      -2.117  -2.207   0.444  0.00  0.00     0.003 A 
ATOM      6  C4  OXE d   1      -1.223  -1.132   0.518  0.00  0.00    -0.002 A 
ATOM      7  C5  OXE d   1      -0.620  -0.629  -0.639  0.00  0.00    -0.002 A 
ATOM      8  C6  OXE d   1      -0.913  -1.211  -1.868  0.00  0.00     0.003 A 
ENDROOT
TORSDOF 0
ENDMDL
