MODEL 1
REMARK minimizedAffinity -2.29554796
REMARK minimizedRMSD -1
REMARK  0 active torsions:
REMARK  status: ('A' for Active; 'I' for Inactive)
ROOT
ATOM      1  C2' OXE d   1      -1.495  -0.307  -1.012  0.00  0.00     0.078 C 
ATOM      2  C1' OXE d   1      -1.337  -2.776   0.314  0.00  0.00     0.078 C 
ATOM      3  C1  OXE d   1      -1.882  -2.767  -1.092  0.00  0.00    -0.078 A 
ATOM      4  C2  OXE d   1      -2.000  -1.548  -1.716  0.00  0.00    -0.078 A 
ATOM      5  C3  OXE d   1      -2.445  -1.489  -3.034  0.00  0.00     0.003 A 
ATOM      6  C4  OXE d   1      -2.919  -2.640  -3.674  0.00  0.00    -0.002 A 
ATOM      7  C5  OXE d   1      -2.845  -3.886  -3.042  0.00  0.00    -0.002 A 
ATOM      8  C6  OXE d   1      -2.291  -3.972  -1.769  0.00  0.00     0.003 A 
ENDROOT
TORSDOF 0
ENDMDL
