MODEL 1
REMARK minimizedAffinity -1.2758013
REMARK minimizedRMSD -1
REMARK  0 active torsions:
REMARK  status: ('A' for Active; 'I' for Inactive)
ROOT
ATOM      1  C2' OXE d   1      -0.711  -0.170   1.160  0.00  0.00     0.078 C 
ATOM      2  C1' OXE d   1      -0.370   1.290  -1.213  0.00  0.00     0.078 C 
ATOM      3  C1  OXE d   1      -1.016  -0.070  -1.310  0.00  0.00    -0.078 A 
ATOM      4  C2  OXE d   1      -1.136  -0.797  -0.150  0.00  0.00    -0.078 A 
ATOM      5  C3  OXE d   1      -1.774  -2.034  -0.174  0.00  0.00     0.003 A 
ATOM      6  C4  OXE d   1      -2.156  -2.611  -1.391  0.00  0.00    -0.002 A 
ATOM      7  C5  OXE d   1      -2.006  -1.904  -2.590  0.00  0.00    -0.002 A 
ATOM      8  C6  OXE d   1      -1.478  -0.618  -2.561  0.00  0.00     0.003 A 
ENDROOT
TORSDOF 0
ENDMDL
