MODEL 1
REMARK minimizedAffinity -0.851474285
REMARK minimizedRMSD -1
REMARK  0 active torsions:
REMARK  status: ('A' for Active; 'I' for Inactive)
ROOT
ATOM      1  C2' OXE d   1      -2.548  -2.985  -2.324  0.00  0.00     0.078 C 
ATOM      2  C1' OXE d   1      -4.344  -2.140  -0.340  0.00  0.00     0.078 C 
ATOM      3  C1  OXE d   1      -2.944  -1.580  -0.306  0.00  0.00    -0.078 A 
ATOM      4  C2  OXE d   1      -2.058  -2.035  -1.252  0.00  0.00    -0.078 A 
ATOM      5  C3  OXE d   1      -0.770  -1.510  -1.300  0.00  0.00     0.003 A 
ATOM      6  C4  OXE d   1      -0.322  -0.639  -0.299  0.00  0.00    -0.002 A 
ATOM      7  C5  OXE d   1      -1.197  -0.194   0.698  0.00  0.00    -0.002 A 
ATOM      8  C6  OXE d   1      -2.520  -0.621   0.684  0.00  0.00     0.003 A 
ENDROOT
TORSDOF 0
ENDMDL
