MODEL 1
REMARK minimizedAffinity 1.5331198
REMARK minimizedRMSD -1
REMARK  0 active torsions:
REMARK  status: ('A' for Active; 'I' for Inactive)
ROOT
ATOM      1  C2' OXE d   1       0.039  -0.681   0.525  0.00  0.00     0.078 C 
ATOM      2  C1' OXE d   1      -0.057   0.727  -1.901  0.00  0.00     0.078 C 
ATOM      3  C1  OXE d   1      -0.909  -0.511  -1.772  0.00  0.00    -0.078 A 
ATOM      4  C2  OXE d   1      -0.820  -1.220  -0.599  0.00  0.00    -0.078 A 
ATOM      5  C3  OXE d   1      -1.625  -2.339  -0.407  0.00  0.00     0.003 A 
ATOM      6  C4  OXE d   1      -2.409  -2.836  -1.454  0.00  0.00    -0.002 A 
ATOM      7  C5  OXE d   1      -2.484  -2.151  -2.672  0.00  0.00    -0.002 A 
ATOM      8  C6  OXE d   1      -1.774  -0.966  -2.832  0.00  0.00     0.003 A 
ENDROOT
TORSDOF 0
ENDMDL
