MODEL 1
REMARK minimizedAffinity 4.90242863
REMARK minimizedRMSD -1
REMARK  0 active torsions:
REMARK  status: ('A' for Active; 'I' for Inactive)
ROOT
ATOM      1  C2' OXE d   1      -0.812   2.552  -1.241  0.00  0.00     0.078 C 
ATOM      2  C1' OXE d   1       0.732   0.271  -1.780  0.00  0.00     0.078 C 
ATOM      3  C1  OXE d   1      -0.280   0.188  -0.665  0.00  0.00    -0.078 A 
ATOM      4  C2  OXE d   1      -0.999   1.323  -0.378  0.00  0.00    -0.078 A 
ATOM      5  C3  OXE d   1      -1.984   1.286   0.605  0.00  0.00     0.003 A 
ATOM      6  C4  OXE d   1      -2.143   0.148   1.406  0.00  0.00    -0.002 A 
ATOM      7  C5  OXE d   1      -1.394  -1.007   1.156  0.00  0.00    -0.002 A 
ATOM      8  C6  OXE d   1      -0.491  -1.017   0.099  0.00  0.00     0.003 A 
ENDROOT
TORSDOF 0
ENDMDL
