MODEL 1
REMARK minimizedAffinity 2.00702834
REMARK minimizedRMSD -1
REMARK  0 active torsions:
REMARK  status: ('A' for Active; 'I' for Inactive)
ROOT
ATOM      1  C2' OXE d   1      -3.748   4.209   4.080  0.00  0.00     0.078 C 
ATOM      2  C1' OXE d   1      -5.940   5.962   4.141  0.00  0.00     0.078 C 
ATOM      3  C1  OXE d   1      -5.407   5.548   2.792  0.00  0.00    -0.078 A 
ATOM      4  C2  OXE d   1      -4.305   4.728   2.772  0.00  0.00    -0.078 A 
ATOM      5  C3  OXE d   1      -3.807   4.272   1.554  0.00  0.00     0.003 A 
ATOM      6  C4  OXE d   1      -4.322   4.765   0.349  0.00  0.00    -0.002 A 
ATOM      7  C5  OXE d   1      -5.420   5.633   0.348  0.00  0.00    -0.002 A 
ATOM      8  C6  OXE d   1      -5.999   6.000   1.557  0.00  0.00     0.003 A 
ENDROOT
TORSDOF 0
ENDMDL
