MODEL 1
REMARK minimizedAffinity 3.32638717
REMARK minimizedRMSD -1
REMARK  0 active torsions:
REMARK  status: ('A' for Active; 'I' for Inactive)
ROOT
ATOM      1  C2' OXE d   1      -0.603  -1.015   0.473  0.00  0.00     0.078 C 
ATOM      2  C1' OXE d   1      -1.160   1.026  -1.372  0.00  0.00     0.078 C 
ATOM      3  C1  OXE d   1      -1.668  -0.359  -1.681  0.00  0.00    -0.078 A 
ATOM      4  C2  OXE d   1      -1.351  -1.362  -0.796  0.00  0.00    -0.078 A 
ATOM      5  C3  OXE d   1      -1.842  -2.647  -1.006  0.00  0.00     0.003 A 
ATOM      6  C4  OXE d   1      -2.525  -2.962  -2.188  0.00  0.00    -0.002 A 
ATOM      7  C5  OXE d   1      -2.824  -1.964  -3.121  0.00  0.00    -0.002 A 
ATOM      8  C6  OXE d   1      -2.441  -0.652  -2.864  0.00  0.00     0.003 A 
ENDROOT
TORSDOF 0
ENDMDL
