MODEL 1
REMARK minimizedAffinity 3.41870832
REMARK minimizedRMSD -1
REMARK  0 active torsions:
REMARK  status: ('A' for Active; 'I' for Inactive)
ROOT
ATOM      1  C2' OXE d   1      -5.998  -3.384  -0.493  0.00  0.00     0.078 C 
ATOM      2  C1' OXE d   1      -5.297  -5.925  -1.457  0.00  0.00     0.078 C 
ATOM      3  C1  OXE d   1      -4.483  -4.746  -1.926  0.00  0.00    -0.078 A 
ATOM      4  C2  OXE d   1      -4.862  -3.500  -1.486  0.00  0.00    -0.078 A 
ATOM      5  C3  OXE d   1      -4.111  -2.384  -1.845  0.00  0.00     0.003 A 
ATOM      6  C4  OXE d   1      -3.068  -2.499  -2.772  0.00  0.00    -0.002 A 
ATOM      7  C5  OXE d   1      -2.691  -3.754  -3.263  0.00  0.00    -0.002 A 
ATOM      8  C6  OXE d   1      -3.359  -4.889  -2.819  0.00  0.00     0.003 A 
ENDROOT
TORSDOF 0
ENDMDL
