MODEL 1
REMARK minimizedAffinity 12.1307306
REMARK minimizedRMSD -1
REMARK  0 active torsions:
REMARK  status: ('A' for Active; 'I' for Inactive)
ROOT
ATOM      1  C2' OXE d   1      -3.102   0.695   0.688  0.00  0.00     0.078 C 
ATOM      2  C1' OXE d   1      -2.093  -0.392   3.071  0.00  0.00     0.078 C 
ATOM      3  C1  OXE d   1      -1.225  -0.468   1.840  0.00  0.00    -0.078 A 
ATOM      4  C2  OXE d   1      -1.745   0.024   0.668  0.00  0.00    -0.078 A 
ATOM      5  C3  OXE d   1      -0.965   0.028  -0.485  0.00  0.00     0.003 A 
ATOM      6  C4  OXE d   1       0.285  -0.603  -0.497  0.00  0.00    -0.002 A 
ATOM      7  C5  OXE d   1       0.817  -1.146   0.677  0.00  0.00    -0.002 A 
ATOM      8  C6  OXE d   1       0.095  -1.049   1.861  0.00  0.00     0.003 A 
ENDROOT
TORSDOF 0
ENDMDL
