MODEL 1
REMARK minimizedAffinity 7.94658041
REMARK minimizedRMSD -1
REMARK  0 active torsions:
REMARK  status: ('A' for Active; 'I' for Inactive)
ROOT
ATOM      1  C2' OXE d   1      -3.196   1.106   1.125  0.00  0.00     0.078 C 
ATOM      2  C1' OXE d   1      -1.989  -0.332   3.212  0.00  0.00     0.078 C 
ATOM      3  C1  OXE d   1      -1.331  -0.376   1.856  0.00  0.00    -0.078 A 
ATOM      4  C2  OXE d   1      -1.954   0.293   0.829  0.00  0.00    -0.078 A 
ATOM      5  C3  OXE d   1      -1.360   0.330  -0.429  0.00  0.00     0.003 A 
ATOM      6  C4  OXE d   1      -0.217  -0.433  -0.697  0.00  0.00    -0.002 A 
ATOM      7  C5  OXE d   1       0.411  -1.153   0.325  0.00  0.00    -0.002 A 
ATOM      8  C6  OXE d   1      -0.108  -1.101   1.614  0.00  0.00     0.003 A 
ENDROOT
TORSDOF 0
ENDMDL
