MODEL 1
REMARK minimizedAffinity -3.95654726
REMARK minimizedRMSD -1
REMARK  0 active torsions:
REMARK  status: ('A' for Active; 'I' for Inactive)
ROOT
ATOM      1  C2' OXE d   1      -4.518   4.863   1.771  0.00  0.00     0.078 C 
ATOM      2  C1' OXE d   1      -3.821   2.525   3.160  0.00  0.00     0.078 C 
ATOM      3  C1  OXE d   1      -4.507   3.624   3.932  0.00  0.00    -0.078 A 
ATOM      4  C2  OXE d   1      -4.802   4.783   3.256  0.00  0.00    -0.078 A 
ATOM      5  C3  OXE d   1      -5.484   5.807   3.907  0.00  0.00     0.003 A 
ATOM      6  C4  OXE d   1      -5.734   5.729   5.283  0.00  0.00    -0.002 A 
ATOM      7  C5  OXE d   1      -5.405   4.573   6.000  0.00  0.00    -0.002 A 
ATOM      8  C6  OXE d   1      -4.831   3.497   5.332  0.00  0.00     0.003 A 
ENDROOT
TORSDOF 0
ENDMDL
