MODEL 1
REMARK minimizedAffinity -4.23608971
REMARK minimizedRMSD -1
REMARK  0 active torsions:
REMARK  status: ('A' for Active; 'I' for Inactive)
ROOT
ATOM      1  C2' OXE d   1      -4.957   1.831   4.560  0.00  0.00     0.078 C 
ATOM      2  C1' OXE d   1      -5.711   4.130   5.984  0.00  0.00     0.078 C 
ATOM      3  C1  OXE d   1      -5.481   4.266   4.499  0.00  0.00    -0.078 A 
ATOM      4  C2  OXE d   1      -5.067   3.146   3.819  0.00  0.00    -0.078 A 
ATOM      5  C3  OXE d   1      -4.893   3.204   2.439  0.00  0.00     0.003 A 
ATOM      6  C4  OXE d   1      -4.987   4.426   1.763  0.00  0.00    -0.002 A 
ATOM      7  C5  OXE d   1      -5.369   5.587   2.444  0.00  0.00    -0.002 A 
ATOM      8  C6  OXE d   1      -5.660   5.515   3.802  0.00  0.00     0.003 A 
ENDROOT
TORSDOF 0
ENDMDL
