MODEL 1
REMARK minimizedAffinity 7.3553791
REMARK minimizedRMSD -1
REMARK  0 active torsions:
REMARK  status: ('A' for Active; 'I' for Inactive)
ROOT
ATOM      1  C2' OXE d   1       0.319   2.955   4.199  0.00  0.00     0.078 C 
ATOM      2  C1' OXE d   1      -0.092   0.442   3.017  0.00  0.00     0.078 C 
ATOM      3  C1  OXE d   1       1.138   0.626   3.870  0.00  0.00    -0.078 A 
ATOM      4  C2  OXE d   1       1.355   1.872   4.407  0.00  0.00    -0.078 A 
ATOM      5  C3  OXE d   1       2.446   2.081   5.246  0.00  0.00     0.003 A 
ATOM      6  C4  OXE d   1       3.405   1.077   5.425  0.00  0.00    -0.002 A 
ATOM      7  C5  OXE d   1       3.224  -0.188   4.855  0.00  0.00    -0.002 A 
ATOM      8  C6  OXE d   1       2.077  -0.442   4.112  0.00  0.00     0.003 A 
ENDROOT
TORSDOF 0
ENDMDL
