MODEL 1
REMARK minimizedAffinity -2.99304032
REMARK minimizedRMSD -1
REMARK  0 active torsions:
REMARK  status: ('A' for Active; 'I' for Inactive)
ROOT
ATOM      1  C2' OXE d   1      -5.059   5.923   5.113  0.00  0.00     0.078 C 
ATOM      2  C1' OXE d   1      -5.241   4.891   2.509  0.00  0.00     0.078 C 
ATOM      3  C1  OXE d   1      -5.081   3.911   3.644  0.00  0.00    -0.078 A 
ATOM      4  C2  OXE d   1      -4.946   4.427   4.911  0.00  0.00    -0.078 A 
ATOM      5  C3  OXE d   1      -4.851   3.566   6.000  0.00  0.00     0.003 A 
ATOM      6  C4  OXE d   1      -4.737   2.184   5.803  0.00  0.00    -0.002 A 
ATOM      7  C5  OXE d   1      -4.832   1.640   4.518  0.00  0.00    -0.002 A 
ATOM      8  C6  OXE d   1      -5.047   2.485   3.434  0.00  0.00     0.003 A 
ENDROOT
TORSDOF 0
ENDMDL
