MODEL 1
REMARK minimizedAffinity 3.72372222
REMARK minimizedRMSD -1
REMARK  0 active torsions:
REMARK  status: ('A' for Active; 'I' for Inactive)
ROOT
ATOM      1  C2' OXE d   1      -0.311  -0.636   0.564  0.00  0.00     0.078 C 
ATOM      2  C1' OXE d   1      -0.906   1.198  -1.476  0.00  0.00     0.078 C 
ATOM      3  C1  OXE d   1      -1.480  -0.192  -1.590  0.00  0.00    -0.078 A 
ATOM      4  C2  OXE d   1      -1.146  -1.097  -0.611  0.00  0.00    -0.078 A 
ATOM      5  C3  OXE d   1      -1.692  -2.376  -0.639  0.00  0.00     0.003 A 
ATOM      6  C4  OXE d   1      -2.455  -2.797  -1.735  0.00  0.00    -0.002 A 
ATOM      7  C5  OXE d   1      -2.775  -1.904  -2.762  0.00  0.00    -0.002 A 
ATOM      8  C6  OXE d   1      -2.332  -0.588  -2.684  0.00  0.00     0.003 A 
ENDROOT
TORSDOF 0
ENDMDL
