MODEL 1
REMARK minimizedAffinity -2.40948653
REMARK minimizedRMSD -1
REMARK  1 active torsions:
REMARK  status: ('A' for Active; 'I' for Inactive)
REMARK    1  A    between atoms: N_2  and  C1_3 
ROOT
ATOM      1  C1  UNL d   1       4.946   4.565  -4.794  0.00  0.00     0.143 A 
ATOM      2  C2  UNL d   1       3.781   4.281  -4.073  0.00  0.00    -0.057 A 
ATOM      3  C3  UNL d   1       3.541   4.862  -2.823  0.00  0.00     0.033 A 
ATOM      4  C4  UNL d   1       4.479   5.719  -2.256  0.00  0.00    -0.042 A 
ATOM      5  C5  UNL d   1       5.656   5.996  -2.943  0.00  0.00     0.033 A 
ATOM      6  C6  UNL d   1       5.886   5.417  -4.195  0.00  0.00    -0.057 A 
ENDROOT
BRANCH   1   7
ATOM      7  N   UNL d   1       5.287   3.943  -5.998  0.00  0.00    -0.732 N 
ATOM      8  C   UNL d   1       5.947   2.654  -6.000  0.00  0.00     0.284 C 
ATOM      9  H3  UNL d   1       4.562   4.040  -6.704  0.00  0.00     0.395 HD
ENDBRANCH   1   7
TORSDOF 1
ENDMDL
