MODEL 1
REMARK minimizedAffinity 11.3907518
REMARK minimizedRMSD -1
REMARK  1 active torsions:
REMARK  status: ('A' for Active; 'I' for Inactive)
REMARK    1  A    between atoms: N_2  and  C1_3 
ROOT
ATOM      1  C1  UNL d   1       3.750   5.041  -2.810  0.00  0.00     0.143 A 
ATOM      2  C2  UNL d   1       3.729   4.972  -4.207  0.00  0.00    -0.057 A 
ATOM      3  C3  UNL d   1       4.831   5.375  -4.971  0.00  0.00     0.033 A 
ATOM      4  C4  UNL d   1       5.966   5.884  -4.349  0.00  0.00    -0.042 A 
ATOM      5  C5  UNL d   1       6.000   5.985  -2.963  0.00  0.00     0.033 A 
ATOM      6  C6  UNL d   1       4.899   5.575  -2.206  0.00  0.00    -0.057 A 
ENDROOT
BRANCH   1   7
ATOM      7  N   UNL d   1       2.650   4.748  -2.000  0.00  0.00    -0.732 N 
ATOM      8  C   UNL d   1       1.568   5.698  -1.854  0.00  0.00     0.284 C 
ATOM      9  H3  UNL d   1       2.345   3.782  -2.093  0.00  0.00     0.395 HD
ENDBRANCH   1   7
TORSDOF 1
ENDMDL
