MODEL 1
REMARK minimizedAffinity 1.39948142
REMARK minimizedRMSD -1
REMARK  1 active torsions:
REMARK  status: ('A' for Active; 'I' for Inactive)
REMARK    1  A    between atoms: N_2  and  C1_3 
ROOT
ATOM      1  C1  UNL d   1       1.932   0.243   2.737  0.00  0.00     0.143 A 
ATOM      2  C2  UNL d   1       1.587   0.257   4.093  0.00  0.00    -0.057 A 
ATOM      3  C3  UNL d   1       0.928  -0.827   4.685  0.00  0.00     0.033 A 
ATOM      4  C4  UNL d   1       0.575  -1.936   3.923  0.00  0.00    -0.042 A 
ATOM      5  C5  UNL d   1       0.886  -1.960   2.568  0.00  0.00     0.033 A 
ATOM      6  C6  UNL d   1       1.550  -0.878   1.983  0.00  0.00    -0.057 A 
ENDROOT
BRANCH   1   7
ATOM      7  N   UNL d   1       2.500   1.330   2.068  0.00  0.00    -0.732 N 
ATOM      8  C   UNL d   1       2.878   1.223   0.675  0.00  0.00     0.284 C 
ATOM      9  H3  UNL d   1       2.053   2.212   2.311  0.00  0.00     0.395 HD
ENDBRANCH   1   7
TORSDOF 1
ENDMDL
