MODEL 1
REMARK minimizedAffinity 0.576782286
REMARK minimizedRMSD -1
REMARK  1 active torsions:
REMARK  status: ('A' for Active; 'I' for Inactive)
REMARK    1  A    between atoms: N_2  and  C1_3 
ROOT
ATOM      1  C1  UNL d   1       5.010   5.530  -3.725  0.00  0.00     0.143 A 
ATOM      2  C2  UNL d   1       4.075   4.547  -4.069  0.00  0.00    -0.057 A 
ATOM      3  C3  UNL d   1       3.171   4.043  -3.127  0.00  0.00     0.033 A 
ATOM      4  C4  UNL d   1       3.205   4.493  -1.811  0.00  0.00    -0.042 A 
ATOM      5  C5  UNL d   1       4.142   5.450  -1.440  0.00  0.00     0.033 A 
ATOM      6  C6  UNL d   1       5.038   5.955  -2.387  0.00  0.00    -0.057 A 
ENDROOT
BRANCH   1   7
ATOM      7  N   UNL d   1       6.000   6.000  -4.591  0.00  0.00    -0.732 N 
ATOM      8  C   UNL d   1       5.965   5.668  -5.999  0.00  0.00     0.284 C 
ATOM      9  H3  UNL d   1       6.259   6.964  -4.397  0.00  0.00     0.395 HD
ENDBRANCH   1   7
TORSDOF 1
ENDMDL
