MODEL 1
REMARK minimizedAffinity 1.58683133
REMARK minimizedRMSD -1
REMARK  1 active torsions:
REMARK  status: ('A' for Active; 'I' for Inactive)
REMARK    1  A    between atoms: N_2  and  C1_3 
ROOT
ATOM      1  C1  UNL d   1       4.573   4.886  -3.442  0.00  0.00     0.143 A 
ATOM      2  C2  UNL d   1       4.385   5.972  -4.303  0.00  0.00    -0.057 A 
ATOM      3  C3  UNL d   1       4.969   5.999  -5.575  0.00  0.00     0.033 A 
ATOM      4  C4  UNL d   1       5.778   4.950  -5.999  0.00  0.00    -0.042 A 
ATOM      5  C5  UNL d   1       5.998   3.871  -5.150  0.00  0.00     0.033 A 
ATOM      6  C6  UNL d   1       5.407   3.847  -3.883  0.00  0.00    -0.057 A 
ENDROOT
BRANCH   1   7
ATOM      7  N   UNL d   1       4.100   4.844  -2.128  0.00  0.00    -0.732 N 
ATOM      8  C   UNL d   1       2.869   4.154  -1.809  0.00  0.00     0.284 C 
ATOM      9  H3  UNL d   1       4.845   4.699  -1.451  0.00  0.00     0.395 HD
ENDBRANCH   1   7
TORSDOF 1
ENDMDL
