MODEL 1
REMARK minimizedAffinity 8.31388474
REMARK minimizedRMSD -1
REMARK  1 active torsions:
REMARK  status: ('A' for Active; 'I' for Inactive)
REMARK    1  A    between atoms: N_2  and  C1_3 
ROOT
ATOM      1  C1  UNL d   1      -0.639  -1.879  -0.832  0.00  0.00     0.143 A 
ATOM      2  C2  UNL d   1      -1.183  -0.726  -0.255  0.00  0.00    -0.057 A 
ATOM      3  C3  UNL d   1      -0.873   0.548  -0.746  0.00  0.00     0.033 A 
ATOM      4  C4  UNL d   1       0.012   0.693  -1.810  0.00  0.00    -0.042 A 
ATOM      5  C5  UNL d   1       0.584  -0.437  -2.383  0.00  0.00     0.033 A 
ATOM      6  C6  UNL d   1       0.265  -1.706  -1.892  0.00  0.00    -0.057 A 
ENDROOT
BRANCH   1   7
ATOM      7  N   UNL d   1      -0.831  -3.167  -0.327  0.00  0.00    -0.732 N 
ATOM      8  C   UNL d   1      -1.972  -3.957  -0.736  0.00  0.00     0.284 C 
ATOM      9  H3  UNL d   1       0.038  -3.693  -0.264  0.00  0.00     0.395 HD
ENDBRANCH   1   7
TORSDOF 1
ENDMDL
