MODEL 1
REMARK minimizedAffinity 0.405060619
REMARK minimizedRMSD -1
REMARK  1 active torsions:
REMARK  status: ('A' for Active; 'I' for Inactive)
REMARK    1  A    between atoms: N_2  and  C1_3 
ROOT
ATOM      1  C1  UNL d   1       5.892   2.750   3.773  0.00  0.00     0.143 A 
ATOM      2  C2  UNL d   1       5.920   1.460   3.234  0.00  0.00    -0.057 A 
ATOM      3  C3  UNL d   1       5.958   0.329   4.060  0.00  0.00     0.033 A 
ATOM      4  C4  UNL d   1       5.999   0.471   5.443  0.00  0.00    -0.042 A 
ATOM      5  C5  UNL d   1       5.997   1.745   6.000  0.00  0.00     0.033 A 
ATOM      6  C6  UNL d   1       5.952   2.870   5.170  0.00  0.00    -0.057 A 
ENDROOT
BRANCH   1   7
ATOM      7  N   UNL d   1       5.953   3.915   3.005  0.00  0.00    -0.732 N 
ATOM      8  C   UNL d   1       5.954   5.217   3.638  0.00  0.00     0.284 C 
ATOM      9  H3  UNL d   1       6.600   3.832   2.224  0.00  0.00     0.395 HD
ENDBRANCH   1   7
TORSDOF 1
ENDMDL
