MODEL 1
REMARK minimizedAffinity -4.12940741
REMARK minimizedRMSD -1
REMARK  1 active torsions:
REMARK  status: ('A' for Active; 'I' for Inactive)
REMARK    1  A    between atoms: N_2  and  C1_3 
ROOT
ATOM      1  C1  UNL d   1       5.163  -1.852   4.876  0.00  0.00     0.143 A 
ATOM      2  C2  UNL d   1       5.641  -0.916   5.799  0.00  0.00    -0.057 A 
ATOM      3  C3  UNL d   1       5.986   0.383   5.405  0.00  0.00     0.033 A 
ATOM      4  C4  UNL d   1       5.887   0.759   4.069  0.00  0.00    -0.042 A 
ATOM      5  C5  UNL d   1       5.438  -0.162   3.130  0.00  0.00     0.033 A 
ATOM      6  C6  UNL d   1       5.089  -1.455   3.532  0.00  0.00    -0.057 A 
ENDROOT
BRANCH   1   7
ATOM      7  N   UNL d   1       4.897  -3.187   5.189  0.00  0.00    -0.732 N 
ATOM      8  C   UNL d   1       5.834  -3.961   5.975  0.00  0.00     0.284 C 
ATOM      9  H3  UNL d   1       3.922  -3.341   5.435  0.00  0.00     0.395 HD
ENDBRANCH   1   7
TORSDOF 1
ENDMDL
