MODEL 1
REMARK minimizedAffinity -1.39000344
REMARK minimizedRMSD -1
REMARK  1 active torsions:
REMARK  status: ('A' for Active; 'I' for Inactive)
REMARK    1  A    between atoms: N_2  and  C1_3 
ROOT
ATOM      1  C1  UNL d   1       5.193   2.609   4.061  0.00  0.00     0.143 A 
ATOM      2  C2  UNL d   1       4.688   2.072   5.251  0.00  0.00    -0.057 A 
ATOM      3  C3  UNL d   1       4.858   0.719   5.566  0.00  0.00     0.033 A 
ATOM      4  C4  UNL d   1       5.512  -0.131   4.680  0.00  0.00    -0.042 A 
ATOM      5  C5  UNL d   1       6.000   0.375   3.481  0.00  0.00     0.033 A 
ATOM      6  C6  UNL d   1       5.833   1.730   3.175  0.00  0.00    -0.057 A 
ENDROOT
BRANCH   1   7
ATOM      7  N   UNL d   1       4.971   3.924   3.646  0.00  0.00    -0.732 N 
ATOM      8  C   UNL d   1       5.985   4.939   3.837  0.00  0.00     0.284 C 
ATOM      9  H3  UNL d   1       4.498   3.973   2.746  0.00  0.00     0.395 HD
ENDBRANCH   1   7
TORSDOF 1
ENDMDL
