MODEL 1
REMARK minimizedAffinity -2.30823541
REMARK minimizedRMSD -1
REMARK  1 active torsions:
REMARK  status: ('A' for Active; 'I' for Inactive)
REMARK    1  A    between atoms: N_2  and  C1_3 
ROOT
ATOM      1  C1  UNL d   1       5.761   2.311   4.502  0.00  0.00     0.143 A 
ATOM      2  C2  UNL d   1       5.803   1.763   5.788  0.00  0.00    -0.057 A 
ATOM      3  C3  UNL d   1       5.616   0.392   6.000  0.00  0.00     0.033 A 
ATOM      4  C4  UNL d   1       5.354  -0.454   4.927  0.00  0.00    -0.042 A 
ATOM      5  C5  UNL d   1       5.284   0.072   3.642  0.00  0.00     0.033 A 
ATOM      6  C6  UNL d   1       5.478   1.442   3.437  0.00  0.00    -0.057 A 
ENDROOT
BRANCH   1   7
ATOM      7  N   UNL d   1       5.842   3.680   4.236  0.00  0.00    -0.732 N 
ATOM      8  C   UNL d   1       5.898   4.165   2.874  0.00  0.00     0.284 C 
ATOM      9  H3  UNL d   1       5.243   4.230   4.849  0.00  0.00     0.395 HD
ENDBRANCH   1   7
TORSDOF 1
ENDMDL
