MODEL 1
REMARK minimizedAffinity -3.77683043
REMARK minimizedRMSD -1
REMARK  1 active torsions:
REMARK  status: ('A' for Active; 'I' for Inactive)
REMARK    1  A    between atoms: N_2  and  C1_3 
ROOT
ATOM      1  C1  UNL d   1       5.959   0.713   3.744  0.00  0.00     0.143 A 
ATOM      2  C2  UNL d   1       5.994   1.247   2.451  0.00  0.00    -0.057 A 
ATOM      3  C3  UNL d   1       6.000   2.631   2.237  0.00  0.00     0.033 A 
ATOM      4  C4  UNL d   1       5.941   3.508   3.315  0.00  0.00    -0.042 A 
ATOM      5  C5  UNL d   1       5.880   2.999   4.608  0.00  0.00     0.033 A 
ATOM      6  C6  UNL d   1       5.881   1.617   4.816  0.00  0.00    -0.057 A 
ENDROOT
BRANCH   1   7
ATOM      7  N   UNL d   1       5.852  -0.652   4.019  0.00  0.00    -0.732 N 
ATOM      8  C   UNL d   1       5.251  -1.111   5.253  0.00  0.00     0.284 C 
ATOM      9  H3  UNL d   1       5.585  -1.193   3.200  0.00  0.00     0.395 HD
ENDBRANCH   1   7
TORSDOF 1
ENDMDL
