MODEL 1
REMARK minimizedAffinity -2.46353626
REMARK minimizedRMSD -1
REMARK  1 active torsions:
REMARK  status: ('A' for Active; 'I' for Inactive)
REMARK    1  A    between atoms: N_2  and  C1_3 
ROOT
ATOM      1  C1  UNL d   1       5.984   3.506   4.669  0.00  0.00     0.143 A 
ATOM      2  C2  UNL d   1       5.959   2.447   5.583  0.00  0.00    -0.057 A 
ATOM      3  C3  UNL d   1       5.981   1.115   5.152  0.00  0.00     0.033 A 
ATOM      4  C4  UNL d   1       6.000   0.818   3.793  0.00  0.00    -0.042 A 
ATOM      5  C5  UNL d   1       6.000   1.854   2.866  0.00  0.00     0.033 A 
ATOM      6  C6  UNL d   1       5.984   3.182   3.303  0.00  0.00    -0.057 A 
ENDROOT
BRANCH   1   7
ATOM      7  N   UNL d   1       5.864   4.850   5.033  0.00  0.00    -0.732 N 
ATOM      8  C   UNL d   1       5.714   5.876   4.023  0.00  0.00     0.284 C 
ATOM      9  H3  UNL d   1       5.270   4.980   5.849  0.00  0.00     0.395 HD
ENDBRANCH   1   7
TORSDOF 1
ENDMDL
