MODEL 1
REMARK minimizedAffinity -1.2950877
REMARK minimizedRMSD -1
REMARK  1 active torsions:
REMARK  status: ('A' for Active; 'I' for Inactive)
REMARK    1  A    between atoms: N_2  and  C1_3 
ROOT
ATOM      1  C1  UNL d   1       5.851   3.437   3.904  0.00  0.00     0.143 A 
ATOM      2  C2  UNL d   1       5.970   2.221   3.222  0.00  0.00    -0.057 A 
ATOM      3  C3  UNL d   1       6.000   1.002   3.909  0.00  0.00     0.033 A 
ATOM      4  C4  UNL d   1       5.940   0.979   5.299  0.00  0.00    -0.042 A 
ATOM      5  C5  UNL d   1       5.847   2.176   6.000  0.00  0.00     0.033 A 
ATOM      6  C6  UNL d   1       5.811   3.390   5.307  0.00  0.00    -0.057 A 
ENDROOT
BRANCH   1   7
ATOM      7  N   UNL d   1       5.915   4.687   3.284  0.00  0.00    -0.732 N 
ATOM      8  C   UNL d   1       5.998   5.898   4.072  0.00  0.00     0.284 C 
ATOM      9  H3  UNL d   1       6.516   4.683   2.463  0.00  0.00     0.395 HD
ENDBRANCH   1   7
TORSDOF 1
ENDMDL
