MODEL 1
REMARK minimizedAffinity -0.814807475
REMARK minimizedRMSD -1
REMARK  1 active torsions:
REMARK  status: ('A' for Active; 'I' for Inactive)
REMARK    1  A    between atoms: N_2  and  C1_3 
ROOT
ATOM      1  C1  UNL d   1       5.047   1.809   4.461  0.00  0.00     0.143 A 
ATOM      2  C2  UNL d   1       5.752   1.148   3.449  0.00  0.00    -0.057 A 
ATOM      3  C3  UNL d   1       6.000  -0.228   3.517  0.00  0.00     0.033 A 
ATOM      4  C4  UNL d   1       5.571  -0.965   4.616  0.00  0.00    -0.042 A 
ATOM      5  C5  UNL d   1       4.890  -0.325   5.645  0.00  0.00     0.033 A 
ATOM      6  C6  UNL d   1       4.640   1.049   5.569  0.00  0.00    -0.057 A 
ENDROOT
BRANCH   1   7
ATOM      7  N   UNL d   1       4.854   3.192   4.499  0.00  0.00    -0.732 N 
ATOM      8  C   UNL d   1       5.705   4.076   3.732  0.00  0.00     0.284 C 
ATOM      9  H3  UNL d   1       3.869   3.447   4.485  0.00  0.00     0.395 HD
ENDBRANCH   1   7
TORSDOF 1
ENDMDL
