MODEL 1
REMARK minimizedAffinity -1.81048024
REMARK minimizedRMSD -1
REMARK  1 active torsions:
REMARK  status: ('A' for Active; 'I' for Inactive)
REMARK    1  A    between atoms: N_2  and  C1_3 
ROOT
ATOM      1  C1  UNL d   1       5.143   2.567   4.206  0.00  0.00     0.143 A 
ATOM      2  C2  UNL d   1       4.687   1.763   5.255  0.00  0.00    -0.057 A 
ATOM      3  C3  UNL d   1       4.902   0.379   5.256  0.00  0.00     0.033 A 
ATOM      4  C4  UNL d   1       5.555  -0.230   4.189  0.00  0.00    -0.042 A 
ATOM      5  C5  UNL d   1       5.996   0.547   3.123  0.00  0.00     0.033 A 
ATOM      6  C6  UNL d   1       5.784   1.929   3.132  0.00  0.00    -0.057 A 
ENDROOT
BRANCH   1   7
ATOM      7  N   UNL d   1       4.874   3.934   4.099  0.00  0.00    -0.732 N 
ATOM      8  C   UNL d   1       5.930   4.871   3.782  0.00  0.00     0.284 C 
ATOM      9  H3  UNL d   1       3.995   4.121   3.622  0.00  0.00     0.395 HD
ENDBRANCH   1   7
TORSDOF 1
ENDMDL
