MODEL 1
REMARK minimizedAffinity -3.8158195
REMARK minimizedRMSD -1
REMARK  1 active torsions:
REMARK  status: ('A' for Active; 'I' for Inactive)
REMARK    1  A    between atoms: N_2  and  C1_3 
ROOT
ATOM      1  C1  UNL d   1       5.442   2.763   4.622  0.00  0.00     0.143 A 
ATOM      2  C2  UNL d   1       5.772   4.087   4.931  0.00  0.00    -0.057 A 
ATOM      3  C3  UNL d   1       6.000   5.032   3.923  0.00  0.00     0.033 A 
ATOM      4  C4  UNL d   1       5.931   4.661   2.585  0.00  0.00    -0.042 A 
ATOM      5  C5  UNL d   1       5.629   3.345   2.254  0.00  0.00     0.033 A 
ATOM      6  C6  UNL d   1       5.396   2.407   3.264  0.00  0.00    -0.057 A 
ENDROOT
BRANCH   1   7
ATOM      7  N   UNL d   1       5.301   1.753   5.577  0.00  0.00    -0.732 N 
ATOM      8  C   UNL d   1       5.642   0.383   5.258  0.00  0.00     0.284 C 
ATOM      9  H3  UNL d   1       5.598   2.050   6.503  0.00  0.00     0.395 HD
ENDBRANCH   1   7
TORSDOF 1
ENDMDL
