MODEL 1
REMARK minimizedAffinity -2.71708822
REMARK minimizedRMSD -1
REMARK  1 active torsions:
REMARK  status: ('A' for Active; 'I' for Inactive)
REMARK    1  A    between atoms: N_2  and  C1_3 
ROOT
ATOM      1  C1  UNL d   1       5.886   2.606   3.834  0.00  0.00     0.143 A 
ATOM      2  C2  UNL d   1       5.864   3.100   2.525  0.00  0.00    -0.057 A 
ATOM      3  C3  UNL d   1       5.933   4.474   2.267  0.00  0.00     0.033 A 
ATOM      4  C4  UNL d   1       5.996   5.384   3.317  0.00  0.00    -0.042 A 
ATOM      5  C5  UNL d   1       5.994   4.917   4.627  0.00  0.00     0.033 A 
ATOM      6  C6  UNL d   1       5.932   3.543   4.879  0.00  0.00    -0.057 A 
ENDROOT
BRANCH   1   7
ATOM      7  N   UNL d   1       5.722   1.258   4.160  0.00  0.00    -0.732 N 
ATOM      8  C   UNL d   1       5.603   0.842   5.541  0.00  0.00     0.284 C 
ATOM      9  H3  UNL d   1       5.085   0.780   3.525  0.00  0.00     0.395 HD
ENDBRANCH   1   7
TORSDOF 1
ENDMDL
