MODEL 1
REMARK minimizedAffinity -2.56679058
REMARK minimizedRMSD -1
REMARK  1 active torsions:
REMARK  status: ('A' for Active; 'I' for Inactive)
REMARK    1  A    between atoms: N_2  and  C1_3 
ROOT
ATOM      1  C1  UNL d   1       5.991   3.123   3.172  0.00  0.00     0.143 A 
ATOM      2  C2  UNL d   1       5.923   3.768   1.932  0.00  0.00    -0.057 A 
ATOM      3  C3  UNL d   1       5.912   5.165   1.840  0.00  0.00     0.033 A 
ATOM      4  C4  UNL d   1       5.939   5.944   2.991  0.00  0.00    -0.042 A 
ATOM      5  C5  UNL d   1       5.982   5.325   4.235  0.00  0.00     0.033 A 
ATOM      6  C6  UNL d   1       6.000   3.929   4.321  0.00  0.00    -0.057 A 
ENDROOT
BRANCH   1   7
ATOM      7  N   UNL d   1       5.906   1.738   3.334  0.00  0.00    -0.732 N 
ATOM      8  C   UNL d   1       5.223   1.170   4.477  0.00  0.00     0.284 C 
ATOM      9  H3  UNL d   1       5.723   1.255   2.458  0.00  0.00     0.395 HD
ENDBRANCH   1   7
TORSDOF 1
ENDMDL
