MODEL 1
REMARK minimizedAffinity -2.90991211
REMARK minimizedRMSD -1
REMARK  1 active torsions:
REMARK  status: ('A' for Active; 'I' for Inactive)
REMARK    1  A    between atoms: N_2  and  C1_3 
ROOT
ATOM      1  C1  UNL d   1       5.344   2.312   3.455  0.00  0.00     0.143 A 
ATOM      2  C2  UNL d   1       4.302   2.883   4.193  0.00  0.00    -0.057 A 
ATOM      3  C3  UNL d   1       3.885   4.200   3.962  0.00  0.00     0.033 A 
ATOM      4  C4  UNL d   1       4.526   4.981   3.006  0.00  0.00    -0.042 A 
ATOM      5  C5  UNL d   1       5.582   4.442   2.279  0.00  0.00     0.033 A 
ATOM      6  C6  UNL d   1       5.988   3.124   2.509  0.00  0.00    -0.057 A 
ENDROOT
BRANCH   1   7
ATOM      7  N   UNL d   1       5.869   1.041   3.705  0.00  0.00    -0.732 N 
ATOM      8  C   UNL d   1       5.255   0.169   4.683  0.00  0.00     0.284 C 
ATOM      9  H3  UNL d   1       6.164   0.568   2.854  0.00  0.00     0.395 HD
ENDBRANCH   1   7
TORSDOF 1
ENDMDL
