MODEL 1
REMARK minimizedAffinity 6.22731829
REMARK minimizedRMSD -1
REMARK  0 active torsions:
REMARK  status: ('A' for Active; 'I' for Inactive)
ROOT
ATOM      1  C   UNL d   1      -1.354  -2.564   1.784  0.00  0.00     0.077 C 
ATOM      2  C1  UNL d   1       0.114  -2.561   1.479  0.00  0.00    -0.074 A 
ATOM      3  C2  UNL d   1       0.920  -1.474   1.832  0.00  0.00    -0.005 A 
ATOM      4  C3  UNL d   1       2.286  -1.490   1.550  0.00  0.00     0.006 A 
ATOM      5  C4  UNL d   1       2.859  -2.592   0.913  0.00  0.00    -0.005 A 
ATOM      6  C5  UNL d   1       2.069  -3.688   0.554  0.00  0.00    -0.074 A 
ATOM      7  C6  UNL d   1       2.671  -4.885  -0.122  0.00  0.00     0.077 C 
ATOM      8  C7  UNL d   1       0.699  -3.668   0.847  0.00  0.00    -0.001 A 
ENDROOT
TORSDOF 0
ENDMDL
