MODEL 1
REMARK minimizedAffinity -1.56953025
REMARK minimizedRMSD -1
REMARK  0 active torsions:
REMARK  status: ('A' for Active; 'I' for Inactive)
ROOT
ATOM      1  C   UNL d   1      -0.429   6.000   5.967  0.00  0.00     0.077 C 
ATOM      2  C1  UNL d   1      -1.748   5.286   5.984  0.00  0.00    -0.074 A 
ATOM      3  C2  UNL d   1      -2.951   5.999   5.993  0.00  0.00    -0.005 A 
ATOM      4  C3  UNL d   1      -4.170   5.321   5.999  0.00  0.00     0.006 A 
ATOM      5  C4  UNL d   1      -4.198   3.926   5.997  0.00  0.00    -0.005 A 
ATOM      6  C5  UNL d   1      -3.005   3.196   5.987  0.00  0.00    -0.074 A 
ATOM      7  C6  UNL d   1      -3.018   1.696   5.975  0.00  0.00     0.077 C 
ATOM      8  C7  UNL d   1      -1.784   3.884   5.974  0.00  0.00    -0.001 A 
ENDROOT
TORSDOF 0
ENDMDL
