MODEL 1
REMARK minimizedAffinity 5.42180634
REMARK minimizedRMSD -1
REMARK  0 active torsions:
REMARK  status: ('A' for Active; 'I' for Inactive)
ROOT
ATOM      1  C   UNL d   1       4.061  -4.895   0.663  0.00  0.00     0.077 C 
ATOM      2  C1  UNL d   1       3.158  -3.747   1.002  0.00  0.00    -0.074 A 
ATOM      3  C2  UNL d   1       2.092  -3.399   0.166  0.00  0.00    -0.005 A 
ATOM      4  C3  UNL d   1       1.255  -2.335   0.499  0.00  0.00     0.006 A 
ATOM      5  C4  UNL d   1       1.475  -1.607   1.669  0.00  0.00    -0.005 A 
ATOM      6  C5  UNL d   1       2.535  -1.940   2.518  0.00  0.00    -0.074 A 
ATOM      7  C6  UNL d   1       2.779  -1.175   3.785  0.00  0.00     0.077 C 
ATOM      8  C7  UNL d   1       3.368  -3.016   2.180  0.00  0.00    -0.001 A 
ENDROOT
TORSDOF 0
ENDMDL
