MODEL 1
REMARK minimizedAffinity 3.22252822
REMARK minimizedRMSD -1
REMARK  0 active torsions:
REMARK  status: ('A' for Active; 'I' for Inactive)
ROOT
ATOM      1  C   UNL d   1      -0.072  -1.859  -0.084  0.00  0.00     0.077 C 
ATOM      2  C1  UNL d   1       1.202  -2.537   0.325  0.00  0.00    -0.074 A 
ATOM      3  C2  UNL d   1       2.193  -1.841   1.025  0.00  0.00    -0.005 A 
ATOM      4  C3  UNL d   1       3.369  -2.487   1.406  0.00  0.00     0.006 A 
ATOM      5  C4  UNL d   1       3.565  -3.833   1.093  0.00  0.00    -0.005 A 
ATOM      6  C5  UNL d   1       2.585  -4.545   0.395  0.00  0.00    -0.074 A 
ATOM      7  C6  UNL d   1       2.775  -5.994   0.059  0.00  0.00     0.077 C 
ATOM      8  C7  UNL d   1       1.403  -3.890   0.021  0.00  0.00    -0.001 A 
ENDROOT
TORSDOF 0
ENDMDL
