MODEL 1
REMARK minimizedAffinity 5.81140804
REMARK minimizedRMSD -1
REMARK  0 active torsions:
REMARK  status: ('A' for Active; 'I' for Inactive)
ROOT
ATOM      1  C   UNL d   1       1.130  -0.372   3.148  0.00  0.00     0.077 C 
ATOM      2  C1  UNL d   1       2.413  -1.146   3.074  0.00  0.00    -0.074 A 
ATOM      3  C2  UNL d   1       2.886  -1.638   1.853  0.00  0.00    -0.005 A 
ATOM      4  C3  UNL d   1       4.085  -2.348   1.799  0.00  0.00     0.006 A 
ATOM      5  C4  UNL d   1       4.822  -2.573   2.962  0.00  0.00    -0.005 A 
ATOM      6  C5  UNL d   1       4.366  -2.087   4.191  0.00  0.00    -0.074 A 
ATOM      7  C6  UNL d   1       5.151  -2.311   5.450  0.00  0.00     0.077 C 
ATOM      8  C7  UNL d   1       3.163  -1.369   4.237  0.00  0.00    -0.001 A 
ENDROOT
TORSDOF 0
ENDMDL
