MODEL 1
REMARK minimizedAffinity 7.08478832
REMARK minimizedRMSD -1
REMARK  0 active torsions:
REMARK  status: ('A' for Active; 'I' for Inactive)
ROOT
ATOM      1  C   UNL d   1      -1.923   3.141  -3.846  0.00  0.00     0.077 C 
ATOM      2  C1  UNL d   1      -2.478   2.064  -2.962  0.00  0.00    -0.074 A 
ATOM      3  C2  UNL d   1      -3.617   2.290  -2.183  0.00  0.00    -0.005 A 
ATOM      4  C3  UNL d   1      -4.127   1.276  -1.372  0.00  0.00     0.006 A 
ATOM      5  C4  UNL d   1      -3.503   0.028  -1.331  0.00  0.00    -0.005 A 
ATOM      6  C5  UNL d   1      -2.363  -0.216  -2.104  0.00  0.00    -0.074 A 
ATOM      7  C6  UNL d   1      -1.687  -1.554  -2.079  0.00  0.00     0.077 C 
ATOM      8  C7  UNL d   1      -1.861   0.806  -2.921  0.00  0.00    -0.001 A 
ENDROOT
TORSDOF 0
ENDMDL
