MODEL 1
REMARK minimizedAffinity 14.2770519
REMARK minimizedRMSD -1
REMARK  0 active torsions:
REMARK  status: ('A' for Active; 'I' for Inactive)
ROOT
ATOM      1  C   UNL d   1      -1.693   5.856   5.964  0.00  0.00     0.077 C 
ATOM      2  C1  UNL d   1      -3.031   5.177   5.979  0.00  0.00    -0.074 A 
ATOM      3  C2  UNL d   1      -4.215   5.922   5.969  0.00  0.00    -0.005 A 
ATOM      4  C3  UNL d   1      -5.451   5.277   5.973  0.00  0.00     0.006 A 
ATOM      5  C4  UNL d   1      -5.517   3.883   5.986  0.00  0.00    -0.005 A 
ATOM      6  C5  UNL d   1      -4.344   3.122   5.995  0.00  0.00    -0.074 A 
ATOM      7  C6  UNL d   1      -4.396   1.623   6.000  0.00  0.00     0.077 C 
ATOM      8  C7  UNL d   1      -3.105   3.777   5.984  0.00  0.00    -0.001 A 
ENDROOT
TORSDOF 0
ENDMDL
