MODEL 1
REMARK minimizedAffinity 15.1332998
REMARK minimizedRMSD -1
REMARK  0 active torsions:
REMARK  status: ('A' for Active; 'I' for Inactive)
ROOT
ATOM      1  C   UNL d   1      -2.143  -2.062   1.490  0.00  0.00     0.077 C 
ATOM      2  C1  UNL d   1      -0.690  -2.135   1.126  0.00  0.00    -0.074 A 
ATOM      3  C2  UNL d   1       0.219  -1.184   1.600  0.00  0.00    -0.005 A 
ATOM      4  C3  UNL d   1       1.569  -1.271   1.261  0.00  0.00     0.006 A 
ATOM      5  C4  UNL d   1       2.023  -2.307   0.444  0.00  0.00    -0.005 A 
ATOM      6  C5  UNL d   1       1.129  -3.268  -0.039  0.00  0.00    -0.074 A 
ATOM      7  C6  UNL d   1       1.602  -4.394  -0.909  0.00  0.00     0.077 C 
ATOM      8  C7  UNL d   1      -0.225  -3.178   0.313  0.00  0.00    -0.001 A 
ENDROOT
TORSDOF 0
ENDMDL
