MODEL 1
REMARK minimizedAffinity 10.5020494
REMARK minimizedRMSD -1
REMARK  0 active torsions:
REMARK  status: ('A' for Active; 'I' for Inactive)
ROOT
ATOM      1  C   UNL d   1      -4.342   3.635  -4.370  0.00  0.00     0.077 C 
ATOM      2  C1  UNL d   1      -3.265   2.861  -3.670  0.00  0.00    -0.074 A 
ATOM      3  C2  UNL d   1      -3.523   2.197  -2.467  0.00  0.00    -0.005 A 
ATOM      4  C3  UNL d   1      -2.513   1.472  -1.833  0.00  0.00     0.006 A 
ATOM      5  C4  UNL d   1      -1.238   1.405  -2.395  0.00  0.00    -0.005 A 
ATOM      6  C5  UNL d   1      -0.962   2.062  -3.598  0.00  0.00    -0.074 A 
ATOM      7  C6  UNL d   1       0.401   1.991  -4.221  0.00  0.00     0.077 C 
ATOM      8  C7  UNL d   1      -1.983   2.782  -4.233  0.00  0.00    -0.001 A 
ENDROOT
TORSDOF 0
ENDMDL
