MODEL 1
REMARK minimizedAffinity 11.1796322
REMARK minimizedRMSD -1
REMARK  1 active torsions:
REMARK  status: ('A' for Active; 'I' for Inactive)
REMARK    1  A    between atoms: C3_4  and  O_7 
ROOT
ATOM      1  C   UNL d   1       5.999  -2.257  -1.458  0.00  0.00    -0.033 A 
ATOM      2  C1  UNL d   1       5.288  -1.202  -0.883  0.00  0.00     0.039 A 
ATOM      3  C2  UNL d   1       4.248  -1.464   0.010  0.00  0.00    -0.080 A 
ATOM      4  C3  UNL d   1       3.929  -2.783   0.321  0.00  0.00     0.150 A 
ATOM      5  C4  UNL d   1       4.636  -3.839  -0.245  0.00  0.00    -0.007 A 
ATOM      6  C5  UNL d   1       5.674  -3.576  -1.138  0.00  0.00     0.039 A 
ENDROOT
BRANCH   4   7
ATOM      7  O   UNL d   1       2.919  -3.088   1.183  0.00  0.00    -0.526 OA
ATOM      8  H5  UNL d   1       2.501  -2.260   1.473  0.00  0.00     0.418 HD
ENDBRANCH   4   7
TORSDOF 1
ENDMDL
