MODEL 1
REMARK minimizedAffinity 4.37791681
REMARK minimizedRMSD -1
REMARK  1 active torsions:
REMARK  status: ('A' for Active; 'I' for Inactive)
REMARK    1  A    between atoms: C3_4  and  O_7 
ROOT
ATOM      1  C   UNL d   1       1.175   2.849   1.063  0.00  0.00    -0.033 A 
ATOM      2  C1  UNL d   1       1.339   2.163   2.268  0.00  0.00     0.039 A 
ATOM      3  C2  UNL d   1       0.234   1.906   3.082  0.00  0.00    -0.080 A 
ATOM      4  C3  UNL d   1      -1.026   2.338   2.681  0.00  0.00     0.150 A 
ATOM      5  C4  UNL d   1      -1.198   3.019   1.480  0.00  0.00    -0.007 A 
ATOM      6  C5  UNL d   1      -0.094   3.275   0.668  0.00  0.00     0.039 A 
ENDROOT
BRANCH   4   7
ATOM      7  O   UNL d   1      -2.133   2.115   3.445  0.00  0.00    -0.526 OA
ATOM      8  H5  UNL d   1      -1.859   1.660   4.259  0.00  0.00     0.418 HD
ENDBRANCH   4   7
TORSDOF 1
ENDMDL
