MODEL 1
REMARK minimizedAffinity 10.3044825
REMARK minimizedRMSD -1
REMARK  1 active torsions:
REMARK  status: ('A' for Active; 'I' for Inactive)
REMARK    1  A    between atoms: C3_4  and  O_7 
ROOT
ATOM      1  C   UNL d   1      -0.012   1.731   3.192  0.00  0.00    -0.033 A 
ATOM      2  C1  UNL d   1       1.236   2.334   3.026  0.00  0.00     0.039 A 
ATOM      3  C2  UNL d   1       1.443   3.242   1.987  0.00  0.00    -0.080 A 
ATOM      4  C3  UNL d   1       0.394   3.540   1.121  0.00  0.00     0.150 A 
ATOM      5  C4  UNL d   1      -0.853   2.945   1.282  0.00  0.00    -0.007 A 
ATOM      6  C5  UNL d   1      -1.057   2.038   2.320  0.00  0.00     0.039 A 
ENDROOT
BRANCH   4   7
ATOM      7  O   UNL d   1       0.549   4.416   0.088  0.00  0.00    -0.526 OA
ATOM      8  H5  UNL d   1       1.470   4.726   0.083  0.00  0.00     0.418 HD
ENDBRANCH   4   7
TORSDOF 1
ENDMDL
