MODEL 1
REMARK minimizedAffinity 2.31897378
REMARK minimizedRMSD -1
REMARK  1 active torsions:
REMARK  status: ('A' for Active; 'I' for Inactive)
REMARK    1  A    between atoms: C3_4  and  O_7 
ROOT
ATOM      1  C   UNL d   1      -4.848   0.393   3.706  0.00  0.00    -0.033 A 
ATOM      2  C1  UNL d   1      -5.604   0.259   4.872  0.00  0.00     0.039 A 
ATOM      3  C2  UNL d   1      -6.000  -1.007   5.308  0.00  0.00    -0.080 A 
ATOM      4  C3  UNL d   1      -5.633  -2.129   4.571  0.00  0.00     0.150 A 
ATOM      5  C4  UNL d   1      -4.877  -2.003   3.410  0.00  0.00    -0.007 A 
ATOM      6  C5  UNL d   1      -4.484  -0.738   2.975  0.00  0.00     0.039 A 
ENDROOT
BRANCH   4   7
ATOM      7  O   UNL d   1      -6.000  -3.385   4.954  0.00  0.00    -0.526 OA
ATOM      8  H5  UNL d   1      -6.543  -3.315   5.757  0.00  0.00     0.418 HD
ENDBRANCH   4   7
TORSDOF 1
ENDMDL
