MODEL 1
REMARK minimizedAffinity -4.23851061
REMARK minimizedRMSD -1
REMARK  1 active torsions:
REMARK  status: ('A' for Active; 'I' for Inactive)
REMARK    1  A    between atoms: C3_4  and  O_7 
ROOT
ATOM      1  C   UNL d   1      -3.912   0.381  -6.000  0.00  0.00    -0.033 A 
ATOM      2  C1  UNL d   1      -2.622   0.011  -5.612  0.00  0.00     0.039 A 
ATOM      3  C2  UNL d   1      -2.429  -0.737  -4.449  0.00  0.00    -0.080 A 
ATOM      4  C3  UNL d   1      -3.532  -1.109  -3.685  0.00  0.00     0.150 A 
ATOM      5  C4  UNL d   1      -4.819  -0.747  -4.067  0.00  0.00    -0.007 A 
ATOM      6  C5  UNL d   1      -5.010   0.001  -5.229  0.00  0.00     0.039 A 
ENDROOT
BRANCH   4   7
ATOM      7  O   UNL d   1      -3.393  -1.835  -2.539  0.00  0.00    -0.526 OA
ATOM      8  H5  UNL d   1      -2.446  -1.988  -2.385  0.00  0.00     0.418 HD
ENDBRANCH   4   7
TORSDOF 1
ENDMDL
