MODEL 1
REMARK minimizedAffinity 3.85302711
REMARK minimizedRMSD -1
REMARK  1 active torsions:
REMARK  status: ('A' for Active; 'I' for Inactive)
REMARK    1  A    between atoms: C3_4  and  O_7 
ROOT
ATOM      1  C   UNL d   1       2.748   5.999  -5.648  0.00  0.00    -0.033 A 
ATOM      2  C1  UNL d   1       2.102   4.842  -5.208  0.00  0.00     0.039 A 
ATOM      3  C2  UNL d   1       2.810   3.644  -5.098  0.00  0.00    -0.080 A 
ATOM      4  C3  UNL d   1       4.162   3.616  -5.429  0.00  0.00     0.150 A 
ATOM      5  C4  UNL d   1       4.813   4.766  -5.864  0.00  0.00    -0.007 A 
ATOM      6  C5  UNL d   1       4.104   5.961  -5.974  0.00  0.00     0.039 A 
ENDROOT
BRANCH   4   7
ATOM      7  O   UNL d   1       4.893   2.469  -5.342  0.00  0.00    -0.526 OA
ATOM      8  H5  UNL d   1       4.305   1.750  -5.055  0.00  0.00     0.418 HD
ENDBRANCH   4   7
TORSDOF 1
ENDMDL
