MODEL 1
REMARK minimizedAffinity 3.56326413
REMARK minimizedRMSD -1
REMARK  1 active torsions:
REMARK  status: ('A' for Active; 'I' for Inactive)
REMARK    1  A    between atoms: C3_4  and  O_7 
ROOT
ATOM      1  C   UNL d   1       4.230   4.145  -5.260  0.00  0.00    -0.033 A 
ATOM      2  C1  UNL d   1       3.092   3.510  -4.757  0.00  0.00     0.039 A 
ATOM      3  C2  UNL d   1       1.842   4.120  -4.872  0.00  0.00    -0.080 A 
ATOM      4  C3  UNL d   1       1.742   5.362  -5.493  0.00  0.00     0.150 A 
ATOM      5  C4  UNL d   1       2.870   5.998  -6.000  0.00  0.00    -0.007 A 
ATOM      6  C5  UNL d   1       4.119   5.388  -5.883  0.00  0.00     0.039 A 
ENDROOT
BRANCH   4   7
ATOM      7  O   UNL d   1       0.544   5.999  -5.625  0.00  0.00    -0.526 OA
ATOM      8  H5  UNL d   1      -0.142   5.454  -5.203  0.00  0.00     0.418 HD
ENDBRANCH   4   7
TORSDOF 1
ENDMDL
