MODEL 1
REMARK minimizedAffinity 3.19327021
REMARK minimizedRMSD -1
REMARK  1 active torsions:
REMARK  status: ('A' for Active; 'I' for Inactive)
REMARK    1  A    between atoms: C3_4  and  O_7 
ROOT
ATOM      1  C   UNL d   1       1.075   4.581  -5.784  0.00  0.00    -0.033 A 
ATOM      2  C1  UNL d   1       1.638   5.841  -5.999  0.00  0.00     0.039 A 
ATOM      3  C2  UNL d   1       3.026   5.998  -5.989  0.00  0.00    -0.080 A 
ATOM      4  C3  UNL d   1       3.838   4.890  -5.764  0.00  0.00     0.150 A 
ATOM      5  C4  UNL d   1       3.284   3.632  -5.552  0.00  0.00    -0.007 A 
ATOM      6  C5  UNL d   1       1.898   3.477  -5.561  0.00  0.00     0.039 A 
ENDROOT
BRANCH   4   7
ATOM      7  O   UNL d   1       5.197   4.995  -5.740  0.00  0.00    -0.526 OA
ATOM      8  H5  UNL d   1       5.435   5.928  -5.872  0.00  0.00     0.418 HD
ENDBRANCH   4   7
TORSDOF 1
ENDMDL
