MODEL 1
REMARK minimizedAffinity 5.79715919
REMARK minimizedRMSD -1
REMARK  1 active torsions:
REMARK  status: ('A' for Active; 'I' for Inactive)
REMARK    1  A    between atoms: C3_4  and  O_7 
ROOT
ATOM      1  C   UNL d   1      -4.160   0.838  -3.825  0.00  0.00    -0.033 A 
ATOM      2  C1  UNL d   1      -3.769   0.437  -2.546  0.00  0.00     0.039 A 
ATOM      3  C2  UNL d   1      -2.778   1.146  -1.863  0.00  0.00    -0.080 A 
ATOM      4  C3  UNL d   1      -2.189   2.252  -2.469  0.00  0.00     0.150 A 
ATOM      5  C4  UNL d   1      -2.576   2.658  -3.741  0.00  0.00    -0.007 A 
ATOM      6  C5  UNL d   1      -3.565   1.949  -4.422  0.00  0.00     0.039 A 
ENDROOT
BRANCH   4   7
ATOM      7  O   UNL d   1      -1.214   2.972  -1.844  0.00  0.00    -0.526 OA
ATOM      8  H5  UNL d   1      -1.029   2.557  -0.984  0.00  0.00     0.418 HD
ENDBRANCH   4   7
TORSDOF 1
ENDMDL
