MODEL 1
REMARK minimizedAffinity 8.51006603
REMARK minimizedRMSD -1
REMARK  1 active torsions:
REMARK  status: ('A' for Active; 'I' for Inactive)
REMARK    1  A    between atoms: C3_4  and  O_7 
ROOT
ATOM      1  C   UNL d   1       1.430   4.454  -4.891  0.00  0.00    -0.033 A 
ATOM      2  C1  UNL d   1       2.525   3.778  -4.351  0.00  0.00     0.039 A 
ATOM      3  C2  UNL d   1       3.823   4.208  -4.635  0.00  0.00    -0.080 A 
ATOM      4  C3  UNL d   1       4.011   5.314  -5.460  0.00  0.00     0.150 A 
ATOM      5  C4  UNL d   1       2.924   5.994  -5.998  0.00  0.00    -0.007 A 
ATOM      6  C5  UNL d   1       1.629   5.563  -5.714  0.00  0.00     0.039 A 
ENDROOT
BRANCH   4   7
ATOM      7  O   UNL d   1       5.258   5.767  -5.769  0.00  0.00    -0.526 OA
ATOM      8  H5  UNL d   1       5.911   5.183  -5.350  0.00  0.00     0.418 HD
ENDBRANCH   4   7
TORSDOF 1
ENDMDL
