MODEL 1
REMARK minimizedAffinity 1.40269196
REMARK minimizedRMSD -1
REMARK  1 active torsions:
REMARK  status: ('A' for Active; 'I' for Inactive)
REMARK    1  A    between atoms: C3_4  and  O_7 
ROOT
ATOM      1  C   UNL d   1       3.320   5.863  -5.858  0.00  0.00    -0.033 A 
ATOM      2  C1  UNL d   1       2.755   4.595  -5.705  0.00  0.00     0.039 A 
ATOM      3  C2  UNL d   1       3.570   3.462  -5.697  0.00  0.00    -0.080 A 
ATOM      4  C3  UNL d   1       4.947   3.609  -5.842  0.00  0.00     0.150 A 
ATOM      5  C4  UNL d   1       5.517   4.869  -5.991  0.00  0.00    -0.007 A 
ATOM      6  C5  UNL d   1       4.701   6.000  -6.000  0.00  0.00     0.039 A 
ENDROOT
BRANCH   4   7
ATOM      7  O   UNL d   1       5.782   2.532  -5.845  0.00  0.00    -0.526 OA
ATOM      8  H5  UNL d   1       5.246   1.726  -5.762  0.00  0.00     0.418 HD
ENDBRANCH   4   7
TORSDOF 1
ENDMDL
