MODEL 1
REMARK minimizedAffinity 8.48720741
REMARK minimizedRMSD -1
REMARK  1 active torsions:
REMARK  status: ('A' for Active; 'I' for Inactive)
REMARK    1  A    between atoms: C3_4  and  O_7 
ROOT
ATOM      1  C   UNL d   1       4.716  -5.644   3.914  0.00  0.00    -0.033 A 
ATOM      2  C1  UNL d   1       5.163  -4.528   3.204  0.00  0.00     0.039 A 
ATOM      3  C2  UNL d   1       5.591  -3.389   3.888  0.00  0.00    -0.080 A 
ATOM      4  C3  UNL d   1       5.570  -3.379   5.280  0.00  0.00     0.150 A 
ATOM      5  C4  UNL d   1       5.131  -4.489   5.994  0.00  0.00    -0.007 A 
ATOM      6  C5  UNL d   1       4.702  -5.626   5.309  0.00  0.00     0.039 A 
ENDROOT
BRANCH   4   7
ATOM      7  O   UNL d   1       5.974  -2.289   5.992  0.00  0.00    -0.526 OA
ATOM      8  H5  UNL d   1       6.224  -1.588   5.366  0.00  0.00     0.418 HD
ENDBRANCH   4   7
TORSDOF 1
ENDMDL
