MODEL 1
REMARK minimizedAffinity 4.17548275
REMARK minimizedRMSD -1
REMARK  1 active torsions:
REMARK  status: ('A' for Active; 'I' for Inactive)
REMARK    1  A    between atoms: C3_4  and  O_7 
ROOT
ATOM      1  C   UNL d   1       1.427   3.928  -5.995  0.00  0.00    -0.033 A 
ATOM      2  C1  UNL d   1       1.461   5.324  -5.991  0.00  0.00     0.039 A 
ATOM      3  C2  UNL d   1       2.686   5.994  -5.985  0.00  0.00    -0.080 A 
ATOM      4  C3  UNL d   1       3.868   5.258  -5.984  0.00  0.00     0.150 A 
ATOM      5  C4  UNL d   1       3.841   3.868  -5.992  0.00  0.00    -0.007 A 
ATOM      6  C5  UNL d   1       2.618   3.200  -5.996  0.00  0.00     0.039 A 
ENDROOT
BRANCH   4   7
ATOM      7  O   UNL d   1       5.087   5.868  -5.974  0.00  0.00    -0.526 OA
ATOM      8  H5  UNL d   1       4.950   6.830  -5.941  0.00  0.00     0.418 HD
ENDBRANCH   4   7
TORSDOF 1
ENDMDL
