MODEL 1
REMARK minimizedAffinity 4.72227764
REMARK minimizedRMSD -1
REMARK  1 active torsions:
REMARK  status: ('A' for Active; 'I' for Inactive)
REMARK    1  A    between atoms: C3_4  and  O_7 
ROOT
ATOM      1  C   UNL d   1       2.249   5.998  -5.732  0.00  0.00    -0.033 A 
ATOM      2  C1  UNL d   1       3.619   6.000  -5.999  0.00  0.00     0.039 A 
ATOM      3  C2  UNL d   1       4.387   4.866  -5.726  0.00  0.00    -0.080 A 
ATOM      4  C3  UNL d   1       3.774   3.739  -5.188  0.00  0.00     0.150 A 
ATOM      5  C4  UNL d   1       2.408   3.728  -4.923  0.00  0.00    -0.007 A 
ATOM      6  C5  UNL d   1       1.643   4.862  -5.195  0.00  0.00     0.039 A 
ENDROOT
BRANCH   4   7
ATOM      7  O   UNL d   1       4.483   2.610  -4.900  0.00  0.00    -0.526 OA
ATOM      8  H5  UNL d   1       5.418   2.773  -5.109  0.00  0.00     0.418 HD
ENDBRANCH   4   7
TORSDOF 1
ENDMDL
