MODEL 1
REMARK minimizedAffinity 2.59892845
REMARK minimizedRMSD -1
REMARK  1 active torsions:
REMARK  status: ('A' for Active; 'I' for Inactive)
REMARK    1  A    between atoms: C3_4  and  O_7 
ROOT
ATOM      1  C   UNL d   1      -0.821  -0.842   3.004  0.00  0.00    -0.033 A 
ATOM      2  C1  UNL d   1      -1.082   0.417   3.549  0.00  0.00     0.039 A 
ATOM      3  C2  UNL d   1      -0.045   1.337   3.715  0.00  0.00    -0.080 A 
ATOM      4  C3  UNL d   1       1.246   0.987   3.331  0.00  0.00     0.150 A 
ATOM      5  C4  UNL d   1       1.513  -0.264   2.784  0.00  0.00    -0.007 A 
ATOM      6  C5  UNL d   1       0.476  -1.182   2.620  0.00  0.00     0.039 A 
ENDROOT
BRANCH   4   7
ATOM      7  O   UNL d   1       2.292   1.849   3.477  0.00  0.00    -0.526 OA
ATOM      8  H5  UNL d   1       1.963   2.663   3.895  0.00  0.00     0.418 HD
ENDBRANCH   4   7
TORSDOF 1
ENDMDL
