MODEL 1
REMARK minimizedAffinity 1.64233339
REMARK minimizedRMSD -1
REMARK  0 active torsions:
REMARK  status: ('A' for Active; 'I' for Inactive)
ROOT
ATOM      1  C   UNL d   1       2.957   0.597  -0.167  0.00  0.00     0.172 C 
ATOM      2  N   UNL d   1       2.970  -0.634  -0.923  0.00  0.00    -0.070 N 
ATOM      3  C1  UNL d   1       3.712  -0.872  -2.048  0.00  0.00    -0.004 A 
ATOM      4  C2  UNL d   1       3.445  -2.158  -2.466  0.00  0.00    -0.047 A 
ATOM      5  C3  UNL d   1       2.509  -2.711  -1.560  0.00  0.00    -0.047 A 
ATOM      6  C4  UNL d   1       2.232  -1.746  -0.615  0.00  0.00    -0.004 A 
ENDROOT
TORSDOF 0
ENDMDL
