MODEL 1
REMARK minimizedAffinity -1.50740182
REMARK minimizedRMSD -1
REMARK  0 active torsions:
REMARK  status: ('A' for Active; 'I' for Inactive)
ROOT
ATOM      1  C   UNL d   1       1.398   1.383   0.629  0.00  0.00     0.172 C 
ATOM      2  N   UNL d   1       2.622   0.981  -0.023  0.00  0.00    -0.070 N 
ATOM      3  C1  UNL d   1       2.884  -0.264  -0.531  0.00  0.00    -0.004 A 
ATOM      4  C2  UNL d   1       4.153  -0.241  -1.069  0.00  0.00    -0.047 A 
ATOM      5  C3  UNL d   1       4.671   1.062  -0.877  0.00  0.00    -0.047 A 
ATOM      6  C4  UNL d   1       3.703   1.797  -0.227  0.00  0.00    -0.004 A 
ENDROOT
TORSDOF 0
ENDMDL
