MODEL 1
REMARK minimizedAffinity 3.13838959
REMARK minimizedRMSD -1
REMARK  0 active torsions:
REMARK  status: ('A' for Active; 'I' for Inactive)
ROOT
ATOM      1  C   UNL d   1      -4.543   3.001  -0.755  0.00  0.00     0.172 C 
ATOM      2  N   UNL d   1      -3.265   2.329  -0.778  0.00  0.00    -0.070 N 
ATOM      3  C1  UNL d   1      -3.000   1.140  -1.402  0.00  0.00    -0.004 A 
ATOM      4  C2  UNL d   1      -1.672   0.840  -1.191  0.00  0.00    -0.047 A 
ATOM      5  C3  UNL d   1      -1.120   1.885  -0.413  0.00  0.00    -0.047 A 
ATOM      6  C4  UNL d   1      -2.128   2.794  -0.171  0.00  0.00    -0.004 A 
ENDROOT
TORSDOF 0
ENDMDL
