MODEL 1
REMARK minimizedAffinity -0.684288323
REMARK minimizedRMSD -1
REMARK  0 active torsions:
REMARK  status: ('A' for Active; 'I' for Inactive)
ROOT
ATOM      1  C   UNL d   1       0.495  -0.294   2.813  0.00  0.00     0.172 C 
ATOM      2  N   UNL d   1      -0.024   0.537   1.752  0.00  0.00    -0.070 N 
ATOM      3  C1  UNL d   1       0.596   0.785   0.557  0.00  0.00    -0.004 A 
ATOM      4  C2  UNL d   1      -0.220   1.619  -0.177  0.00  0.00    -0.047 A 
ATOM      5  C3  UNL d   1      -1.370   1.881   0.605  0.00  0.00    -0.047 A 
ATOM      6  C4  UNL d   1      -1.223   1.199   1.794  0.00  0.00    -0.004 A 
ENDROOT
TORSDOF 0
ENDMDL
