MODEL 1
REMARK minimizedAffinity 4.45664358
REMARK minimizedRMSD -1
REMARK  0 active torsions:
REMARK  status: ('A' for Active; 'I' for Inactive)
ROOT
ATOM      1  C   UNL d   1      -1.084   1.492   2.972  0.00  0.00     0.172 C 
ATOM      2  N   UNL d   1      -1.760   2.321   2.002  0.00  0.00    -0.070 N 
ATOM      3  C1  UNL d   1      -2.043   3.653   2.149  0.00  0.00    -0.004 A 
ATOM      4  C2  UNL d   1      -2.690   4.076   1.008  0.00  0.00    -0.047 A 
ATOM      5  C3  UNL d   1      -2.801   2.959   0.146  0.00  0.00    -0.047 A 
ATOM      6  C4  UNL d   1      -2.217   1.886   0.786  0.00  0.00    -0.004 A 
ENDROOT
TORSDOF 0
ENDMDL
