MODEL 1
REMARK minimizedAffinity -0.0896029398
REMARK minimizedRMSD -1
REMARK  0 active torsions:
REMARK  status: ('A' for Active; 'I' for Inactive)
ROOT
ATOM      1  C   UNL d   1       1.974   0.761   0.231  0.00  0.00     0.172 C 
ATOM      2  N   UNL d   1       0.962   0.745   1.261  0.00  0.00    -0.070 N 
ATOM      3  C1  UNL d   1       1.194   0.646   2.607  0.00  0.00    -0.004 A 
ATOM      4  C2  UNL d   1      -0.026   0.665   3.248  0.00  0.00    -0.047 A 
ATOM      5  C3  UNL d   1      -1.025   0.779   2.253  0.00  0.00    -0.047 A 
ATOM      6  C4  UNL d   1      -0.386   0.826   1.032  0.00  0.00    -0.004 A 
ENDROOT
TORSDOF 0
ENDMDL
