MODEL 1
REMARK minimizedAffinity 0.897475898
REMARK minimizedRMSD -1
REMARK  0 active torsions:
REMARK  status: ('A' for Active; 'I' for Inactive)
ROOT
ATOM      1  C   UNL d   1       2.271  -2.530   0.207  0.00  0.00     0.172 C 
ATOM      2  N   UNL d   1       2.790  -1.210  -0.062  0.00  0.00    -0.070 N 
ATOM      3  C1  UNL d   1       2.127  -0.031   0.153  0.00  0.00    -0.004 A 
ATOM      4  C2  UNL d   1       2.959   0.998  -0.229  0.00  0.00    -0.047 A 
ATOM      5  C3  UNL d   1       4.165   0.419  -0.692  0.00  0.00    -0.047 A 
ATOM      6  C4  UNL d   1       4.033  -0.949  -0.577  0.00  0.00    -0.004 A 
ENDROOT
TORSDOF 0
ENDMDL
