MODEL 1
REMARK minimizedAffinity -4.83427811
REMARK minimizedRMSD -1
REMARK  0 active torsions:
REMARK  status: ('A' for Active; 'I' for Inactive)
ROOT
ATOM      1  C   UNL d   1      -1.747  -2.902   1.530  0.00  0.00     0.078 C 
ATOM      2  C1  UNL d   1      -1.468  -1.777   0.578  0.00  0.00    -0.077 A 
ATOM      3  C2  UNL d   1      -2.414  -1.390  -0.379  0.00  0.00    -0.001 A 
ATOM      4  C3  UNL d   1      -2.136  -0.348  -1.264  0.00  0.00     0.003 A 
ATOM      5  C4  UNL d   1      -0.913   0.316  -1.203  0.00  0.00    -0.005 A 
ATOM      6  C5  UNL d   1       0.036  -0.064  -0.256  0.00  0.00     0.003 A 
ATOM      7  C6  UNL d   1      -0.240  -1.106   0.631  0.00  0.00    -0.001 A 
ENDROOT
TORSDOF 0
ENDMDL
