MODEL 1
REMARK minimizedAffinity -4.95041895
REMARK minimizedRMSD -1
REMARK  0 active torsions:
REMARK  status: ('A' for Active; 'I' for Inactive)
ROOT
ATOM      1  C   UNL d   1       0.884   0.328   0.405  0.00  0.00     0.078 C 
ATOM      2  C1  UNL d   1      -0.280  -0.616   0.460  0.00  0.00    -0.077 A 
ATOM      3  C2  UNL d   1      -0.333  -1.641   1.412  0.00  0.00    -0.001 A 
ATOM      4  C3  UNL d   1      -1.418  -2.518   1.445  0.00  0.00     0.003 A 
ATOM      5  C4  UNL d   1      -2.458  -2.379   0.529  0.00  0.00    -0.005 A 
ATOM      6  C5  UNL d   1      -2.413  -1.363  -0.424  0.00  0.00     0.003 A 
ATOM      7  C6  UNL d   1      -1.329  -0.485  -0.459  0.00  0.00    -0.001 A 
ENDROOT
TORSDOF 0
ENDMDL
