MODEL 1
REMARK minimizedAffinity -3.25779605
REMARK minimizedRMSD -1
REMARK  0 active torsions:
REMARK  status: ('A' for Active; 'I' for Inactive)
ROOT
ATOM      1  C   UNL d   1      -0.330   0.450   0.440  0.00  0.00     0.078 C 
ATOM      2  C1  UNL d   1      -1.209  -0.752   0.617  0.00  0.00    -0.077 A 
ATOM      3  C2  UNL d   1      -0.857  -1.780   1.500  0.00  0.00    -0.001 A 
ATOM      4  C3  UNL d   1      -1.679  -2.898   1.646  0.00  0.00     0.003 A 
ATOM      5  C4  UNL d   1      -2.859  -2.999   0.912  0.00  0.00    -0.005 A 
ATOM      6  C5  UNL d   1      -3.217  -1.982   0.029  0.00  0.00     0.003 A 
ATOM      7  C6  UNL d   1      -2.396  -0.864  -0.119  0.00  0.00    -0.001 A 
ENDROOT
TORSDOF 0
ENDMDL
