MODEL 1
REMARK minimizedAffinity -3.13372064
REMARK minimizedRMSD -1
REMARK  0 active torsions:
REMARK  status: ('A' for Active; 'I' for Inactive)
ROOT
ATOM      1  C   UNL d   1       1.276   0.359   0.418  0.00  0.00     0.078 C 
ATOM      2  C1  UNL d   1       0.071  -0.522   0.270  0.00  0.00    -0.077 A 
ATOM      3  C2  UNL d   1      -0.902  -0.257  -0.702  0.00  0.00    -0.001 A 
ATOM      4  C3  UNL d   1      -2.023  -1.079  -0.821  0.00  0.00     0.003 A 
ATOM      5  C4  UNL d   1      -2.183  -2.172   0.028  0.00  0.00    -0.005 A 
ATOM      6  C5  UNL d   1      -1.221  -2.443   1.000  0.00  0.00     0.003 A 
ATOM      7  C6  UNL d   1      -0.100  -1.621   1.121  0.00  0.00    -0.001 A 
ENDROOT
TORSDOF 0
ENDMDL
