MODEL 1
REMARK minimizedAffinity -3.63886023
REMARK minimizedRMSD -1
REMARK  0 active torsions:
REMARK  status: ('A' for Active; 'I' for Inactive)
ROOT
ATOM      1  C   UNL d   1       2.880   2.431   0.752  0.00  0.00     0.078 C 
ATOM      2  C1  UNL d   1       1.669   1.548   0.704  0.00  0.00    -0.077 A 
ATOM      3  C2  UNL d   1       1.703   0.313   0.046  0.00  0.00    -0.001 A 
ATOM      4  C3  UNL d   1       0.565  -0.494   0.001  0.00  0.00     0.003 A 
ATOM      5  C4  UNL d   1      -0.615  -0.074   0.611  0.00  0.00    -0.005 A 
ATOM      6  C5  UNL d   1      -0.659   1.155   1.267  0.00  0.00     0.003 A 
ATOM      7  C6  UNL d   1       0.478   1.963   1.313  0.00  0.00    -0.001 A 
ENDROOT
TORSDOF 0
ENDMDL
