MODEL 1
REMARK minimizedAffinity -4.81191158
REMARK minimizedRMSD -1
REMARK  0 active torsions:
REMARK  status: ('A' for Active; 'I' for Inactive)
ROOT
ATOM      1  C   UNL d   1      -1.268  -3.021   1.872  0.00  0.00     0.078 C 
ATOM      2  C1  UNL d   1      -1.487  -2.068   0.734  0.00  0.00    -0.077 A 
ATOM      3  C2  UNL d   1      -2.621  -2.167  -0.081  0.00  0.00    -0.001 A 
ATOM      4  C3  UNL d   1      -2.807  -1.280  -1.142  0.00  0.00     0.003 A 
ATOM      5  C4  UNL d   1      -1.861  -0.288  -1.399  0.00  0.00    -0.005 A 
ATOM      6  C5  UNL d   1      -0.728  -0.184  -0.595  0.00  0.00     0.003 A 
ATOM      7  C6  UNL d   1      -0.541  -1.070   0.467  0.00  0.00    -0.001 A 
ENDROOT
TORSDOF 0
ENDMDL
