MODEL 1
REMARK minimizedAffinity -4.16255093
REMARK minimizedRMSD -1
REMARK  0 active torsions:
REMARK  status: ('A' for Active; 'I' for Inactive)
ROOT
ATOM      1  C   UNL d   1       1.471   0.267   0.287  0.00  0.00     0.078 C 
ATOM      2  C1  UNL d   1       0.069  -0.000  -0.172  0.00  0.00    -0.077 A 
ATOM      3  C2  UNL d   1      -0.299   0.184  -1.511  0.00  0.00    -0.001 A 
ATOM      4  C3  UNL d   1      -1.610  -0.059  -1.923  0.00  0.00     0.003 A 
ATOM      5  C4  UNL d   1      -2.565  -0.488  -1.002  0.00  0.00    -0.005 A 
ATOM      6  C5  UNL d   1      -2.209  -0.672   0.332  0.00  0.00     0.003 A 
ATOM      7  C6  UNL d   1      -0.898  -0.429   0.746  0.00  0.00    -0.001 A 
ENDROOT
TORSDOF 0
ENDMDL
