MODEL 1
REMARK minimizedAffinity -3.16920733
REMARK minimizedRMSD -1
REMARK  0 active torsions:
REMARK  status: ('A' for Active; 'I' for Inactive)
ROOT
ATOM      1  C   UNL d   1      -2.995  -0.754  -0.772  0.00  0.00     0.078 C 
ATOM      2  C1  UNL d   1      -1.660  -0.173  -0.413  0.00  0.00    -0.077 A 
ATOM      3  C2  UNL d   1      -0.566  -1.001  -0.129  0.00  0.00    -0.001 A 
ATOM      4  C3  UNL d   1       0.668  -0.447   0.213  0.00  0.00     0.003 A 
ATOM      5  C4  UNL d   1       0.821   0.937   0.274  0.00  0.00    -0.005 A 
ATOM      6  C5  UNL d   1      -0.261   1.768  -0.006  0.00  0.00     0.003 A 
ATOM      7  C6  UNL d   1      -1.497   1.216  -0.347  0.00  0.00    -0.001 A 
ENDROOT
TORSDOF 0
ENDMDL
