MODEL 1
REMARK minimizedAffinity -3.56542253
REMARK minimizedRMSD -1
REMARK  0 active torsions:
REMARK  status: ('A' for Active; 'I' for Inactive)
ROOT
ATOM      1  C   UNL d   1       0.792   0.391   0.268  0.00  0.00     0.078 C 
ATOM      2  C1  UNL d   1      -0.503  -0.196  -0.211  0.00  0.00    -0.077 A 
ATOM      3  C2  UNL d   1      -1.327   0.505  -1.100  0.00  0.00    -0.001 A 
ATOM      4  C3  UNL d   1      -2.534  -0.050  -1.529  0.00  0.00     0.003 A 
ATOM      5  C4  UNL d   1      -2.927  -1.307  -1.074  0.00  0.00    -0.005 A 
ATOM      6  C5  UNL d   1      -2.114  -2.010  -0.188  0.00  0.00     0.003 A 
ATOM      7  C6  UNL d   1      -0.907  -1.457   0.243  0.00  0.00    -0.001 A 
ENDROOT
TORSDOF 0
ENDMDL
