MODEL 1
REMARK minimizedAffinity -3.56773043
REMARK minimizedRMSD -1
REMARK  0 active torsions:
REMARK  status: ('A' for Active; 'I' for Inactive)
ROOT
ATOM      1  C   UNL d   1       0.887   0.660   0.752  0.00  0.00     0.078 C 
ATOM      2  C1  UNL d   1      -0.335   0.249  -0.015  0.00  0.00    -0.077 A 
ATOM      3  C2  UNL d   1      -1.476  -0.221   0.646  0.00  0.00    -0.001 A 
ATOM      4  C3  UNL d   1      -2.603  -0.610  -0.081  0.00  0.00     0.003 A 
ATOM      5  C4  UNL d   1      -2.599  -0.533  -1.472  0.00  0.00    -0.005 A 
ATOM      6  C5  UNL d   1      -1.467  -0.068  -2.138  0.00  0.00     0.003 A 
ATOM      7  C6  UNL d   1      -0.339   0.321  -1.413  0.00  0.00    -0.001 A 
ENDROOT
TORSDOF 0
ENDMDL
