MODEL 1
REMARK minimizedAffinity -2.8963697
REMARK minimizedRMSD -1
REMARK  0 active torsions:
REMARK  status: ('A' for Active; 'I' for Inactive)
ROOT
ATOM      1  C   UNL d   1      -3.481  -1.321  -0.218  0.00  0.00     0.078 C 
ATOM      2  C1  UNL d   1      -2.118  -0.702  -0.130  0.00  0.00    -0.077 A 
ATOM      3  C2  UNL d   1      -1.635  -0.189   1.080  0.00  0.00    -0.001 A 
ATOM      4  C3  UNL d   1      -0.368   0.393   1.145  0.00  0.00     0.003 A 
ATOM      5  C4  UNL d   1       0.427   0.469   0.003  0.00  0.00    -0.005 A 
ATOM      6  C5  UNL d   1      -0.046  -0.038  -1.206  0.00  0.00     0.003 A 
ATOM      7  C6  UNL d   1      -1.312  -0.620  -1.273  0.00  0.00    -0.001 A 
ENDROOT
TORSDOF 0
ENDMDL
