MODEL 1
REMARK minimizedAffinity -4.8102746
REMARK minimizedRMSD -1
REMARK  0 active torsions:
REMARK  status: ('A' for Active; 'I' for Inactive)
ROOT
ATOM      1  C   UNL d   1       2.234   3.688   1.351  0.00  0.00     0.078 C 
ATOM      2  C1  UNL d   1       1.632   2.417   0.832  0.00  0.00    -0.077 A 
ATOM      3  C2  UNL d   1       2.440   1.340   0.449  0.00  0.00    -0.001 A 
ATOM      4  C3  UNL d   1       1.866   0.166  -0.042  0.00  0.00     0.003 A 
ATOM      5  C4  UNL d   1       0.481   0.058  -0.154  0.00  0.00    -0.005 A 
ATOM      6  C5  UNL d   1      -0.331   1.125   0.223  0.00  0.00     0.003 A 
ATOM      7  C6  UNL d   1       0.241   2.300   0.714  0.00  0.00    -0.001 A 
ENDROOT
TORSDOF 0
ENDMDL
