MODEL 1
REMARK minimizedAffinity -5.35876656
REMARK minimizedRMSD -1
REMARK  0 active torsions:
REMARK  status: ('A' for Active; 'I' for Inactive)
ROOT
ATOM      1  C   UNL d   1      -3.040  -2.044   0.730  0.00  0.00     0.078 C 
ATOM      2  C1  UNL d   1      -1.994  -1.133   0.158  0.00  0.00    -0.077 A 
ATOM      3  C2  UNL d   1      -2.123  -0.610  -1.134  0.00  0.00    -0.001 A 
ATOM      4  C3  UNL d   1      -1.138   0.229  -1.658  0.00  0.00     0.003 A 
ATOM      5  C4  UNL d   1      -0.016   0.550  -0.896  0.00  0.00    -0.005 A 
ATOM      6  C5  UNL d   1       0.122   0.032   0.390  0.00  0.00     0.003 A 
ATOM      7  C6  UNL d   1      -0.862  -0.807   0.915  0.00  0.00    -0.001 A 
ENDROOT
TORSDOF 0
ENDMDL
