MODEL 1
REMARK minimizedAffinity -4.86175299
REMARK minimizedRMSD -1
REMARK  0 active torsions:
REMARK  status: ('A' for Active; 'I' for Inactive)
ROOT
ATOM      1  C   UNL d   1       0.099   0.370   0.383  0.00  0.00     0.078 C 
ATOM      2  C1  UNL d   1      -0.972  -0.678   0.449  0.00  0.00    -0.077 A 
ATOM      3  C2  UNL d   1      -0.799  -1.839   1.213  0.00  0.00    -0.001 A 
ATOM      4  C3  UNL d   1      -1.800  -2.810   1.257  0.00  0.00     0.003 A 
ATOM      5  C4  UNL d   1      -2.980  -2.632   0.538  0.00  0.00    -0.005 A 
ATOM      6  C5  UNL d   1      -3.160  -1.482  -0.227  0.00  0.00     0.003 A 
ATOM      7  C6  UNL d   1      -2.160  -0.509  -0.272  0.00  0.00    -0.001 A 
ENDROOT
TORSDOF 0
ENDMDL
