MODEL 1
REMARK minimizedAffinity -3.94096375
REMARK minimizedRMSD -1
REMARK  1 active torsions:
REMARK  status: ('A' for Active; 'I' for Inactive)
REMARK    1  A    between atoms: C3_4  and  O_7 
ROOT
ATOM      1  C   UNL d   1      -1.122  -0.146  -0.255  0.00  0.00    -0.033 A 
ATOM      2  C1  UNL d   1      -0.686  -1.473  -0.240  0.00  0.00     0.039 A 
ATOM      3  C2  UNL d   1       0.651  -1.773  -0.509  0.00  0.00    -0.080 A 
ATOM      4  C3  UNL d   1       1.540  -0.740  -0.790  0.00  0.00     0.150 A 
ATOM      5  C4  UNL d   1       1.114   0.584  -0.803  0.00  0.00    -0.007 A 
ATOM      6  C5  UNL d   1      -0.221   0.882  -0.535  0.00  0.00     0.039 A 
ENDROOT
BRANCH   4   7
ATOM      7  O   UNL d   1       2.853  -0.985  -1.063  0.00  0.00    -0.526 OA
ATOM      8  H5  UNL d   1       2.997  -1.946  -1.047  0.00  0.00     0.418 HD
ENDBRANCH   4   7
TORSDOF 1
ENDMDL
