MODEL 1
REMARK minimizedAffinity -3.09522986
REMARK minimizedRMSD -1
REMARK  1 active torsions:
REMARK  status: ('A' for Active; 'I' for Inactive)
REMARK    1  A    between atoms: C3_4  and  O_7 
ROOT
ATOM      1  C   UNL d   1       2.831  -0.851  -1.780  0.00  0.00    -0.033 A 
ATOM      2  C1  UNL d   1       2.026  -1.889  -1.306  0.00  0.00     0.039 A 
ATOM      3  C2  UNL d   1       0.881  -1.602  -0.560  0.00  0.00    -0.080 A 
ATOM      4  C3  UNL d   1       0.553  -0.276  -0.295  0.00  0.00     0.150 A 
ATOM      5  C4  UNL d   1       1.349   0.763  -0.767  0.00  0.00    -0.007 A 
ATOM      6  C5  UNL d   1       2.492   0.475  -1.511  0.00  0.00     0.039 A 
ENDROOT
BRANCH   4   7
ATOM      7  O   UNL d   1      -0.551   0.053   0.433  0.00  0.00    -0.526 OA
ATOM      8  H5  UNL d   1      -0.988  -0.767   0.717  0.00  0.00     0.418 HD
ENDBRANCH   4   7
TORSDOF 1
ENDMDL
