MODEL 1
REMARK minimizedAffinity -4.41033459
REMARK minimizedRMSD -1
REMARK  1 active torsions:
REMARK  status: ('A' for Active; 'I' for Inactive)
REMARK    1  A    between atoms: C3_4  and  O_7 
ROOT
ATOM      1  C   UNL d   1      -0.153  -0.243  -0.132  0.00  0.00    -0.033 A 
ATOM      2  C1  UNL d   1       0.629   0.848  -0.516  0.00  0.00     0.039 A 
ATOM      3  C2  UNL d   1       1.962   0.659  -0.886  0.00  0.00    -0.080 A 
ATOM      4  C3  UNL d   1       2.500  -0.625  -0.868  0.00  0.00     0.150 A 
ATOM      5  C4  UNL d   1       1.726  -1.717  -0.490  0.00  0.00    -0.007 A 
ATOM      6  C5  UNL d   1       0.395  -1.526  -0.120  0.00  0.00     0.039 A 
ENDROOT
BRANCH   4   7
ATOM      7  O   UNL d   1       3.798  -0.859  -1.215  0.00  0.00    -0.526 OA
ATOM      8  H5  UNL d   1       4.218  -0.008  -1.425  0.00  0.00     0.418 HD
ENDBRANCH   4   7
TORSDOF 1
ENDMDL
