MODEL 1
REMARK minimizedAffinity -3.87811995
REMARK minimizedRMSD -1
REMARK  1 active torsions:
REMARK  status: ('A' for Active; 'I' for Inactive)
REMARK    1  A    between atoms: C3_4  and  O_7 
ROOT
ATOM      1  C   UNL d   1      -0.012  -1.534   0.013  0.00  0.00    -0.033 A 
ATOM      2  C1  UNL d   1      -0.901  -0.458   0.035  0.00  0.00     0.039 A 
ATOM      3  C2  UNL d   1      -0.604   0.709  -0.672  0.00  0.00    -0.080 A 
ATOM      4  C3  UNL d   1       0.581   0.786  -1.398  0.00  0.00     0.150 A 
ATOM      5  C4  UNL d   1       1.469  -0.285  -1.428  0.00  0.00    -0.007 A 
ATOM      6  C5  UNL d   1       1.172  -1.448  -0.720  0.00  0.00     0.039 A 
ENDROOT
BRANCH   4   7
ATOM      7  O   UNL d   1       0.916   1.905  -2.101  0.00  0.00    -0.526 OA
ATOM      8  H5  UNL d   1       0.222   2.572  -1.965  0.00  0.00     0.418 HD
ENDBRANCH   4   7
TORSDOF 1
ENDMDL
