MODEL 1
REMARK minimizedAffinity -2.85229492
REMARK minimizedRMSD -1
REMARK  1 active torsions:
REMARK  status: ('A' for Active; 'I' for Inactive)
REMARK    1  A    between atoms: C3_4  and  O_7 
ROOT
ATOM      1  C   UNL d   1      -1.879  -2.310   0.409  0.00  0.00    -0.033 A 
ATOM      2  C1  UNL d   1      -2.897  -2.236   1.362  0.00  0.00     0.039 A 
ATOM      3  C2  UNL d   1      -3.187  -1.020   1.984  0.00  0.00    -0.080 A 
ATOM      4  C3  UNL d   1      -2.453   0.113   1.644  0.00  0.00     0.150 A 
ATOM      5  C4  UNL d   1      -1.440   0.047   0.692  0.00  0.00    -0.007 A 
ATOM      6  C5  UNL d   1      -1.152  -1.168   0.073  0.00  0.00     0.039 A 
ENDROOT
BRANCH   4   7
ATOM      7  O   UNL d   1      -2.696   1.321   2.227  0.00  0.00    -0.526 OA
ATOM      8  H5  UNL d   1      -3.403   1.209   2.884  0.00  0.00     0.418 HD
ENDBRANCH   4   7
TORSDOF 1
ENDMDL
