MODEL 1
REMARK minimizedAffinity -4.31664753
REMARK minimizedRMSD -1
REMARK  1 active torsions:
REMARK  status: ('A' for Active; 'I' for Inactive)
REMARK    1  A    between atoms: C3_4  and  O_7 
ROOT
ATOM      1  C   UNL d   1       2.725  -0.746  -1.849  0.00  0.00    -0.033 A 
ATOM      2  C1  UNL d   1       2.265   0.573  -1.838  0.00  0.00     0.039 A 
ATOM      3  C2  UNL d   1       1.168   0.925  -1.050  0.00  0.00    -0.080 A 
ATOM      4  C3  UNL d   1       0.540  -0.048  -0.279  0.00  0.00     0.150 A 
ATOM      5  C4  UNL d   1       0.994  -1.363  -0.282  0.00  0.00    -0.007 A 
ATOM      6  C5  UNL d   1       2.090  -1.713  -1.070  0.00  0.00     0.039 A 
ENDROOT
BRANCH   4   7
ATOM      7  O   UNL d   1      -0.538   0.247   0.502  0.00  0.00    -0.526 OA
ATOM      8  H5  UNL d   1      -0.757   1.186   0.382  0.00  0.00     0.418 HD
ENDBRANCH   4   7
TORSDOF 1
ENDMDL
