MODEL 1
REMARK minimizedAffinity -3.29103994
REMARK minimizedRMSD -1
REMARK  1 active torsions:
REMARK  status: ('A' for Active; 'I' for Inactive)
REMARK    1  A    between atoms: C3_4  and  O_7 
ROOT
ATOM      1  C   UNL d   1       0.931  -1.640   0.012  0.00  0.00    -0.033 A 
ATOM      2  C1  UNL d   1       1.500  -1.317  -1.221  0.00  0.00     0.039 A 
ATOM      3  C2  UNL d   1       1.110  -0.154  -1.888  0.00  0.00    -0.080 A 
ATOM      4  C3  UNL d   1       0.153   0.677  -1.312  0.00  0.00     0.150 A 
ATOM      5  C4  UNL d   1      -0.415   0.363  -0.081  0.00  0.00    -0.007 A 
ATOM      6  C5  UNL d   1      -0.026  -0.800   0.583  0.00  0.00     0.039 A 
ENDROOT
BRANCH   4   7
ATOM      7  O   UNL d   1      -0.263   1.820  -1.927  0.00  0.00    -0.526 OA
ATOM      8  H5  UNL d   1       0.194   1.893  -2.782  0.00  0.00     0.418 HD
ENDBRANCH   4   7
TORSDOF 1
ENDMDL
