MODEL 1
REMARK minimizedAffinity -4.16278982
REMARK minimizedRMSD -1
REMARK  1 active torsions:
REMARK  status: ('A' for Active; 'I' for Inactive)
REMARK    1  A    between atoms: C3_4  and  O_7 
ROOT
ATOM      1  C   UNL d   1       3.119   0.079  -2.033  0.00  0.00    -0.033 A 
ATOM      2  C1  UNL d   1       2.136   0.969  -2.467  0.00  0.00     0.039 A 
ATOM      3  C2  UNL d   1       0.851   0.913  -1.924  0.00  0.00    -0.080 A 
ATOM      4  C3  UNL d   1       0.563  -0.037  -0.948  0.00  0.00     0.150 A 
ATOM      5  C4  UNL d   1       1.538  -0.925  -0.507  0.00  0.00    -0.007 A 
ATOM      6  C5  UNL d   1       2.821  -0.868  -1.052  0.00  0.00     0.039 A 
ENDROOT
BRANCH   4   7
ATOM      7  O   UNL d   1      -0.678  -0.133  -0.392  0.00  0.00    -0.526 OA
ATOM      8  H5  UNL d   1      -1.257   0.524  -0.814  0.00  0.00     0.418 HD
ENDBRANCH   4   7
TORSDOF 1
ENDMDL
