MODEL 1
REMARK minimizedAffinity -4.04358339
REMARK minimizedRMSD -1
REMARK  1 active torsions:
REMARK  status: ('A' for Active; 'I' for Inactive)
REMARK    1  A    between atoms: C3_4  and  O_7 
ROOT
ATOM      1  C   UNL d   1      -0.637  -0.282  -0.196  0.00  0.00    -0.033 A 
ATOM      2  C1  UNL d   1       0.016   0.780  -0.824  0.00  0.00     0.039 A 
ATOM      3  C2  UNL d   1       1.363   0.664  -1.175  0.00  0.00    -0.080 A 
ATOM      4  C3  UNL d   1       2.043  -0.518  -0.893  0.00  0.00     0.150 A 
ATOM      5  C4  UNL d   1       1.397  -1.581  -0.271  0.00  0.00    -0.007 A 
ATOM      6  C5  UNL d   1       0.052  -1.463   0.079  0.00  0.00     0.039 A 
ENDROOT
BRANCH   4   7
ATOM      7  O   UNL d   1       3.359  -0.676  -1.212  0.00  0.00    -0.526 OA
ATOM      8  H5  UNL d   1       3.681   0.150  -1.610  0.00  0.00     0.418 HD
ENDBRANCH   4   7
TORSDOF 1
ENDMDL
