MODEL 1
REMARK minimizedAffinity -2.58600903
REMARK minimizedRMSD -1
REMARK  1 active torsions:
REMARK  status: ('A' for Active; 'I' for Inactive)
REMARK    1  A    between atoms: C3_4  and  O_7 
ROOT
ATOM      1  C   UNL d   1      -2.173  -0.024   0.903  0.00  0.00    -0.033 A 
ATOM      2  C1  UNL d   1      -3.110   0.225   1.909  0.00  0.00     0.039 A 
ATOM      3  C2  UNL d   1      -2.683   0.507   3.208  0.00  0.00    -0.080 A 
ATOM      4  C3  UNL d   1      -1.319   0.537   3.488  0.00  0.00     0.150 A 
ATOM      5  C4  UNL d   1      -0.381   0.293   2.490  0.00  0.00    -0.007 A 
ATOM      6  C5  UNL d   1      -0.809   0.011   1.194  0.00  0.00     0.039 A 
ENDROOT
BRANCH   4   7
ATOM      7  O   UNL d   1      -0.855   0.802   4.742  0.00  0.00    -0.526 OA
ATOM      8  H5  UNL d   1      -1.617   0.921   5.334  0.00  0.00     0.418 HD
ENDBRANCH   4   7
TORSDOF 1
ENDMDL
