MODEL 1
REMARK minimizedAffinity -4.07281446
REMARK minimizedRMSD -1
REMARK  1 active torsions:
REMARK  status: ('A' for Active; 'I' for Inactive)
REMARK    1  A    between atoms: C3_4  and  O_7 
ROOT
ATOM      1  C   UNL d   1       2.459  -0.396  -1.704  0.00  0.00    -0.033 A 
ATOM      2  C1  UNL d   1       1.851  -1.446  -1.014  0.00  0.00     0.039 A 
ATOM      3  C2  UNL d   1       0.647  -1.235  -0.339  0.00  0.00    -0.080 A 
ATOM      4  C3  UNL d   1       0.062   0.028  -0.362  0.00  0.00     0.150 A 
ATOM      5  C4  UNL d   1       0.661   1.077  -1.051  0.00  0.00    -0.007 A 
ATOM      6  C5  UNL d   1       1.864   0.865  -1.724  0.00  0.00     0.039 A 
ENDROOT
BRANCH   4   7
ATOM      7  O   UNL d   1      -1.110   0.283   0.286  0.00  0.00    -0.526 OA
ATOM      8  H5  UNL d   1      -1.392  -0.528   0.742  0.00  0.00     0.418 HD
ENDBRANCH   4   7
TORSDOF 1
ENDMDL
