MODEL 1
REMARK minimizedAffinity -5.44794703
REMARK minimizedRMSD -1
REMARK  1 active torsions:
REMARK  status: ('A' for Active; 'I' for Inactive)
REMARK    1  A    between atoms: C3_4  and  O_7 
ROOT
ATOM      1  C   UNL d   1      -0.586  -0.376   0.012  0.00  0.00    -0.033 A 
ATOM      2  C1  UNL d   1      -0.017  -1.633  -0.200  0.00  0.00     0.039 A 
ATOM      3  C2  UNL d   1       1.290  -1.738  -0.681  0.00  0.00    -0.080 A 
ATOM      4  C3  UNL d   1       2.016  -0.580  -0.945  0.00  0.00     0.150 A 
ATOM      5  C4  UNL d   1       1.456   0.676  -0.732  0.00  0.00    -0.007 A 
ATOM      6  C5  UNL d   1       0.151   0.778  -0.252  0.00  0.00     0.039 A 
ENDROOT
BRANCH   4   7
ATOM      7  O   UNL d   1       3.293  -0.631  -1.420  0.00  0.00    -0.526 OA
ATOM      8  H5  UNL d   1       3.537  -1.564  -1.545  0.00  0.00     0.418 HD
ENDBRANCH   4   7
TORSDOF 1
ENDMDL
