MODEL 1
REMARK minimizedAffinity -3.85357332
REMARK minimizedRMSD -1
REMARK  1 active torsions:
REMARK  status: ('A' for Active; 'I' for Inactive)
REMARK    1  A    between atoms: C3_4  and  O_7 
ROOT
ATOM      1  C   UNL d   1      -0.759  -0.309   1.740  0.00  0.00    -0.033 A 
ATOM      2  C1  UNL d   1       0.032  -0.676   0.650  0.00  0.00     0.039 A 
ATOM      3  C2  UNL d   1       0.081   0.136  -0.485  0.00  0.00    -0.080 A 
ATOM      4  C3  UNL d   1      -0.664   1.312  -0.516  0.00  0.00     0.150 A 
ATOM      5  C4  UNL d   1      -1.451   1.686   0.568  0.00  0.00    -0.007 A 
ATOM      6  C5  UNL d   1      -1.500   0.873   1.699  0.00  0.00     0.039 A 
ENDROOT
BRANCH   4   7
ATOM      7  O   UNL d   1      -0.651   2.134  -1.604  0.00  0.00    -0.526 OA
ATOM      8  H5  UNL d   1      -0.087   1.734  -2.286  0.00  0.00     0.418 HD
ENDBRANCH   4   7
TORSDOF 1
ENDMDL
