MODEL 1
REMARK minimizedAffinity -3.1782937
REMARK minimizedRMSD -1
REMARK  1 active torsions:
REMARK  status: ('A' for Active; 'I' for Inactive)
REMARK    1  A    between atoms: C3_4  and  O_7 
ROOT
ATOM      1  C   UNL d   1       5.636   1.272   5.151  0.00  0.00    -0.033 A 
ATOM      2  C1  UNL d   1       5.263   1.009   3.831  0.00  0.00     0.039 A 
ATOM      3  C2  UNL d   1       5.257  -0.304   3.355  0.00  0.00    -0.080 A 
ATOM      4  C3  UNL d   1       5.625  -1.342   4.207  0.00  0.00     0.150 A 
ATOM      5  C4  UNL d   1       5.994  -1.087   5.523  0.00  0.00    -0.007 A 
ATOM      6  C5  UNL d   1       6.000   0.225   5.997  0.00  0.00     0.039 A 
ENDROOT
BRANCH   4   7
ATOM      7  O   UNL d   1       5.639  -2.638   3.785  0.00  0.00    -0.526 OA
ATOM      8  H5  UNL d   1       5.389  -2.659   2.846  0.00  0.00     0.418 HD
ENDBRANCH   4   7
TORSDOF 1
ENDMDL
