MODEL 1
REMARK minimizedAffinity -3.24370003
REMARK minimizedRMSD -1
REMARK  0 active torsions:
REMARK  status: ('A' for Active; 'I' for Inactive)
ROOT
ATOM      1  C   UNL d   1       1.109   0.377   4.899  0.00  0.00     0.077 C 
ATOM      2  C1  UNL d   1       1.540   1.299   3.797  0.00  0.00    -0.074 A 
ATOM      3  C2  UNL d   1       2.260   2.465   4.075  0.00  0.00    -0.005 A 
ATOM      4  C3  UNL d   1       2.662   3.307   3.038  0.00  0.00     0.006 A 
ATOM      5  C4  UNL d   1       2.348   2.993   1.716  0.00  0.00    -0.005 A 
ATOM      6  C5  UNL d   1       1.630   1.830   1.418  0.00  0.00    -0.074 A 
ATOM      7  C6  UNL d   1       1.294   1.472   0.001  0.00  0.00     0.077 C 
ATOM      8  C7  UNL d   1       1.236   0.985   2.464  0.00  0.00    -0.001 A 
ENDROOT
TORSDOF 0
ENDMDL
