MODEL 1
REMARK minimizedAffinity -3.35843539
REMARK minimizedRMSD -1
REMARK  0 active torsions:
REMARK  status: ('A' for Active; 'I' for Inactive)
ROOT
ATOM      1  C   UNL d   1       1.110  -0.403  -3.029  0.00  0.00     0.077 C 
ATOM      2  C1  UNL d   1       0.782  -0.004  -1.621  0.00  0.00    -0.074 A 
ATOM      3  C2  UNL d   1       1.712   0.682  -0.833  0.00  0.00    -0.005 A 
ATOM      4  C3  UNL d   1       1.389   1.055   0.472  0.00  0.00     0.006 A 
ATOM      5  C4  UNL d   1       0.135   0.747   1.001  0.00  0.00    -0.005 A 
ATOM      6  C5  UNL d   1      -0.808   0.063   0.227  0.00  0.00    -0.074 A 
ATOM      7  C6  UNL d   1      -2.164  -0.267   0.777  0.00  0.00     0.077 C 
ATOM      8  C7  UNL d   1      -0.479  -0.302  -1.085  0.00  0.00    -0.001 A 
ENDROOT
TORSDOF 0
ENDMDL
