MODEL 1
REMARK minimizedAffinity 5.84546328
REMARK minimizedRMSD -1
REMARK  0 active torsions:
REMARK  status: ('A' for Active; 'I' for Inactive)
ROOT
ATOM      1  C   UNL d   1       0.688   0.017   5.297  0.00  0.00     0.077 C 
ATOM      2  C1  UNL d   1       1.000   0.752   4.028  0.00  0.00    -0.074 A 
ATOM      3  C2  UNL d   1       2.001   1.728   3.990  0.00  0.00    -0.005 A 
ATOM      4  C3  UNL d   1       2.286   2.397   2.799  0.00  0.00     0.006 A 
ATOM      5  C4  UNL d   1       1.574   2.097   1.637  0.00  0.00    -0.005 A 
ATOM      6  C5  UNL d   1       0.571   1.124   1.656  0.00  0.00    -0.074 A 
ATOM      7  C6  UNL d   1      -0.197   0.782   0.413  0.00  0.00     0.077 C 
ATOM      8  C7  UNL d   1       0.295   0.451   2.854  0.00  0.00    -0.001 A 
ENDROOT
TORSDOF 0
ENDMDL
