MODEL 1
REMARK minimizedAffinity -3.67155218
REMARK minimizedRMSD -1
REMARK  0 active torsions:
REMARK  status: ('A' for Active; 'I' for Inactive)
ROOT
ATOM      1  C   UNL d   1      -1.564   0.499   1.416  0.00  0.00     0.077 C 
ATOM      2  C1  UNL d   1      -0.737  -0.444   0.592  0.00  0.00    -0.074 A 
ATOM      3  C2  UNL d   1      -0.551  -1.772   0.989  0.00  0.00    -0.005 A 
ATOM      4  C3  UNL d   1       0.212  -2.639   0.207  0.00  0.00     0.006 A 
ATOM      5  C4  UNL d   1       0.796  -2.188  -0.977  0.00  0.00    -0.005 A 
ATOM      6  C5  UNL d   1       0.620  -0.863  -1.391  0.00  0.00    -0.074 A 
ATOM      7  C6  UNL d   1       1.232  -0.365  -2.666  0.00  0.00     0.077 C 
ATOM      8  C7  UNL d   1      -0.154   0.000  -0.603  0.00  0.00    -0.001 A 
ENDROOT
TORSDOF 0
ENDMDL
