MODEL 1
REMARK minimizedAffinity -4.33234024
REMARK minimizedRMSD -1
REMARK  0 active torsions:
REMARK  status: ('A' for Active; 'I' for Inactive)
ROOT
ATOM      1  C   UNL d   1       1.849  -0.197  -3.067  0.00  0.00     0.077 C 
ATOM      2  C1  UNL d   1       1.230   0.080  -1.729  0.00  0.00    -0.074 A 
ATOM      3  C2  UNL d   1       1.427   1.306  -1.085  0.00  0.00    -0.005 A 
ATOM      4  C3  UNL d   1       0.837   1.553   0.154  0.00  0.00     0.006 A 
ATOM      5  C4  UNL d   1       0.044   0.578   0.761  0.00  0.00    -0.005 A 
ATOM      6  C5  UNL d   1      -0.165  -0.653   0.132  0.00  0.00    -0.074 A 
ATOM      7  C6  UNL d   1      -1.022  -1.708   0.767  0.00  0.00     0.077 C 
ATOM      8  C7  UNL d   1       0.426  -0.891  -1.116  0.00  0.00    -0.001 A 
ENDROOT
TORSDOF 0
ENDMDL
