MODEL 1
REMARK minimizedAffinity -2.83834124
REMARK minimizedRMSD -1
REMARK  0 active torsions:
REMARK  status: ('A' for Active; 'I' for Inactive)
ROOT
ATOM      1  C   UNL d   1       0.745   0.981   3.352  0.00  0.00     0.077 C 
ATOM      2  C1  UNL d   1      -0.719   1.021   3.029  0.00  0.00    -0.074 A 
ATOM      3  C2  UNL d   1      -1.283   0.106   2.134  0.00  0.00    -0.005 A 
ATOM      4  C3  UNL d   1      -2.648   0.150   1.851  0.00  0.00     0.006 A 
ATOM      5  C4  UNL d   1      -3.461   1.107   2.459  0.00  0.00    -0.005 A 
ATOM      6  C5  UNL d   1      -2.915   2.030   3.357  0.00  0.00    -0.074 A 
ATOM      7  C6  UNL d   1      -3.777   3.059   4.026  0.00  0.00     0.077 C 
ATOM      8  C7  UNL d   1      -1.544   1.975   3.641  0.00  0.00    -0.001 A 
ENDROOT
TORSDOF 0
ENDMDL
