MODEL 1
REMARK minimizedAffinity -2.25486279
REMARK minimizedRMSD -1
REMARK  0 active torsions:
REMARK  status: ('A' for Active; 'I' for Inactive)
ROOT
ATOM      1  C   UNL d   1       3.906   1.136  -0.847  0.00  0.00     0.077 C 
ATOM      2  C1  UNL d   1       2.520   0.637  -1.126  0.00  0.00    -0.074 A 
ATOM      3  C2  UNL d   1       2.199   0.058  -2.358  0.00  0.00    -0.005 A 
ATOM      4  C3  UNL d   1       0.907  -0.410  -2.600  0.00  0.00     0.006 A 
ATOM      5  C4  UNL d   1      -0.074  -0.306  -1.613  0.00  0.00    -0.005 A 
ATOM      6  C5  UNL d   1       0.229   0.269  -0.375  0.00  0.00    -0.074 A 
ATOM      7  C6  UNL d   1      -0.812   0.380   0.700  0.00  0.00     0.077 C 
ATOM      8  C7  UNL d   1       1.530   0.731  -0.137  0.00  0.00    -0.001 A 
ENDROOT
TORSDOF 0
ENDMDL
