MODEL 1
REMARK minimizedAffinity -0.752417803
REMARK minimizedRMSD -1
REMARK  0 active torsions:
REMARK  status: ('A' for Active; 'I' for Inactive)
ROOT
ATOM      1  C   UNL d   1      -6.000   2.372  -5.648  0.00  0.00     0.077 C 
ATOM      2  C1  UNL d   1      -5.149   3.606  -5.683  0.00  0.00    -0.074 A 
ATOM      3  C2  UNL d   1      -5.705   4.855  -5.980  0.00  0.00    -0.005 A 
ATOM      4  C3  UNL d   1      -4.903   5.996  -6.000  0.00  0.00     0.006 A 
ATOM      5  C4  UNL d   1      -3.538   5.900  -5.723  0.00  0.00    -0.005 A 
ATOM      6  C5  UNL d   1      -2.965   4.661  -5.423  0.00  0.00    -0.074 A 
ATOM      7  C6  UNL d   1      -1.502   4.542  -5.114  0.00  0.00     0.077 C 
ATOM      8  C7  UNL d   1      -3.779   3.520  -5.399  0.00  0.00    -0.001 A 
ENDROOT
TORSDOF 0
ENDMDL
