MODEL 1
REMARK minimizedAffinity -0.852893353
REMARK minimizedRMSD -1
REMARK  0 active torsions:
REMARK  status: ('A' for Active; 'I' for Inactive)
ROOT
ATOM      1  C   UNL d   1      -3.707   2.636   3.736  0.00  0.00     0.077 C 
ATOM      2  C1  UNL d   1      -3.529   1.480   2.797  0.00  0.00    -0.074 A 
ATOM      3  C2  UNL d   1      -4.635   0.837   2.231  0.00  0.00    -0.005 A 
ATOM      4  C3  UNL d   1      -4.453  -0.231   1.352  0.00  0.00     0.006 A 
ATOM      5  C4  UNL d   1      -3.167  -0.665   1.030  0.00  0.00    -0.005 A 
ATOM      6  C5  UNL d   1      -2.049  -0.033   1.585  0.00  0.00    -0.074 A 
ATOM      7  C6  UNL d   1      -0.659  -0.481   1.242  0.00  0.00     0.077 C 
ATOM      8  C7  UNL d   1      -2.240   1.043   2.462  0.00  0.00    -0.001 A 
ENDROOT
TORSDOF 0
ENDMDL
