MODEL 1
REMARK minimizedAffinity -3.00099802
REMARK minimizedRMSD -1
REMARK  0 active torsions:
REMARK  status: ('A' for Active; 'I' for Inactive)
ROOT
ATOM      1  C   UNL d   1      -1.124   0.382   1.449  0.00  0.00     0.077 C 
ATOM      2  C1  UNL d   1      -0.411  -0.475   0.445  0.00  0.00    -0.074 A 
ATOM      3  C2  UNL d   1      -0.414  -1.869   0.559  0.00  0.00    -0.005 A 
ATOM      4  C3  UNL d   1       0.245  -2.653  -0.388  0.00  0.00     0.006 A 
ATOM      5  C4  UNL d   1       0.912  -2.053  -1.457  0.00  0.00    -0.005 A 
ATOM      6  C5  UNL d   1       0.924  -0.660  -1.588  0.00  0.00    -0.074 A 
ATOM      7  C6  UNL d   1       1.627   0.001  -2.736  0.00  0.00     0.077 C 
ATOM      8  C7  UNL d   1       0.254   0.120  -0.636  0.00  0.00    -0.001 A 
ENDROOT
TORSDOF 0
ENDMDL
