MODEL 1
REMARK minimizedAffinity -5.14360619
REMARK minimizedRMSD -1
REMARK  0 active torsions:
REMARK  status: ('A' for Active; 'I' for Inactive)
ROOT
ATOM      1  C   UNL d   1       1.972  -0.564  -3.361  0.00  0.00     0.077 C 
ATOM      2  C1  UNL d   1       1.546   0.036  -2.053  0.00  0.00    -0.074 A 
ATOM      3  C2  UNL d   1       2.135   1.210  -1.575  0.00  0.00    -0.005 A 
ATOM      4  C3  UNL d   1       1.722   1.761  -0.362  0.00  0.00     0.006 A 
ATOM      5  C4  UNL d   1       0.717   1.144   0.384  0.00  0.00    -0.005 A 
ATOM      6  C5  UNL d   1       0.115  -0.031  -0.079  0.00  0.00    -0.074 A 
ATOM      7  C6  UNL d   1      -0.973  -0.702   0.705  0.00  0.00     0.077 C 
ATOM      8  C7  UNL d   1       0.531  -0.574  -1.302  0.00  0.00    -0.001 A 
ENDROOT
TORSDOF 0
ENDMDL
