MODEL 1
REMARK minimizedAffinity -1.94796801
REMARK minimizedRMSD -1
REMARK  0 active torsions:
REMARK  status: ('A' for Active; 'I' for Inactive)
ROOT
ATOM      1  C   UNL d   1      -0.032  -0.823  -0.390  0.00  0.00     0.077 C 
ATOM      2  C1  UNL d   1      -0.598  -0.151   0.826  0.00  0.00    -0.074 A 
ATOM      3  C2  UNL d   1       0.233   0.255   1.875  0.00  0.00    -0.005 A 
ATOM      4  C3  UNL d   1      -0.306   0.887   2.995  0.00  0.00     0.006 A 
ATOM      5  C4  UNL d   1      -1.680   1.119   3.077  0.00  0.00    -0.005 A 
ATOM      6  C5  UNL d   1      -2.526   0.722   2.037  0.00  0.00    -0.074 A 
ATOM      7  C6  UNL d   1      -4.003   0.973   2.105  0.00  0.00     0.077 C 
ATOM      8  C7  UNL d   1      -1.975   0.093   0.912  0.00  0.00    -0.001 A 
ENDROOT
TORSDOF 0
ENDMDL
