MODEL 1
REMARK minimizedAffinity 2.15517926
REMARK minimizedRMSD -1
REMARK  0 active torsions:
REMARK  status: ('A' for Active; 'I' for Inactive)
ROOT
ATOM      1  N1  IND d   1       3.864  -1.366   3.177  0.00  0.00    -0.196 N 
ATOM      2  C2  IND d   1       2.905  -0.563   2.627  0.00  0.00     0.054 A 
ATOM      3  C3  IND d   1       1.694  -1.161   2.696  0.00  0.00    -0.031 A 
ATOM      4  C4  IND d   1       1.041  -3.413   3.760  0.00  0.00     0.051 A 
ATOM      5  C5  IND d   1       1.579  -4.520   4.354  0.00  0.00    -0.031 A 
ATOM      6  C6  IND d   1       2.933  -4.633   4.593  0.00  0.00     0.015 A 
ATOM      7  C7  IND d   1       3.802  -3.635   4.256  0.00  0.00    -0.016 A 
ATOM      8  C8  IND d   1       3.261  -2.512   3.646  0.00  0.00    -0.047 A 
ATOM      9  C9  IND d   1       1.893  -2.409   3.363  0.00  0.00    -0.096 A 
ATOM     10  HN1 IND d   1       4.704  -1.186   3.221  0.00  0.00     0.298 HD
ENDROOT
TORSDOF 0
ENDMDL
