MODEL 1
REMARK minimizedAffinity 12.0288486
REMARK minimizedRMSD -1
REMARK  0 active torsions:
REMARK  status: ('A' for Active; 'I' for Inactive)
ROOT
ATOM      1  N1  IND d   1       1.986  -1.066  -0.999  0.00  0.00    -0.196 N 
ATOM      2  C2  IND d   1       2.676  -0.730  -2.130  0.00  0.00     0.054 A 
ATOM      3  C3  IND d   1       3.380   0.407  -1.931  0.00  0.00    -0.031 A 
ATOM      4  C4  IND d   1       3.625   1.827   0.202  0.00  0.00     0.051 A 
ATOM      5  C5  IND d   1       3.155   1.941   1.480  0.00  0.00    -0.031 A 
ATOM      6  C6  IND d   1       2.256   1.038   2.010  0.00  0.00     0.015 A 
ATOM      7  C7  IND d   1       1.799  -0.023   1.280  0.00  0.00    -0.016 A 
ATOM      8  C8  IND d   1       2.268  -0.137  -0.021  0.00  0.00    -0.047 A 
ATOM      9  C9  IND d   1       3.148   0.800  -0.577  0.00  0.00    -0.096 A 
ATOM     10  HN1 IND d   1       1.463  -1.743  -0.913  0.00  0.00     0.298 HD
ENDROOT
TORSDOF 0
ENDMDL
