MODEL 1
REMARK minimizedAffinity -3.60281491
REMARK minimizedRMSD -1
REMARK  0 active torsions:
REMARK  status: ('A' for Active; 'I' for Inactive)
ROOT
ATOM      1  N1  IND d   1       0.823  -1.400   2.284  0.00  0.00    -0.196 N 
ATOM      2  C2  IND d   1       1.265  -1.142   3.552  0.00  0.00     0.054 A 
ATOM      3  C3  IND d   1       1.786  -2.260   4.106  0.00  0.00    -0.031 A 
ATOM      4  C4  IND d   1       2.108  -4.598   3.078  0.00  0.00     0.051 A 
ATOM      5  C5  IND d   1       1.827  -5.330   1.958  0.00  0.00    -0.031 A 
ATOM      6  C6  IND d   1       1.187  -4.778   0.867  0.00  0.00     0.015 A 
ATOM      7  C7  IND d   1       0.812  -3.464   0.851  0.00  0.00    -0.016 A 
ATOM      8  C8  IND d   1       1.089  -2.719   1.988  0.00  0.00    -0.047 A 
ATOM      9  C9  IND d   1       1.700  -3.285   3.115  0.00  0.00    -0.096 A 
ATOM     10  HN1 IND d   1       0.443  -0.835   1.760  0.00  0.00     0.298 HD
ENDROOT
TORSDOF 0
ENDMDL
