MODEL 1
REMARK minimizedAffinity 10.1203918
REMARK minimizedRMSD -1
REMARK  0 active torsions:
REMARK  status: ('A' for Active; 'I' for Inactive)
ROOT
ATOM      1  N1  IND d   1      -0.922  -1.185   0.107  0.00  0.00    -0.196 N 
ATOM      2  C2  IND d   1      -1.359  -2.410  -0.316  0.00  0.00     0.054 A 
ATOM      3  C3  IND d   1      -0.644  -3.393   0.275  0.00  0.00    -0.031 A 
ATOM      4  C4  IND d   1       1.220  -3.226   2.043  0.00  0.00     0.051 A 
ATOM      5  C5  IND d   1       1.989  -2.317   2.715  0.00  0.00    -0.031 A 
ATOM      6  C6  IND d   1       1.821  -0.957   2.550  0.00  0.00     0.015 A 
ATOM      7  C7  IND d   1       0.867  -0.453   1.713  0.00  0.00    -0.016 A 
ATOM      8  C8  IND d   1       0.089  -1.373   1.023  0.00  0.00    -0.047 A 
ATOM      9  C9  IND d   1       0.283  -2.754   1.154  0.00  0.00    -0.096 A 
ATOM     10  HN1 IND d   1      -1.227  -0.425  -0.156  0.00  0.00     0.298 HD
ENDROOT
TORSDOF 0
ENDMDL
