MODEL 1
REMARK minimizedAffinity 16.1083031
REMARK minimizedRMSD -1
REMARK  0 active torsions:
REMARK  status: ('A' for Active; 'I' for Inactive)
ROOT
ATOM      1  N1  IND d   1      -3.828  -0.537  -2.990  0.00  0.00    -0.196 N 
ATOM      2  C2  IND d   1      -2.618  -0.070  -3.424  0.00  0.00     0.054 A 
ATOM      3  C3  IND d   1      -2.425   1.199  -3.000  0.00  0.00    -0.031 A 
ATOM      4  C4  IND d   1      -3.914   2.668  -1.500  0.00  0.00     0.051 A 
ATOM      5  C5  IND d   1      -5.135   2.690  -0.885  0.00  0.00    -0.031 A 
ATOM      6  C6  IND d   1      -5.998   1.615  -0.939  0.00  0.00     0.015 A 
ATOM      7  C7  IND d   1      -5.667   0.469  -1.604  0.00  0.00    -0.016 A 
ATOM      8  C8  IND d   1      -4.432   0.445  -2.235  0.00  0.00    -0.047 A 
ATOM      9  C9  IND d   1      -3.569   1.549  -2.219  0.00  0.00    -0.096 A 
ATOM     10  HN1 IND d   1      -4.156  -1.313  -3.160  0.00  0.00     0.298 HD
ENDROOT
TORSDOF 0
ENDMDL
