MODEL 1
REMARK minimizedAffinity 4.82702351
REMARK minimizedRMSD -1
REMARK  0 active torsions:
REMARK  status: ('A' for Active; 'I' for Inactive)
ROOT
ATOM      1  N1  IND d   1      -2.504   0.026  -2.634  0.00  0.00    -0.196 N 
ATOM      2  C2  IND d   1      -3.720  -0.264  -3.185  0.00  0.00     0.054 A 
ATOM      3  C3  IND d   1      -4.105  -1.515  -2.844  0.00  0.00    -0.031 A 
ATOM      4  C4  IND d   1      -2.942  -3.221  -1.306  0.00  0.00     0.051 A 
ATOM      5  C5  IND d   1      -1.790  -3.424  -0.599  0.00  0.00    -0.031 A 
ATOM      6  C6  IND d   1      -0.799  -2.466  -0.530  0.00  0.00     0.015 A 
ATOM      7  C7  IND d   1      -0.928  -1.261  -1.160  0.00  0.00    -0.016 A 
ATOM      8  C8  IND d   1      -2.092  -1.054  -1.885  0.00  0.00    -0.047 A 
ATOM      9  C9  IND d   1      -3.083  -2.038  -1.993  0.00  0.00    -0.096 A 
ATOM     10  HN1 IND d   1      -2.068   0.761  -2.738  0.00  0.00     0.298 HD
ENDROOT
TORSDOF 0
ENDMDL
