MODEL 1
REMARK minimizedAffinity 7.7178483
REMARK minimizedRMSD -1
REMARK  0 active torsions:
REMARK  status: ('A' for Active; 'I' for Inactive)
ROOT
ATOM      1  N1  IND d   1      -3.322   1.765   1.489  0.00  0.00    -0.196 N 
ATOM      2  C2  IND d   1      -2.618   1.389   0.380  0.00  0.00     0.054 A 
ATOM      3  C3  IND d   1      -3.072   2.046  -0.711  0.00  0.00    -0.031 A 
ATOM      4  C4  IND d   1      -4.892   3.858  -0.888  0.00  0.00     0.051 A 
ATOM      5  C5  IND d   1      -5.841   4.508  -0.150  0.00  0.00    -0.031 A 
ATOM      6  C6  IND d   1      -6.000   4.274   1.201  0.00  0.00     0.015 A 
ATOM      7  C7  IND d   1      -5.205   3.386   1.869  0.00  0.00    -0.016 A 
ATOM      8  C8  IND d   1      -4.245   2.719   1.120  0.00  0.00    -0.047 A 
ATOM      9  C9  IND d   1      -4.107   2.921  -0.259  0.00  0.00    -0.096 A 
ATOM     10  HN1 IND d   1      -3.208   1.458   2.284  0.00  0.00     0.298 HD
ENDROOT
TORSDOF 0
ENDMDL
