MODEL 1
REMARK minimizedAffinity 14.6882906
REMARK minimizedRMSD -1
REMARK  0 active torsions:
REMARK  status: ('A' for Active; 'I' for Inactive)
ROOT
ATOM      1  N1  IND d   1      -6.000   3.369   0.573  0.00  0.00    -0.196 N 
ATOM      2  C2  IND d   1      -5.007   3.592   1.486  0.00  0.00     0.054 A 
ATOM      3  C3  IND d   1      -3.799   3.323   0.943  0.00  0.00    -0.031 A 
ATOM      4  C4  IND d   1      -3.209   2.603  -1.457  0.00  0.00     0.051 A 
ATOM      5  C5  IND d   1      -3.781   2.236  -2.643  0.00  0.00    -0.031 A 
ATOM      6  C6  IND d   1      -5.149   2.230  -2.822  0.00  0.00     0.015 A 
ATOM      7  C7  IND d   1      -6.000   2.604  -1.820  0.00  0.00    -0.016 A 
ATOM      8  C8  IND d   1      -5.423   2.971  -0.613  0.00  0.00    -0.047 A 
ATOM      9  C9  IND d   1      -4.037   2.938  -0.412  0.00  0.00    -0.096 A 
ATOM     10  HN1 IND d   1      -6.843   3.462   0.716  0.00  0.00     0.298 HD
ENDROOT
TORSDOF 0
ENDMDL
