MODEL 1
REMARK minimizedAffinity 7.20461702
REMARK minimizedRMSD -1
REMARK  0 active torsions:
REMARK  status: ('A' for Active; 'I' for Inactive)
ROOT
ATOM      1  N1  IND d   1       5.368  -2.001   3.456  0.00  0.00    -0.196 N 
ATOM      2  C2  IND d   1       5.996  -2.373   4.611  0.00  0.00     0.054 A 
ATOM      3  C3  IND d   1       5.105  -2.459   5.624  0.00  0.00    -0.031 A 
ATOM      4  C4  IND d   1       2.551  -2.134   5.589  0.00  0.00     0.051 A 
ATOM      5  C5  IND d   1       1.526  -1.752   4.771  0.00  0.00    -0.031 A 
ATOM      6  C6  IND d   1       1.732  -1.429   3.445  0.00  0.00     0.015 A 
ATOM      7  C7  IND d   1       2.975  -1.488   2.882  0.00  0.00    -0.016 A 
ATOM      8  C8  IND d   1       4.020  -1.869   3.712  0.00  0.00    -0.047 A 
ATOM      9  C9  IND d   1       3.824  -2.156   5.069  0.00  0.00    -0.096 A 
ATOM     10  HN1 IND d   1       5.749  -1.872   2.696  0.00  0.00     0.298 HD
ENDROOT
TORSDOF 0
ENDMDL
