MODEL 1
REMARK minimizedAffinity 14.9870319
REMARK minimizedRMSD -1
REMARK  0 active torsions:
REMARK  status: ('A' for Active; 'I' for Inactive)
ROOT
ATOM      1  N1  IND d   1      -5.825  -1.582  -2.498  0.00  0.00    -0.196 N 
ATOM      2  C2  IND d   1      -5.294  -2.836  -2.621  0.00  0.00     0.054 A 
ATOM      3  C3  IND d   1      -3.968  -2.761  -2.879  0.00  0.00    -0.031 A 
ATOM      4  C4  IND d   1      -2.447  -0.691  -3.041  0.00  0.00     0.051 A 
ATOM      5  C5  IND d   1      -2.483   0.675  -3.036  0.00  0.00    -0.031 A 
ATOM      6  C6  IND d   1      -3.658   1.373  -2.845  0.00  0.00     0.015 A 
ATOM      7  C7  IND d   1      -4.845   0.727  -2.640  0.00  0.00    -0.016 A 
ATOM      8  C8  IND d   1      -4.813  -0.660  -2.651  0.00  0.00    -0.047 A 
ATOM      9  C9  IND d   1      -3.631  -1.373  -2.887  0.00  0.00    -0.096 A 
ATOM     10  HN1 IND d   1      -6.652  -1.400  -2.351  0.00  0.00     0.298 HD
ENDROOT
TORSDOF 0
ENDMDL
