MODEL 1
REMARK minimizedAffinity 9.49338531
REMARK minimizedRMSD -1
REMARK  0 active torsions:
REMARK  status: ('A' for Active; 'I' for Inactive)
ROOT
ATOM      1  N1  IND d   1       1.736  -1.871   4.884  0.00  0.00    -0.196 N 
ATOM      2  C2  IND d   1       2.241  -1.453   3.684  0.00  0.00     0.054 A 
ATOM      3  C3  IND d   1       2.752  -2.501   2.999  0.00  0.00    -0.031 A 
ATOM      4  C4  IND d   1       2.775  -5.001   3.612  0.00  0.00     0.051 A 
ATOM      5  C5  IND d   1       2.463  -5.865   4.623  0.00  0.00    -0.031 A 
ATOM      6  C6  IND d   1       1.878  -5.434   5.796  0.00  0.00     0.015 A 
ATOM      7  C7  IND d   1       1.572  -4.117   5.997  0.00  0.00    -0.016 A 
ATOM      8  C8  IND d   1       1.894  -3.236   4.975  0.00  0.00    -0.047 A 
ATOM      9  C9  IND d   1       2.527  -3.662   3.800  0.00  0.00    -0.096 A 
ATOM     10  HN1 IND d   1       1.380  -1.365   5.481  0.00  0.00     0.298 HD
ENDROOT
TORSDOF 0
ENDMDL
