MODEL 1
REMARK minimizedAffinity 4.34496737
REMARK minimizedRMSD -1
REMARK  1 active torsions:
REMARK  status: ('A' for Active; 'I' for Inactive)
REMARK    1  A    between atoms: C3_4  and  O_7 
ROOT
ATOM      1  C   UNL d   1       3.237   6.000  -6.000  0.00  0.00    -0.033 A 
ATOM      2  C1  UNL d   1       2.223   5.971  -5.040  0.00  0.00     0.039 A 
ATOM      3  C2  UNL d   1       2.249   5.015  -4.023  0.00  0.00    -0.080 A 
ATOM      4  C3  UNL d   1       3.294   4.095  -3.976  0.00  0.00     0.150 A 
ATOM      5  C4  UNL d   1       4.309   4.121  -4.927  0.00  0.00    -0.007 A 
ATOM      6  C5  UNL d   1       4.280   5.076  -5.942  0.00  0.00     0.039 A 
ENDROOT
BRANCH   4   7
ATOM      7  O   UNL d   1       3.360   3.141  -3.005  0.00  0.00    -0.526 OA
ATOM      8  H5  UNL d   1       2.577   3.226  -2.436  0.00  0.00     0.418 HD
ENDBRANCH   4   7
TORSDOF 1
ENDMDL
