MODEL 1
REMARK minimizedAffinity -1.76634526
REMARK minimizedRMSD -1
REMARK  1 active torsions:
REMARK  status: ('A' for Active; 'I' for Inactive)
REMARK    1  A    between atoms: C3_4  and  O_7 
ROOT
ATOM      1  C   UNL d   1       5.845   4.502  -5.072  0.00  0.00    -0.033 A 
ATOM      2  C1  UNL d   1       5.477   5.481  -5.997  0.00  0.00     0.039 A 
ATOM      3  C2  UNL d   1       4.179   5.995  -5.994  0.00  0.00    -0.080 A 
ATOM      4  C3  UNL d   1       3.260   5.523  -5.061  0.00  0.00     0.150 A 
ATOM      5  C4  UNL d   1       3.620   4.550  -4.134  0.00  0.00    -0.007 A 
ATOM      6  C5  UNL d   1       4.917   4.038  -4.140  0.00  0.00     0.039 A 
ENDROOT
BRANCH   4   7
ATOM      7  O   UNL d   1       1.980   5.991  -5.022  0.00  0.00    -0.526 OA
ATOM      8  H5  UNL d   1       1.866   6.637  -5.739  0.00  0.00     0.418 HD
ENDBRANCH   4   7
TORSDOF 1
ENDMDL
