MODEL 1
REMARK minimizedAffinity -1.93311787
REMARK minimizedRMSD -1
REMARK  1 active torsions:
REMARK  status: ('A' for Active; 'I' for Inactive)
REMARK    1  A    between atoms: C3_4  and  O_7 
ROOT
ATOM      1  C   UNL d   1       5.244   5.266  -5.254  0.00  0.00    -0.033 A 
ATOM      2  C1  UNL d   1       4.319   6.000  -5.999  0.00  0.00     0.039 A 
ATOM      3  C2  UNL d   1       2.972   5.632  -6.000  0.00  0.00    -0.080 A 
ATOM      4  C3  UNL d   1       2.563   4.532  -5.251  0.00  0.00     0.150 A 
ATOM      5  C4  UNL d   1       3.479   3.799  -4.503  0.00  0.00    -0.007 A 
ATOM      6  C5  UNL d   1       4.824   4.167  -4.504  0.00  0.00     0.039 A 
ENDROOT
BRANCH   4   7
ATOM      7  O   UNL d   1       1.260   4.132  -5.224  0.00  0.00    -0.526 OA
ATOM      8  H5  UNL d   1       0.748   4.714  -5.810  0.00  0.00     0.418 HD
ENDBRANCH   4   7
TORSDOF 1
ENDMDL
