MODEL 1
REMARK minimizedAffinity -0.577869833
REMARK minimizedRMSD -1
REMARK  1 active torsions:
REMARK  status: ('A' for Active; 'I' for Inactive)
REMARK    1  A    between atoms: C3_4  and  O_7 
ROOT
ATOM      1  C   UNL d   1       5.270   5.089  -5.253  0.00  0.00    -0.033 A 
ATOM      2  C1  UNL d   1       4.630   4.090  -4.517  0.00  0.00     0.039 A 
ATOM      3  C2  UNL d   1       3.237   4.003  -4.519  0.00  0.00    -0.080 A 
ATOM      4  C3  UNL d   1       2.496   4.919  -5.261  0.00  0.00     0.150 A 
ATOM      5  C4  UNL d   1       3.127   5.914  -6.000  0.00  0.00    -0.007 A 
ATOM      6  C5  UNL d   1       4.519   6.000  -5.996  0.00  0.00     0.039 A 
ENDROOT
BRANCH   4   7
ATOM      7  O   UNL d   1       1.134   4.877  -5.290  0.00  0.00    -0.526 OA
ATOM      8  H5  UNL d   1       0.836   4.156  -4.710  0.00  0.00     0.418 HD
ENDBRANCH   4   7
TORSDOF 1
ENDMDL
