MODEL 1
REMARK minimizedAffinity 1.38121283
REMARK minimizedRMSD -1
REMARK  1 active torsions:
REMARK  status: ('A' for Active; 'I' for Inactive)
REMARK    1  A    between atoms: C3_4  and  O_7 
ROOT
ATOM      1  C   UNL d   1       2.599   2.996  -4.619  0.00  0.00    -0.033 A 
ATOM      2  C1  UNL d   1       2.195   4.272  -5.015  0.00  0.00     0.039 A 
ATOM      3  C2  UNL d   1       3.137   5.294  -5.151  0.00  0.00    -0.080 A 
ATOM      4  C3  UNL d   1       4.478   5.026  -4.891  0.00  0.00     0.150 A 
ATOM      5  C4  UNL d   1       4.888   3.756  -4.501  0.00  0.00    -0.007 A 
ATOM      6  C5  UNL d   1       3.946   2.737  -4.364  0.00  0.00     0.039 A 
ENDROOT
BRANCH   4   7
ATOM      7  O   UNL d   1       5.433   5.992  -5.007  0.00  0.00    -0.526 OA
ATOM      8  H5  UNL d   1       4.999   6.825  -5.256  0.00  0.00     0.418 HD
ENDBRANCH   4   7
TORSDOF 1
ENDMDL
