MODEL 1
REMARK minimizedAffinity -0.528847456
REMARK minimizedRMSD -1
REMARK  1 active torsions:
REMARK  status: ('A' for Active; 'I' for Inactive)
REMARK    1  A    between atoms: C3_4  and  O_7 
ROOT
ATOM      1  C   UNL d   1       3.337   6.000  -5.908  0.00  0.00    -0.033 A 
ATOM      2  C1  UNL d   1       4.624   5.466  -6.000  0.00  0.00     0.039 A 
ATOM      3  C2  UNL d   1       4.907   4.222  -5.434  0.00  0.00    -0.080 A 
ATOM      4  C3  UNL d   1       3.897   3.522  -4.781  0.00  0.00     0.150 A 
ATOM      5  C4  UNL d   1       2.612   4.045  -4.689  0.00  0.00    -0.007 A 
ATOM      6  C5  UNL d   1       2.330   5.289  -5.254  0.00  0.00     0.039 A 
ENDROOT
BRANCH   4   7
ATOM      7  O   UNL d   1       4.127   2.306  -4.210  0.00  0.00    -0.526 OA
ATOM      8  H5  UNL d   1       5.066   2.083  -4.327  0.00  0.00     0.418 HD
ENDBRANCH   4   7
TORSDOF 1
ENDMDL
