MODEL 1
REMARK minimizedAffinity 3.79134369
REMARK minimizedRMSD -1
REMARK  1 active torsions:
REMARK  status: ('A' for Active; 'I' for Inactive)
REMARK    1  A    between atoms: C3_4  and  O_7 
ROOT
ATOM      1  C   UNL d   1      -3.040  -1.359  -2.047  0.00  0.00    -0.033 A 
ATOM      2  C1  UNL d   1      -2.821  -2.171  -3.161  0.00  0.00     0.039 A 
ATOM      3  C2  UNL d   1      -2.953  -3.557  -3.054  0.00  0.00    -0.080 A 
ATOM      4  C3  UNL d   1      -3.304  -4.118  -1.828  0.00  0.00     0.150 A 
ATOM      5  C4  UNL d   1      -3.527  -3.314  -0.715  0.00  0.00    -0.007 A 
ATOM      6  C5  UNL d   1      -3.394  -1.930  -0.824  0.00  0.00     0.039 A 
ENDROOT
BRANCH   4   7
ATOM      7  O   UNL d   1      -3.439  -5.465  -1.674  0.00  0.00    -0.526 OA
ATOM      8  H5  UNL d   1      -3.227  -5.895  -2.519  0.00  0.00     0.418 HD
ENDBRANCH   4   7
TORSDOF 1
ENDMDL
