MODEL 1
REMARK minimizedAffinity -0.751991451
REMARK minimizedRMSD -1
REMARK  1 active torsions:
REMARK  status: ('A' for Active; 'I' for Inactive)
REMARK    1  A    between atoms: C3_4  and  O_7 
ROOT
ATOM      1  C   UNL d   1      -3.944   0.221   3.547  0.00  0.00    -0.033 A 
ATOM      2  C1  UNL d   1      -2.904  -0.470   2.921  0.00  0.00     0.039 A 
ATOM      3  C2  UNL d   1      -1.763   0.215   2.499  0.00  0.00    -0.080 A 
ATOM      4  C3  UNL d   1      -1.673   1.588   2.710  0.00  0.00     0.150 A 
ATOM      5  C4  UNL d   1      -2.703   2.282   3.336  0.00  0.00    -0.007 A 
ATOM      6  C5  UNL d   1      -3.842   1.597   3.756  0.00  0.00     0.039 A 
ENDROOT
BRANCH   4   7
ATOM      7  O   UNL d   1      -0.580   2.300   2.312  0.00  0.00    -0.526 OA
ATOM      8  H5  UNL d   1       0.037   1.694   1.869  0.00  0.00     0.418 HD
ENDBRANCH   4   7
TORSDOF 1
ENDMDL
