MODEL 1
REMARK minimizedAffinity 1.59481966
REMARK minimizedRMSD -1
REMARK  1 active torsions:
REMARK  status: ('A' for Active; 'I' for Inactive)
REMARK    1  A    between atoms: C3_4  and  O_7 
ROOT
ATOM      1  C   UNL d   1      -3.661   0.109   3.648  0.00  0.00    -0.033 A 
ATOM      2  C1  UNL d   1      -3.814   1.483   3.839  0.00  0.00     0.039 A 
ATOM      3  C2  UNL d   1      -2.890   2.373   3.288  0.00  0.00    -0.080 A 
ATOM      4  C3  UNL d   1      -1.820   1.877   2.548  0.00  0.00     0.150 A 
ATOM      5  C4  UNL d   1      -1.664   0.509   2.350  0.00  0.00    -0.007 A 
ATOM      6  C5  UNL d   1      -2.587  -0.378   2.902  0.00  0.00     0.039 A 
ENDROOT
BRANCH   4   7
ATOM      7  O   UNL d   1      -0.891   2.707   1.995  0.00  0.00    -0.526 OA
ATOM      8  H5  UNL d   1      -1.111   3.622   2.239  0.00  0.00     0.418 HD
ENDBRANCH   4   7
TORSDOF 1
ENDMDL
