MODEL 1
REMARK minimizedAffinity 0.690400362
REMARK minimizedRMSD -1
REMARK  1 active torsions:
REMARK  status: ('A' for Active; 'I' for Inactive)
REMARK    1  A    between atoms: C3_4  and  O_7 
ROOT
ATOM      1  C   UNL d   1      -1.309   0.474   2.459  0.00  0.00    -0.033 A 
ATOM      2  C1  UNL d   1      -2.288  -0.388   2.957  0.00  0.00     0.039 A 
ATOM      3  C2  UNL d   1      -3.415   0.128   3.599  0.00  0.00    -0.080 A 
ATOM      4  C3  UNL d   1      -3.551   1.507   3.737  0.00  0.00     0.150 A 
ATOM      5  C4  UNL d   1      -2.582   2.372   3.239  0.00  0.00    -0.007 A 
ATOM      6  C5  UNL d   1      -1.457   1.855   2.599  0.00  0.00     0.039 A 
ENDROOT
BRANCH   4   7
ATOM      7  O   UNL d   1      -4.631   2.057   4.361  0.00  0.00    -0.526 OA
ATOM      8  H5  UNL d   1      -5.203   1.338   4.678  0.00  0.00     0.418 HD
ENDBRANCH   4   7
TORSDOF 1
ENDMDL
