MODEL 1
REMARK minimizedAffinity -3.79887962
REMARK minimizedRMSD -1
REMARK  1 active torsions:
REMARK  status: ('A' for Active; 'I' for Inactive)
REMARK    1  A    between atoms: C3_4  and  O_7 
ROOT
ATOM      1  C   UNL d   1      -2.604   0.867   2.751  0.00  0.00    -0.033 A 
ATOM      2  C1  UNL d   1      -1.838   2.034   2.780  0.00  0.00     0.039 A 
ATOM      3  C2  UNL d   1      -0.578   2.059   2.178  0.00  0.00    -0.080 A 
ATOM      4  C3  UNL d   1      -0.097   0.913   1.551  0.00  0.00     0.150 A 
ATOM      5  C4  UNL d   1      -0.857  -0.252   1.515  0.00  0.00    -0.007 A 
ATOM      6  C5  UNL d   1      -2.114  -0.275   2.117  0.00  0.00     0.039 A 
ENDROOT
BRANCH   4   7
ATOM      7  O   UNL d   1       1.128   0.888   0.954  0.00  0.00    -0.526 OA
ATOM      8  H5  UNL d   1       1.551   1.754   1.083  0.00  0.00     0.418 HD
ENDBRANCH   4   7
TORSDOF 1
ENDMDL
