MODEL 1
REMARK minimizedAffinity 5.90500021
REMARK minimizedRMSD -1
REMARK  1 active torsions:
REMARK  status: ('A' for Active; 'I' for Inactive)
REMARK    1  A    between atoms: C3_4  and  O_7 
ROOT
ATOM      1  C   UNL d   1       2.602   3.036  -3.802  0.00  0.00    -0.033 A 
ATOM      2  C1  UNL d   1       2.314   4.375  -3.530  0.00  0.00     0.039 A 
ATOM      3  C2  UNL d   1       3.104   5.387  -4.079  0.00  0.00    -0.080 A 
ATOM      4  C3  UNL d   1       4.177   5.047  -4.898  0.00  0.00     0.150 A 
ATOM      5  C4  UNL d   1       4.468   3.716  -5.177  0.00  0.00    -0.007 A 
ATOM      6  C5  UNL d   1       3.678   2.707  -4.627  0.00  0.00     0.039 A 
ENDROOT
BRANCH   4   7
ATOM      7  O   UNL d   1       4.979   6.000  -5.453  0.00  0.00    -0.526 OA
ATOM      8  H5  UNL d   1       4.676   6.872  -5.150  0.00  0.00     0.418 HD
ENDBRANCH   4   7
TORSDOF 1
ENDMDL
