MODEL 1
REMARK minimizedAffinity 4.77323866
REMARK minimizedRMSD -1
REMARK  1 active torsions:
REMARK  status: ('A' for Active; 'I' for Inactive)
REMARK    1  A    between atoms: C3_4  and  O_7 
ROOT
ATOM      1  C   UNL d   1      -3.508  -2.703  -0.244  0.00  0.00    -0.033 A 
ATOM      2  C1  UNL d   1      -2.975  -3.796  -0.930  0.00  0.00     0.039 A 
ATOM      3  C2  UNL d   1      -2.632  -3.677  -2.278  0.00  0.00    -0.080 A 
ATOM      4  C3  UNL d   1      -2.826  -2.461  -2.928  0.00  0.00     0.150 A 
ATOM      5  C4  UNL d   1      -3.353  -1.367  -2.249  0.00  0.00    -0.007 A 
ATOM      6  C5  UNL d   1      -3.696  -1.488  -0.903  0.00  0.00     0.039 A 
ENDROOT
BRANCH   4   7
ATOM      7  O   UNL d   1      -2.512  -2.298  -4.244  0.00  0.00    -0.526 OA
ATOM      8  H5  UNL d   1      -2.185  -3.146  -4.589  0.00  0.00     0.418 HD
ENDBRANCH   4   7
TORSDOF 1
ENDMDL
