MODEL 1
REMARK minimizedAffinity 0.160647884
REMARK minimizedRMSD -1
REMARK  1 active torsions:
REMARK  status: ('A' for Active; 'I' for Inactive)
REMARK    1  A    between atoms: C3_4  and  O_7 
ROOT
ATOM      1  C   UNL d   1      -2.714   1.467   2.683  0.00  0.00    -0.033 A 
ATOM      2  C1  UNL d   1      -1.689   2.399   2.507  0.00  0.00     0.039 A 
ATOM      3  C2  UNL d   1      -0.357   1.982   2.509  0.00  0.00    -0.080 A 
ATOM      4  C3  UNL d   1      -0.063   0.633   2.687  0.00  0.00     0.150 A 
ATOM      5  C4  UNL d   1      -1.079  -0.301   2.859  0.00  0.00    -0.007 A 
ATOM      6  C5  UNL d   1      -2.409   0.117   2.857  0.00  0.00     0.039 A 
ENDROOT
BRANCH   4   7
ATOM      7  O   UNL d   1       1.222   0.179   2.701  0.00  0.00    -0.526 OA
ATOM      8  H5  UNL d   1       1.818   0.940   2.600  0.00  0.00     0.418 HD
ENDBRANCH   4   7
TORSDOF 1
ENDMDL
