MODEL 1
REMARK minimizedAffinity 1.5199995
REMARK minimizedRMSD -1
REMARK  1 active torsions:
REMARK  status: ('A' for Active; 'I' for Inactive)
REMARK    1  A    between atoms: C3_4  and  O_7 
ROOT
ATOM      1  C   UNL d   1      -0.808   3.198   1.331  0.00  0.00    -0.033 A 
ATOM      2  C1  UNL d   1      -0.536   2.242   2.312  0.00  0.00     0.039 A 
ATOM      3  C2  UNL d   1      -1.544   1.831   3.187  0.00  0.00    -0.080 A 
ATOM      4  C3  UNL d   1      -2.817   2.382   3.070  0.00  0.00     0.150 A 
ATOM      5  C4  UNL d   1      -3.096   3.332   2.092  0.00  0.00    -0.007 A 
ATOM      6  C5  UNL d   1      -2.088   3.741   1.220  0.00  0.00     0.039 A 
ENDROOT
BRANCH   4   7
ATOM      7  O   UNL d   1      -3.831   2.016   3.904  0.00  0.00    -0.526 OA
ATOM      8  H5  UNL d   1      -3.485   1.374   4.546  0.00  0.00     0.418 HD
ENDBRANCH   4   7
TORSDOF 1
ENDMDL
