MODEL 1
REMARK minimizedAffinity 3.24853516
REMARK minimizedRMSD -1
REMARK  1 active torsions:
REMARK  status: ('A' for Active; 'I' for Inactive)
REMARK    1  A    between atoms: C3_4  and  O_7 
ROOT
ATOM      1  C   UNL d   1       5.577  -0.387   1.782  0.00  0.00    -0.033 A 
ATOM      2  C1  UNL d   1       4.226  -0.472   2.121  0.00  0.00     0.039 A 
ATOM      3  C2  UNL d   1       3.293  -0.908   1.178  0.00  0.00    -0.080 A 
ATOM      4  C3  UNL d   1       3.725  -1.257  -0.099  0.00  0.00     0.150 A 
ATOM      5  C4  UNL d   1       5.071  -1.179  -0.443  0.00  0.00    -0.007 A 
ATOM      6  C5  UNL d   1       6.000  -0.742   0.500  0.00  0.00     0.039 A 
ENDROOT
BRANCH   4   7
ATOM      7  O   UNL d   1       2.851  -1.684  -1.054  0.00  0.00    -0.526 OA
ATOM      8  H5  UNL d   1       1.954  -1.661  -0.683  0.00  0.00     0.418 HD
ENDBRANCH   4   7
TORSDOF 1
ENDMDL
