MODEL 1
REMARK minimizedAffinity -0.498356134
REMARK minimizedRMSD -1
REMARK  1 active torsions:
REMARK  status: ('A' for Active; 'I' for Inactive)
REMARK    1  A    between atoms: C3_4  and  O_7 
ROOT
ATOM      1  C   UNL d   1       2.834   0.601  -1.632  0.00  0.00    -0.033 A 
ATOM      2  C1  UNL d   1       3.784  -0.420  -1.711  0.00  0.00     0.039 A 
ATOM      3  C2  UNL d   1       4.395  -0.899  -0.551  0.00  0.00    -0.080 A 
ATOM      4  C3  UNL d   1       4.048  -0.350   0.681  0.00  0.00     0.150 A 
ATOM      5  C4  UNL d   1       3.100   0.664   0.767  0.00  0.00    -0.007 A 
ATOM      6  C5  UNL d   1       2.491   1.142  -0.392  0.00  0.00     0.039 A 
ENDROOT
BRANCH   4   7
ATOM      7  O   UNL d   1       4.621  -0.782   1.840  0.00  0.00    -0.526 OA
ATOM      8  H5  UNL d   1       5.277  -1.465   1.623  0.00  0.00     0.418 HD
ENDBRANCH   4   7
TORSDOF 1
ENDMDL
