MODEL 1
REMARK minimizedAffinity 2.85004926
REMARK minimizedRMSD -1
REMARK  1 active torsions:
REMARK  status: ('A' for Active; 'I' for Inactive)
REMARK    1  A    between atoms: C3_4  and  O_7 
ROOT
ATOM      1  C   UNL d   1      -1.540   1.601   2.267  0.00  0.00    -0.033 A 
ATOM      2  C1  UNL d   1      -2.337   0.559   2.745  0.00  0.00     0.039 A 
ATOM      3  C2  UNL d   1      -3.476   0.840   3.503  0.00  0.00    -0.080 A 
ATOM      4  C3  UNL d   1      -3.807   2.164   3.773  0.00  0.00     0.150 A 
ATOM      5  C4  UNL d   1      -3.020   3.208   3.297  0.00  0.00    -0.007 A 
ATOM      6  C5  UNL d   1      -1.882   2.926   2.542  0.00  0.00     0.039 A 
ENDROOT
BRANCH   4   7
ATOM      7  O   UNL d   1      -4.907   2.487   4.512  0.00  0.00    -0.526 OA
ATOM      8  H5  UNL d   1      -5.338   1.665   4.797  0.00  0.00     0.418 HD
ENDBRANCH   4   7
TORSDOF 1
ENDMDL
