MODEL 1
REMARK minimizedAffinity 12.333209
REMARK minimizedRMSD -1
REMARK  1 active torsions:
REMARK  status: ('A' for Active; 'I' for Inactive)
REMARK    1  A    between atoms: C1_2  and  C2_3 
ROOT
ATOM      1  C2  UNL d   1       1.734   2.502   1.570  0.00  0.00    -0.073 A 
ATOM      2  C3  UNL d   1       1.040   2.150   2.734  0.00  0.00    -0.002 A 
ATOM      3  C4  UNL d   1      -0.133   1.399   2.655  0.00  0.00     0.004 A 
ATOM      4  C5  UNL d   1      -0.621   0.987   1.414  0.00  0.00    -0.004 A 
ATOM      5  C6  UNL d   1       0.064   1.319   0.241  0.00  0.00    -0.075 A 
ATOM      6  C7  UNL d   1      -0.448   0.886  -1.101  0.00  0.00     0.076 C 
ATOM      7  C8  UNL d   1       1.241   2.076   0.329  0.00  0.00     0.001 A 
ENDROOT
BRANCH   1   8
ATOM      8  C1  UNL d   1       3.005   3.307   1.651  0.00  0.00     0.053 C 
ATOM      9  C   UNL d   1       3.759   3.054   2.947  0.00  0.00     0.018 C 
ENDBRANCH   1   8
TORSDOF 1
ENDMDL
