MODEL 1
REMARK minimizedAffinity 5.83227825
REMARK minimizedRMSD -1
REMARK  1 active torsions:
REMARK  status: ('A' for Active; 'I' for Inactive)
REMARK    1  A    between atoms: C1_2  and  C2_3 
ROOT
ATOM      1  C2  UNL d   1      -2.168   2.151   2.171  0.00  0.00    -0.073 A 
ATOM      2  C3  UNL d   1      -1.416   2.613   1.085  0.00  0.00    -0.002 A 
ATOM      3  C4  UNL d   1      -0.029   2.459   1.071  0.00  0.00     0.004 A 
ATOM      4  C5  UNL d   1       0.619   1.837   2.137  0.00  0.00    -0.004 A 
ATOM      5  C6  UNL d   1      -0.116   1.357   3.227  0.00  0.00    -0.075 A 
ATOM      6  C7  UNL d   1       0.566   0.687   4.383  0.00  0.00     0.076 C 
ATOM      7  C8  UNL d   1      -1.508   1.518   3.234  0.00  0.00     0.001 A 
ENDROOT
BRANCH   1   8
ATOM      8  C1  UNL d   1      -3.666   2.309   2.188  0.00  0.00     0.053 C 
ATOM      9  C   UNL d   1      -4.366   1.184   1.442  0.00  0.00     0.018 C 
ENDBRANCH   1   8
TORSDOF 1
ENDMDL
