MODEL 1
REMARK minimizedAffinity -2.07007647
REMARK minimizedRMSD -1
REMARK  1 active torsions:
REMARK  status: ('A' for Active; 'I' for Inactive)
REMARK    1  A    between atoms: C1_2  and  C2_3 
ROOT
ATOM      1  C2  UNL d   1       0.488  -1.652  -0.591  0.00  0.00    -0.073 A 
ATOM      2  C3  UNL d   1       1.615  -2.441  -0.335  0.00  0.00    -0.002 A 
ATOM      3  C4  UNL d   1       2.733  -1.890   0.293  0.00  0.00     0.004 A 
ATOM      4  C5  UNL d   1       2.733  -0.549   0.677  0.00  0.00    -0.004 A 
ATOM      5  C6  UNL d   1       1.611   0.253   0.441  0.00  0.00    -0.075 A 
ATOM      6  C7  UNL d   1       1.596   1.697   0.846  0.00  0.00     0.076 C 
ATOM      7  C8  UNL d   1       0.493  -0.307  -0.193  0.00  0.00     0.001 A 
ENDROOT
BRANCH   1   8
ATOM      8  C1  UNL d   1      -0.725  -2.244  -1.262  0.00  0.00     0.053 C 
ATOM      9  C   UNL d   1      -0.835  -3.741  -1.022  0.00  0.00     0.018 C 
ENDBRANCH   1   8
TORSDOF 1
ENDMDL
