MODEL 1
REMARK minimizedAffinity 3.65600467
REMARK minimizedRMSD -1
REMARK  1 active torsions:
REMARK  status: ('A' for Active; 'I' for Inactive)
REMARK    1  A    between atoms: C1_2  and  C2_3 
ROOT
ATOM      1  C2  UNL d   1       0.023   3.539   2.005  0.00  0.00    -0.073 A 
ATOM      2  C3  UNL d   1       0.023   2.908   3.255  0.00  0.00    -0.002 A 
ATOM      3  C4  UNL d   1       0.598   1.646   3.407  0.00  0.00     0.004 A 
ATOM      4  C5  UNL d   1       1.185   1.005   2.316  0.00  0.00    -0.004 A 
ATOM      5  C6  UNL d   1       1.206   1.625   1.062  0.00  0.00    -0.075 A 
ATOM      6  C7  UNL d   1       1.831   0.948  -0.122  0.00  0.00     0.076 C 
ATOM      7  C8  UNL d   1       0.624   2.891   0.916  0.00  0.00     0.001 A 
ENDROOT
BRANCH   1   8
ATOM      8  C1  UNL d   1      -0.591   4.905   1.837  0.00  0.00     0.053 C 
ATOM      9  C   UNL d   1       0.195   5.978   2.575  0.00  0.00     0.018 C 
ENDBRANCH   1   8
TORSDOF 1
ENDMDL
