MODEL 1
REMARK minimizedAffinity 8.929286
REMARK minimizedRMSD -1
REMARK  2 active torsions:
REMARK  status: ('A' for Active; 'I' for Inactive)
REMARK    1  A    between atoms: C1_2  and  C2_3 
REMARK    2  A    between atoms: C2_3  and  C3_4 
ROOT
ATOM      1  C3  UNL d   1       2.942   0.038   0.070  0.00  0.00    -0.075 A 
ATOM      2  C4  UNL d   1       2.942  -0.831   1.171  0.00  0.00     0.002 A 
ATOM      3  C5  UNL d   1       2.354  -2.093   1.077  0.00  0.00     0.002 A 
ATOM      4  C6  UNL d   1       1.751  -2.498  -0.111  0.00  0.00    -0.004 A 
ATOM      5  C7  UNL d   1       1.731  -1.636  -1.206  0.00  0.00     0.002 A 
ATOM      6  C8  UNL d   1       2.322  -0.375  -1.117  0.00  0.00     0.002 A 
ENDROOT
BRANCH   1   7
ATOM      7  C2  UNL d   1       3.602   1.393   0.155  0.00  0.00     0.056 C 
BRANCH   7   8
ATOM      8  C1  UNL d   1       3.414   2.258  -1.096  0.00  0.00     0.007 C 
ATOM      9  C   UNL d   1       4.455   1.988  -2.174  0.00  0.00     0.009 C 
ENDBRANCH   7   8
ENDBRANCH   1   7
TORSDOF 2
ENDMDL
