MODEL 1
REMARK minimizedAffinity 3.77131271
REMARK minimizedRMSD -1
REMARK  2 active torsions:
REMARK  status: ('A' for Active; 'I' for Inactive)
REMARK    1  A    between atoms: C1_2  and  C2_3 
REMARK    2  A    between atoms: C2_3  and  C3_4 
ROOT
ATOM      1  C3  UNL d   1       2.909  -0.101  -0.692  0.00  0.00    -0.075 A 
ATOM      2  C4  UNL d   1       3.153  -0.762  -1.904  0.00  0.00     0.002 A 
ATOM      3  C5  UNL d   1       3.878  -0.137  -2.919  0.00  0.00     0.002 A 
ATOM      4  C6  UNL d   1       4.358   1.159  -2.739  0.00  0.00    -0.004 A 
ATOM      5  C7  UNL d   1       4.107   1.832  -1.545  0.00  0.00     0.002 A 
ATOM      6  C8  UNL d   1       3.386   1.206  -0.526  0.00  0.00     0.002 A 
ENDROOT
BRANCH   1   7
ATOM      7  C2  UNL d   1       2.151  -0.783   0.422  0.00  0.00     0.056 C 
BRANCH   7   8
ATOM      8  C1  UNL d   1       2.339  -2.304   0.464  0.00  0.00     0.007 C 
ATOM      9  C   UNL d   1       1.103  -3.074   0.021  0.00  0.00     0.009 C 
ENDBRANCH   7   8
ENDBRANCH   1   7
TORSDOF 2
ENDMDL
