MODEL 1
REMARK minimizedAffinity 5.21410084
REMARK minimizedRMSD -1
REMARK  2 active torsions:
REMARK  status: ('A' for Active; 'I' for Inactive)
REMARK    1  A    between atoms: C1_2  and  C2_3 
REMARK    2  A    between atoms: C2_3  and  C3_4 
ROOT
ATOM      1  C3  UNL d   1       2.867   0.315  -0.540  0.00  0.00    -0.075 A 
ATOM      2  C4  UNL d   1       3.387  -0.129   0.684  0.00  0.00     0.002 A 
ATOM      3  C5  UNL d   1       3.104  -1.414   1.149  0.00  0.00     0.002 A 
ATOM      4  C6  UNL d   1       2.292  -2.265   0.403  0.00  0.00    -0.004 A 
ATOM      5  C7  UNL d   1       1.756  -1.828  -0.806  0.00  0.00     0.002 A 
ATOM      6  C8  UNL d   1       2.041  -0.545  -1.276  0.00  0.00     0.002 A 
ENDROOT
BRANCH   1   7
ATOM      7  C2  UNL d   1       3.193   1.694  -1.063  0.00  0.00     0.056 C 
BRANCH   7   8
ATOM      8  C1  UNL d   1       4.694   1.977  -1.181  0.00  0.00     0.007 C 
ATOM      9  C   UNL d   1       5.271   2.679   0.041  0.00  0.00     0.009 C 
ENDBRANCH   7   8
ENDBRANCH   1   7
TORSDOF 2
ENDMDL
