MODEL 1
REMARK minimizedAffinity 2.98394513
REMARK minimizedRMSD -1
REMARK  2 active torsions:
REMARK  status: ('A' for Active; 'I' for Inactive)
REMARK    1  A    between atoms: C1_2  and  C2_3 
REMARK    2  A    between atoms: C2_3  and  C3_4 
ROOT
ATOM      1  C3  UNL d   1      -4.649   2.127   0.385  0.00  0.00    -0.075 A 
ATOM      2  C4  UNL d   1      -3.704   1.836  -0.609  0.00  0.00     0.002 A 
ATOM      3  C5  UNL d   1      -3.913   0.781  -1.498  0.00  0.00     0.002 A 
ATOM      4  C6  UNL d   1      -5.061  -0.002  -1.397  0.00  0.00    -0.004 A 
ATOM      5  C7  UNL d   1      -5.999   0.268  -0.403  0.00  0.00     0.002 A 
ATOM      6  C8  UNL d   1      -5.795   1.326   0.485  0.00  0.00     0.002 A 
ENDROOT
BRANCH   1   7
ATOM      7  C2  UNL d   1      -4.444   3.286   1.331  0.00  0.00     0.056 C 
BRANCH   7   8
ATOM      8  C1  UNL d   1      -5.588   3.486   2.331  0.00  0.00     0.007 C 
ATOM      9  C   UNL d   1      -5.155   4.200   3.604  0.00  0.00     0.009 C 
ENDBRANCH   7   8
ENDBRANCH   1   7
TORSDOF 2
ENDMDL
