MODEL 1
REMARK minimizedAffinity 10.0190468
REMARK minimizedRMSD -1
REMARK  2 active torsions:
REMARK  status: ('A' for Active; 'I' for Inactive)
REMARK    1  A    between atoms: C1_2  and  C2_3 
REMARK    2  A    between atoms: C2_3  and  C3_4 
ROOT
ATOM      1  C3  UNL d   1      -4.852   0.902   0.538  0.00  0.00    -0.075 A 
ATOM      2  C4  UNL d   1      -3.711   0.346  -0.058  0.00  0.00     0.002 A 
ATOM      3  C5  UNL d   1      -3.713   0.007  -1.411  0.00  0.00     0.002 A 
ATOM      4  C6  UNL d   1      -4.855   0.209  -2.182  0.00  0.00    -0.004 A 
ATOM      5  C7  UNL d   1      -6.000   0.746  -1.597  0.00  0.00     0.002 A 
ATOM      6  C8  UNL d   1      -6.000   1.090  -0.244  0.00  0.00     0.002 A 
ENDROOT
BRANCH   1   7
ATOM      7  C2  UNL d   1      -4.848   1.299   1.995  0.00  0.00     0.056 C 
BRANCH   7   8
ATOM      8  C1  UNL d   1      -4.213   2.667   2.267  0.00  0.00     0.007 C 
ATOM      9  C   UNL d   1      -4.686   3.300   3.569  0.00  0.00     0.009 C 
ENDBRANCH   7   8
ENDBRANCH   1   7
TORSDOF 2
ENDMDL
