MODEL 1
REMARK minimizedAffinity 2.07828641
REMARK minimizedRMSD -1
REMARK  1 active torsions:
REMARK  status: ('A' for Active; 'I' for Inactive)
REMARK    1  A    between atoms: C1_2  and  C2_3 
ROOT
ATOM      1  C2  UNL d   1      -0.644   2.873  -1.702  0.00  0.00    -0.073 A 
ATOM      2  C3  UNL d   1      -0.717   1.881  -0.717  0.00  0.00    -0.002 A 
ATOM      3  C4  UNL d   1      -0.281   2.145   0.582  0.00  0.00     0.004 A 
ATOM      4  C5  UNL d   1       0.225   3.403   0.911  0.00  0.00    -0.004 A 
ATOM      5  C6  UNL d   1       0.295   4.410  -0.056  0.00  0.00    -0.075 A 
ATOM      6  C7  UNL d   1       0.838   5.768   0.281  0.00  0.00     0.076 C 
ATOM      7  C8  UNL d   1      -0.142   4.137  -1.360  0.00  0.00     0.001 A 
ENDROOT
BRANCH   1   8
ATOM      8  C1  UNL d   1      -1.119   2.594  -3.105  0.00  0.00     0.053 C 
ATOM      9  C   UNL d   1      -2.470   1.897  -3.121  0.00  0.00     0.018 C 
ENDBRANCH   1   8
TORSDOF 1
ENDMDL
