MODEL 1
REMARK minimizedAffinity 6.38160992
REMARK minimizedRMSD -1
REMARK  1 active torsions:
REMARK  status: ('A' for Active; 'I' for Inactive)
REMARK    1  A    between atoms: C1_2  and  C2_3 
ROOT
ATOM      1  C2  UNL d   1      -0.092   2.406   0.486  0.00  0.00    -0.073 A 
ATOM      2  C3  UNL d   1       0.799   2.667   1.533  0.00  0.00    -0.002 A 
ATOM      3  C4  UNL d   1       0.402   2.485   2.858  0.00  0.00     0.004 A 
ATOM      4  C5  UNL d   1      -0.886   2.035   3.149  0.00  0.00    -0.004 A 
ATOM      5  C6  UNL d   1      -1.787   1.758   2.116  0.00  0.00    -0.075 A 
ATOM      6  C7  UNL d   1      -3.176   1.275   2.413  0.00  0.00     0.076 C 
ATOM      7  C8  UNL d   1      -1.381   1.945   0.788  0.00  0.00     0.001 A 
ENDROOT
BRANCH   1   8
ATOM      8  C1  UNL d   1       0.335   2.594  -0.947  0.00  0.00     0.053 C 
ATOM      9  C   UNL d   1      -0.691   3.379  -1.749  0.00  0.00     0.018 C 
ENDBRANCH   1   8
TORSDOF 1
ENDMDL
