MODEL 1
REMARK minimizedAffinity 9.62580299
REMARK minimizedRMSD -1
REMARK  1 active torsions:
REMARK  status: ('A' for Active; 'I' for Inactive)
REMARK    1  A    between atoms: C1_2  and  C2_3 
ROOT
ATOM      1  C2  UNL d   1      -0.160   3.844  -1.937  0.00  0.00    -0.073 A 
ATOM      2  C3  UNL d   1       0.768   4.744  -1.401  0.00  0.00    -0.002 A 
ATOM      3  C4  UNL d   1       1.282   4.546  -0.119  0.00  0.00     0.004 A 
ATOM      4  C5  UNL d   1       0.879   3.445   0.637  0.00  0.00    -0.004 A 
ATOM      5  C6  UNL d   1      -0.038   2.528   0.114  0.00  0.00    -0.075 A 
ATOM      6  C7  UNL d   1      -0.483   1.340   0.915  0.00  0.00     0.076 C 
ATOM      7  C8  UNL d   1      -0.552   2.735  -1.173  0.00  0.00     0.001 A 
ENDROOT
BRANCH   1   8
ATOM      8  C1  UNL d   1      -0.713   4.050  -3.324  0.00  0.00     0.053 C 
ATOM      9  C   UNL d   1      -1.765   3.010  -3.678  0.00  0.00     0.018 C 
ENDBRANCH   1   8
TORSDOF 1
ENDMDL
