MODEL 1
REMARK minimizedAffinity 3.2210021
REMARK minimizedRMSD -1
REMARK  1 active torsions:
REMARK  status: ('A' for Active; 'I' for Inactive)
REMARK    1  A    between atoms: C1_2  and  C2_3 
ROOT
ATOM      1  C2  UNL d   1      -2.163   4.777   0.584  0.00  0.00    -0.073 A 
ATOM      2  C3  UNL d   1      -2.388   3.547   1.213  0.00  0.00    -0.002 A 
ATOM      3  C4  UNL d   1      -1.464   2.510   1.083  0.00  0.00     0.004 A 
ATOM      4  C5  UNL d   1      -0.304   2.693   0.330  0.00  0.00    -0.004 A 
ATOM      5  C6  UNL d   1      -0.056   3.919  -0.297  0.00  0.00    -0.075 A 
ATOM      6  C7  UNL d   1       1.185   4.131  -1.112  0.00  0.00     0.076 C 
ATOM      7  C8  UNL d   1      -0.990   4.955  -0.164  0.00  0.00     0.001 A 
ENDROOT
BRANCH   1   8
ATOM      8  C1  UNL d   1      -3.156   5.902   0.726  0.00  0.00     0.053 C 
ATOM      9  C   UNL d   1      -4.554   5.393   1.039  0.00  0.00     0.018 C 
ENDBRANCH   1   8
TORSDOF 1
ENDMDL
