MODEL 1
REMARK minimizedAffinity 11.680932
REMARK minimizedRMSD -1
REMARK  1 active torsions:
REMARK  status: ('A' for Active; 'I' for Inactive)
REMARK    1  A    between atoms: C1_2  and  C2_3 
ROOT
ATOM      1  C2  UNL d   1      -2.890   5.626   0.780  0.00  0.00    -0.073 A 
ATOM      2  C3  UNL d   1      -3.764   5.738  -0.307  0.00  0.00    -0.002 A 
ATOM      3  C4  UNL d   1      -5.132   5.920  -0.097  0.00  0.00     0.004 A 
ATOM      4  C5  UNL d   1      -5.638   5.999   1.201  0.00  0.00    -0.004 A 
ATOM      5  C6  UNL d   1      -4.779   5.901   2.300  0.00  0.00    -0.075 A 
ATOM      6  C7  UNL d   1      -5.308   5.981   3.702  0.00  0.00     0.076 C 
ATOM      7  C8  UNL d   1      -3.407   5.716   2.080  0.00  0.00     0.001 A 
ENDROOT
BRANCH   1   8
ATOM      8  C1  UNL d   1      -1.412   5.436   0.558  0.00  0.00     0.053 C 
ATOM      9  C   UNL d   1      -1.082   4.027   0.091  0.00  0.00     0.018 C 
ENDBRANCH   1   8
TORSDOF 1
ENDMDL
