MODEL 1
REMARK minimizedAffinity 4.91189766
REMARK minimizedRMSD -1
REMARK  1 active torsions:
REMARK  status: ('A' for Active; 'I' for Inactive)
REMARK    1  A    between atoms: C1_2  and  C2_3 
ROOT
ATOM      1  C2  UNL d   1      -1.253   0.358   2.455  0.00  0.00    -0.073 A 
ATOM      2  C3  UNL d   1       0.040  -0.053   2.116  0.00  0.00    -0.002 A 
ATOM      3  C4  UNL d   1       0.554  -1.249   2.619  0.00  0.00     0.004 A 
ATOM      4  C5  UNL d   1      -0.221  -2.047   3.461  0.00  0.00    -0.004 A 
ATOM      5  C6  UNL d   1      -1.520  -1.659   3.802  0.00  0.00    -0.075 A 
ATOM      6  C7  UNL d   1      -2.366  -2.505   4.708  0.00  0.00     0.076 C 
ATOM      7  C8  UNL d   1      -2.028  -0.455   3.294  0.00  0.00     0.001 A 
ENDROOT
BRANCH   1   8
ATOM      8  C1  UNL d   1      -1.815   1.645   1.909  0.00  0.00     0.053 C 
ATOM      9  C   UNL d   1      -0.720   2.620   1.505  0.00  0.00     0.018 C 
ENDBRANCH   1   8
TORSDOF 1
ENDMDL
