MODEL 1
REMARK minimizedAffinity -5.54198694
REMARK minimizedRMSD -1
REMARK  1 active torsions:
REMARK  status: ('A' for Active; 'I' for Inactive)
REMARK    1  A    between atoms: C1_2  and  C2_3 
ROOT
ATOM      1  C2  UNL d   1       0.068   3.501   0.690  0.00  0.00    -0.073 A 
ATOM      2  C3  UNL d   1       0.980   3.850   1.693  0.00  0.00    -0.002 A 
ATOM      3  C4  UNL d   1       0.925   3.228   2.942  0.00  0.00     0.004 A 
ATOM      4  C5  UNL d   1      -0.034   2.249   3.197  0.00  0.00    -0.004 A 
ATOM      5  C6  UNL d   1      -0.946   1.879   2.204  0.00  0.00    -0.075 A 
ATOM      6  C7  UNL d   1      -1.986   0.829   2.464  0.00  0.00     0.076 C 
ATOM      7  C8  UNL d   1      -0.887   2.509   0.954  0.00  0.00     0.001 A 
ENDROOT
BRANCH   1   8
ATOM      8  C1  UNL d   1       0.127   4.165  -0.661  0.00  0.00     0.053 C 
ATOM      9  C   UNL d   1       0.737   5.556  -0.588  0.00  0.00     0.018 C 
ENDBRANCH   1   8
TORSDOF 1
ENDMDL
