MODEL 1
REMARK minimizedAffinity 15.7307291
REMARK minimizedRMSD -1
REMARK  1 active torsions:
REMARK  status: ('A' for Active; 'I' for Inactive)
REMARK    1  A    between atoms: C1_2  and  C2_3 
ROOT
ATOM      1  C2  UNL d   1      -1.662   5.082   0.245  0.00  0.00    -0.073 A 
ATOM      2  C3  UNL d   1      -0.983   5.401  -0.936  0.00  0.00    -0.002 A 
ATOM      3  C4  UNL d   1      -0.000   4.547  -1.437  0.00  0.00     0.004 A 
ATOM      4  C5  UNL d   1       0.309   3.363  -0.768  0.00  0.00    -0.004 A 
ATOM      5  C6  UNL d   1      -0.367   3.021   0.408  0.00  0.00    -0.075 A 
ATOM      6  C7  UNL d   1      -0.045   1.752   1.141  0.00  0.00     0.076 C 
ATOM      7  C8  UNL d   1      -1.351   3.885   0.906  0.00  0.00     0.001 A 
ENDROOT
BRANCH   1   8
ATOM      8  C1  UNL d   1      -2.728   5.998   0.787  0.00  0.00     0.053 C 
ATOM      9  C   UNL d   1      -3.807   5.235   1.540  0.00  0.00     0.018 C 
ENDBRANCH   1   8
TORSDOF 1
ENDMDL
