MODEL 1
REMARK minimizedAffinity 0.712265551
REMARK minimizedRMSD -1
REMARK  1 active torsions:
REMARK  status: ('A' for Active; 'I' for Inactive)
REMARK    1  A    between atoms: C1_2  and  C2_3 
ROOT
ATOM      1  C2  UNL d   1      -0.704   1.061   2.509  0.00  0.00    -0.073 A 
ATOM      2  C3  UNL d   1      -0.348   2.058   3.425  0.00  0.00    -0.002 A 
ATOM      3  C4  UNL d   1       0.256   3.236   2.985  0.00  0.00     0.004 A 
ATOM      4  C5  UNL d   1       0.503   3.434   1.627  0.00  0.00    -0.004 A 
ATOM      5  C6  UNL d   1       0.144   2.455   0.695  0.00  0.00    -0.075 A 
ATOM      6  C7  UNL d   1       0.406   2.651  -0.770  0.00  0.00     0.076 C 
ATOM      7  C8  UNL d   1      -0.459   1.272   1.145  0.00  0.00     0.001 A 
ENDROOT
BRANCH   1   8
ATOM      8  C1  UNL d   1      -1.361  -0.211   2.979  0.00  0.00     0.053 C 
ATOM      9  C   UNL d   1      -0.343  -1.284   3.328  0.00  0.00     0.018 C 
ENDBRANCH   1   8
TORSDOF 1
ENDMDL
