MODEL 1
REMARK minimizedAffinity -0.819455922
REMARK minimizedRMSD -1
REMARK  1 active torsions:
REMARK  status: ('A' for Active; 'I' for Inactive)
REMARK    1  A    between atoms: C1_2  and  C2_3 
ROOT
ATOM      1  C2  UNL d   1      -0.483   2.286   1.176  0.00  0.00    -0.073 A 
ATOM      2  C3  UNL d   1       0.197   3.443   1.572  0.00  0.00    -0.002 A 
ATOM      3  C4  UNL d   1       0.580   4.394   0.625  0.00  0.00     0.004 A 
ATOM      4  C5  UNL d   1       0.280   4.202  -0.723  0.00  0.00    -0.004 A 
ATOM      5  C6  UNL d   1      -0.409   3.058  -1.137  0.00  0.00    -0.075 A 
ATOM      6  C7  UNL d   1      -0.737   2.836  -2.584  0.00  0.00     0.076 C 
ATOM      7  C8  UNL d   1      -0.787   2.106  -0.181  0.00  0.00     0.001 A 
ENDROOT
BRANCH   1   8
ATOM      8  C1  UNL d   1      -0.904   1.259   2.195  0.00  0.00     0.053 C 
ATOM      9  C   UNL d   1      -0.507   1.661   3.607  0.00  0.00     0.018 C 
ENDBRANCH   1   8
TORSDOF 1
ENDMDL
