MODEL 1
REMARK minimizedAffinity -1.6122632
REMARK minimizedRMSD -1
REMARK  1 active torsions:
REMARK  status: ('A' for Active; 'I' for Inactive)
REMARK    1  A    between atoms: C1_2  and  C2_3 
ROOT
ATOM      1  C2  UNL d   1      -0.805   2.192   1.817  0.00  0.00    -0.073 A 
ATOM      2  C3  UNL d   1      -1.002   2.115   0.434  0.00  0.00    -0.002 A 
ATOM      3  C4  UNL d   1      -0.296   2.956  -0.427  0.00  0.00     0.004 A 
ATOM      4  C5  UNL d   1       0.619   3.876   0.085  0.00  0.00    -0.004 A 
ATOM      5  C6  UNL d   1       0.840   3.959   1.463  0.00  0.00    -0.075 A 
ATOM      6  C7  UNL d   1       1.819   4.945   2.030  0.00  0.00     0.076 C 
ATOM      7  C8  UNL d   1       0.124   3.113   2.321  0.00  0.00     0.001 A 
ENDROOT
BRANCH   1   8
ATOM      8  C1  UNL d   1      -1.560   1.281   2.750  0.00  0.00     0.053 C 
ATOM      9  C   UNL d   1      -3.001   1.079   2.306  0.00  0.00     0.018 C 
ENDBRANCH   1   8
TORSDOF 1
ENDMDL
