MODEL 1
REMARK minimizedAffinity -0.619936585
REMARK minimizedRMSD -1
REMARK  1 active torsions:
REMARK  status: ('A' for Active; 'I' for Inactive)
REMARK    1  A    between atoms: C1_2  and  C2_3 
ROOT
ATOM      1  C2  UNL d   1      -0.925   1.112   2.120  0.00  0.00    -0.073 A 
ATOM      2  C3  UNL d   1      -0.564   2.052   3.093  0.00  0.00    -0.002 A 
ATOM      3  C4  UNL d   1       0.011   3.267   2.720  0.00  0.00     0.004 A 
ATOM      4  C5  UNL d   1       0.225   3.559   1.373  0.00  0.00    -0.004 A 
ATOM      5  C6  UNL d   1      -0.139   2.638   0.386  0.00  0.00    -0.075 A 
ATOM      6  C7  UNL d   1       0.086   2.936  -1.068  0.00  0.00     0.076 C 
ATOM      7  C8  UNL d   1      -0.714   1.419   0.768  0.00  0.00     0.001 A 
ENDROOT
BRANCH   1   8
ATOM      8  C1  UNL d   1      -1.552  -0.199   2.517  0.00  0.00     0.053 C 
ATOM      9  C   UNL d   1      -0.584  -1.084   3.286  0.00  0.00     0.018 C 
ENDBRANCH   1   8
TORSDOF 1
ENDMDL
