MODEL 1
REMARK minimizedAffinity 5.6799202
REMARK minimizedRMSD -1
REMARK  1 active torsions:
REMARK  status: ('A' for Active; 'I' for Inactive)
REMARK    1  A    between atoms: C1_2  and  C2_3 
ROOT
ATOM      1  C2  UNL d   1       1.172   2.947  -0.809  0.00  0.00    -0.073 A 
ATOM      2  C3  UNL d   1       1.362   2.891   0.576  0.00  0.00    -0.002 A 
ATOM      3  C4  UNL d   1       1.514   1.661   1.218  0.00  0.00     0.004 A 
ATOM      4  C5  UNL d   1       1.485   0.477   0.482  0.00  0.00    -0.004 A 
ATOM      5  C6  UNL d   1       1.308   0.513  -0.905  0.00  0.00    -0.075 A 
ATOM      6  C7  UNL d   1       1.272  -0.752  -1.712  0.00  0.00     0.076 C 
ATOM      7  C8  UNL d   1       1.153   1.752  -1.542  0.00  0.00     0.001 A 
ENDROOT
BRANCH   1   8
ATOM      8  C1  UNL d   1       1.014   4.273  -1.507  0.00  0.00     0.053 C 
ATOM      9  C   UNL d   1       1.603   5.418  -0.697  0.00  0.00     0.018 C 
ENDBRANCH   1   8
TORSDOF 1
ENDMDL
