MODEL 1
REMARK minimizedAffinity 0.512269258
REMARK minimizedRMSD -1
REMARK  1 active torsions:
REMARK  status: ('A' for Active; 'I' for Inactive)
REMARK    1  A    between atoms: C1_2  and  C2_3 
ROOT
ATOM      1  C2  UNL d   1       1.436  -0.915  -1.129  0.00  0.00    -0.073 A 
ATOM      2  C3  UNL d   1       1.647  -0.327  -2.381  0.00  0.00    -0.002 A 
ATOM      3  C4  UNL d   1       1.685   1.061  -2.511  0.00  0.00     0.004 A 
ATOM      4  C5  UNL d   1       1.521   1.876  -1.390  0.00  0.00    -0.004 A 
ATOM      5  C6  UNL d   1       1.321   1.307  -0.128  0.00  0.00    -0.075 A 
ATOM      6  C7  UNL d   1       1.140   2.169   1.087  0.00  0.00     0.076 C 
ATOM      7  C8  UNL d   1       1.281  -0.089  -0.007  0.00  0.00     0.001 A 
ENDROOT
BRANCH   1   8
ATOM      8  C1  UNL d   1       1.400  -2.415  -0.984  0.00  0.00     0.053 C 
ATOM      9  C   UNL d   1      -0.013  -2.965  -1.104  0.00  0.00     0.018 C 
ENDBRANCH   1   8
TORSDOF 1
ENDMDL
