MODEL 1
REMARK minimizedAffinity -0.722301364
REMARK minimizedRMSD -1
REMARK  1 active torsions:
REMARK  status: ('A' for Active; 'I' for Inactive)
REMARK    1  A    between atoms: C1_2  and  C2_3 
ROOT
ATOM      1  C2  UNL d   1       2.701   1.730  -0.170  0.00  0.00    -0.073 A 
ATOM      2  C3  UNL d   1       2.517   3.067  -0.541  0.00  0.00    -0.002 A 
ATOM      3  C4  UNL d   1       1.819   3.385  -1.707  0.00  0.00     0.004 A 
ATOM      4  C5  UNL d   1       1.292   2.372  -2.508  0.00  0.00    -0.004 A 
ATOM      5  C6  UNL d   1       1.455   1.031  -2.147  0.00  0.00    -0.075 A 
ATOM      6  C7  UNL d   1       0.897  -0.071  -2.999  0.00  0.00     0.076 C 
ATOM      7  C8  UNL d   1       2.160   0.719  -0.977  0.00  0.00     0.001 A 
ENDROOT
BRANCH   1   8
ATOM      8  C1  UNL d   1       3.449   1.382   1.091  0.00  0.00     0.053 C 
ATOM      9  C   UNL d   1       4.890   1.865   1.051  0.00  0.00     0.018 C 
ENDBRANCH   1   8
TORSDOF 1
ENDMDL
