MODEL 1
REMARK minimizedAffinity -2.42035079
REMARK minimizedRMSD -1
REMARK  1 active torsions:
REMARK  status: ('A' for Active; 'I' for Inactive)
REMARK    1  A    between atoms: C1_2  and  C2_3 
ROOT
ATOM      1  C2  UNL d   1       1.088   1.695  -0.757  0.00  0.00    -0.073 A 
ATOM      2  C3  UNL d   1       1.178   1.311   0.585  0.00  0.00    -0.002 A 
ATOM      3  C4  UNL d   1       1.372   2.269   1.581  0.00  0.00     0.004 A 
ATOM      4  C5  UNL d   1       1.471   3.619   1.246  0.00  0.00    -0.004 A 
ATOM      5  C6  UNL d   1       1.372   4.024  -0.088  0.00  0.00    -0.075 A 
ATOM      6  C7  UNL d   1       1.478   5.473  -0.465  0.00  0.00     0.076 C 
ATOM      7  C8  UNL d   1       1.179   3.056  -1.083  0.00  0.00     0.001 A 
ENDROOT
BRANCH   1   8
ATOM      8  C1  UNL d   1       0.872   0.665  -1.836  0.00  0.00     0.053 C 
ATOM      9  C   UNL d   1       1.094  -0.750  -1.325  0.00  0.00     0.018 C 
ENDBRANCH   1   8
TORSDOF 1
ENDMDL
