MODEL 1
REMARK minimizedAffinity 1.392012
REMARK minimizedRMSD -1
REMARK  1 active torsions:
REMARK  status: ('A' for Active; 'I' for Inactive)
REMARK    1  A    between atoms: C1_2  and  C2_3 
ROOT
ATOM      1  C2  UNL d   1       1.111   2.384   0.114  0.00  0.00    -0.073 A 
ATOM      2  C3  UNL d   1       1.338   2.411  -1.267  0.00  0.00    -0.002 A 
ATOM      3  C4  UNL d   1       1.412   1.221  -1.992  0.00  0.00     0.004 A 
ATOM      4  C5  UNL d   1       1.253  -0.005  -1.347  0.00  0.00    -0.004 A 
ATOM      5  C6  UNL d   1       1.014  -0.052   0.030  0.00  0.00    -0.075 A 
ATOM      6  C7  UNL d   1       0.844  -1.364   0.740  0.00  0.00     0.076 C 
ATOM      7  C8  UNL d   1       0.944   1.147   0.752  0.00  0.00     0.001 A 
ENDROOT
BRANCH   1   8
ATOM      8  C1  UNL d   1       1.024   3.667   0.901  0.00  0.00     0.053 C 
ATOM      9  C   UNL d   1       1.314   4.885   0.038  0.00  0.00     0.018 C 
ENDBRANCH   1   8
TORSDOF 1
ENDMDL
