MODEL 1
REMARK minimizedAffinity 3.22768879
REMARK minimizedRMSD -1
REMARK  1 active torsions:
REMARK  status: ('A' for Active; 'I' for Inactive)
REMARK    1  A    between atoms: C1_2  and  C2_3 
ROOT
ATOM      1  C2  UNL d   1       0.791   2.151  -1.093  0.00  0.00    -0.073 A 
ATOM      2  C3  UNL d   1       1.047   2.478   0.243  0.00  0.00    -0.002 A 
ATOM      3  C4  UNL d   1       1.369   1.481   1.164  0.00  0.00     0.004 A 
ATOM      4  C5  UNL d   1       1.446   0.149   0.759  0.00  0.00    -0.004 A 
ATOM      5  C6  UNL d   1       1.206  -0.197  -0.575  0.00  0.00    -0.075 A 
ATOM      6  C7  UNL d   1       1.282  -1.626  -1.027  0.00  0.00     0.076 C 
ATOM      7  C8  UNL d   1       0.880   0.810  -1.493  0.00  0.00     0.001 A 
ENDROOT
BRANCH   1   8
ATOM      8  C1  UNL d   1       0.448   3.225  -2.093  0.00  0.00     0.053 C 
ATOM      9  C   UNL d   1       1.075   4.562  -1.730  0.00  0.00     0.018 C 
ENDBRANCH   1   8
TORSDOF 1
ENDMDL
