MODEL 1
REMARK minimizedAffinity 7.75267363
REMARK minimizedRMSD -1
REMARK  1 active torsions:
REMARK  status: ('A' for Active; 'I' for Inactive)
REMARK    1  A    between atoms: C1_2  and  C2_3 
ROOT
ATOM      1  C2  UNL d   1       0.807   1.716  -0.983  0.00  0.00    -0.073 A 
ATOM      2  C3  UNL d   1       0.478   0.599  -1.760  0.00  0.00    -0.002 A 
ATOM      3  C4  UNL d   1       0.881  -0.677  -1.366  0.00  0.00     0.004 A 
ATOM      4  C5  UNL d   1       1.610  -0.851  -0.190  0.00  0.00    -0.004 A 
ATOM      5  C6  UNL d   1       1.939   0.251   0.606  0.00  0.00    -0.075 A 
ATOM      6  C7  UNL d   1       2.725   0.081   1.873  0.00  0.00     0.076 C 
ATOM      7  C8  UNL d   1       1.533   1.530   0.202  0.00  0.00     0.001 A 
ENDROOT
BRANCH   1   8
ATOM      8  C1  UNL d   1       0.368   3.095  -1.401  0.00  0.00     0.053 C 
ATOM      9  C   UNL d   1       0.354   3.255  -2.913  0.00  0.00     0.018 C 
ENDBRANCH   1   8
TORSDOF 1
ENDMDL
