MODEL 1
REMARK minimizedAffinity 2.59041166
REMARK minimizedRMSD -1
REMARK  1 active torsions:
REMARK  status: ('A' for Active; 'I' for Inactive)
REMARK    1  A    between atoms: C1_2  and  C2_3 
ROOT
ATOM      1  C2  UNL d   1       2.043   0.231  -0.555  0.00  0.00    -0.073 A 
ATOM      2  C3  UNL d   1       2.026   0.599  -1.905  0.00  0.00    -0.002 A 
ATOM      3  C4  UNL d   1       1.598   1.871  -2.284  0.00  0.00     0.004 A 
ATOM      4  C5  UNL d   1       1.189   2.791  -1.318  0.00  0.00    -0.004 A 
ATOM      5  C6  UNL d   1       1.210   2.447   0.037  0.00  0.00    -0.075 A 
ATOM      6  C7  UNL d   1       0.771   3.423   1.088  0.00  0.00     0.076 C 
ATOM      7  C8  UNL d   1       1.638   1.165   0.409  0.00  0.00     0.001 A 
ENDROOT
BRANCH   1   8
ATOM      8  C1  UNL d   1       2.510  -1.140  -0.141  0.00  0.00     0.053 C 
ATOM      9  C   UNL d   1       3.968  -1.139   0.290  0.00  0.00     0.018 C 
ENDBRANCH   1   8
TORSDOF 1
ENDMDL
