MODEL 1
REMARK minimizedAffinity 8.38398838
REMARK minimizedRMSD -1
REMARK  1 active torsions:
REMARK  status: ('A' for Active; 'I' for Inactive)
REMARK    1  A    between atoms: C1_2  and  C2_3 
ROOT
ATOM      1  C2  UNL d   1       1.664   0.384  -0.789  0.00  0.00    -0.073 A 
ATOM      2  C3  UNL d   1       0.786  -0.050  -1.789  0.00  0.00    -0.002 A 
ATOM      3  C4  UNL d   1       0.127   0.875  -2.599  0.00  0.00     0.004 A 
ATOM      4  C5  UNL d   1       0.342   2.242  -2.422  0.00  0.00    -0.004 A 
ATOM      5  C6  UNL d   1       1.224   2.695  -1.435  0.00  0.00    -0.075 A 
ATOM      6  C7  UNL d   1       1.465   4.162  -1.231  0.00  0.00     0.076 C 
ATOM      7  C8  UNL d   1       1.881   1.759  -0.625  0.00  0.00     0.001 A 
ENDROOT
BRANCH   1   8
ATOM      8  C1  UNL d   1       2.383  -0.612   0.083  0.00  0.00     0.053 C 
ATOM      9  C   UNL d   1       3.834  -0.222   0.317  0.00  0.00     0.018 C 
ENDBRANCH   1   8
TORSDOF 1
ENDMDL
