MODEL 1
REMARK minimizedAffinity 1.42789829
REMARK minimizedRMSD -1
REMARK  1 active torsions:
REMARK  status: ('A' for Active; 'I' for Inactive)
REMARK    1  A    between atoms: C1_2  and  C2_3 
ROOT
ATOM      1  C2  UNL d   1       1.123   1.379  -0.419  0.00  0.00    -0.073 A 
ATOM      2  C3  UNL d   1       1.191   1.342  -1.817  0.00  0.00    -0.002 A 
ATOM      3  C4  UNL d   1       1.249   2.526  -2.552  0.00  0.00     0.004 A 
ATOM      4  C5  UNL d   1       1.246   3.759  -1.899  0.00  0.00    -0.004 A 
ATOM      5  C6  UNL d   1       1.190   3.817  -0.502  0.00  0.00    -0.075 A 
ATOM      6  C7  UNL d   1       1.184   5.134   0.216  0.00  0.00     0.076 C 
ATOM      7  C8  UNL d   1       1.130   2.623   0.229  0.00  0.00     0.001 A 
ENDROOT
BRANCH   1   8
ATOM      8  C1  UNL d   1       1.068   0.102   0.379  0.00  0.00     0.053 C 
ATOM      9  C   UNL d   1       0.670  -1.089  -0.478  0.00  0.00     0.018 C 
ENDBRANCH   1   8
TORSDOF 1
ENDMDL
