MODEL 1
REMARK minimizedAffinity 18.5990086
REMARK minimizedRMSD -1
REMARK  0 active torsions:
REMARK  status: ('A' for Active; 'I' for Inactive)
ROOT
ATOM      1  C   UNL d   1      -5.446  -2.092  -1.234  0.00  0.00     0.124 A 
ATOM      2  C1  UNL d   1      -5.164  -3.426  -1.492  0.00  0.00     0.062 A 
ATOM      3  C2  UNL d   1      -5.162  -3.901  -2.800  0.00  0.00     0.162 A 
ATOM      4  C3  UNL d   1      -5.442  -3.041  -3.862  0.00  0.00    -0.034 A 
ATOM      5  C4  UNL d   1      -5.726  -1.700  -3.595  0.00  0.00     0.162 A 
ATOM      6  C5  UNL d   1      -5.727  -1.230  -2.286  0.00  0.00     0.062 A 
ATOM      7  F   UNL d   1      -6.000   0.059  -2.039  0.00  0.00    -0.097 F 
ATOM      8  F1  UNL d   1      -6.000  -0.846  -4.592  0.00  0.00    -0.096 F 
ATOM      9  I   UNL d   1      -5.440  -3.747  -5.819  0.00  0.00    -0.060 I 
ATOM     10  F2  UNL d   1      -4.886  -5.195  -3.020  0.00  0.00    -0.096 F 
ATOM     11  F3  UNL d   1      -4.894  -4.260  -0.478  0.00  0.00    -0.097 F 
ATOM     12  F4  UNL d   1      -5.449  -1.637   0.025  0.00  0.00    -0.092 F 
ENDROOT
TORSDOF 0
ENDMDL
