MODEL 1
REMARK minimizedAffinity 19.7953167
REMARK minimizedRMSD -1
REMARK  0 active torsions:
REMARK  status: ('A' for Active; 'I' for Inactive)
ROOT
ATOM      1  C   UNL d   1      -1.480   0.637   2.194  0.00  0.00     0.124 A 
ATOM      2  C1  UNL d   1      -2.019   1.032   0.977  0.00  0.00     0.062 A 
ATOM      3  C2  UNL d   1      -1.223   1.677   0.035  0.00  0.00     0.162 A 
ATOM      4  C3  UNL d   1       0.122   1.930   0.306  0.00  0.00    -0.034 A 
ATOM      5  C4  UNL d   1       0.657   1.531   1.532  0.00  0.00     0.162 A 
ATOM      6  C5  UNL d   1      -0.143   0.886   2.470  0.00  0.00     0.062 A 
ATOM      7  F   UNL d   1       0.379   0.505   3.645  0.00  0.00    -0.097 F 
ATOM      8  F1  UNL d   1       1.946   1.759   1.824  0.00  0.00    -0.096 F 
ATOM      9  I   UNL d   1       1.316   2.895  -1.100  0.00  0.00    -0.060 I 
ATOM     10  F2  UNL d   1      -1.770   2.048  -1.132  0.00  0.00    -0.096 F 
ATOM     11  F3  UNL d   1      -3.311   0.793   0.708  0.00  0.00    -0.097 F 
ATOM     12  F4  UNL d   1      -2.249   0.017   3.099  0.00  0.00    -0.092 F 
ENDROOT
TORSDOF 0
ENDMDL
