MODEL 1
REMARK minimizedAffinity 32.8491669
REMARK minimizedRMSD -1
REMARK  0 active torsions:
REMARK  status: ('A' for Active; 'I' for Inactive)
ROOT
ATOM      1  C   UNL d   1      -3.258  -0.644   0.228  0.00  0.00     0.124 A 
ATOM      2  C1  UNL d   1      -2.363   0.181  -0.440  0.00  0.00     0.062 A 
ATOM      3  C2  UNL d   1      -1.293   0.750   0.244  0.00  0.00     0.162 A 
ATOM      4  C3  UNL d   1      -1.110   0.496   1.603  0.00  0.00    -0.034 A 
ATOM      5  C4  UNL d   1      -2.015  -0.334   2.268  0.00  0.00     0.162 A 
ATOM      6  C5  UNL d   1      -3.083  -0.901   1.581  0.00  0.00     0.062 A 
ATOM      7  F   UNL d   1      -3.947  -1.697   2.227  0.00  0.00    -0.097 F 
ATOM      8  F1  UNL d   1      -1.869  -0.599   3.574  0.00  0.00    -0.096 F 
ATOM      9  I   UNL d   1       0.490   1.345   2.628  0.00  0.00    -0.060 I 
ATOM     10  F2  UNL d   1      -0.444   1.543  -0.427  0.00  0.00    -0.096 F 
ATOM     11  F3  UNL d   1      -2.531   0.430  -1.746  0.00  0.00    -0.097 F 
ATOM     12  F4  UNL d   1      -4.288  -1.190  -0.431  0.00  0.00    -0.092 F 
ENDROOT
TORSDOF 0
ENDMDL
