MODEL 1
REMARK minimizedAffinity 25.912859
REMARK minimizedRMSD -1
REMARK  0 active torsions:
REMARK  status: ('A' for Active; 'I' for Inactive)
ROOT
ATOM      1  C   UNL d   1      -5.278  -2.496  -0.822  0.00  0.00     0.124 A 
ATOM      2  C1  UNL d   1      -5.644  -1.547  -1.767  0.00  0.00     0.062 A 
ATOM      3  C2  UNL d   1      -5.641  -1.871  -3.120  0.00  0.00     0.162 A 
ATOM      4  C3  UNL d   1      -5.272  -3.150  -3.538  0.00  0.00    -0.034 A 
ATOM      5  C4  UNL d   1      -4.905  -4.098  -2.581  0.00  0.00     0.162 A 
ATOM      6  C5  UNL d   1      -4.909  -3.770  -1.230  0.00  0.00     0.062 A 
ATOM      7  F   UNL d   1      -4.556  -4.688  -0.318  0.00  0.00    -0.097 F 
ATOM      8  F1  UNL d   1      -4.545  -5.337  -2.948  0.00  0.00    -0.096 F 
ATOM      9  I   UNL d   1      -5.266  -3.637  -5.561  0.00  0.00    -0.060 I 
ATOM     10  F2  UNL d   1      -5.998  -0.934  -4.012  0.00  0.00    -0.096 F 
ATOM     11  F3  UNL d   1      -5.999  -0.315  -1.375  0.00  0.00    -0.097 F 
ATOM     12  F4  UNL d   1      -5.281  -2.182   0.480  0.00  0.00    -0.092 F 
ENDROOT
TORSDOF 0
ENDMDL
