MODEL 1
REMARK minimizedAffinity 16.5652008
REMARK minimizedRMSD -1
REMARK  0 active torsions:
REMARK  status: ('A' for Active; 'I' for Inactive)
ROOT
ATOM      1  C   UNL d   1      -2.492   2.134   1.976  0.00  0.00     0.124 A 
ATOM      2  C1  UNL d   1      -3.873   2.260   1.917  0.00  0.00     0.062 A 
ATOM      3  C2  UNL d   1      -4.667   1.147   1.652  0.00  0.00     0.162 A 
ATOM      4  C3  UNL d   1      -4.081  -0.102   1.445  0.00  0.00    -0.034 A 
ATOM      5  C4  UNL d   1      -2.692  -0.220   1.505  0.00  0.00     0.162 A 
ATOM      6  C5  UNL d   1      -1.903   0.894   1.770  0.00  0.00     0.062 A 
ATOM      7  F   UNL d   1      -0.569   0.771   1.826  0.00  0.00    -0.097 F 
ATOM      8  F1  UNL d   1      -2.096  -1.406   1.311  0.00  0.00    -0.096 F 
ATOM      9  I   UNL d   1      -5.265  -1.767   1.049  0.00  0.00    -0.060 I 
ATOM     10  F2  UNL d   1      -5.999   1.298   1.601  0.00  0.00    -0.096 F 
ATOM     11  F3  UNL d   1      -4.445   3.456   2.114  0.00  0.00    -0.097 F 
ATOM     12  F4  UNL d   1      -1.731   3.206   2.230  0.00  0.00    -0.092 F 
ENDROOT
TORSDOF 0
ENDMDL
