MODEL 1
REMARK minimizedAffinity 24.0586777
REMARK minimizedRMSD -1
REMARK  0 active torsions:
REMARK  status: ('A' for Active; 'I' for Inactive)
ROOT
ATOM      1  C   UNL d   1      -0.730   0.253   2.700  0.00  0.00     0.124 A 
ATOM      2  C1  UNL d   1      -1.179   0.798   1.505  0.00  0.00     0.062 A 
ATOM      3  C2  UNL d   1      -2.470   0.534   1.057  0.00  0.00     0.162 A 
ATOM      4  C3  UNL d   1      -3.322  -0.279   1.804  0.00  0.00    -0.034 A 
ATOM      5  C4  UNL d   1      -2.863  -0.825   3.005  0.00  0.00     0.162 A 
ATOM      6  C5  UNL d   1      -1.572  -0.558   3.448  0.00  0.00     0.062 A 
ATOM      7  F   UNL d   1      -1.139  -1.085   4.603  0.00  0.00    -0.097 F 
ATOM      8  F1  UNL d   1      -3.656  -1.610   3.748  0.00  0.00    -0.096 F 
ATOM      9  I   UNL d   1      -5.254  -0.676   1.138  0.00  0.00    -0.060 I 
ATOM     10  F2  UNL d   1      -2.878   1.074  -0.101  0.00  0.00    -0.096 F 
ATOM     11  F3  UNL d   1      -0.367   1.581   0.780  0.00  0.00    -0.097 F 
ATOM     12  F4  UNL d   1       0.513   0.508   3.128  0.00  0.00    -0.092 F 
ENDROOT
TORSDOF 0
ENDMDL
