MODEL 1
REMARK minimizedAffinity 28.3058186
REMARK minimizedRMSD -1
REMARK  0 active torsions:
REMARK  status: ('A' for Active; 'I' for Inactive)
ROOT
ATOM      1  C   UNL d   1      -3.806  -1.693   4.451  0.00  0.00     0.124 A 
ATOM      2  C1  UNL d   1      -4.665  -2.755   4.205  0.00  0.00     0.062 A 
ATOM      3  C2  UNL d   1      -5.171  -2.964   2.925  0.00  0.00     0.162 A 
ATOM      4  C3  UNL d   1      -4.819  -2.109   1.881  0.00  0.00    -0.034 A 
ATOM      5  C4  UNL d   1      -3.955  -1.042   2.136  0.00  0.00     0.162 A 
ATOM      6  C5  UNL d   1      -3.452  -0.838   3.417  0.00  0.00     0.062 A 
ATOM      7  F   UNL d   1      -2.623   0.189   3.653  0.00  0.00    -0.097 F 
ATOM      8  F1  UNL d   1      -3.596  -0.201   1.155  0.00  0.00    -0.096 F 
ATOM      9  I   UNL d   1      -5.573  -2.418  -0.034  0.00  0.00    -0.060 I 
ATOM     10  F2  UNL d   1      -5.999  -3.999   2.716  0.00  0.00    -0.096 F 
ATOM     11  F3  UNL d   1      -5.009  -3.583   5.202  0.00  0.00    -0.097 F 
ATOM     12  F4  UNL d   1      -3.321  -1.494   5.683  0.00  0.00    -0.092 F 
ENDROOT
TORSDOF 0
ENDMDL
