MODEL 1
REMARK minimizedAffinity 10.8854446
REMARK minimizedRMSD -1
REMARK  0 active torsions:
REMARK  status: ('A' for Active; 'I' for Inactive)
ROOT
ATOM      1  C   UNL d   1      -3.078  -1.463  -0.849  0.00  0.00     0.124 A 
ATOM      2  C1  UNL d   1      -2.368  -0.358  -1.299  0.00  0.00     0.062 A 
ATOM      3  C2  UNL d   1      -1.712   0.470  -0.393  0.00  0.00     0.162 A 
ATOM      4  C3  UNL d   1      -1.762   0.196   0.974  0.00  0.00    -0.034 A 
ATOM      5  C4  UNL d   1      -2.479  -0.916   1.420  0.00  0.00     0.162 A 
ATOM      6  C5  UNL d   1      -3.133  -1.741   0.510  0.00  0.00     0.062 A 
ATOM      7  F   UNL d   1      -3.818  -2.807   0.947  0.00  0.00    -0.097 F 
ATOM      8  F1  UNL d   1      -2.548  -1.208   2.727  0.00  0.00    -0.096 F 
ATOM      9  I   UNL d   1      -0.783   1.432   2.333  0.00  0.00    -0.060 I 
ATOM     10  F2  UNL d   1      -1.034   1.530  -0.856  0.00  0.00    -0.096 F 
ATOM     11  F3  UNL d   1      -2.314  -0.087  -2.611  0.00  0.00    -0.097 F 
ATOM     12  F4  UNL d   1      -3.708  -2.257  -1.723  0.00  0.00    -0.092 F 
ENDROOT
TORSDOF 0
ENDMDL
