MODEL 1
REMARK minimizedAffinity 16.5475292
REMARK minimizedRMSD -1
REMARK  0 active torsions:
REMARK  status: ('A' for Active; 'I' for Inactive)
ROOT
ATOM      1  C   UNL d   1       3.012  -0.876  -4.455  0.00  0.00     0.124 A 
ATOM      2  C1  UNL d   1       1.739  -1.415  -4.574  0.00  0.00     0.062 A 
ATOM      3  C2  UNL d   1       0.620  -0.640  -4.281  0.00  0.00     0.162 A 
ATOM      4  C3  UNL d   1       0.770   0.684  -3.868  0.00  0.00    -0.034 A 
ATOM      5  C4  UNL d   1       2.054   1.219  -3.750  0.00  0.00     0.162 A 
ATOM      6  C5  UNL d   1       3.169   0.440  -4.044  0.00  0.00     0.062 A 
ATOM      7  F   UNL d   1       4.398   0.963  -3.928  0.00  0.00    -0.097 F 
ATOM      8  F1  UNL d   1       2.234   2.488  -3.355  0.00  0.00    -0.096 F 
ATOM      9  I   UNL d   1      -0.900   1.846  -3.429  0.00  0.00    -0.060 I 
ATOM     10  F2  UNL d   1      -0.598  -1.187  -4.405  0.00  0.00    -0.096 F 
ATOM     11  F3  UNL d   1       1.585  -2.686  -4.971  0.00  0.00    -0.097 F 
ATOM     12  F4  UNL d   1       4.087  -1.624  -4.737  0.00  0.00    -0.092 F 
ENDROOT
TORSDOF 0
ENDMDL
