MODEL 1
REMARK minimizedAffinity 3.03186107
REMARK minimizedRMSD -1
REMARK  0 active torsions:
REMARK  status: ('A' for Active; 'I' for Inactive)
ROOT
ATOM      1  C   UNL d   1      -1.865   0.801   0.346  0.00  0.00     0.124 A 
ATOM      2  C1  UNL d   1      -2.236   1.477   1.500  0.00  0.00     0.062 A 
ATOM      3  C2  UNL d   1      -3.416   1.143   2.158  0.00  0.00     0.162 A 
ATOM      4  C3  UNL d   1      -4.234   0.127   1.664  0.00  0.00    -0.034 A 
ATOM      5  C4  UNL d   1      -3.855  -0.547   0.502  0.00  0.00     0.162 A 
ATOM      6  C5  UNL d   1      -2.675  -0.210  -0.152  0.00  0.00     0.062 A 
ATOM      7  F   UNL d   1      -2.318  -0.864  -1.267  0.00  0.00    -0.097 F 
ATOM      8  F1  UNL d   1      -4.618  -1.530   0.000  0.00  0.00    -0.096 F 
ATOM      9  I   UNL d   1      -6.000  -0.375   2.645  0.00  0.00    -0.060 I 
ATOM     10  F2  UNL d   1      -3.750   1.813   3.271  0.00  0.00    -0.096 F 
ATOM     11  F3  UNL d   1      -1.456   2.455   1.982  0.00  0.00    -0.097 F 
ATOM     12  F4  UNL d   1      -0.730   1.125  -0.286  0.00  0.00    -0.092 F 
ENDROOT
TORSDOF 0
ENDMDL
