MODEL 1
REMARK minimizedAffinity 9.91355515
REMARK minimizedRMSD -1
REMARK  0 active torsions:
REMARK  status: ('A' for Active; 'I' for Inactive)
ROOT
ATOM      1  C   UNL d   1      -0.243   1.884  -2.778  0.00  0.00     0.124 A 
ATOM      2  C1  UNL d   1      -0.720   0.896  -3.629  0.00  0.00     0.062 A 
ATOM      3  C2  UNL d   1       0.148  -0.060  -4.148  0.00  0.00     0.162 A 
ATOM      4  C3  UNL d   1       1.502  -0.034  -3.817  0.00  0.00    -0.034 A 
ATOM      5  C4  UNL d   1       1.975   0.962  -2.961  0.00  0.00     0.162 A 
ATOM      6  C5  UNL d   1       1.103   1.916  -2.445  0.00  0.00     0.062 A 
ATOM      7  F   UNL d   1       1.566   2.869  -1.623  0.00  0.00    -0.097 F 
ATOM      8  F1  UNL d   1       3.272   1.016  -2.622  0.00  0.00    -0.096 F 
ATOM      9  I   UNL d   1       2.803  -1.463  -4.590  0.00  0.00    -0.060 I 
ATOM     10  F2  UNL d   1      -0.341  -1.002  -4.968  0.00  0.00    -0.096 F 
ATOM     11  F3  UNL d   1      -2.021   0.864  -3.953  0.00  0.00    -0.097 F 
ATOM     12  F4  UNL d   1      -1.080   2.803  -2.281  0.00  0.00    -0.092 F 
ENDROOT
TORSDOF 0
ENDMDL
