MODEL 1
REMARK minimizedAffinity 17.8840694
REMARK minimizedRMSD -1
REMARK  0 active torsions:
REMARK  status: ('A' for Active; 'I' for Inactive)
ROOT
ATOM      1  C   UNL d   1      -3.842   1.134   2.998  0.00  0.00     0.124 A 
ATOM      2  C1  UNL d   1      -2.687   1.179   2.230  0.00  0.00     0.062 A 
ATOM      3  C2  UNL d   1      -2.571   0.384   1.093  0.00  0.00     0.162 A 
ATOM      4  C3  UNL d   1      -3.614  -0.462   0.717  0.00  0.00    -0.034 A 
ATOM      5  C4  UNL d   1      -4.772  -0.503   1.495  0.00  0.00     0.162 A 
ATOM      6  C5  UNL d   1      -4.883   0.294   2.630  0.00  0.00     0.062 A 
ATOM      7  F   UNL d   1      -6.000   0.249   3.372  0.00  0.00    -0.097 F 
ATOM      8  F1  UNL d   1      -5.794  -1.305   1.163  0.00  0.00    -0.096 F 
ATOM      9  I   UNL d   1      -3.445  -1.652  -0.982  0.00  0.00    -0.060 I 
ATOM     10  F2  UNL d   1      -1.444   0.448   0.369  0.00  0.00    -0.096 F 
ATOM     11  F3  UNL d   1      -1.679   1.989   2.583  0.00  0.00    -0.097 F 
ATOM     12  F4  UNL d   1      -3.950   1.899   4.092  0.00  0.00    -0.092 F 
ENDROOT
TORSDOF 0
ENDMDL
