MODEL 1
REMARK minimizedAffinity 12.1153612
REMARK minimizedRMSD -1
REMARK  0 active torsions:
REMARK  status: ('A' for Active; 'I' for Inactive)
ROOT
ATOM      1  C   UNL d   1       2.896  -1.201  -4.618  0.00  0.00     0.124 A 
ATOM      2  C1  UNL d   1       2.844   0.042  -4.002  0.00  0.00     0.062 A 
ATOM      3  C2  UNL d   1       1.638   0.732  -3.921  0.00  0.00     0.162 A 
ATOM      4  C3  UNL d   1       0.474   0.180  -4.455  0.00  0.00    -0.034 A 
ATOM      5  C4  UNL d   1       0.534  -1.070  -5.073  0.00  0.00     0.162 A 
ATOM      6  C5  UNL d   1       1.742  -1.756  -5.152  0.00  0.00     0.062 A 
ATOM      7  F   UNL d   1       1.791  -2.957  -5.747  0.00  0.00    -0.097 F 
ATOM      8  F1  UNL d   1      -0.566  -1.630  -5.597  0.00  0.00    -0.096 F 
ATOM      9  I   UNL d   1      -1.332   1.209  -4.335  0.00  0.00    -0.060 I 
ATOM     10  F2  UNL d   1       1.616   1.932  -3.321  0.00  0.00    -0.096 F 
ATOM     11  F3  UNL d   1       3.958   0.581  -3.486  0.00  0.00    -0.097 F 
ATOM     12  F4  UNL d   1       4.058  -1.862  -4.696  0.00  0.00    -0.092 F 
ENDROOT
TORSDOF 0
ENDMDL
