MODEL 1
REMARK minimizedAffinity -2.27534938
REMARK minimizedRMSD -1
REMARK  1 active torsions:
REMARK  status: ('A' for Active; 'I' for Inactive)
REMARK    1  A    between atoms: C1_2  and  C2_3 
ROOT
ATOM      1  C2  UNL d   1       1.011   2.080  -0.068  0.00  0.00    -0.073 A 
ATOM      2  C3  UNL d   1       0.234   2.054  -1.232  0.00  0.00    -0.002 A 
ATOM      3  C4  UNL d   1      -0.695   1.033  -1.438  0.00  0.00     0.004 A 
ATOM      4  C5  UNL d   1      -0.860   0.032  -0.481  0.00  0.00    -0.004 A 
ATOM      5  C6  UNL d   1      -0.102   0.046   0.694  0.00  0.00    -0.075 A 
ATOM      6  C7  UNL d   1      -0.266  -1.025   1.732  0.00  0.00     0.076 C 
ATOM      7  C8  UNL d   1       0.831   1.074   0.892  0.00  0.00     0.001 A 
ENDROOT
BRANCH   1   8
ATOM      8  C1  UNL d   1       2.010   3.184   0.161  0.00  0.00     0.053 C 
ATOM      9  C   UNL d   1       2.034   3.638   1.612  0.00  0.00     0.018 C 
ENDBRANCH   1   8
TORSDOF 1
ENDMDL
