MODEL 1
REMARK minimizedAffinity 2.67661285
REMARK minimizedRMSD -1
REMARK  1 active torsions:
REMARK  status: ('A' for Active; 'I' for Inactive)
REMARK    1  A    between atoms: C1_2  and  C2_3 
ROOT
ATOM      1  C2  UNL d   1      -1.270  -3.603   0.833  0.00  0.00    -0.073 A 
ATOM      2  C3  UNL d   1      -0.465  -4.746   0.768  0.00  0.00    -0.002 A 
ATOM      3  C4  UNL d   1      -0.706  -5.723  -0.199  0.00  0.00     0.004 A 
ATOM      4  C5  UNL d   1      -1.748  -5.565  -1.112  0.00  0.00    -0.004 A 
ATOM      5  C6  UNL d   1      -2.556  -4.424  -1.071  0.00  0.00    -0.075 A 
ATOM      6  C7  UNL d   1      -3.682  -4.240  -2.045  0.00  0.00     0.076 C 
ATOM      7  C8  UNL d   1      -2.309  -3.448  -0.096  0.00  0.00     0.001 A 
ENDROOT
BRANCH   1   8
ATOM      8  C1  UNL d   1      -1.010  -2.542   1.871  0.00  0.00     0.053 C 
ATOM      9  C   UNL d   1      -1.108  -1.140   1.290  0.00  0.00     0.018 C 
ENDBRANCH   1   8
TORSDOF 1
ENDMDL
