MODEL 1
REMARK minimizedAffinity -3.76913404
REMARK minimizedRMSD -1
REMARK  1 active torsions:
REMARK  status: ('A' for Active; 'I' for Inactive)
REMARK    1  A    between atoms: C1_2  and  C2_3 
ROOT
ATOM      1  C2  UNL d   1       0.241  -1.900  -0.378  0.00  0.00    -0.073 A 
ATOM      2  C3  UNL d   1       0.151  -1.826  -1.773  0.00  0.00    -0.002 A 
ATOM      3  C4  UNL d   1      -0.000  -0.591  -2.405  0.00  0.00     0.004 A 
ATOM      4  C5  UNL d   1      -0.056   0.581  -1.652  0.00  0.00    -0.004 A 
ATOM      5  C6  UNL d   1       0.044   0.529  -0.258  0.00  0.00    -0.075 A 
ATOM      6  C7  UNL d   1      -0.017   1.781   0.567  0.00  0.00     0.076 C 
ATOM      7  C8  UNL d   1       0.193  -0.715   0.370  0.00  0.00     0.001 A 
ENDROOT
BRANCH   1   8
ATOM      8  C1  UNL d   1       0.411  -3.230   0.309  0.00  0.00     0.053 C 
ATOM      9  C   UNL d   1      -0.010  -4.389  -0.581  0.00  0.00     0.018 C 
ENDBRANCH   1   8
TORSDOF 1
ENDMDL
