MODEL 1
REMARK minimizedAffinity -2.45111442
REMARK minimizedRMSD -1
REMARK  1 active torsions:
REMARK  status: ('A' for Active; 'I' for Inactive)
REMARK    1  A    between atoms: C1_2  and  C2_3 
ROOT
ATOM      1  C2  UNL d   1       0.184   0.078   1.130  0.00  0.00    -0.073 A 
ATOM      2  C3  UNL d   1      -0.526   0.161  -0.073  0.00  0.00    -0.002 A 
ATOM      3  C4  UNL d   1      -0.484   1.327  -0.838  0.00  0.00     0.004 A 
ATOM      4  C5  UNL d   1       0.273   2.419  -0.413  0.00  0.00    -0.004 A 
ATOM      5  C6  UNL d   1       0.999   2.351   0.781  0.00  0.00    -0.075 A 
ATOM      6  C7  UNL d   1       1.817   3.518   1.253  0.00  0.00     0.076 C 
ATOM      7  C8  UNL d   1       0.949   1.178   1.545  0.00  0.00     0.001 A 
ENDROOT
BRANCH   1   8
ATOM      8  C1  UNL d   1       0.147  -1.181   1.956  0.00  0.00     0.053 C 
ATOM      9  C   UNL d   1      -0.834  -2.200   1.398  0.00  0.00     0.018 C 
ENDBRANCH   1   8
TORSDOF 1
ENDMDL
