MODEL 1
REMARK minimizedAffinity -3.12616181
REMARK minimizedRMSD -1
REMARK  1 active torsions:
REMARK  status: ('A' for Active; 'I' for Inactive)
REMARK    1  A    between atoms: C1_2  and  C2_3 
ROOT
ATOM      1  C2  UNL d   1       0.957   1.226   0.309  0.00  0.00    -0.073 A 
ATOM      2  C3  UNL d   1      -0.185   1.860  -0.193  0.00  0.00    -0.002 A 
ATOM      3  C4  UNL d   1      -1.421   1.214  -0.163  0.00  0.00     0.004 A 
ATOM      4  C5  UNL d   1      -1.530  -0.069   0.373  0.00  0.00    -0.004 A 
ATOM      5  C6  UNL d   1      -0.402  -0.715   0.891  0.00  0.00    -0.075 A 
ATOM      6  C7  UNL d   1      -0.502  -2.096   1.469  0.00  0.00     0.076 C 
ATOM      7  C8  UNL d   1       0.836  -0.060   0.855  0.00  0.00     0.001 A 
ENDROOT
BRANCH   1   8
ATOM      8  C1  UNL d   1       2.293   1.923   0.286  0.00  0.00     0.053 C 
ATOM      9  C   UNL d   1       2.147   3.436   0.313  0.00  0.00     0.018 C 
ENDBRANCH   1   8
TORSDOF 1
ENDMDL
