MODEL 1
REMARK minimizedAffinity -3.16942954
REMARK minimizedRMSD -1
REMARK  1 active torsions:
REMARK  status: ('A' for Active; 'I' for Inactive)
REMARK    1  A    between atoms: C1_2  and  C2_3 
ROOT
ATOM      1  C2  UNL d   1      -0.178   0.432  -0.099  0.00  0.00    -0.073 A 
ATOM      2  C3  UNL d   1      -0.494  -0.204   1.107  0.00  0.00    -0.002 A 
ATOM      3  C4  UNL d   1      -0.811  -1.563   1.125  0.00  0.00     0.004 A 
ATOM      4  C5  UNL d   1      -0.808  -2.300  -0.059  0.00  0.00    -0.004 A 
ATOM      5  C6  UNL d   1      -0.483  -1.685  -1.272  0.00  0.00    -0.075 A 
ATOM      6  C7  UNL d   1      -0.477  -2.463  -2.555  0.00  0.00     0.076 C 
ATOM      7  C8  UNL d   1      -0.169  -0.319  -1.282  0.00  0.00     0.001 A 
ENDROOT
BRANCH   1   8
ATOM      8  C1  UNL d   1       0.171   1.898  -0.122  0.00  0.00     0.053 C 
ATOM      9  C   UNL d   1       1.627   2.144   0.242  0.00  0.00     0.018 C 
ENDBRANCH   1   8
TORSDOF 1
ENDMDL
