MODEL 1
REMARK minimizedAffinity -3.51695371
REMARK minimizedRMSD -1
REMARK  1 active torsions:
REMARK  status: ('A' for Active; 'I' for Inactive)
REMARK    1  A    between atoms: C1_2  and  C2_3 
ROOT
ATOM      1  C2  UNL d   1       0.065   0.244   0.532  0.00  0.00    -0.073 A 
ATOM      2  C3  UNL d   1      -0.325   0.318  -0.810  0.00  0.00    -0.002 A 
ATOM      3  C4  UNL d   1       0.140   1.352  -1.624  0.00  0.00     0.004 A 
ATOM      4  C5  UNL d   1       1.004   2.317  -1.107  0.00  0.00    -0.004 A 
ATOM      5  C6  UNL d   1       1.415   2.254   0.229  0.00  0.00    -0.075 A 
ATOM      6  C7  UNL d   1       2.342   3.285   0.801  0.00  0.00     0.076 C 
ATOM      7  C8  UNL d   1       0.941   1.214   1.040  0.00  0.00     0.001 A 
ENDROOT
BRANCH   1   8
ATOM      8  C1  UNL d   1      -0.430  -0.874   1.412  0.00  0.00     0.053 C 
ATOM      9  C   UNL d   1      -1.313  -1.851   0.651  0.00  0.00     0.018 C 
ENDBRANCH   1   8
TORSDOF 1
ENDMDL
