MODEL 1
REMARK minimizedAffinity -3.39615655
REMARK minimizedRMSD -1
REMARK  1 active torsions:
REMARK  status: ('A' for Active; 'I' for Inactive)
REMARK    1  A    between atoms: C1_2  and  C2_3 
ROOT
ATOM      1  C2  UNL d   1      -0.658  -2.471  -0.587  0.00  0.00    -0.073 A 
ATOM      2  C3  UNL d   1      -1.035  -2.633   0.751  0.00  0.00    -0.002 A 
ATOM      3  C4  UNL d   1      -0.948  -1.562   1.643  0.00  0.00     0.004 A 
ATOM      4  C5  UNL d   1      -0.490  -0.320   1.205  0.00  0.00    -0.004 A 
ATOM      5  C6  UNL d   1      -0.120  -0.135  -0.131  0.00  0.00    -0.075 A 
ATOM      6  C7  UNL d   1       0.376   1.195  -0.617  0.00  0.00     0.076 C 
ATOM      7  C8  UNL d   1      -0.208  -1.215  -1.019  0.00  0.00     0.001 A 
ENDROOT
BRANCH   1   8
ATOM      8  C1  UNL d   1      -0.756  -3.621  -1.554  0.00  0.00     0.053 C 
ATOM      9  C   UNL d   1      -0.631  -3.164  -2.999  0.00  0.00     0.018 C 
ENDBRANCH   1   8
TORSDOF 1
ENDMDL
