MODEL 1
REMARK minimizedAffinity -3.21463799
REMARK minimizedRMSD -1
REMARK  1 active torsions:
REMARK  status: ('A' for Active; 'I' for Inactive)
REMARK    1  A    between atoms: C1_2  and  C2_3 
ROOT
ATOM      1  C2  UNL d   1      -0.263  -0.073   0.245  0.00  0.00    -0.073 A 
ATOM      2  C3  UNL d   1      -0.711  -1.032   1.161  0.00  0.00    -0.002 A 
ATOM      3  C4  UNL d   1      -0.883  -2.359   0.764  0.00  0.00     0.004 A 
ATOM      4  C5  UNL d   1      -0.602  -2.742  -0.548  0.00  0.00    -0.004 A 
ATOM      5  C6  UNL d   1      -0.142  -1.800  -1.474  0.00  0.00    -0.075 A 
ATOM      6  C7  UNL d   1       0.162  -2.195  -2.889  0.00  0.00     0.076 C 
ATOM      7  C8  UNL d   1       0.025  -0.469  -1.069  0.00  0.00     0.001 A 
ENDROOT
BRANCH   1   8
ATOM      8  C1  UNL d   1      -0.071   1.360   0.670  0.00  0.00     0.053 C 
ATOM      9  C   UNL d   1       0.587   2.194  -0.418  0.00  0.00     0.018 C 
ENDBRANCH   1   8
TORSDOF 1
ENDMDL
