MODEL 1
REMARK minimizedAffinity 4.91624117
REMARK minimizedRMSD -1
REMARK  0 active torsions:
REMARK  status: ('A' for Active; 'I' for Inactive)
ROOT
ATOM      1  C   UNL d   1      -4.610   0.231   0.685  0.00  0.00     0.172 C 
ATOM      2  N   UNL d   1      -3.679  -0.868   0.792  0.00  0.00    -0.070 N 
ATOM      3  C1  UNL d   1      -3.490  -1.649   1.900  0.00  0.00    -0.004 A 
ATOM      4  C2  UNL d   1      -2.522  -2.582   1.598  0.00  0.00    -0.047 A 
ATOM      5  C3  UNL d   1      -2.113  -2.352   0.263  0.00  0.00    -0.047 A 
ATOM      6  C4  UNL d   1      -2.846  -1.285  -0.212  0.00  0.00    -0.004 A 
ENDROOT
TORSDOF 0
ENDMDL
