MODEL 1
REMARK minimizedAffinity -1.08890116
REMARK minimizedRMSD -1
REMARK  0 active torsions:
REMARK  status: ('A' for Active; 'I' for Inactive)
ROOT
ATOM      1  C   UNL d   1      -3.603  -0.753   1.856  0.00  0.00     0.172 C 
ATOM      2  N   UNL d   1      -4.511  -0.800   0.734  0.00  0.00    -0.070 N 
ATOM      3  C1  UNL d   1      -4.753   0.227  -0.140  0.00  0.00    -0.004 A 
ATOM      4  C2  UNL d   1      -5.676  -0.214  -1.063  0.00  0.00    -0.047 A 
ATOM      5  C3  UNL d   1      -6.000  -1.552  -0.733  0.00  0.00    -0.047 A 
ATOM      6  C4  UNL d   1      -5.264  -1.889   0.384  0.00  0.00    -0.004 A 
ENDROOT
TORSDOF 0
ENDMDL
