MODEL 1
REMARK minimizedAffinity 9.35776711
REMARK minimizedRMSD -1
REMARK  0 active torsions:
REMARK  status: ('A' for Active; 'I' for Inactive)
ROOT
ATOM      1  C   UNL d   1      -4.624   2.478  -1.760  0.00  0.00     0.172 C 
ATOM      2  N   UNL d   1      -4.552   1.412  -0.789  0.00  0.00    -0.070 N 
ATOM      3  C1  UNL d   1      -4.617   0.073  -1.067  0.00  0.00    -0.004 A 
ATOM      4  C2  UNL d   1      -4.512  -0.611   0.125  0.00  0.00    -0.047 A 
ATOM      5  C3  UNL d   1      -4.379   0.350   1.155  0.00  0.00    -0.047 A 
ATOM      6  C4  UNL d   1      -4.408   1.595   0.561  0.00  0.00    -0.004 A 
ENDROOT
TORSDOF 0
ENDMDL
