MODEL 1
REMARK minimizedAffinity 2.26556516
REMARK minimizedRMSD -1
REMARK  0 active torsions:
REMARK  status: ('A' for Active; 'I' for Inactive)
ROOT
ATOM      1  C   UNL d   1       5.962   1.477  -0.628  0.00  0.00     0.172 C 
ATOM      2  N   UNL d   1       5.977   1.210   0.791  0.00  0.00    -0.070 N 
ATOM      3  C1  UNL d   1       5.983   2.155   1.781  0.00  0.00    -0.004 A 
ATOM      4  C2  UNL d   1       5.997   1.498   2.992  0.00  0.00    -0.047 A 
ATOM      5  C3  UNL d   1       5.999   0.109   2.720  0.00  0.00    -0.047 A 
ATOM      6  C4  UNL d   1       5.987  -0.041   1.350  0.00  0.00    -0.004 A 
ENDROOT
TORSDOF 0
ENDMDL
