MODEL 1
REMARK minimizedAffinity 8.14316368
REMARK minimizedRMSD -1
REMARK  0 active torsions:
REMARK  status: ('A' for Active; 'I' for Inactive)
ROOT
ATOM      1  C   UNL d   1      -5.930   4.900  -0.798  0.00  0.00     0.172 C 
ATOM      2  N   UNL d   1      -5.939   4.409  -2.156  0.00  0.00    -0.070 N 
ATOM      3  C1  UNL d   1      -5.893   3.093  -2.529  0.00  0.00    -0.004 A 
ATOM      4  C2  UNL d   1      -5.921   3.043  -3.906  0.00  0.00    -0.047 A 
ATOM      5  C3  UNL d   1      -5.985   4.376  -4.376  0.00  0.00    -0.047 A 
ATOM      6  C4  UNL d   1      -5.995   5.201  -3.272  0.00  0.00    -0.004 A 
ENDROOT
TORSDOF 0
ENDMDL
