MODEL 1
REMARK minimizedAffinity 5.1245451
REMARK minimizedRMSD -1
REMARK  0 active torsions:
REMARK  status: ('A' for Active; 'I' for Inactive)
ROOT
ATOM      1  C   UNL d   1       1.898  -4.865   5.996  0.00  0.00     0.172 C 
ATOM      2  N   UNL d   1       1.321  -3.662   5.445  0.00  0.00    -0.070 N 
ATOM      3  C1  UNL d   1       0.579  -3.586   4.296  0.00  0.00    -0.004 A 
ATOM      4  C2  UNL d   1       0.214  -2.270   4.115  0.00  0.00    -0.047 A 
ATOM      5  C3  UNL d   1       0.756  -1.528   5.191  0.00  0.00    -0.047 A 
ATOM      6  C4  UNL d   1       1.436  -2.414   5.999  0.00  0.00    -0.004 A 
ENDROOT
TORSDOF 0
ENDMDL
