MODEL 1
REMARK minimizedAffinity 0.541938663
REMARK minimizedRMSD -1
REMARK  0 active torsions:
REMARK  status: ('A' for Active; 'I' for Inactive)
ROOT
ATOM      1  C   UNL d   1       1.909  -4.173   5.996  0.00  0.00     0.172 C 
ATOM      2  N   UNL d   1       1.110  -2.995   5.750  0.00  0.00    -0.070 N 
ATOM      3  C1  UNL d   1       1.493  -1.704   6.000  0.00  0.00    -0.004 A 
ATOM      4  C2  UNL d   1       0.454  -0.877   5.629  0.00  0.00    -0.047 A 
ATOM      5  C3  UNL d   1      -0.589  -1.700   5.141  0.00  0.00    -0.047 A 
ATOM      6  C4  UNL d   1      -0.156  -3.006   5.227  0.00  0.00    -0.004 A 
ENDROOT
TORSDOF 0
ENDMDL
