MODEL 1
REMARK minimizedAffinity 5.16974068
REMARK minimizedRMSD -1
REMARK  0 active torsions:
REMARK  status: ('A' for Active; 'I' for Inactive)
ROOT
ATOM      1  C   UNL d   1       4.759   1.145   0.093  0.00  0.00     0.172 C 
ATOM      2  N   UNL d   1       5.255   1.108   1.449  0.00  0.00    -0.070 N 
ATOM      3  C1  UNL d   1       5.561   2.200   2.217  0.00  0.00    -0.004 A 
ATOM      4  C2  UNL d   1       5.999   1.744   3.442  0.00  0.00    -0.047 A 
ATOM      5  C3  UNL d   1       5.957   0.330   3.408  0.00  0.00    -0.047 A 
ATOM      6  C4  UNL d   1       5.493  -0.037   2.162  0.00  0.00    -0.004 A 
ENDROOT
TORSDOF 0
ENDMDL
