MODEL 1
REMARK minimizedAffinity 5.23555279
REMARK minimizedRMSD -1
REMARK  0 active torsions:
REMARK  status: ('A' for Active; 'I' for Inactive)
ROOT
ATOM      1  C   UNL d   1      -0.751   0.707   2.683  0.00  0.00     0.172 C 
ATOM      2  N   UNL d   1      -1.816  -0.161   3.128  0.00  0.00    -0.070 N 
ATOM      3  C1  UNL d   1      -1.880  -0.789   4.343  0.00  0.00    -0.004 A 
ATOM      4  C2  UNL d   1      -3.047  -1.520   4.379  0.00  0.00    -0.047 A 
ATOM      5  C3  UNL d   1      -3.708  -1.326   3.143  0.00  0.00    -0.047 A 
ATOM      6  C4  UNL d   1      -2.924  -0.480   2.387  0.00  0.00    -0.004 A 
ENDROOT
TORSDOF 0
ENDMDL
