MODEL 1
REMARK minimizedAffinity 4.20618916
REMARK minimizedRMSD -1
REMARK  0 active torsions:
REMARK  status: ('A' for Active; 'I' for Inactive)
ROOT
ATOM      1  C   UNL d   1       0.407  -0.334  -4.778  0.00  0.00     0.172 C 
ATOM      2  N   UNL d   1       1.476   0.180  -3.955  0.00  0.00    -0.070 N 
ATOM      3  C1  UNL d   1       1.319   0.898  -2.800  0.00  0.00    -0.004 A 
ATOM      4  C2  UNL d   1       2.574   1.200  -2.317  0.00  0.00    -0.047 A 
ATOM      5  C3  UNL d   1       3.517   0.645  -3.213  0.00  0.00    -0.047 A 
ATOM      6  C4  UNL d   1       2.810   0.019  -4.218  0.00  0.00    -0.004 A 
ENDROOT
TORSDOF 0
ENDMDL
