MODEL 1
REMARK minimizedAffinity 2.30526924
REMARK minimizedRMSD -1
REMARK  0 active torsions:
REMARK  status: ('A' for Active; 'I' for Inactive)
ROOT
ATOM      1  C   UNL d   1       4.867   1.073  -3.552  0.00  0.00     0.172 C 
ATOM      2  N   UNL d   1       3.432   1.009  -3.403  0.00  0.00    -0.070 N 
ATOM      3  C1  UNL d   1       2.728   1.384  -2.290  0.00  0.00    -0.004 A 
ATOM      4  C2  UNL d   1       1.390   1.172  -2.546  0.00  0.00    -0.047 A 
ATOM      5  C3  UNL d   1       1.287   0.650  -3.857  0.00  0.00    -0.047 A 
ATOM      6  C4  UNL d   1       2.566   0.560  -4.365  0.00  0.00    -0.004 A 
ENDROOT
TORSDOF 0
ENDMDL
