MODEL 1
REMARK minimizedAffinity 0.173055172
REMARK minimizedRMSD -1
REMARK  0 active torsions:
REMARK  status: ('A' for Active; 'I' for Inactive)
ROOT
ATOM      1  C   UNL d   1       0.162   0.036  -4.424  0.00  0.00     0.172 C 
ATOM      2  N   UNL d   1       1.385   0.363  -3.729  0.00  0.00    -0.070 N 
ATOM      3  C1  UNL d   1       1.471   1.027  -2.534  0.00  0.00    -0.004 A 
ATOM      4  C2  UNL d   1       2.805   1.141  -2.209  0.00  0.00    -0.047 A 
ATOM      5  C3  UNL d   1       3.547   0.525  -3.245  0.00  0.00    -0.047 A 
ATOM      6  C4  UNL d   1       2.643   0.052  -4.173  0.00  0.00    -0.004 A 
ENDROOT
TORSDOF 0
ENDMDL
