MODEL 1
REMARK minimizedAffinity 1.66853762
REMARK minimizedRMSD -1
REMARK  0 active torsions:
REMARK  status: ('A' for Active; 'I' for Inactive)
ROOT
ATOM      1  C   UNL d   1      -0.220  -0.357  -5.244  0.00  0.00     0.172 C 
ATOM      2  N   UNL d   1       0.806   0.261  -4.438  0.00  0.00    -0.070 N 
ATOM      3  C1  UNL d   1       1.859   0.997  -4.913  0.00  0.00    -0.004 A 
ATOM      4  C2  UNL d   1       2.607   1.410  -3.831  0.00  0.00    -0.047 A 
ATOM      5  C3  UNL d   1       1.982   0.904  -2.667  0.00  0.00    -0.047 A 
ATOM      6  C4  UNL d   1       0.870   0.197  -3.071  0.00  0.00    -0.004 A 
ENDROOT
TORSDOF 0
ENDMDL
