MODEL 1
REMARK minimizedAffinity -0.769076049
REMARK minimizedRMSD -1
REMARK  0 active torsions:
REMARK  status: ('A' for Active; 'I' for Inactive)
ROOT
ATOM      1  C   UNL d   1       0.500   0.483  -4.882  0.00  0.00     0.172 C 
ATOM      2  N   UNL d   1       1.595   0.474  -3.941  0.00  0.00    -0.070 N 
ATOM      3  C1  UNL d   1       2.854  -0.005  -4.186  0.00  0.00    -0.004 A 
ATOM      4  C2  UNL d   1       3.602   0.168  -3.041  0.00  0.00    -0.047 A 
ATOM      5  C3  UNL d   1       2.763   0.772  -2.075  0.00  0.00    -0.047 A 
ATOM      6  C4  UNL d   1       1.527   0.950  -2.658  0.00  0.00    -0.004 A 
ENDROOT
TORSDOF 0
ENDMDL
