MODEL 1
REMARK minimizedAffinity -0.50862062
REMARK minimizedRMSD -1
REMARK  0 active torsions:
REMARK  status: ('A' for Active; 'I' for Inactive)
ROOT
ATOM      1  C   UNL d   1       5.260   1.614   3.868  0.00  0.00     0.172 C 
ATOM      2  N   UNL d   1       5.450   0.332   4.505  0.00  0.00    -0.070 N 
ATOM      3  C1  UNL d   1       5.993   0.130   5.745  0.00  0.00    -0.004 A 
ATOM      4  C2  UNL d   1       5.999  -1.227   5.987  0.00  0.00    -0.047 A 
ATOM      5  C3  UNL d   1       5.442  -1.862   4.852  0.00  0.00    -0.047 A 
ATOM      6  C4  UNL d   1       5.111  -0.873   3.949  0.00  0.00    -0.004 A 
ENDROOT
TORSDOF 0
ENDMDL
