MODEL 1
REMARK minimizedAffinity 7.63354158
REMARK minimizedRMSD -1
REMARK  0 active torsions:
REMARK  status: ('A' for Active; 'I' for Inactive)
ROOT
ATOM      1  C   UNL d   1       5.999  -0.900   4.518  0.00  0.00     0.172 C 
ATOM      2  N   UNL d   1       5.440   0.071   3.606  0.00  0.00    -0.070 N 
ATOM      3  C1  UNL d   1       5.999   1.280   3.287  0.00  0.00    -0.004 A 
ATOM      4  C2  UNL d   1       5.163   1.907   2.388  0.00  0.00    -0.047 A 
ATOM      5  C3  UNL d   1       4.063   1.046   2.161  0.00  0.00    -0.047 A 
ATOM      6  C4  UNL d   1       4.261  -0.084   2.927  0.00  0.00    -0.004 A 
ENDROOT
TORSDOF 0
ENDMDL
