MODEL 1
REMARK minimizedAffinity -2.48480749
REMARK minimizedRMSD -1
REMARK  0 active torsions:
REMARK  status: ('A' for Active; 'I' for Inactive)
ROOT
ATOM      1  C   UNL d   1       5.256  -0.636   5.252  0.00  0.00     0.172 C 
ATOM      2  N   UNL d   1       5.374   0.614   4.539  0.00  0.00    -0.070 N 
ATOM      3  C1  UNL d   1       6.000   0.790   3.334  0.00  0.00    -0.004 A 
ATOM      4  C2  UNL d   1       5.895   2.121   2.993  0.00  0.00    -0.047 A 
ATOM      5  C3  UNL d   1       5.183   2.768   4.031  0.00  0.00    -0.047 A 
ATOM      6  C4  UNL d   1       4.873   1.812   4.975  0.00  0.00    -0.004 A 
ENDROOT
TORSDOF 0
ENDMDL
