MODEL 1
REMARK minimizedAffinity 5.26358414
REMARK minimizedRMSD -1
REMARK  0 active torsions:
REMARK  status: ('A' for Active; 'I' for Inactive)
ROOT
ATOM      1  C   UNL d   1       5.999   4.804   4.053  0.00  0.00     0.172 C 
ATOM      2  N   UNL d   1       5.366   3.509   3.970  0.00  0.00    -0.070 N 
ATOM      3  C1  UNL d   1       6.000   2.301   4.090  0.00  0.00    -0.004 A 
ATOM      4  C2  UNL d   1       5.051   1.311   3.953  0.00  0.00    -0.047 A 
ATOM      5  C3  UNL d   1       3.804   1.946   3.743  0.00  0.00    -0.047 A 
ATOM      6  C4  UNL d   1       4.028   3.306   3.758  0.00  0.00    -0.004 A 
ENDROOT
TORSDOF 0
ENDMDL
