MODEL 1
REMARK minimizedAffinity -1.61418128
REMARK minimizedRMSD -1
REMARK  0 active torsions:
REMARK  status: ('A' for Active; 'I' for Inactive)
ROOT
ATOM      1  C   UNL d   1       5.995  -2.267   4.373  0.00  0.00     0.172 C 
ATOM      2  N   UNL d   1       5.996  -0.823   4.398  0.00  0.00    -0.070 N 
ATOM      3  C1  UNL d   1       5.995  -0.006   3.300  0.00  0.00    -0.004 A 
ATOM      4  C2  UNL d   1       5.996   1.299   3.744  0.00  0.00    -0.047 A 
ATOM      5  C3  UNL d   1       6.000   1.264   5.159  0.00  0.00    -0.047 A 
ATOM      6  C4  UNL d   1       6.000  -0.062   5.537  0.00  0.00    -0.004 A 
ENDROOT
TORSDOF 0
ENDMDL
