MODEL 1
REMARK minimizedAffinity 1.47455108
REMARK minimizedRMSD -1
REMARK  0 active torsions:
REMARK  status: ('A' for Active; 'I' for Inactive)
ROOT
ATOM      1  C   UNL d   1       5.995   2.809   3.370  0.00  0.00     0.172 C 
ATOM      2  N   UNL d   1       5.787   1.394   3.572  0.00  0.00    -0.070 N 
ATOM      3  C1  UNL d   1       5.351   0.508   2.624  0.00  0.00    -0.004 A 
ATOM      4  C2  UNL d   1       5.285  -0.738   3.210  0.00  0.00    -0.047 A 
ATOM      5  C3  UNL d   1       5.695  -0.595   4.557  0.00  0.00    -0.047 A 
ATOM      6  C4  UNL d   1       6.000   0.735   4.754  0.00  0.00    -0.004 A 
ENDROOT
TORSDOF 0
ENDMDL
