MODEL 1
REMARK minimizedAffinity -2.58782554
REMARK minimizedRMSD -1
REMARK  0 active torsions:
REMARK  status: ('A' for Active; 'I' for Inactive)
ROOT
ATOM      1  C   UNL d   1       5.212   2.434   4.237  0.00  0.00     0.172 C 
ATOM      2  N   UNL d   1       5.443   1.084   4.693  0.00  0.00    -0.070 N 
ATOM      3  C1  UNL d   1       5.239  -0.053   3.958  0.00  0.00    -0.004 A 
ATOM      4  C2  UNL d   1       5.576  -1.132   4.747  0.00  0.00    -0.047 A 
ATOM      5  C3  UNL d   1       5.996  -0.625   6.000  0.00  0.00    -0.047 A 
ATOM      6  C4  UNL d   1       5.904   0.749   5.939  0.00  0.00    -0.004 A 
ENDROOT
TORSDOF 0
ENDMDL
