MODEL 1
REMARK minimizedAffinity -0.560040534
REMARK minimizedRMSD -1
REMARK  0 active torsions:
REMARK  status: ('A' for Active; 'I' for Inactive)
ROOT
ATOM      1  C   UNL d   1       5.995   2.083   5.922  0.00  0.00     0.172 C 
ATOM      2  N   UNL d   1       5.997   0.850   5.172  0.00  0.00    -0.070 N 
ATOM      3  C1  UNL d   1       5.998   0.746   3.806  0.00  0.00    -0.004 A 
ATOM      4  C2  UNL d   1       6.000  -0.594   3.485  0.00  0.00    -0.047 A 
ATOM      5  C3  UNL d   1       5.999  -1.321   4.699  0.00  0.00    -0.047 A 
ATOM      6  C4  UNL d   1       5.997  -0.403   5.727  0.00  0.00    -0.004 A 
ENDROOT
TORSDOF 0
ENDMDL
