MODEL 1
REMARK minimizedAffinity -1.49051881
REMARK minimizedRMSD -1
REMARK  0 active torsions:
REMARK  status: ('A' for Active; 'I' for Inactive)
ROOT
ATOM      1  C   UNL d   1       5.675   0.091   3.797  0.00  0.00     0.172 C 
ATOM      2  N   UNL d   1       5.753   1.496   4.121  0.00  0.00    -0.070 N 
ATOM      3  C1  UNL d   1       5.594   2.037   5.369  0.00  0.00    -0.004 A 
ATOM      4  C2  UNL d   1       5.742   3.403   5.259  0.00  0.00    -0.047 A 
ATOM      5  C3  UNL d   1       5.999   3.692   3.898  0.00  0.00    -0.047 A 
ATOM      6  C4  UNL d   1       6.000   2.494   3.216  0.00  0.00    -0.004 A 
ENDROOT
TORSDOF 0
ENDMDL
