MODEL 1
REMARK minimizedAffinity -2.67501903
REMARK minimizedRMSD -1
REMARK  0 active torsions:
REMARK  status: ('A' for Active; 'I' for Inactive)
ROOT
ATOM      1  C   UNL d   1       5.949  -1.277   4.973  0.00  0.00     0.172 C 
ATOM      2  N   UNL d   1       5.817   0.135   4.700  0.00  0.00    -0.070 N 
ATOM      3  C1  UNL d   1       5.965   0.728   3.474  0.00  0.00    -0.004 A 
ATOM      4  C2  UNL d   1       5.761   2.082   3.633  0.00  0.00    -0.047 A 
ATOM      5  C3  UNL d   1       5.482   2.310   5.002  0.00  0.00    -0.047 A 
ATOM      6  C4  UNL d   1       5.523   1.088   5.639  0.00  0.00    -0.004 A 
ENDROOT
TORSDOF 0
ENDMDL
