MODEL 1
REMARK minimizedAffinity -1.988042
REMARK minimizedRMSD -1
REMARK  0 active torsions:
REMARK  status: ('A' for Active; 'I' for Inactive)
ROOT
ATOM      1  C   UNL d   1       5.559   4.337   4.885  0.00  0.00     0.172 C 
ATOM      2  N   UNL d   1       5.662   2.897   4.900  0.00  0.00    -0.070 N 
ATOM      3  C1  UNL d   1       5.444   2.092   5.985  0.00  0.00    -0.004 A 
ATOM      4  C2  UNL d   1       5.641   0.787   5.589  0.00  0.00    -0.047 A 
ATOM      5  C3  UNL d   1       5.991   0.808   4.218  0.00  0.00    -0.047 A 
ATOM      6  C4  UNL d   1       5.997   2.127   3.817  0.00  0.00    -0.004 A 
ENDROOT
TORSDOF 0
ENDMDL
