MODEL 1
REMARK minimizedAffinity 2.64159989
REMARK minimizedRMSD -1
REMARK  0 active torsions:
REMARK  status: ('A' for Active; 'I' for Inactive)
ROOT
ATOM      1  C   UNL d   1       6.000   4.999   3.955  0.00  0.00     0.172 C 
ATOM      2  N   UNL d   1       5.488   5.145   2.613  0.00  0.00    -0.070 N 
ATOM      3  C1  UNL d   1       4.427   4.460   2.084  0.00  0.00    -0.004 A 
ATOM      4  C2  UNL d   1       4.257   4.884   0.784  0.00  0.00    -0.047 A 
ATOM      5  C3  UNL d   1       5.250   5.857   0.522  0.00  0.00    -0.047 A 
ATOM      6  C4  UNL d   1       5.998   5.999   1.671  0.00  0.00    -0.004 A 
ENDROOT
TORSDOF 0
ENDMDL
