MODEL 1
REMARK minimizedAffinity -1.35430169
REMARK minimizedRMSD -1
REMARK  0 active torsions:
REMARK  status: ('A' for Active; 'I' for Inactive)
ROOT
ATOM      1  C   UNL d   1       5.661  -0.787   5.247  0.00  0.00     0.172 C 
ATOM      2  N   UNL d   1       5.751   0.584   4.805  0.00  0.00    -0.070 N 
ATOM      3  C1  UNL d   1       5.991   0.995   3.521  0.00  0.00    -0.004 A 
ATOM      4  C2  UNL d   1       5.999   2.373   3.513  0.00  0.00    -0.047 A 
ATOM      5  C3  UNL d   1       5.757   2.806   4.839  0.00  0.00    -0.047 A 
ATOM      6  C4  UNL d   1       5.607   1.678   5.618  0.00  0.00    -0.004 A 
ENDROOT
TORSDOF 0
ENDMDL
