MODEL 1
REMARK minimizedAffinity -1.90213954
REMARK minimizedRMSD -1
REMARK  0 active torsions:
REMARK  status: ('A' for Active; 'I' for Inactive)
ROOT
ATOM      1  C   UNL d   1       5.966  -0.755   4.430  0.00  0.00     0.172 C 
ATOM      2  N   UNL d   1       5.975   0.688   4.477  0.00  0.00    -0.070 N 
ATOM      3  C1  UNL d   1       5.962   1.450   5.615  0.00  0.00    -0.004 A 
ATOM      4  C2  UNL d   1       5.978   2.775   5.236  0.00  0.00    -0.047 A 
ATOM      5  C3  UNL d   1       6.000   2.811   3.822  0.00  0.00    -0.047 A 
ATOM      6  C4  UNL d   1       5.998   1.505   3.378  0.00  0.00    -0.004 A 
ENDROOT
TORSDOF 0
ENDMDL
