MODEL 1
REMARK minimizedAffinity 10.3907309
REMARK minimizedRMSD -1
REMARK  2 active torsions:
REMARK  status: ('A' for Active; 'I' for Inactive)
REMARK    1  A    between atoms: C1_2  and  C2_3 
REMARK    2  A    between atoms: C2_3  and  C3_4 
ROOT
ATOM      1  C3  UNL d   1      -1.494   2.399  -0.160  0.00  0.00    -0.075 A 
ATOM      2  C4  UNL d   1      -0.877   2.069   1.055  0.00  0.00     0.002 A 
ATOM      3  C5  UNL d   1      -0.958   2.933   2.148  0.00  0.00     0.002 A 
ATOM      4  C6  UNL d   1      -1.647   4.139   2.037  0.00  0.00    -0.004 A 
ATOM      5  C7  UNL d   1      -2.250   4.484   0.829  0.00  0.00     0.002 A 
ATOM      6  C8  UNL d   1      -2.174   3.620  -0.265  0.00  0.00     0.002 A 
ENDROOT
BRANCH   1   7
ATOM      7  C2  UNL d   1      -1.435   1.455  -1.338  0.00  0.00     0.056 C 
BRANCH   7   8
ATOM      8  C1  UNL d   1      -2.646   0.523  -1.452  0.00  0.00     0.007 C 
ATOM      9  C   UNL d   1      -3.008   0.184  -2.892  0.00  0.00     0.009 C 
ENDBRANCH   7   8
ENDBRANCH   1   7
TORSDOF 2
ENDMDL
