MODEL 1
REMARK minimizedAffinity 2.13426232
REMARK minimizedRMSD -1
REMARK  2 active torsions:
REMARK  status: ('A' for Active; 'I' for Inactive)
REMARK    1  A    between atoms: C1_2  and  C2_3 
REMARK    2  A    between atoms: C2_3  and  C3_4 
ROOT
ATOM      1  C3  UNL d   1      -0.237   0.493   2.829  0.00  0.00    -0.075 A 
ATOM      2  C4  UNL d   1      -1.462   0.793   2.216  0.00  0.00     0.002 A 
ATOM      3  C5  UNL d   1      -1.519   1.089   0.854  0.00  0.00     0.002 A 
ATOM      4  C6  UNL d   1      -0.354   1.099   0.091  0.00  0.00    -0.004 A 
ATOM      5  C7  UNL d   1       0.871   0.818   0.693  0.00  0.00     0.002 A 
ATOM      6  C8  UNL d   1       0.931   0.517   2.054  0.00  0.00     0.002 A 
ENDROOT
BRANCH   1   7
ATOM      7  C2  UNL d   1      -0.172   0.143   4.297  0.00  0.00     0.056 C 
BRANCH   7   8
ATOM      8  C1  UNL d   1       0.987  -0.789   4.665  0.00  0.00     0.007 C 
ATOM      9  C   UNL d   1       0.840  -2.189   4.084  0.00  0.00     0.009 C 
ENDBRANCH   7   8
ENDBRANCH   1   7
TORSDOF 2
ENDMDL
