MODEL 1
REMARK minimizedAffinity 5.52893257
REMARK minimizedRMSD -1
REMARK  2 active torsions:
REMARK  status: ('A' for Active; 'I' for Inactive)
REMARK    1  A    between atoms: C1_2  and  C2_3 
REMARK    2  A    between atoms: C2_3  and  C3_4 
ROOT
ATOM      1  C3  UNL d   1       0.257   1.216   2.042  0.00  0.00    -0.075 A 
ATOM      2  C4  UNL d   1      -1.074   1.657   2.017  0.00  0.00     0.002 A 
ATOM      3  C5  UNL d   1      -1.732   1.856   0.803  0.00  0.00     0.002 A 
ATOM      4  C6  UNL d   1      -1.067   1.627  -0.399  0.00  0.00    -0.004 A 
ATOM      5  C7  UNL d   1       0.261   1.204  -0.387  0.00  0.00     0.002 A 
ATOM      6  C8  UNL d   1       0.920   1.000   0.827  0.00  0.00     0.002 A 
ENDROOT
BRANCH   1   7
ATOM      7  C2  UNL d   1       0.965   0.971   3.353  0.00  0.00     0.056 C 
BRANCH   7   8
ATOM      8  C1  UNL d   1       0.372  -0.177   4.177  0.00  0.00     0.007 C 
ATOM      9  C   UNL d   1       1.412  -1.201   4.613  0.00  0.00     0.009 C 
ENDBRANCH   7   8
ENDBRANCH   1   7
TORSDOF 2
ENDMDL
