MODEL 1
REMARK minimizedAffinity 5.0139823
REMARK minimizedRMSD -1
REMARK  2 active torsions:
REMARK  status: ('A' for Active; 'I' for Inactive)
REMARK    1  A    between atoms: C1_2  and  C2_3 
REMARK    2  A    between atoms: C2_3  and  C3_4 
ROOT
ATOM      1  C3  UNL d   1       2.391  -1.266   0.046  0.00  0.00    -0.075 A 
ATOM      2  C4  UNL d   1       3.607  -1.009  -0.604  0.00  0.00     0.002 A 
ATOM      3  C5  UNL d   1       4.164   0.270  -0.587  0.00  0.00     0.002 A 
ATOM      4  C6  UNL d   1       3.508   1.309   0.070  0.00  0.00    -0.004 A 
ATOM      5  C7  UNL d   1       2.291   1.069   0.705  0.00  0.00     0.002 A 
ATOM      6  C8  UNL d   1       1.735  -0.211   0.693  0.00  0.00     0.002 A 
ENDROOT
BRANCH   1   7
ATOM      7  C2  UNL d   1       1.798  -2.655   0.056  0.00  0.00     0.056 C 
BRANCH   7   8
ATOM      8  C1  UNL d   1       0.541  -2.802  -0.806  0.00  0.00     0.007 C 
ATOM      9  C   UNL d   1      -0.312  -4.005  -0.424  0.00  0.00     0.009 C 
ENDBRANCH   7   8
ENDBRANCH   1   7
TORSDOF 2
ENDMDL
