MODEL 1
REMARK minimizedAffinity 4.80749655
REMARK minimizedRMSD -1
REMARK  2 active torsions:
REMARK  status: ('A' for Active; 'I' for Inactive)
REMARK    1  A    between atoms: C1_2  and  C2_3 
REMARK    2  A    between atoms: C2_3  and  C3_4 
ROOT
ATOM      1  C3  UNL d   1      -4.655   2.103  -3.831  0.00  0.00    -0.075 A 
ATOM      2  C4  UNL d   1      -4.743   3.401  -4.357  0.00  0.00     0.002 A 
ATOM      3  C5  UNL d   1      -5.404   4.407  -3.652  0.00  0.00     0.002 A 
ATOM      4  C6  UNL d   1      -5.993   4.128  -2.421  0.00  0.00    -0.004 A 
ATOM      5  C7  UNL d   1      -5.925   2.839  -1.896  0.00  0.00     0.002 A 
ATOM      6  C8  UNL d   1      -5.261   1.831  -2.597  0.00  0.00     0.002 A 
ENDROOT
BRANCH   1   7
ATOM      7  C2  UNL d   1      -3.915   1.017  -4.575  0.00  0.00     0.056 C 
BRANCH   7   8
ATOM      8  C1  UNL d   1      -2.397   1.042  -4.368  0.00  0.00     0.007 C 
ATOM      9  C   UNL d   1      -1.947   0.274  -3.132  0.00  0.00     0.009 C 
ENDBRANCH   7   8
ENDBRANCH   1   7
TORSDOF 2
ENDMDL
