MODEL 1
REMARK minimizedAffinity 3.95908046
REMARK minimizedRMSD -1
REMARK  2 active torsions:
REMARK  status: ('A' for Active; 'I' for Inactive)
REMARK    1  A    between atoms: C1_2  and  C2_3 
REMARK    2  A    between atoms: C2_3  and  C3_4 
ROOT
ATOM      1  C3  UNL d   1       3.332  -0.869   0.209  0.00  0.00    -0.075 A 
ATOM      2  C4  UNL d   1       4.730  -0.776   0.148  0.00  0.00     0.002 A 
ATOM      3  C5  UNL d   1       5.358   0.469   0.135  0.00  0.00     0.002 A 
ATOM      4  C6  UNL d   1       4.598   1.636   0.172  0.00  0.00    -0.004 A 
ATOM      5  C7  UNL d   1       3.208   1.557   0.216  0.00  0.00     0.002 A 
ATOM      6  C8  UNL d   1       2.577   0.311   0.234  0.00  0.00     0.002 A 
ENDROOT
BRANCH   1   7
ATOM      7  C2  UNL d   1       2.648  -2.214   0.254  0.00  0.00     0.056 C 
BRANCH   7   8
ATOM      8  C1  UNL d   1       2.250  -2.757  -1.122  0.00  0.00     0.007 C 
ATOM      9  C   UNL d   1       3.413  -2.818  -2.103  0.00  0.00     0.009 C 
ENDBRANCH   7   8
ENDBRANCH   1   7
TORSDOF 2
ENDMDL
