MODEL 1
REMARK minimizedAffinity 1.91659117
REMARK minimizedRMSD -1
REMARK  2 active torsions:
REMARK  status: ('A' for Active; 'I' for Inactive)
REMARK    1  A    between atoms: C1_2  and  C2_3 
REMARK    2  A    between atoms: C2_3  and  C3_4 
ROOT
ATOM      1  C3  UNL d   1      -0.566   0.891   0.538  0.00  0.00    -0.075 A 
ATOM      2  C4  UNL d   1       0.762   0.543   0.250  0.00  0.00     0.002 A 
ATOM      3  C5  UNL d   1       1.606   0.078   1.259  0.00  0.00     0.002 A 
ATOM      4  C6  UNL d   1       1.139  -0.033   2.567  0.00  0.00    -0.004 A 
ATOM      5  C7  UNL d   1      -0.173   0.326   2.867  0.00  0.00     0.002 A 
ATOM      6  C8  UNL d   1      -1.022   0.787   1.859  0.00  0.00     0.002 A 
ENDROOT
BRANCH   1   7
ATOM      7  C2  UNL d   1      -1.494   1.367  -0.555  0.00  0.00     0.056 C 
BRANCH   7   8
ATOM      8  C1  UNL d   1      -2.507   0.313  -1.014  0.00  0.00     0.007 C 
ATOM      9  C   UNL d   1      -2.456   0.045  -2.513  0.00  0.00     0.009 C 
ENDBRANCH   7   8
ENDBRANCH   1   7
TORSDOF 2
ENDMDL
