MODEL 1
REMARK minimizedAffinity -4.89651632
REMARK minimizedRMSD -1
REMARK  0 active torsions:
REMARK  status: ('A' for Active; 'I' for Inactive)
ROOT
ATOM      1  C   UNL d   1       0.859  -2.894   1.068  0.00  0.00     0.077 C 
ATOM      2  C1  UNL d   1       0.795  -1.534   0.439  0.00  0.00    -0.074 A 
ATOM      3  C2  UNL d   1       1.958  -0.883   0.016  0.00  0.00    -0.005 A 
ATOM      4  C3  UNL d   1       1.883   0.378  -0.576  0.00  0.00     0.006 A 
ATOM      5  C4  UNL d   1       0.646   0.999  -0.751  0.00  0.00    -0.005 A 
ATOM      6  C5  UNL d   1      -0.528   0.363  -0.334  0.00  0.00    -0.074 A 
ATOM      7  C6  UNL d   1      -1.867   1.013  -0.523  0.00  0.00     0.077 C 
ATOM      8  C7  UNL d   1      -0.445  -0.907   0.253  0.00  0.00    -0.001 A 
ENDROOT
TORSDOF 0
ENDMDL
