MODEL 1
REMARK minimizedAffinity -3.83274579
REMARK minimizedRMSD -1
REMARK  0 active torsions:
REMARK  status: ('A' for Active; 'I' for Inactive)
ROOT
ATOM      1  C   UNL d   1       1.169  -2.729   1.478  0.00  0.00     0.077 C 
ATOM      2  C1  UNL d   1       1.101  -1.404   0.778  0.00  0.00    -0.074 A 
ATOM      3  C2  UNL d   1       2.264  -0.676   0.504  0.00  0.00    -0.005 A 
ATOM      4  C3  UNL d   1       2.186   0.551  -0.156  0.00  0.00     0.006 A 
ATOM      5  C4  UNL d   1       0.947   1.061  -0.547  0.00  0.00    -0.005 A 
ATOM      6  C5  UNL d   1      -0.226   0.347  -0.281  0.00  0.00    -0.074 A 
ATOM      7  C6  UNL d   1      -1.564   0.876  -0.703  0.00  0.00     0.077 C 
ATOM      8  C7  UNL d   1      -0.139  -0.888   0.376  0.00  0.00    -0.001 A 
ENDROOT
TORSDOF 0
ENDMDL
