MODEL 1
REMARK minimizedAffinity -2.36106229
REMARK minimizedRMSD -1
REMARK  0 active torsions:
REMARK  status: ('A' for Active; 'I' for Inactive)
ROOT
ATOM      1  C   UNL d   1      -2.247   0.359   1.809  0.00  0.00     0.077 C 
ATOM      2  C1  UNL d   1      -1.010   0.160   0.984  0.00  0.00    -0.074 A 
ATOM      3  C2  UNL d   1      -0.622   1.106   0.030  0.00  0.00    -0.005 A 
ATOM      4  C3  UNL d   1       0.536   0.911  -0.723  0.00  0.00     0.006 A 
ATOM      5  C4  UNL d   1       1.316  -0.229  -0.530  0.00  0.00    -0.005 A 
ATOM      6  C5  UNL d   1       0.945  -1.185   0.421  0.00  0.00    -0.074 A 
ATOM      7  C6  UNL d   1       1.778  -2.412   0.648  0.00  0.00     0.077 C 
ATOM      8  C7  UNL d   1      -0.216  -0.980   1.178  0.00  0.00    -0.001 A 
ENDROOT
TORSDOF 0
ENDMDL
