MODEL 1
REMARK minimizedAffinity -3.37948775
REMARK minimizedRMSD -1
REMARK  0 active torsions:
REMARK  status: ('A' for Active; 'I' for Inactive)
ROOT
ATOM      1  C   UNL d   1      -1.469   1.011   0.176  0.00  0.00     0.077 C 
ATOM      2  C1  UNL d   1      -0.200   0.216   0.109  0.00  0.00    -0.074 A 
ATOM      3  C2  UNL d   1       0.954   0.751  -0.471  0.00  0.00    -0.005 A 
ATOM      4  C3  UNL d   1       2.130   0.003  -0.518  0.00  0.00     0.006 A 
ATOM      5  C4  UNL d   1       2.164  -1.287   0.014  0.00  0.00    -0.005 A 
ATOM      6  C5  UNL d   1       1.020  -1.839   0.599  0.00  0.00    -0.074 A 
ATOM      7  C6  UNL d   1       1.042  -3.220   1.184  0.00  0.00     0.077 C 
ATOM      8  C7  UNL d   1      -0.156  -1.078   0.648  0.00  0.00    -0.001 A 
ENDROOT
TORSDOF 0
ENDMDL
