MODEL 1
REMARK minimizedAffinity -4.2259531
REMARK minimizedRMSD -1
REMARK  0 active torsions:
REMARK  status: ('A' for Active; 'I' for Inactive)
ROOT
ATOM      1  C   UNL d   1       3.012   0.163  -1.286  0.00  0.00     0.077 C 
ATOM      2  C1  UNL d   1       1.973  -0.473  -0.412  0.00  0.00    -0.074 A 
ATOM      3  C2  UNL d   1       2.216  -1.697   0.220  0.00  0.00    -0.005 A 
ATOM      4  C3  UNL d   1       1.244  -2.271   1.038  0.00  0.00     0.006 A 
ATOM      5  C4  UNL d   1       0.020  -1.630   1.232  0.00  0.00    -0.005 A 
ATOM      6  C5  UNL d   1      -0.241  -0.405   0.609  0.00  0.00    -0.074 A 
ATOM      7  C6  UNL d   1      -1.548   0.302   0.814  0.00  0.00     0.077 C 
ATOM      8  C7  UNL d   1       0.744   0.169  -0.206  0.00  0.00    -0.001 A 
ENDROOT
TORSDOF 0
ENDMDL
