MODEL 1
REMARK minimizedAffinity 1.61346197
REMARK minimizedRMSD -1
REMARK  0 active torsions:
REMARK  status: ('A' for Active; 'I' for Inactive)
ROOT
ATOM      1  C   UNL d   1      -1.060  -3.881  -1.310  0.00  0.00     0.077 C 
ATOM      2  C1  UNL d   1      -1.003  -2.643  -0.466  0.00  0.00    -0.074 A 
ATOM      3  C2  UNL d   1      -1.275  -2.694   0.905  0.00  0.00    -0.005 A 
ATOM      4  C3  UNL d   1      -1.208  -1.535   1.679  0.00  0.00     0.006 A 
ATOM      5  C4  UNL d   1      -0.869  -0.316   1.091  0.00  0.00    -0.005 A 
ATOM      6  C5  UNL d   1      -0.593  -0.246  -0.278  0.00  0.00    -0.074 A 
ATOM      7  C6  UNL d   1      -0.218   1.055  -0.924  0.00  0.00     0.077 C 
ATOM      8  C7  UNL d   1      -0.656  -1.416  -1.048  0.00  0.00    -0.001 A 
ENDROOT
TORSDOF 0
ENDMDL
