MODEL 1
REMARK minimizedAffinity -3.64721632
REMARK minimizedRMSD -1
REMARK  0 active torsions:
REMARK  status: ('A' for Active; 'I' for Inactive)
ROOT
ATOM      1  C   UNL d   1       1.039  -3.209   2.117  0.00  0.00     0.077 C 
ATOM      2  C1  UNL d   1       1.009  -2.054   1.161  0.00  0.00    -0.074 A 
ATOM      3  C2  UNL d   1       2.085  -1.800   0.306  0.00  0.00    -0.005 A 
ATOM      4  C3  UNL d   1       2.039  -0.727  -0.584  0.00  0.00     0.006 A 
ATOM      5  C4  UNL d   1       0.917   0.101  -0.628  0.00  0.00    -0.005 A 
ATOM      6  C5  UNL d   1      -0.170  -0.137   0.220  0.00  0.00    -0.074 A 
ATOM      7  C6  UNL d   1      -1.387   0.738   0.179  0.00  0.00     0.077 C 
ATOM      8  C7  UNL d   1      -0.118  -1.221   1.106  0.00  0.00    -0.001 A 
ENDROOT
TORSDOF 0
ENDMDL
