MODEL 1
REMARK minimizedAffinity -3.24954176
REMARK minimizedRMSD -1
REMARK  0 active torsions:
REMARK  status: ('A' for Active; 'I' for Inactive)
ROOT
ATOM      1  C   UNL d   1       1.011  -3.001   1.502  0.00  0.00     0.077 C 
ATOM      2  C1  UNL d   1       1.013  -1.730   0.704  0.00  0.00    -0.074 A 
ATOM      3  C2  UNL d   1       2.169  -1.294   0.050  0.00  0.00    -0.005 A 
ATOM      4  C3  UNL d   1       2.153  -0.116  -0.696  0.00  0.00     0.006 A 
ATOM      5  C4  UNL d   1       0.982   0.638  -0.795  0.00  0.00    -0.005 A 
ATOM      6  C5  UNL d   1      -0.184   0.217  -0.148  0.00  0.00    -0.074 A 
ATOM      7  C6  UNL d   1      -1.453   1.009  -0.252  0.00  0.00     0.077 C 
ATOM      8  C7  UNL d   1      -0.162  -0.972   0.594  0.00  0.00    -0.001 A 
ENDROOT
TORSDOF 0
ENDMDL
