MODEL 1
REMARK minimizedAffinity -3.6499157
REMARK minimizedRMSD -1
REMARK  0 active torsions:
REMARK  status: ('A' for Active; 'I' for Inactive)
ROOT
ATOM      1  C   UNL d   1      -1.979   0.721   0.814  0.00  0.00     0.077 C 
ATOM      2  C1  UNL d   1      -0.606   0.245   0.441  0.00  0.00    -0.074 A 
ATOM      3  C2  UNL d   1       0.280   1.078  -0.249  0.00  0.00    -0.005 A 
ATOM      4  C3  UNL d   1       1.557   0.625  -0.581  0.00  0.00     0.006 A 
ATOM      5  C4  UNL d   1       1.960  -0.663  -0.227  0.00  0.00    -0.005 A 
ATOM      6  C5  UNL d   1       1.087  -1.510   0.464  0.00  0.00    -0.074 A 
ATOM      7  C6  UNL d   1       1.507  -2.894   0.861  0.00  0.00     0.077 C 
ATOM      8  C7  UNL d   1      -0.192  -1.045   0.800  0.00  0.00    -0.001 A 
ENDROOT
TORSDOF 0
ENDMDL
