MODEL 1
REMARK minimizedAffinity -3.22394204
REMARK minimizedRMSD -1
REMARK  0 active torsions:
REMARK  status: ('A' for Active; 'I' for Inactive)
ROOT
ATOM      1  C   UNL d   1       3.597  -0.858   1.209  0.00  0.00     0.077 C 
ATOM      2  C1  UNL d   1       2.170  -0.984   0.765  0.00  0.00    -0.074 A 
ATOM      3  C2  UNL d   1       1.403  -2.100   1.117  0.00  0.00    -0.005 A 
ATOM      4  C3  UNL d   1       0.075  -2.199   0.705  0.00  0.00     0.006 A 
ATOM      5  C4  UNL d   1      -0.500  -1.185  -0.063  0.00  0.00    -0.005 A 
ATOM      6  C5  UNL d   1       0.250  -0.062  -0.424  0.00  0.00    -0.074 A 
ATOM      7  C6  UNL d   1      -0.356   1.041  -1.240  0.00  0.00     0.077 C 
ATOM      8  C7  UNL d   1       1.582   0.034   0.000  0.00  0.00    -0.001 A 
ENDROOT
TORSDOF 0
ENDMDL
