MODEL 1
REMARK minimizedAffinity -5.17323828
REMARK minimizedRMSD -1
REMARK  0 active torsions:
REMARK  status: ('A' for Active; 'I' for Inactive)
ROOT
ATOM      1  C   UNL d   1       0.793  -2.964   0.820  0.00  0.00     0.077 C 
ATOM      2  C1  UNL d   1       0.627  -1.580   0.268  0.00  0.00    -0.074 A 
ATOM      3  C2  UNL d   1       1.633  -0.987  -0.502  0.00  0.00    -0.005 A 
ATOM      4  C3  UNL d   1       1.460   0.298  -1.016  0.00  0.00     0.006 A 
ATOM      5  C4  UNL d   1       0.281   1.002  -0.767  0.00  0.00    -0.005 A 
ATOM      6  C5  UNL d   1      -0.736   0.425   0.000  0.00  0.00    -0.074 A 
ATOM      7  C6  UNL d   1      -2.013   1.164   0.270  0.00  0.00     0.077 C 
ATOM      8  C7  UNL d   1      -0.557  -0.869   0.508  0.00  0.00    -0.001 A 
ENDROOT
TORSDOF 0
ENDMDL
