MODEL 1
REMARK minimizedAffinity -3.69547009
REMARK minimizedRMSD -1
REMARK  0 active torsions:
REMARK  status: ('A' for Active; 'I' for Inactive)
ROOT
ATOM      1  C   UNL d   1       2.981  -0.664  -0.962  0.00  0.00     0.077 C 
ATOM      2  C1  UNL d   1       1.714  -0.856  -0.182  0.00  0.00    -0.074 A 
ATOM      3  C2  UNL d   1       1.420  -2.083   0.421  0.00  0.00    -0.005 A 
ATOM      4  C3  UNL d   1       0.242  -2.244   1.151  0.00  0.00     0.006 A 
ATOM      5  C4  UNL d   1      -0.652  -1.181   1.285  0.00  0.00    -0.005 A 
ATOM      6  C5  UNL d   1      -0.375   0.053   0.689  0.00  0.00    -0.074 A 
ATOM      7  C6  UNL d   1      -1.320   1.209   0.832  0.00  0.00     0.077 C 
ATOM      8  C7  UNL d   1       0.814   0.209  -0.037  0.00  0.00    -0.001 A 
ENDROOT
TORSDOF 0
ENDMDL
