MODEL 1
REMARK minimizedAffinity -3.90535593
REMARK minimizedRMSD -1
REMARK  0 active torsions:
REMARK  status: ('A' for Active; 'I' for Inactive)
ROOT
ATOM      1  C   UNL d   1       1.163  -3.204   0.878  0.00  0.00     0.077 C 
ATOM      2  C1  UNL d   1       1.030  -1.781   0.423  0.00  0.00    -0.074 A 
ATOM      3  C2  UNL d   1       2.093  -1.126  -0.207  0.00  0.00    -0.005 A 
ATOM      4  C3  UNL d   1       1.952   0.195  -0.633  0.00  0.00     0.006 A 
ATOM      5  C4  UNL d   1       0.749   0.873  -0.433  0.00  0.00    -0.005 A 
ATOM      6  C5  UNL d   1      -0.325   0.234   0.195  0.00  0.00    -0.074 A 
ATOM      7  C6  UNL d   1      -1.628   0.945   0.410  0.00  0.00     0.077 C 
ATOM      8  C7  UNL d   1      -0.178  -1.095   0.614  0.00  0.00    -0.001 A 
ENDROOT
TORSDOF 0
ENDMDL
