MODEL 1
REMARK minimizedAffinity -4.09466314
REMARK minimizedRMSD -1
REMARK  0 active torsions:
REMARK  status: ('A' for Active; 'I' for Inactive)
ROOT
ATOM      1  C   UNL d   1       0.955  -1.332   0.924  0.00  0.00     0.077 C 
ATOM      2  C1  UNL d   1       0.364  -0.288   0.024  0.00  0.00    -0.074 A 
ATOM      3  C2  UNL d   1       1.182   0.621  -0.655  0.00  0.00    -0.005 A 
ATOM      4  C3  UNL d   1       0.619   1.581  -1.497  0.00  0.00     0.006 A 
ATOM      5  C4  UNL d   1      -0.764   1.642  -1.667  0.00  0.00    -0.005 A 
ATOM      6  C5  UNL d   1      -1.598   0.741  -0.997  0.00  0.00    -0.074 A 
ATOM      7  C6  UNL d   1      -3.086   0.786  -1.177  0.00  0.00     0.077 C 
ATOM      8  C7  UNL d   1      -1.024  -0.225  -0.159  0.00  0.00    -0.001 A 
ENDROOT
TORSDOF 0
ENDMDL
