MODEL 1
REMARK minimizedAffinity -6.18324614
REMARK minimizedRMSD -1
REMARK  0 active torsions:
REMARK  status: ('A' for Active; 'I' for Inactive)
ROOT
ATOM      1  C   UNL d   1       0.908  -4.541   3.004  0.00  0.00     0.077 C 
ATOM      2  C1  UNL d   1       0.407  -3.238   2.457  0.00  0.00    -0.074 A 
ATOM      3  C2  UNL d   1      -0.669  -2.573   3.055  0.00  0.00    -0.005 A 
ATOM      4  C3  UNL d   1      -1.117  -1.357   2.541  0.00  0.00     0.006 A 
ATOM      5  C4  UNL d   1      -0.496  -0.793   1.426  0.00  0.00    -0.005 A 
ATOM      6  C5  UNL d   1       0.581  -1.443   0.815  0.00  0.00    -0.074 A 
ATOM      7  C6  UNL d   1       1.266  -0.846  -0.378  0.00  0.00     0.077 C 
ATOM      8  C7  UNL d   1       1.031  -2.662   1.342  0.00  0.00    -0.001 A 
ENDROOT
TORSDOF 0
ENDMDL
