MODEL 1
REMARK minimizedAffinity -3.48958158
REMARK minimizedRMSD -1
REMARK  0 active torsions:
REMARK  status: ('A' for Active; 'I' for Inactive)
ROOT
ATOM      1  C   UNL d   1      -1.161   1.888  -1.315  0.00  0.00     0.077 C 
ATOM      2  C1  UNL d   1      -0.935   0.722  -0.398  0.00  0.00    -0.074 A 
ATOM      3  C2  UNL d   1      -1.574   0.650   0.843  0.00  0.00    -0.005 A 
ATOM      4  C3  UNL d   1      -1.361  -0.445   1.681  0.00  0.00     0.006 A 
ATOM      5  C4  UNL d   1      -0.509  -1.477   1.286  0.00  0.00    -0.005 A 
ATOM      6  C5  UNL d   1       0.139  -1.422   0.048  0.00  0.00    -0.074 A 
ATOM      7  C6  UNL d   1       1.051  -2.527  -0.396  0.00  0.00     0.077 C 
ATOM      8  C7  UNL d   1      -0.086  -0.322  -0.791  0.00  0.00    -0.001 A 
ENDROOT
TORSDOF 0
ENDMDL
