MODEL 1
REMARK minimizedAffinity 16.6432114
REMARK minimizedRMSD -1
REMARK  0 active torsions:
REMARK  status: ('A' for Active; 'I' for Inactive)
ROOT
ATOM      1  C4' PXY d   1      -5.481  -1.950   5.995  0.00  0.00     0.077 C 
ATOM      2  C1' PXY d   1      -5.901   2.719   2.613  0.00  0.00     0.077 C 
ATOM      3  C1  PXY d   1      -5.784   1.502   3.509  0.00  0.00    -0.082 A 
ATOM      4  C2  PXY d   1      -5.861   0.291   2.981  0.00  0.00     0.003 A 
ATOM      5  C3  PXY d   1      -5.789  -0.821   3.780  0.00  0.00     0.003 A 
ATOM      6  C4  PXY d   1      -5.584  -0.692   5.128  0.00  0.00    -0.082 A 
ATOM      7  C5  PXY d   1      -5.495   0.539   5.673  0.00  0.00     0.003 A 
ATOM      8  C6  PXY d   1      -5.611   1.655   4.850  0.00  0.00     0.003 A 
ENDROOT
TORSDOF 0
ENDMDL
