MODEL 1
REMARK minimizedAffinity 0.910935163
REMARK minimizedRMSD -1
REMARK  0 active torsions:
REMARK  status: ('A' for Active; 'I' for Inactive)
ROOT
ATOM      1  C4' PXY d   1       5.940  -4.306  -5.973  0.00  0.00     0.077 C 
ATOM      2  C1' PXY d   1       2.161  -0.534  -3.757  0.00  0.00     0.077 C 
ATOM      3  C1  PXY d   1       3.142  -1.530  -4.344  0.00  0.00    -0.082 A 
ATOM      4  C2  PXY d   1       4.320  -1.704  -3.768  0.00  0.00     0.003 A 
ATOM      5  C3  PXY d   1       5.232  -2.577  -4.303  0.00  0.00     0.003 A 
ATOM      6  C4  PXY d   1       4.914  -3.318  -5.410  0.00  0.00    -0.082 A 
ATOM      7  C5  PXY d   1       3.710  -3.154  -5.998  0.00  0.00     0.003 A 
ATOM      8  C6  PXY d   1       2.815  -2.232  -5.462  0.00  0.00     0.003 A 
ENDROOT
TORSDOF 0
ENDMDL
