MODEL 1
REMARK minimizedAffinity 7.51155233
REMARK minimizedRMSD -1
REMARK  0 active torsions:
REMARK  status: ('A' for Active; 'I' for Inactive)
ROOT
ATOM      1  C4' PXY d   1      -5.774   0.091   4.868  0.00  0.00     0.077 C 
ATOM      2  C1' PXY d   1      -2.980  -3.071   0.916  0.00  0.00     0.077 C 
ATOM      3  C1  PXY d   1      -3.724  -2.241   1.945  0.00  0.00    -0.082 A 
ATOM      4  C2  PXY d   1      -3.042  -1.538   2.834  0.00  0.00     0.003 A 
ATOM      5  C3  PXY d   1      -3.698  -0.808   3.791  0.00  0.00     0.003 A 
ATOM      6  C4  PXY d   1      -5.066  -0.754   3.805  0.00  0.00    -0.082 A 
ATOM      7  C5  PXY d   1      -5.769  -1.460   2.894  0.00  0.00     0.003 A 
ATOM      8  C6  PXY d   1      -5.084  -2.228   1.956  0.00  0.00     0.003 A 
ENDROOT
TORSDOF 0
ENDMDL
