MODEL 1
REMARK minimizedAffinity 17.5479202
REMARK minimizedRMSD -1
REMARK  0 active torsions:
REMARK  status: ('A' for Active; 'I' for Inactive)
ROOT
ATOM      1  C4' PXY d   1      -5.669  -1.503   6.000  0.00  0.00     0.077 C 
ATOM      2  C1' PXY d   1      -6.000   3.627   3.357  0.00  0.00     0.077 C 
ATOM      3  C1  PXY d   1      -5.919   2.276   4.040  0.00  0.00    -0.082 A 
ATOM      4  C2  PXY d   1      -5.791   2.215   5.356  0.00  0.00     0.003 A 
ATOM      5  C3  PXY d   1      -5.685   1.002   5.986  0.00  0.00     0.003 A 
ATOM      6  C4  PXY d   1      -5.764  -0.161   5.269  0.00  0.00    -0.082 A 
ATOM      7  C5  PXY d   1      -5.905  -0.107   3.927  0.00  0.00     0.003 A 
ATOM      8  C6  PXY d   1      -5.970   1.134   3.302  0.00  0.00     0.003 A 
ENDROOT
TORSDOF 0
ENDMDL
