MODEL 1
REMARK minimizedAffinity 12.4287062
REMARK minimizedRMSD -1
REMARK  0 active torsions:
REMARK  status: ('A' for Active; 'I' for Inactive)
ROOT
ATOM      1  C4' PXY d   1      -4.026  -5.952   0.744  0.00  0.00     0.077 C 
ATOM      2  C1' PXY d   1       0.907  -5.999   3.756  0.00  0.00     0.077 C 
ATOM      3  C1  PXY d   1      -0.380  -5.981   2.956  0.00  0.00    -0.082 A 
ATOM      4  C2  PXY d   1      -1.543  -5.982   3.588  0.00  0.00     0.003 A 
ATOM      5  C3  PXY d   1      -2.717  -5.999   2.880  0.00  0.00     0.003 A 
ATOM      6  C4  PXY d   1      -2.701  -5.960   1.511  0.00  0.00    -0.082 A 
ATOM      7  C5  PXY d   1      -1.519  -5.948   0.860  0.00  0.00     0.003 A 
ATOM      8  C6  PXY d   1      -0.338  -5.973   1.596  0.00  0.00     0.003 A 
ENDROOT
TORSDOF 0
ENDMDL
