MODEL 1
REMARK minimizedAffinity 1.904217
REMARK minimizedRMSD -1
REMARK  0 active torsions:
REMARK  status: ('A' for Active; 'I' for Inactive)
ROOT
ATOM      1  C4' PXY d   1      -3.989  -5.936   1.842  0.00  0.00     0.077 C 
ATOM      2  C1' PXY d   1       1.703  -5.992   2.853  0.00  0.00     0.077 C 
ATOM      3  C1  PXY d   1       0.208  -5.983   2.600  0.00  0.00    -0.082 A 
ATOM      4  C2  PXY d   1      -0.245  -5.975   1.356  0.00  0.00     0.003 A 
ATOM      5  C3  PXY d   1      -1.593  -5.934   1.109  0.00  0.00     0.003 A 
ATOM      6  C4  PXY d   1      -2.488  -5.955   2.145  0.00  0.00    -0.082 A 
ATOM      7  C5  PXY d   1      -2.034  -5.974   3.416  0.00  0.00     0.003 A 
ATOM      8  C6  PXY d   1      -0.661  -5.974   3.646  0.00  0.00     0.003 A 
ENDROOT
TORSDOF 0
ENDMDL
