MODEL 1
REMARK minimizedAffinity 0.349644929
REMARK minimizedRMSD -1
REMARK  0 active torsions:
REMARK  status: ('A' for Active; 'I' for Inactive)
ROOT
ATOM      1  C4' PXY d   1       0.286   0.707   0.193  0.00  0.00     0.077 C 
ATOM      2  C1' PXY d   1      -3.070  -2.027  -3.637  0.00  0.00     0.077 C 
ATOM      3  C1  PXY d   1      -2.192  -1.319  -2.624  0.00  0.00    -0.082 A 
ATOM      4  C2  PXY d   1      -2.005  -0.013  -2.720  0.00  0.00     0.003 A 
ATOM      5  C3  PXY d   1      -1.188   0.638  -1.831  0.00  0.00     0.003 A 
ATOM      6  C4  PXY d   1      -0.600  -0.047  -0.802  0.00  0.00    -0.082 A 
ATOM      7  C5  PXY d   1      -0.795  -1.378  -0.691  0.00  0.00     0.003 A 
ATOM      8  C6  PXY d   1      -1.594  -2.027  -1.628  0.00  0.00     0.003 A 
ENDROOT
TORSDOF 0
ENDMDL
