MODEL 1
REMARK minimizedAffinity 4.65487623
REMARK minimizedRMSD -1
REMARK  0 active torsions:
REMARK  status: ('A' for Active; 'I' for Inactive)
ROOT
ATOM      1  C4' PXY d   1      -2.925  -1.859   2.003  0.00  0.00     0.077 C 
ATOM      2  C1' PXY d   1       1.082  -6.000   2.467  0.00  0.00     0.077 C 
ATOM      3  C1  PXY d   1       0.033  -4.911   2.358  0.00  0.00    -0.082 A 
ATOM      4  C2  PXY d   1      -0.856  -4.955   1.379  0.00  0.00     0.003 A 
ATOM      5  C3  PXY d   1      -1.792  -3.962   1.247  0.00  0.00     0.003 A 
ATOM      6  C4  PXY d   1      -1.853  -2.942   2.158  0.00  0.00    -0.082 A 
ATOM      7  C5  PXY d   1      -0.956  -2.895   3.166  0.00  0.00     0.003 A 
ATOM      8  C6  PXY d   1       0.012  -3.891   3.258  0.00  0.00     0.003 A 
ENDROOT
TORSDOF 0
ENDMDL
