MODEL 1
REMARK minimizedAffinity 7.28033495
REMARK minimizedRMSD -1
REMARK  0 active torsions:
REMARK  status: ('A' for Active; 'I' for Inactive)
ROOT
ATOM      1  C4' PXY d   1      -2.700  -3.215   1.024  0.00  0.00     0.077 C 
ATOM      2  C1' PXY d   1      -5.875   0.096   4.541  0.00  0.00     0.077 C 
ATOM      3  C1  PXY d   1      -5.053  -0.779   3.615  0.00  0.00    -0.082 A 
ATOM      4  C2  PXY d   1      -3.778  -1.003   3.887  0.00  0.00     0.003 A 
ATOM      5  C3  PXY d   1      -3.012  -1.765   3.043  0.00  0.00     0.003 A 
ATOM      6  C4  PXY d   1      -3.570  -2.347   1.937  0.00  0.00    -0.082 A 
ATOM      7  C5  PXY d   1      -4.873  -2.132   1.657  0.00  0.00     0.003 A 
ATOM      8  C6  PXY d   1      -5.623  -1.321   2.505  0.00  0.00     0.003 A 
ENDROOT
TORSDOF 0
ENDMDL
