MODEL 1
REMARK minimizedAffinity 2.59938622
REMARK minimizedRMSD -1
REMARK  0 active torsions:
REMARK  status: ('A' for Active; 'I' for Inactive)
ROOT
ATOM      1  C4' PXY d   1      -1.898  -3.186   0.259  0.00  0.00     0.077 C 
ATOM      2  C1' PXY d   1       1.212   1.436   1.804  0.00  0.00     0.077 C 
ATOM      3  C1  PXY d   1       0.394   0.221   1.411  0.00  0.00    -0.082 A 
ATOM      4  C2  PXY d   1       0.648  -0.398   0.270  0.00  0.00     0.003 A 
ATOM      5  C3  PXY d   1      -0.104  -1.478  -0.116  0.00  0.00     0.003 A 
ATOM      6  C4  PXY d   1      -1.091  -1.962   0.700  0.00  0.00    -0.082 A 
ATOM      7  C5  PXY d   1      -1.349  -1.342   1.871  0.00  0.00     0.003 A 
ATOM      8  C6  PXY d   1      -0.602  -0.222   2.225  0.00  0.00     0.003 A 
ENDROOT
TORSDOF 0
ENDMDL
