MODEL 1
REMARK minimizedAffinity 3.10795617
REMARK minimizedRMSD -1
REMARK  0 active torsions:
REMARK  status: ('A' for Active; 'I' for Inactive)
ROOT
ATOM      1  C4' PXY d   1       0.141   0.904   0.187  0.00  0.00     0.077 C 
ATOM      2  C1' PXY d   1      -3.226  -2.779  -2.730  0.00  0.00     0.077 C 
ATOM      3  C1  PXY d   1      -2.340  -1.807  -1.976  0.00  0.00    -0.082 A 
ATOM      4  C2  PXY d   1      -1.789  -2.177  -0.832  0.00  0.00     0.003 A 
ATOM      5  C3  PXY d   1      -1.012  -1.299  -0.121  0.00  0.00     0.003 A 
ATOM      6  C4  PXY d   1      -0.752  -0.048  -0.613  0.00  0.00    -0.082 A 
ATOM      7  C5  PXY d   1      -1.302   0.333  -1.786  0.00  0.00     0.003 A 
ATOM      8  C6  PXY d   1      -2.122  -0.559  -2.471  0.00  0.00     0.003 A 
ENDROOT
TORSDOF 0
ENDMDL
