MODEL 1
REMARK minimizedAffinity 10.8610563
REMARK minimizedRMSD -1
REMARK  0 active torsions:
REMARK  status: ('A' for Active; 'I' for Inactive)
ROOT
ATOM      1  C4' PXY d   1       3.374   1.132  -0.279  0.00  0.00     0.077 C 
ATOM      2  C1' PXY d   1       3.978   0.562  -6.000  0.00  0.00     0.077 C 
ATOM      3  C1  PXY d   1       3.823   0.698  -4.498  0.00  0.00    -0.082 A 
ATOM      4  C2  PXY d   1       3.093   1.685  -4.004  0.00  0.00     0.003 A 
ATOM      5  C3  PXY d   1       2.968   1.843  -2.647  0.00  0.00     0.003 A 
ATOM      6  C4  PXY d   1       3.551   0.950  -1.789  0.00  0.00    -0.082 A 
ATOM      7  C5  PXY d   1       4.289  -0.066  -2.286  0.00  0.00     0.003 A 
ATOM      8  C6  PXY d   1       4.437  -0.185  -3.665  0.00  0.00     0.003 A 
ENDROOT
TORSDOF 0
ENDMDL
