MODEL 1
REMARK minimizedAffinity 5.20806074
REMARK minimizedRMSD -1
REMARK  0 active torsions:
REMARK  status: ('A' for Active; 'I' for Inactive)
ROOT
ATOM      1  C4' PXY d   1      -1.573  -5.917   2.895  0.00  0.00     0.077 C 
ATOM      2  C1' PXY d   1       3.308  -5.997   5.991  0.00  0.00     0.077 C 
ATOM      3  C1  PXY d   1       2.021  -5.982   5.189  0.00  0.00    -0.082 A 
ATOM      4  C2  PXY d   1       2.075  -5.975   3.867  0.00  0.00     0.003 A 
ATOM      5  C3  PXY d   1       0.922  -5.929   3.127  0.00  0.00     0.003 A 
ATOM      6  C4  PXY d   1      -0.300  -5.943   3.745  0.00  0.00    -0.082 A 
ATOM      7  C5  PXY d   1      -0.363  -5.960   5.094  0.00  0.00     0.003 A 
ATOM      8  C6  PXY d   1       0.820  -5.966   5.828  0.00  0.00     0.003 A 
ENDROOT
TORSDOF 0
ENDMDL
