MODEL 1
REMARK minimizedAffinity 5.29888248
REMARK minimizedRMSD -1
REMARK  0 active torsions:
REMARK  status: ('A' for Active; 'I' for Inactive)
ROOT
ATOM      1  C4' PXY d   1      -3.390  -1.892  -2.952  0.00  0.00     0.077 C 
ATOM      2  C1' PXY d   1       0.758   0.416   0.347  0.00  0.00     0.077 C 
ATOM      3  C1  PXY d   1      -0.327  -0.201  -0.514  0.00  0.00    -0.082 A 
ATOM      4  C2  PXY d   1      -0.772   0.453  -1.574  0.00  0.00     0.003 A 
ATOM      5  C3  PXY d   1      -1.774  -0.076  -2.346  0.00  0.00     0.003 A 
ATOM      6  C4  PXY d   1      -2.290  -1.312  -2.059  0.00  0.00    -0.082 A 
ATOM      7  C5  PXY d   1      -1.833  -1.990  -0.985  0.00  0.00     0.003 A 
ATOM      8  C6  PXY d   1      -0.844  -1.418  -0.191  0.00  0.00     0.003 A 
ENDROOT
TORSDOF 0
ENDMDL
