MODEL 1
REMARK minimizedAffinity 4.09915924
REMARK minimizedRMSD -1
REMARK  0 active torsions:
REMARK  status: ('A' for Active; 'I' for Inactive)
ROOT
ATOM      1  C4' PXY d   1       0.231   0.592   0.181  0.00  0.00     0.077 C 
ATOM      2  C1' PXY d   1      -2.202  -3.465  -3.141  0.00  0.00     0.077 C 
ATOM      3  C1  PXY d   1      -1.575  -2.397  -2.266  0.00  0.00    -0.082 A 
ATOM      4  C2  PXY d   1      -0.343  -1.987  -2.516  0.00  0.00     0.003 A 
ATOM      5  C3  PXY d   1       0.250  -1.044  -1.716  0.00  0.00     0.003 A 
ATOM      6  C4  PXY d   1      -0.445  -0.477  -0.681  0.00  0.00    -0.082 A 
ATOM      7  C5  PXY d   1      -1.707  -0.883  -0.426  0.00  0.00     0.003 A 
ATOM      8  C6  PXY d   1      -2.276  -1.870  -1.225  0.00  0.00     0.003 A 
ENDROOT
TORSDOF 0
ENDMDL
