MODEL 1
REMARK minimizedAffinity 12.5519228
REMARK minimizedRMSD -1
REMARK  0 active torsions:
REMARK  status: ('A' for Active; 'I' for Inactive)
ROOT
ATOM      1  C4' PXY d   1       1.841  -5.999   5.535  0.00  0.00     0.077 C 
ATOM      2  C1' PXY d   1      -1.568  -3.631   1.511  0.00  0.00     0.077 C 
ATOM      3  C1  PXY d   1      -0.684  -4.258   2.571  0.00  0.00    -0.082 A 
ATOM      4  C2  PXY d   1       0.451  -3.668   2.910  0.00  0.00     0.003 A 
ATOM      5  C3  PXY d   1       1.277  -4.238   3.844  0.00  0.00     0.003 A 
ATOM      6  C4  PXY d   1       0.913  -5.397   4.476  0.00  0.00    -0.082 A 
ATOM      7  C5  PXY d   1      -0.248  -5.999   4.144  0.00  0.00     0.003 A 
ATOM      8  C6  PXY d   1      -1.054  -5.426   3.164  0.00  0.00     0.003 A 
ENDROOT
TORSDOF 0
ENDMDL
