MODEL 1
REMARK minimizedAffinity 0.787179291
REMARK minimizedRMSD -1
REMARK  0 active torsions:
REMARK  status: ('A' for Active; 'I' for Inactive)
ROOT
ATOM      1  C4' PXY d   1       5.984  -5.785   5.994  0.00  0.00     0.077 C 
ATOM      2  C1' PXY d   1       5.979  -0.726   3.198  0.00  0.00     0.077 C 
ATOM      3  C1  PXY d   1       5.985  -2.047   3.942  0.00  0.00    -0.082 A 
ATOM      4  C2  PXY d   1       5.997  -3.181   3.261  0.00  0.00     0.003 A 
ATOM      5  C3  PXY d   1       5.971  -4.385   3.917  0.00  0.00     0.003 A 
ATOM      6  C4  PXY d   1       5.986  -4.428   5.285  0.00  0.00    -0.082 A 
ATOM      7  C5  PXY d   1       5.985  -3.276   5.988  0.00  0.00     0.003 A 
ATOM      8  C6  PXY d   1       5.970  -2.064   5.302  0.00  0.00     0.003 A 
ENDROOT
TORSDOF 0
ENDMDL
