MODEL 1
REMARK minimizedAffinity 2.92779112
REMARK minimizedRMSD -1
REMARK  0 active torsions:
REMARK  status: ('A' for Active; 'I' for Inactive)
ROOT
ATOM      1  C4' PXY d   1       0.824   1.457   1.489  0.00  0.00     0.077 C 
ATOM      2  C1' PXY d   1      -2.390  -3.079  -0.095  0.00  0.00     0.077 C 
ATOM      3  C1  PXY d   1      -1.556  -1.887   0.330  0.00  0.00    -0.082 A 
ATOM      4  C2  PXY d   1      -0.772  -1.289  -0.552  0.00  0.00     0.003 A 
ATOM      5  C3  PXY d   1       0.013  -0.230  -0.177  0.00  0.00     0.003 A 
ATOM      6  C4  PXY d   1      -0.044   0.256   1.102  0.00  0.00    -0.082 A 
ATOM      7  C5  PXY d   1      -0.849  -0.342   2.006  0.00  0.00     0.003 A 
ATOM      8  C6  PXY d   1      -1.607  -1.442   1.615  0.00  0.00     0.003 A 
ENDROOT
TORSDOF 0
ENDMDL
