MODEL 1
REMARK minimizedAffinity 2.25438976
REMARK minimizedRMSD -1
REMARK  0 active torsions:
REMARK  status: ('A' for Active; 'I' for Inactive)
ROOT
ATOM      1  C4' PXY d   1      -2.198  -2.556  -0.544  0.00  0.00     0.077 C 
ATOM      2  C1' PXY d   1       1.118   1.679   1.575  0.00  0.00     0.077 C 
ATOM      3  C1  PXY d   1       0.246   0.576   1.008  0.00  0.00    -0.082 A 
ATOM      4  C2  PXY d   1      -0.278  -0.327   1.822  0.00  0.00     0.003 A 
ATOM      5  C3  PXY d   1      -1.043  -1.349   1.324  0.00  0.00     0.003 A 
ATOM      6  C4  PXY d   1      -1.319  -1.419  -0.016  0.00  0.00    -0.082 A 
ATOM      7  C5  PXY d   1      -0.797  -0.496  -0.851  0.00  0.00     0.003 A 
ATOM      8  C6  PXY d   1       0.011   0.511  -0.330  0.00  0.00     0.003 A 
ENDROOT
TORSDOF 0
ENDMDL
