MODEL 1
REMARK minimizedAffinity 10.5296202
REMARK minimizedRMSD -1
REMARK  0 active torsions:
REMARK  status: ('A' for Active; 'I' for Inactive)
ROOT
ATOM      1  C4' PXY d   1      -5.652  -0.742   3.508  0.00  0.00     0.077 C 
ATOM      2  C1' PXY d   1      -1.840  -3.734   0.357  0.00  0.00     0.077 C 
ATOM      3  C1  PXY d   1      -2.847  -2.948   1.172  0.00  0.00    -0.082 A 
ATOM      4  C2  PXY d   1      -2.468  -2.373   2.302  0.00  0.00     0.003 A 
ATOM      5  C3  PXY d   1      -3.373  -1.685   3.069  0.00  0.00     0.003 A 
ATOM      6  C4  PXY d   1      -4.667  -1.538   2.647  0.00  0.00    -0.082 A 
ATOM      7  C5  PXY d   1      -5.060  -2.112   1.490  0.00  0.00     0.003 A 
ATOM      8  C6  PXY d   1      -4.136  -2.842   0.748  0.00  0.00     0.003 A 
ENDROOT
TORSDOF 0
ENDMDL
