MODEL 1
REMARK minimizedAffinity 13.9587307
REMARK minimizedRMSD -1
REMARK  2 active torsions:
REMARK  status: ('A' for Active; 'I' for Inactive)
REMARK    1  A    between atoms: C1_2  and  C2_3 
REMARK    2  A    between atoms: C2_3  and  C3_4 
ROOT
ATOM      1  C3  UNL d   1      -1.520   5.733  -1.982  0.00  0.00    -0.075 A 
ATOM      2  C4  UNL d   1      -1.303   6.000  -3.342  0.00  0.00     0.002 A 
ATOM      3  C5  UNL d   1      -0.010   5.999  -3.867  0.00  0.00     0.002 A 
ATOM      4  C6  UNL d   1       1.081   5.742  -3.039  0.00  0.00    -0.004 A 
ATOM      5  C7  UNL d   1       0.878   5.492  -1.684  0.00  0.00     0.002 A 
ATOM      6  C8  UNL d   1      -0.414   5.488  -1.157  0.00  0.00     0.002 A 
ENDROOT
BRANCH   1   7
ATOM      7  C2  UNL d   1      -2.918   5.704  -1.414  0.00  0.00     0.056 C 
BRANCH   7   8
ATOM      8  C1  UNL d   1      -3.878   4.776  -2.167  0.00  0.00     0.007 C 
ATOM      9  C   UNL d   1      -5.246   4.664  -1.507  0.00  0.00     0.009 C 
ENDBRANCH   7   8
ENDBRANCH   1   7
TORSDOF 2
ENDMDL
