MODEL 1
REMARK minimizedAffinity 14.7238207
REMARK minimizedRMSD -1
REMARK  2 active torsions:
REMARK  status: ('A' for Active; 'I' for Inactive)
REMARK    1  A    between atoms: C1_2  and  C2_3 
REMARK    2  A    between atoms: C2_3  and  C3_4 
ROOT
ATOM      1  C3  UNL d   1       2.711  -1.541   4.321  0.00  0.00    -0.075 A 
ATOM      2  C4  UNL d   1       3.409  -0.544   3.624  0.00  0.00     0.002 A 
ATOM      3  C5  UNL d   1       2.818   0.696   3.381  0.00  0.00     0.002 A 
ATOM      4  C6  UNL d   1       1.521   0.952   3.821  0.00  0.00    -0.004 A 
ATOM      5  C7  UNL d   1       0.812  -0.037   4.499  0.00  0.00     0.002 A 
ATOM      6  C8  UNL d   1       1.403  -1.278   4.748  0.00  0.00     0.002 A 
ENDROOT
BRANCH   1   7
ATOM      7  C2  UNL d   1       3.355  -2.875   4.613  0.00  0.00     0.056 C 
BRANCH   7   8
ATOM      8  C1  UNL d   1       4.125  -2.919   5.937  0.00  0.00     0.007 C 
ATOM      9  C   UNL d   1       5.148  -4.045   5.999  0.00  0.00     0.009 C 
ENDBRANCH   7   8
ENDBRANCH   1   7
TORSDOF 2
ENDMDL
