MODEL 1
REMARK minimizedAffinity 14.50634
REMARK minimizedRMSD -1
REMARK  2 active torsions:
REMARK  status: ('A' for Active; 'I' for Inactive)
REMARK    1  A    between atoms: C1_2  and  C2_3 
REMARK    2  A    between atoms: C2_3  and  C3_4 
ROOT
ATOM      1  C3  UNL d   1      -0.120   3.329   0.557  0.00  0.00    -0.075 A 
ATOM      2  C4  UNL d   1      -0.712   4.407  -0.117  0.00  0.00     0.002 A 
ATOM      3  C5  UNL d   1       0.004   5.583  -0.338  0.00  0.00     0.002 A 
ATOM      4  C6  UNL d   1       1.315   5.701   0.119  0.00  0.00    -0.004 A 
ATOM      5  C7  UNL d   1       1.908   4.642   0.804  0.00  0.00     0.002 A 
ATOM      6  C8  UNL d   1       1.195   3.462   1.023  0.00  0.00     0.002 A 
ENDROOT
BRANCH   1   7
ATOM      7  C2  UNL d   1      -0.880   2.042   0.773  0.00  0.00     0.056 C 
BRANCH   7   8
ATOM      8  C1  UNL d   1      -0.834   1.082  -0.420  0.00  0.00     0.007 C 
ATOM      9  C   UNL d   1      -2.215   0.664  -0.908  0.00  0.00     0.009 C 
ENDBRANCH   7   8
ENDBRANCH   1   7
TORSDOF 2
ENDMDL
