MODEL 1
REMARK minimizedAffinity 14.4468584
REMARK minimizedRMSD -1
REMARK  2 active torsions:
REMARK  status: ('A' for Active; 'I' for Inactive)
REMARK    1  A    between atoms: C1_2  and  C2_3 
REMARK    2  A    between atoms: C2_3  and  C3_4 
ROOT
ATOM      1  C3  UNL d   1      -3.568  -0.063   3.640  0.00  0.00    -0.075 A 
ATOM      2  C4  UNL d   1      -3.396   1.288   3.307  0.00  0.00     0.002 A 
ATOM      3  C5  UNL d   1      -2.136   1.882   3.386  0.00  0.00     0.002 A 
ATOM      4  C6  UNL d   1      -1.037   1.138   3.809  0.00  0.00    -0.004 A 
ATOM      5  C7  UNL d   1      -1.200  -0.201   4.159  0.00  0.00     0.002 A 
ATOM      6  C8  UNL d   1      -2.459  -0.799   4.076  0.00  0.00     0.002 A 
ENDROOT
BRANCH   1   7
ATOM      7  C2  UNL d   1      -4.924  -0.720   3.528  0.00  0.00     0.056 C 
BRANCH   7   8
ATOM      8  C1  UNL d   1      -5.999  -0.086   4.417  0.00  0.00     0.007 C 
ATOM      9  C   UNL d   1      -6.000  -0.632   5.839  0.00  0.00     0.009 C 
ENDBRANCH   7   8
ENDBRANCH   1   7
TORSDOF 2
ENDMDL
