MODEL 1
REMARK minimizedAffinity 12.1254864
REMARK minimizedRMSD -1
REMARK  2 active torsions:
REMARK  status: ('A' for Active; 'I' for Inactive)
REMARK    1  A    between atoms: C1_2  and  C2_3 
REMARK    2  A    between atoms: C2_3  and  C3_4 
ROOT
ATOM      1  C3  UNL d   1       5.521  -2.944  -1.962  0.00  0.00    -0.075 A 
ATOM      2  C4  UNL d   1       5.683  -2.994  -3.354  0.00  0.00     0.002 A 
ATOM      3  C5  UNL d   1       5.220  -4.090  -4.082  0.00  0.00     0.002 A 
ATOM      4  C6  UNL d   1       4.600  -5.153  -3.428  0.00  0.00    -0.004 A 
ATOM      5  C7  UNL d   1       4.449  -5.121  -2.044  0.00  0.00     0.002 A 
ATOM      6  C8  UNL d   1       4.907  -4.023  -1.313  0.00  0.00     0.002 A 
ENDROOT
BRANCH   1   7
ATOM      7  C2  UNL d   1       5.993  -1.746  -1.172  0.00  0.00     0.056 C 
BRANCH   7   8
ATOM      8  C1  UNL d   1       5.093  -1.388   0.015  0.00  0.00     0.007 C 
ATOM      9  C   UNL d   1       3.786  -0.726  -0.401  0.00  0.00     0.009 C 
ENDBRANCH   7   8
ENDBRANCH   1   7
TORSDOF 2
ENDMDL
