MODEL 1
REMARK minimizedAffinity -1.91847515
REMARK minimizedRMSD -1
REMARK  0 active torsions:
REMARK  status: ('A' for Active; 'I' for Inactive)
ROOT
ATOM      1  C   UNL d   1       3.118  -1.267  -3.685  0.00  0.00     0.078 C 
ATOM      2  C1  UNL d   1       3.744  -0.175  -4.500  0.00  0.00    -0.077 A 
ATOM      3  C2  UNL d   1       4.901  -0.410  -5.253  0.00  0.00    -0.001 A 
ATOM      4  C3  UNL d   1       5.479   0.618  -6.000  0.00  0.00     0.003 A 
ATOM      5  C4  UNL d   1       4.907   1.889  -6.000  0.00  0.00    -0.005 A 
ATOM      6  C5  UNL d   1       3.757   2.133  -5.252  0.00  0.00     0.003 A 
ATOM      7  C6  UNL d   1       3.178   1.106  -4.505  0.00  0.00    -0.001 A 
ENDROOT
TORSDOF 0
ENDMDL
