MODEL 1
REMARK minimizedAffinity -2.23132324
REMARK minimizedRMSD -1
REMARK  0 active torsions:
REMARK  status: ('A' for Active; 'I' for Inactive)
ROOT
ATOM      1  C   UNL d   1       4.130  -5.981  -1.662  0.00  0.00     0.078 C 
ATOM      2  C1  UNL d   1       4.079  -5.995  -3.161  0.00  0.00    -0.077 A 
ATOM      3  C2  UNL d   1       5.254  -5.993  -3.923  0.00  0.00    -0.001 A 
ATOM      4  C3  UNL d   1       5.191  -5.996  -5.317  0.00  0.00     0.003 A 
ATOM      5  C4  UNL d   1       3.956  -5.999  -5.962  0.00  0.00    -0.005 A 
ATOM      6  C5  UNL d   1       2.781  -5.998  -5.212  0.00  0.00     0.003 A 
ATOM      7  C6  UNL d   1       2.842  -5.995  -3.818  0.00  0.00    -0.001 A 
ENDROOT
TORSDOF 0
ENDMDL
