MODEL 1
REMARK minimizedAffinity 0.578752697
REMARK minimizedRMSD -1
REMARK  0 active torsions:
REMARK  status: ('A' for Active; 'I' for Inactive)
ROOT
ATOM      1  C   UNL d   1       3.581  -5.886  -5.954  0.00  0.00     0.078 C 
ATOM      2  C1  UNL d   1       3.470  -5.908  -4.459  0.00  0.00    -0.077 A 
ATOM      3  C2  UNL d   1       2.221  -5.970  -3.829  0.00  0.00    -0.001 A 
ATOM      4  C3  UNL d   1       2.132  -5.980  -2.436  0.00  0.00     0.003 A 
ATOM      5  C4  UNL d   1       3.289  -5.925  -1.661  0.00  0.00    -0.005 A 
ATOM      6  C5  UNL d   1       4.536  -5.861  -2.279  0.00  0.00     0.003 A 
ATOM      7  C6  UNL d   1       4.627  -5.851  -3.672  0.00  0.00    -0.001 A 
ENDROOT
TORSDOF 0
ENDMDL
