MODEL 1
REMARK minimizedAffinity -1.28316498
REMARK minimizedRMSD -1
REMARK  0 active torsions:
REMARK  status: ('A' for Active; 'I' for Inactive)
ROOT
ATOM      1  C   UNL d   1       3.136  -5.988  -1.685  0.00  0.00     0.078 C 
ATOM      2  C1  UNL d   1       3.122  -5.995  -3.184  0.00  0.00    -0.077 A 
ATOM      3  C2  UNL d   1       4.316  -5.982  -3.916  0.00  0.00    -0.001 A 
ATOM      4  C3  UNL d   1       4.288  -5.978  -5.312  0.00  0.00     0.003 A 
ATOM      5  C4  UNL d   1       3.069  -5.985  -5.987  0.00  0.00    -0.005 A 
ATOM      6  C5  UNL d   1       1.876  -5.996  -5.267  0.00  0.00     0.003 A 
ATOM      7  C6  UNL d   1       1.902  -6.000  -3.872  0.00  0.00    -0.001 A 
ENDROOT
TORSDOF 0
ENDMDL
