MODEL 1
REMARK minimizedAffinity -1.060215
REMARK minimizedRMSD -1
REMARK  0 active torsions:
REMARK  status: ('A' for Active; 'I' for Inactive)
ROOT
ATOM      1  C   UNL d   1       3.034  -6.000  -0.212  0.00  0.00     0.078 C 
ATOM      2  C1  UNL d   1       3.256  -5.329  -1.534  0.00  0.00    -0.077 A 
ATOM      3  C2  UNL d   1       2.999  -6.000  -2.736  0.00  0.00    -0.001 A 
ATOM      4  C3  UNL d   1       3.220  -5.366  -3.960  0.00  0.00     0.003 A 
ATOM      5  C4  UNL d   1       3.700  -4.058  -3.994  0.00  0.00    -0.005 A 
ATOM      6  C5  UNL d   1       3.960  -3.383  -2.803  0.00  0.00     0.003 A 
ATOM      7  C6  UNL d   1       3.740  -4.015  -1.578  0.00  0.00    -0.001 A 
ENDROOT
TORSDOF 0
ENDMDL
