MODEL 1
REMARK minimizedAffinity -1.90997374
REMARK minimizedRMSD -1
REMARK  0 active torsions:
REMARK  status: ('A' for Active; 'I' for Inactive)
ROOT
ATOM      1  C   UNL d   1       3.441  -5.989  -1.727  0.00  0.00     0.078 C 
ATOM      2  C1  UNL d   1       3.196  -5.999  -3.206  0.00  0.00    -0.077 A 
ATOM      3  C2  UNL d   1       4.263  -5.994  -4.114  0.00  0.00    -0.001 A 
ATOM      4  C3  UNL d   1       4.019  -5.994  -5.488  0.00  0.00     0.003 A 
ATOM      5  C4  UNL d   1       2.711  -5.997  -5.967  0.00  0.00    -0.005 A 
ATOM      6  C5  UNL d   1       1.644  -6.000  -5.072  0.00  0.00     0.003 A 
ATOM      7  C6  UNL d   1       1.885  -6.000  -3.697  0.00  0.00    -0.001 A 
ENDROOT
TORSDOF 0
ENDMDL
