MODEL 1
REMARK minimizedAffinity 1.44400334
REMARK minimizedRMSD -1
REMARK  0 active torsions:
REMARK  status: ('A' for Active; 'I' for Inactive)
ROOT
ATOM      1  C   UNL d   1       3.652  -5.949  -1.718  0.00  0.00     0.078 C 
ATOM      2  C1  UNL d   1       3.470  -5.948  -3.207  0.00  0.00    -0.077 A 
ATOM      3  C2  UNL d   1       4.573  -5.915  -4.068  0.00  0.00    -0.001 A 
ATOM      4  C3  UNL d   1       4.388  -5.905  -5.452  0.00  0.00     0.003 A 
ATOM      5  C4  UNL d   1       3.101  -5.925  -5.986  0.00  0.00    -0.005 A 
ATOM      6  C5  UNL d   1       1.997  -5.956  -5.136  0.00  0.00     0.003 A 
ATOM      7  C6  UNL d   1       2.180  -5.967  -3.752  0.00  0.00    -0.001 A 
ENDROOT
TORSDOF 0
ENDMDL
