MODEL 1
REMARK minimizedAffinity 1.1402781
REMARK minimizedRMSD -1
REMARK  0 active torsions:
REMARK  status: ('A' for Active; 'I' for Inactive)
ROOT
ATOM      1  C   UNL d   1       3.214  -5.999  -3.087  0.00  0.00     0.078 C 
ATOM      2  C1  UNL d   1       2.917  -5.992  -1.617  0.00  0.00    -0.077 A 
ATOM      3  C2  UNL d   1       3.950  -5.996  -0.672  0.00  0.00    -0.001 A 
ATOM      4  C3  UNL d   1       3.658  -5.999   0.693  0.00  0.00     0.003 A 
ATOM      5  C4  UNL d   1       2.334  -5.999   1.125  0.00  0.00    -0.005 A 
ATOM      6  C5  UNL d   1       1.299  -5.996   0.192  0.00  0.00     0.003 A 
ATOM      7  C6  UNL d   1       1.589  -5.993  -1.173  0.00  0.00    -0.001 A 
ENDROOT
TORSDOF 0
ENDMDL
