MODEL 1
REMARK minimizedAffinity 1.40332079
REMARK minimizedRMSD -1
REMARK  0 active torsions:
REMARK  status: ('A' for Active; 'I' for Inactive)
ROOT
ATOM      1  C   UNL d   1      -0.594  -2.683  -0.018  0.00  0.00     0.078 C 
ATOM      2  C1  UNL d   1      -1.681  -2.619  -1.049  0.00  0.00    -0.077 A 
ATOM      3  C2  UNL d   1      -2.585  -3.676  -1.209  0.00  0.00    -0.001 A 
ATOM      4  C3  UNL d   1      -3.587  -3.608  -2.179  0.00  0.00     0.003 A 
ATOM      5  C4  UNL d   1      -3.693  -2.485  -2.997  0.00  0.00    -0.005 A 
ATOM      6  C5  UNL d   1      -2.796  -1.429  -2.847  0.00  0.00     0.003 A 
ATOM      7  C6  UNL d   1      -1.794  -1.496  -1.877  0.00  0.00    -0.001 A 
ENDROOT
TORSDOF 0
ENDMDL
