MODEL 1
REMARK minimizedAffinity -4.6021719
REMARK minimizedRMSD -1
REMARK  1 active torsions:
REMARK  status: ('A' for Active; 'I' for Inactive)
REMARK    1  A    between atoms: C3_4  and  O_7 
ROOT
ATOM      1  C   UNL d   1      -0.246  -0.032  -0.352  0.00  0.00    -0.033 A 
ATOM      2  C1  UNL d   1       1.082  -0.424  -0.168  0.00  0.00     0.039 A 
ATOM      3  C2  UNL d   1       1.570  -0.659   1.118  0.00  0.00    -0.080 A 
ATOM      4  C3  UNL d   1       0.722  -0.500   2.211  0.00  0.00     0.150 A 
ATOM      5  C4  UNL d   1      -0.603  -0.114   2.034  0.00  0.00    -0.007 A 
ATOM      6  C5  UNL d   1      -1.088   0.122   0.749  0.00  0.00     0.039 A 
ENDROOT
BRANCH   4   7
ATOM      7  O   UNL d   1       1.154  -0.714   3.486  0.00  0.00    -0.526 OA
ATOM      8  H5  UNL d   1       2.097  -0.947   3.456  0.00  0.00     0.418 HD
ENDBRANCH   4   7
TORSDOF 1
ENDMDL
