MODEL 1
REMARK minimizedAffinity -5.03115273
REMARK minimizedRMSD -1
REMARK  1 active torsions:
REMARK  status: ('A' for Active; 'I' for Inactive)
REMARK    1  A    between atoms: C3_4  and  O_7 
ROOT
ATOM      1  C   UNL d   1      -0.098  -0.362   0.022  0.00  0.00    -0.033 A 
ATOM      2  C1  UNL d   1       1.262  -0.670  -0.050  0.00  0.00     0.039 A 
ATOM      3  C2  UNL d   1       1.995  -0.881   1.120  0.00  0.00    -0.080 A 
ATOM      4  C3  UNL d   1       1.356  -0.782   2.353  0.00  0.00     0.150 A 
ATOM      5  C4  UNL d   1       0.000  -0.479   2.432  0.00  0.00    -0.007 A 
ATOM      6  C5  UNL d   1      -0.729  -0.268   1.262  0.00  0.00     0.039 A 
ENDROOT
BRANCH   4   7
ATOM      7  O   UNL d   1       2.030  -0.974   3.523  0.00  0.00    -0.526 OA
ATOM      8  H5  UNL d   1       2.963  -1.147   3.315  0.00  0.00     0.418 HD
ENDBRANCH   4   7
TORSDOF 1
ENDMDL
