MODEL 1
REMARK minimizedAffinity -0.0785418227
REMARK minimizedRMSD -1
REMARK  1 active torsions:
REMARK  status: ('A' for Active; 'I' for Inactive)
REMARK    1  A    between atoms: C3_4  and  O_7 
ROOT
ATOM      1  C   UNL d   1       0.644   0.054  -0.136  0.00  0.00    -0.033 A 
ATOM      2  C1  UNL d   1      -0.745   0.197  -0.112  0.00  0.00     0.039 A 
ATOM      3  C2  UNL d   1      -1.352   1.259  -0.785  0.00  0.00    -0.080 A 
ATOM      4  C3  UNL d   1      -0.559   2.171  -1.478  0.00  0.00     0.150 A 
ATOM      5  C4  UNL d   1       0.824   2.033  -1.509  0.00  0.00    -0.007 A 
ATOM      6  C5  UNL d   1       1.428   0.972  -0.836  0.00  0.00     0.039 A 
ENDROOT
BRANCH   4   7
ATOM      7  O   UNL d   1      -1.105   3.226  -2.145  0.00  0.00    -0.526 OA
ATOM      8  H5  UNL d   1      -2.068   3.210  -2.012  0.00  0.00     0.418 HD
ENDBRANCH   4   7
TORSDOF 1
ENDMDL
