MODEL 1
REMARK minimizedAffinity -4.8352747
REMARK minimizedRMSD -1
REMARK  1 active torsions:
REMARK  status: ('A' for Active; 'I' for Inactive)
REMARK    1  A    between atoms: C3_4  and  O_7 
ROOT
ATOM      1  C   UNL d   1      -0.872  -0.306  -0.233  0.00  0.00    -0.033 A 
ATOM      2  C1  UNL d   1       0.441  -0.742  -0.421  0.00  0.00     0.039 A 
ATOM      3  C2  UNL d   1       1.228  -1.090   0.678  0.00  0.00    -0.080 A 
ATOM      4  C3  UNL d   1       0.689  -1.001   1.959  0.00  0.00     0.150 A 
ATOM      5  C4  UNL d   1      -0.620  -0.571   2.154  0.00  0.00    -0.007 A 
ATOM      6  C5  UNL d   1      -1.403  -0.223   1.054  0.00  0.00     0.039 A 
ENDROOT
BRANCH   4   7
ATOM      7  O   UNL d   1       1.419  -1.326   3.064  0.00  0.00    -0.526 OA
ATOM      8  H5  UNL d   1       2.314  -1.577   2.778  0.00  0.00     0.418 HD
ENDBRANCH   4   7
TORSDOF 1
ENDMDL
