MODEL 1
REMARK minimizedAffinity -2.91259122
REMARK minimizedRMSD -1
REMARK  1 active torsions:
REMARK  status: ('A' for Active; 'I' for Inactive)
REMARK    1  A    between atoms: C3_4  and  O_7 
ROOT
ATOM      1  C   UNL d   1      -2.306   1.942  -2.348  0.00  0.00    -0.033 A 
ATOM      2  C1  UNL d   1      -1.041   1.366  -2.208  0.00  0.00     0.039 A 
ATOM      3  C2  UNL d   1       0.095   2.176  -2.162  0.00  0.00    -0.080 A 
ATOM      4  C3  UNL d   1      -0.047   3.558  -2.255  0.00  0.00     0.150 A 
ATOM      5  C4  UNL d   1      -1.304   4.138  -2.390  0.00  0.00    -0.007 A 
ATOM      6  C5  UNL d   1      -2.437   3.328  -2.437  0.00  0.00     0.039 A 
ENDROOT
BRANCH   4   7
ATOM      7  O   UNL d   1       1.033   4.389  -2.219  0.00  0.00    -0.526 OA
ATOM      8  H5  UNL d   1       1.837   3.847  -2.151  0.00  0.00     0.418 HD
ENDBRANCH   4   7
TORSDOF 1
ENDMDL
