MODEL 1
REMARK minimizedAffinity -2.30394197
REMARK minimizedRMSD -1
REMARK  1 active torsions:
REMARK  status: ('A' for Active; 'I' for Inactive)
REMARK    1  A    between atoms: C3_4  and  O_7 
ROOT
ATOM      1  C   UNL d   1       1.167  -0.403  -0.646  0.00  0.00    -0.033 A 
ATOM      2  C1  UNL d   1       2.008   0.667  -0.959  0.00  0.00     0.039 A 
ATOM      3  C2  UNL d   1       1.466   1.896  -1.339  0.00  0.00    -0.080 A 
ATOM      4  C3  UNL d   1       0.083   2.043  -1.401  0.00  0.00     0.150 A 
ATOM      5  C4  UNL d   1      -0.761   0.983  -1.087  0.00  0.00    -0.007 A 
ATOM      6  C5  UNL d   1      -0.218  -0.244  -0.709  0.00  0.00     0.039 A 
ENDROOT
BRANCH   4   7
ATOM      7  O   UNL d   1      -0.493   3.222  -1.771  0.00  0.00    -0.526 OA
ATOM      8  H5  UNL d   1       0.213   3.854  -1.986  0.00  0.00     0.418 HD
ENDBRANCH   4   7
TORSDOF 1
ENDMDL
