MODEL 1
REMARK minimizedAffinity -4.23468876
REMARK minimizedRMSD -1
REMARK  1 active torsions:
REMARK  status: ('A' for Active; 'I' for Inactive)
REMARK    1  A    between atoms: C3_4  and  O_7 
ROOT
ATOM      1  C   UNL d   1       0.255   0.716  -0.275  0.00  0.00    -0.033 A 
ATOM      2  C1  UNL d   1       0.824  -0.559  -0.264  0.00  0.00     0.039 A 
ATOM      3  C2  UNL d   1       1.153  -1.168   0.949  0.00  0.00    -0.080 A 
ATOM      4  C3  UNL d   1       0.907  -0.492   2.141  0.00  0.00     0.150 A 
ATOM      5  C4  UNL d   1       0.336   0.776   2.137  0.00  0.00    -0.007 A 
ATOM      6  C5  UNL d   1       0.010   1.383   0.925  0.00  0.00     0.039 A 
ENDROOT
BRANCH   4   7
ATOM      7  O   UNL d   1       1.215  -1.044   3.349  0.00  0.00    -0.526 OA
ATOM      8  H5  UNL d   1       1.628  -1.910   3.196  0.00  0.00     0.418 HD
ENDBRANCH   4   7
TORSDOF 1
ENDMDL
