MODEL 1
REMARK minimizedAffinity 19.7046032
REMARK minimizedRMSD -1
REMARK  0 active torsions:
REMARK  status: ('A' for Active; 'I' for Inactive)
ROOT
ATOM      1  C   UNL d   1       1.138   1.193   1.535  0.00  0.00     0.077 C 
ATOM      2  C1  UNL d   1       0.291   0.085   2.087  0.00  0.00    -0.074 A 
ATOM      3  C2  UNL d   1       0.273  -0.192   3.457  0.00  0.00    -0.005 A 
ATOM      4  C3  UNL d   1      -0.527  -1.219   3.957  0.00  0.00     0.006 A 
ATOM      5  C4  UNL d   1      -1.316  -1.979   3.092  0.00  0.00    -0.005 A 
ATOM      6  C5  UNL d   1      -1.311  -1.717   1.719  0.00  0.00    -0.074 A 
ATOM      7  C6  UNL d   1      -2.161  -2.517   0.777  0.00  0.00     0.077 C 
ATOM      8  C7  UNL d   1      -0.510  -0.678   1.225  0.00  0.00    -0.001 A 
ENDROOT
TORSDOF 0
ENDMDL
