MODEL 1
REMARK minimizedAffinity 5.94565535
REMARK minimizedRMSD -1
REMARK  0 active torsions:
REMARK  status: ('A' for Active; 'I' for Inactive)
ROOT
ATOM      1  C   UNL d   1      -1.132  -6.000   1.875  0.00  0.00     0.077 C 
ATOM      2  C1  UNL d   1      -1.254  -4.520   1.661  0.00  0.00    -0.074 A 
ATOM      3  C2  UNL d   1      -0.731  -3.615   2.589  0.00  0.00    -0.005 A 
ATOM      4  C3  UNL d   1      -0.843  -2.241   2.372  0.00  0.00     0.006 A 
ATOM      5  C4  UNL d   1      -1.478  -1.761   1.226  0.00  0.00    -0.005 A 
ATOM      6  C5  UNL d   1      -2.006  -2.652   0.286  0.00  0.00    -0.074 A 
ATOM      7  C6  UNL d   1      -2.684  -2.152  -0.955  0.00  0.00     0.077 C 
ATOM      8  C7  UNL d   1      -1.884  -4.030   0.508  0.00  0.00    -0.001 A 
ENDROOT
TORSDOF 0
ENDMDL
