MODEL 1
REMARK minimizedAffinity 18.2512436
REMARK minimizedRMSD -1
REMARK  0 active torsions:
REMARK  status: ('A' for Active; 'I' for Inactive)
ROOT
ATOM      1  C   UNL d   1      -4.320   0.880   3.640  0.00  0.00     0.077 C 
ATOM      2  C1  UNL d   1      -2.867   1.251   3.660  0.00  0.00    -0.074 A 
ATOM      3  C2  UNL d   1      -2.466   2.587   3.552  0.00  0.00    -0.005 A 
ATOM      4  C3  UNL d   1      -1.111   2.918   3.582  0.00  0.00     0.006 A 
ATOM      5  C4  UNL d   1      -0.146   1.919   3.720  0.00  0.00    -0.005 A 
ATOM      6  C5  UNL d   1      -0.529   0.579   3.830  0.00  0.00    -0.074 A 
ATOM      7  C6  UNL d   1       0.494  -0.506   3.989  0.00  0.00     0.077 C 
ATOM      8  C7  UNL d   1      -1.893   0.255   3.807  0.00  0.00    -0.001 A 
ENDROOT
TORSDOF 0
ENDMDL
