MODEL 1
REMARK minimizedAffinity 14.8686018
REMARK minimizedRMSD -1
REMARK  0 active torsions:
REMARK  status: ('A' for Active; 'I' for Inactive)
ROOT
ATOM      1  C   UNL d   1      -0.378  -5.407  -3.755  0.00  0.00     0.077 C 
ATOM      2  C1  UNL d   1      -1.657  -5.024  -3.071  0.00  0.00    -0.074 A 
ATOM      3  C2  UNL d   1      -2.562  -6.000  -2.640  0.00  0.00    -0.005 A 
ATOM      4  C3  UNL d   1      -3.742  -5.629  -1.996  0.00  0.00     0.006 A 
ATOM      5  C4  UNL d   1      -4.030  -4.281  -1.778  0.00  0.00    -0.005 A 
ATOM      6  C5  UNL d   1      -3.137  -3.292  -2.201  0.00  0.00    -0.074 A 
ATOM      7  C6  UNL d   1      -3.426  -1.839  -1.965  0.00  0.00     0.077 C 
ATOM      8  C7  UNL d   1      -1.949  -3.673  -2.841  0.00  0.00    -0.001 A 
ENDROOT
TORSDOF 0
ENDMDL
