MODEL 1
REMARK minimizedAffinity 9.00258064
REMARK minimizedRMSD -1
REMARK  0 active torsions:
REMARK  status: ('A' for Active; 'I' for Inactive)
ROOT
ATOM      1  C   UNL d   1      -5.127  -0.641   2.279  0.00  0.00     0.077 C 
ATOM      2  C1  UNL d   1      -5.208   0.222   3.503  0.00  0.00    -0.074 A 
ATOM      3  C2  UNL d   1      -5.941  -0.184   4.622  0.00  0.00    -0.005 A 
ATOM      4  C3  UNL d   1      -5.999   0.625   5.757  0.00  0.00     0.006 A 
ATOM      5  C4  UNL d   1      -5.325   1.846   5.785  0.00  0.00    -0.005 A 
ATOM      6  C5  UNL d   1      -4.586   2.269   4.675  0.00  0.00    -0.074 A 
ATOM      7  C6  UNL d   1      -3.847   3.574   4.692  0.00  0.00     0.077 C 
ATOM      8  C7  UNL d   1      -4.527   1.447   3.541  0.00  0.00    -0.001 A 
ENDROOT
TORSDOF 0
ENDMDL
