MODEL 1
REMARK minimizedAffinity 13.9189129
REMARK minimizedRMSD -1
REMARK  0 active torsions:
REMARK  status: ('A' for Active; 'I' for Inactive)
ROOT
ATOM      1  C   UNL d   1      -6.000  -0.291   5.639  0.00  0.00     0.077 C 
ATOM      2  C1  UNL d   1      -5.400   0.968   5.087  0.00  0.00    -0.074 A 
ATOM      3  C2  UNL d   1      -4.670   0.952   3.894  0.00  0.00    -0.005 A 
ATOM      4  C3  UNL d   1      -4.126   2.132   3.387  0.00  0.00     0.006 A 
ATOM      5  C4  UNL d   1      -4.305   3.338   4.067  0.00  0.00    -0.005 A 
ATOM      6  C5  UNL d   1      -5.033   3.373   5.261  0.00  0.00    -0.074 A 
ATOM      7  C6  UNL d   1      -5.243   4.661   5.999  0.00  0.00     0.077 C 
ATOM      8  C7  UNL d   1      -5.582   2.184   5.760  0.00  0.00    -0.001 A 
ENDROOT
TORSDOF 0
ENDMDL
