MODEL 1
REMARK minimizedAffinity 14.1698275
REMARK minimizedRMSD -1
REMARK  0 active torsions:
REMARK  status: ('A' for Active; 'I' for Inactive)
ROOT
ATOM      1  C   UNL d   1      -3.770  -5.999  -0.417  0.00  0.00     0.077 C 
ATOM      2  C1  UNL d   1      -2.808  -5.349   0.533  0.00  0.00    -0.074 A 
ATOM      3  C2  UNL d   1      -2.404  -6.000   1.703  0.00  0.00    -0.005 A 
ATOM      4  C3  UNL d   1      -1.502  -5.387   2.573  0.00  0.00     0.006 A 
ATOM      5  C4  UNL d   1      -0.995  -4.120   2.281  0.00  0.00    -0.005 A 
ATOM      6  C5  UNL d   1      -1.387  -3.455   1.115  0.00  0.00    -0.074 A 
ATOM      7  C6  UNL d   1      -0.844  -2.097   0.782  0.00  0.00     0.077 C 
ATOM      8  C7  UNL d   1      -2.289  -4.080   0.243  0.00  0.00    -0.001 A 
ENDROOT
TORSDOF 0
ENDMDL
