MODEL 1
REMARK minimizedAffinity 21.0733089
REMARK minimizedRMSD -1
REMARK  0 active torsions:
REMARK  status: ('A' for Active; 'I' for Inactive)
ROOT
ATOM      1  C   UNL d   1      -5.844  -6.000  -2.811  0.00  0.00     0.077 C 
ATOM      2  C1  UNL d   1      -4.885  -4.861  -2.633  0.00  0.00    -0.074 A 
ATOM      3  C2  UNL d   1      -4.819  -3.824  -3.569  0.00  0.00    -0.005 A 
ATOM      4  C3  UNL d   1      -3.929  -2.766  -3.385  0.00  0.00     0.006 A 
ATOM      5  C4  UNL d   1      -3.097  -2.734  -2.264  0.00  0.00    -0.005 A 
ATOM      6  C5  UNL d   1      -3.150  -3.762  -1.317  0.00  0.00    -0.074 A 
ATOM      7  C6  UNL d   1      -2.271  -3.738  -0.102  0.00  0.00     0.077 C 
ATOM      8  C7  UNL d   1      -4.053  -4.818  -1.506  0.00  0.00    -0.001 A 
ENDROOT
TORSDOF 0
ENDMDL
