MODEL 1
REMARK minimizedAffinity 11.5548334
REMARK minimizedRMSD -1
REMARK  0 active torsions:
REMARK  status: ('A' for Active; 'I' for Inactive)
ROOT
ATOM      1  C   UNL d   1       1.994   4.381  -5.679  0.00  0.00     0.077 C 
ATOM      2  C1  UNL d   1       2.714   3.358  -4.852  0.00  0.00    -0.074 A 
ATOM      3  C2  UNL d   1       3.094   3.637  -3.535  0.00  0.00    -0.005 A 
ATOM      4  C3  UNL d   1       3.755   2.672  -2.775  0.00  0.00     0.006 A 
ATOM      5  C4  UNL d   1       4.042   1.421  -3.323  0.00  0.00    -0.005 A 
ATOM      6  C5  UNL d   1       3.670   1.124  -4.638  0.00  0.00    -0.074 A 
ATOM      7  C6  UNL d   1       3.962  -0.218  -5.238  0.00  0.00     0.077 C 
ATOM      8  C7  UNL d   1       3.000   2.097  -5.393  0.00  0.00    -0.001 A 
ENDROOT
TORSDOF 0
ENDMDL
