MODEL 1
REMARK minimizedAffinity 2.73725629
REMARK minimizedRMSD -1
REMARK  0 active torsions:
REMARK  status: ('A' for Active; 'I' for Inactive)
ROOT
ATOM      1  C   UNL d   1       4.118   2.259  -1.795  0.00  0.00     0.077 C 
ATOM      2  C1  UNL d   1       3.849   1.413  -0.586  0.00  0.00    -0.074 A 
ATOM      3  C2  UNL d   1       4.676   0.330  -0.268  0.00  0.00    -0.005 A 
ATOM      4  C3  UNL d   1       4.419  -0.442   0.865  0.00  0.00     0.006 A 
ATOM      5  C4  UNL d   1       3.334  -0.140   1.690  0.00  0.00    -0.005 A 
ATOM      6  C5  UNL d   1       2.497   0.939   1.388  0.00  0.00    -0.074 A 
ATOM      7  C6  UNL d   1       1.333   1.282   2.269  0.00  0.00     0.077 C 
ATOM      8  C7  UNL d   1       2.766   1.714   0.252  0.00  0.00    -0.001 A 
ENDROOT
TORSDOF 0
ENDMDL
