MODEL 1
REMARK minimizedAffinity 13.4084682
REMARK minimizedRMSD -1
REMARK  0 active torsions:
REMARK  status: ('A' for Active; 'I' for Inactive)
ROOT
ATOM      1  C   UNL d   1       3.795   1.312  -2.207  0.00  0.00     0.077 C 
ATOM      2  C1  UNL d   1       3.136   1.150  -0.869  0.00  0.00    -0.074 A 
ATOM      3  C2  UNL d   1       3.230  -0.053  -0.162  0.00  0.00    -0.005 A 
ATOM      4  C3  UNL d   1       2.620  -0.185   1.085  0.00  0.00     0.006 A 
ATOM      5  C4  UNL d   1       1.911   0.882   1.638  0.00  0.00    -0.005 A 
ATOM      6  C5  UNL d   1       1.807   2.093   0.946  0.00  0.00    -0.074 A 
ATOM      7  C6  UNL d   1       1.057   3.254   1.529  0.00  0.00     0.077 C 
ATOM      8  C7  UNL d   1       2.429   2.221  -0.304  0.00  0.00    -0.001 A 
ENDROOT
TORSDOF 0
ENDMDL
