MODEL 1
REMARK minimizedAffinity 10.6378326
REMARK minimizedRMSD -1
REMARK  0 active torsions:
REMARK  status: ('A' for Active; 'I' for Inactive)
ROOT
ATOM      1  C   UNL d   1       3.742   1.800  -3.734  0.00  0.00     0.077 C 
ATOM      2  C1  UNL d   1       3.446   3.036  -4.529  0.00  0.00    -0.074 A 
ATOM      3  C2  UNL d   1       2.137   3.350  -4.909  0.00  0.00    -0.005 A 
ATOM      4  C3  UNL d   1       1.876   4.509  -5.640  0.00  0.00     0.006 A 
ATOM      5  C4  UNL d   1       2.919   5.364  -5.999  0.00  0.00    -0.005 A 
ATOM      6  C5  UNL d   1       4.234   5.067  -5.627  0.00  0.00    -0.074 A 
ATOM      7  C6  UNL d   1       5.365   5.980  -5.996  0.00  0.00     0.077 C 
ATOM      8  C7  UNL d   1       4.487   3.904  -4.886  0.00  0.00    -0.001 A 
ENDROOT
TORSDOF 0
ENDMDL
