MODEL 1
REMARK minimizedAffinity 8.46945763
REMARK minimizedRMSD -1
REMARK  0 active torsions:
REMARK  status: ('A' for Active; 'I' for Inactive)
ROOT
ATOM      1  C   UNL d   1      -5.998  -2.883  -4.236  0.00  0.00     0.077 C 
ATOM      2  C1  UNL d   1      -5.117  -3.776  -3.414  0.00  0.00    -0.074 A 
ATOM      3  C2  UNL d   1      -5.583  -5.008  -2.942  0.00  0.00    -0.005 A 
ATOM      4  C3  UNL d   1      -4.749  -5.832  -2.187  0.00  0.00     0.006 A 
ATOM      5  C4  UNL d   1      -3.443  -5.434  -1.896  0.00  0.00    -0.005 A 
ATOM      6  C5  UNL d   1      -2.960  -4.206  -2.360  0.00  0.00    -0.074 A 
ATOM      7  C6  UNL d   1      -1.557  -3.768  -2.064  0.00  0.00     0.077 C 
ATOM      8  C7  UNL d   1      -3.802  -3.387  -3.124  0.00  0.00    -0.001 A 
ENDROOT
TORSDOF 0
ENDMDL
