MODEL 1
REMARK minimizedAffinity 16.0654736
REMARK minimizedRMSD -1
REMARK  0 active torsions:
REMARK  status: ('A' for Active; 'I' for Inactive)
ROOT
ATOM      1  C   UNL d   1      -1.092  -5.583  -3.360  0.00  0.00     0.077 C 
ATOM      2  C1  UNL d   1      -2.424  -4.932  -3.135  0.00  0.00    -0.074 A 
ATOM      3  C2  UNL d   1      -2.566  -3.542  -3.206  0.00  0.00    -0.005 A 
ATOM      4  C3  UNL d   1      -3.813  -2.951  -3.004  0.00  0.00     0.006 A 
ATOM      5  C4  UNL d   1      -4.929  -3.743  -2.729  0.00  0.00    -0.005 A 
ATOM      6  C5  UNL d   1      -4.807  -5.134  -2.656  0.00  0.00    -0.074 A 
ATOM      7  C6  UNL d   1      -5.998  -5.999  -2.372  0.00  0.00     0.077 C 
ATOM      8  C7  UNL d   1      -3.552  -5.721  -2.867  0.00  0.00    -0.001 A 
ENDROOT
TORSDOF 0
ENDMDL
