MODEL 1
REMARK minimizedAffinity 4.02584076
REMARK minimizedRMSD -1
REMARK  0 active torsions:
REMARK  status: ('A' for Active; 'I' for Inactive)
ROOT
ATOM      1  C   UNL d   1      -6.000   5.877   4.273  0.00  0.00     0.077 C 
ATOM      2  C1  UNL d   1      -5.752   5.188   2.964  0.00  0.00    -0.074 A 
ATOM      3  C2  UNL d   1      -5.315   3.860   2.922  0.00  0.00    -0.005 A 
ATOM      4  C3  UNL d   1      -5.098   3.229   1.697  0.00  0.00     0.006 A 
ATOM      5  C4  UNL d   1      -5.314   3.919   0.503  0.00  0.00    -0.005 A 
ATOM      6  C5  UNL d   1      -5.752   5.247   0.525  0.00  0.00    -0.074 A 
ATOM      7  C6  UNL d   1      -5.998   6.000  -0.748  0.00  0.00     0.077 C 
ATOM      8  C7  UNL d   1      -5.974   5.872   1.760  0.00  0.00    -0.001 A 
ENDROOT
TORSDOF 0
ENDMDL
