MODEL 1
REMARK minimizedAffinity 8.51546574
REMARK minimizedRMSD -1
REMARK  0 active torsions:
REMARK  status: ('A' for Active; 'I' for Inactive)
ROOT
ATOM      1  C   UNL d   1       1.518   4.323  -5.040  0.00  0.00     0.077 C 
ATOM      2  C1  UNL d   1       2.783   3.732  -4.492  0.00  0.00    -0.074 A 
ATOM      3  C2  UNL d   1       4.032   4.113  -4.994  0.00  0.00    -0.005 A 
ATOM      4  C3  UNL d   1       5.200   3.562  -4.468  0.00  0.00     0.006 A 
ATOM      5  C4  UNL d   1       5.132   2.626  -3.435  0.00  0.00    -0.005 A 
ATOM      6  C5  UNL d   1       3.893   2.233  -2.920  0.00  0.00    -0.074 A 
ATOM      7  C6  UNL d   1       3.802   1.235  -1.804  0.00  0.00     0.077 C 
ATOM      8  C7  UNL d   1       2.724   2.797  -3.449  0.00  0.00    -0.001 A 
ENDROOT
TORSDOF 0
ENDMDL
