MODEL 1
REMARK minimizedAffinity 7.442101
REMARK minimizedRMSD -1
REMARK  0 active torsions:
REMARK  status: ('A' for Active; 'I' for Inactive)
ROOT
ATOM      1  C   UNL d   1       3.115  -0.373  -0.362  0.00  0.00     0.077 C 
ATOM      2  C1  UNL d   1       2.308   0.610   0.433  0.00  0.00    -0.074 A 
ATOM      3  C2  UNL d   1       2.365   1.979   0.154  0.00  0.00    -0.005 A 
ATOM      4  C3  UNL d   1       1.602   2.881   0.896  0.00  0.00     0.006 A 
ATOM      5  C4  UNL d   1       0.775   2.423   1.922  0.00  0.00    -0.005 A 
ATOM      6  C5  UNL d   1       0.705   1.057   2.216  0.00  0.00    -0.074 A 
ATOM      7  C6  UNL d   1      -0.186   0.547   3.309  0.00  0.00     0.077 C 
ATOM      8  C7  UNL d   1       1.470   0.157   1.461  0.00  0.00    -0.001 A 
ENDROOT
TORSDOF 0
ENDMDL
