MODEL 1
REMARK minimizedAffinity 0.702080786
REMARK minimizedRMSD -1
REMARK  0 active torsions:
REMARK  status: ('A' for Active; 'I' for Inactive)
ROOT
ATOM      1  C   UNL d   1       1.707   4.446  -5.721  0.00  0.00     0.077 C 
ATOM      2  C1  UNL d   1       3.203   4.467  -5.621  0.00  0.00    -0.074 A 
ATOM      3  C2  UNL d   1       3.933   5.598  -5.999  0.00  0.00    -0.005 A 
ATOM      4  C3  UNL d   1       5.324   5.605  -5.892  0.00  0.00     0.006 A 
ATOM      5  C4  UNL d   1       5.997   4.484  -5.406  0.00  0.00    -0.005 A 
ATOM      6  C5  UNL d   1       5.284   3.344  -5.023  0.00  0.00    -0.074 A 
ATOM      7  C6  UNL d   1       5.991   2.133  -4.490  0.00  0.00     0.077 C 
ATOM      8  C7  UNL d   1       3.886   3.346  -5.127  0.00  0.00    -0.001 A 
ENDROOT
TORSDOF 0
ENDMDL
