MODEL 1
REMARK minimizedAffinity -1.90020573
REMARK minimizedRMSD -1
REMARK  0 active torsions:
REMARK  status: ('A' for Active; 'I' for Inactive)
ROOT
ATOM      1  O1  BZF d   1       5.525   2.371   5.083  0.00  0.00    -0.204 OA
ATOM      2  C2  BZF d   1       4.439   1.565   4.801  0.00  0.00     0.174 A 
ATOM      3  C3  BZF d   1       3.377   2.307   4.426  0.00  0.00    -0.012 A 
ATOM      4  C3A BZF d   1       3.855   3.655   4.386  0.00  0.00    -0.107 A 
ATOM      5  C4  BZF d   1       3.273   4.849   4.067  0.00  0.00     0.055 A 
ATOM      6  C5  BZF d   1       3.995   5.992   4.201  0.00  0.00    -0.016 A 
ATOM      7  C6  BZF d   1       5.297   5.980   4.655  0.00  0.00     0.022 A 
ATOM      8  C7  BZF d   1       5.919   4.820   4.979  0.00  0.00     0.029 A 
ATOM      9  C7A BZF d   1       5.203   3.659   4.814  0.00  0.00     0.058 A 
ENDROOT
TORSDOF 0
ENDMDL
