MODEL 1
REMARK minimizedAffinity 10.9551373
REMARK minimizedRMSD -1
REMARK  0 active torsions:
REMARK  status: ('A' for Active; 'I' for Inactive)
ROOT
ATOM      1  O1  BZF d   1       1.869   3.649   1.364  0.00  0.00    -0.204 OA
ATOM      2  C2  BZF d   1       2.077   3.579   2.728  0.00  0.00     0.174 A 
ATOM      3  C3  BZF d   1       2.112   2.296   3.141  0.00  0.00    -0.012 A 
ATOM      4  C3A BZF d   1       2.006   1.513   1.948  0.00  0.00    -0.107 A 
ATOM      5  C4  BZF d   1       1.998   0.169   1.704  0.00  0.00     0.055 A 
ATOM      6  C5  BZF d   1       1.806  -0.270   0.433  0.00  0.00    -0.016 A 
ATOM      7  C6  BZF d   1       1.614   0.604  -0.617  0.00  0.00     0.022 A 
ATOM      8  C7  BZF d   1       1.619   1.946  -0.425  0.00  0.00     0.029 A 
ATOM      9  C7A BZF d   1       1.845   2.394   0.854  0.00  0.00     0.058 A 
ENDROOT
TORSDOF 0
ENDMDL
