MODEL 1
REMARK minimizedAffinity 14.0610113
REMARK minimizedRMSD -1
REMARK  0 active torsions:
REMARK  status: ('A' for Active; 'I' for Inactive)
ROOT
ATOM      1  O1  BZF d   1       1.245   3.872   3.172  0.00  0.00    -0.204 OA
ATOM      2  C2  BZF d   1       0.497   5.004   3.428  0.00  0.00     0.174 A 
ATOM      3  C3  BZF d   1       1.275   5.991   3.919  0.00  0.00    -0.012 A 
ATOM      4  C3A BZF d   1       2.607   5.471   3.886  0.00  0.00    -0.107 A 
ATOM      5  C4  BZF d   1       3.824   5.985   4.232  0.00  0.00     0.055 A 
ATOM      6  C5  BZF d   1       4.925   5.191   4.147  0.00  0.00    -0.016 A 
ATOM      7  C6  BZF d   1       4.843   3.880   3.727  0.00  0.00     0.022 A 
ATOM      8  C7  BZF d   1       3.659   3.327   3.369  0.00  0.00     0.029 A 
ATOM      9  C7A BZF d   1       2.550   4.136   3.422  0.00  0.00     0.058 A 
ENDROOT
TORSDOF 0
ENDMDL
