MODEL 1
REMARK minimizedAffinity 3.03814459
REMARK minimizedRMSD -1
REMARK  0 active torsions:
REMARK  status: ('A' for Active; 'I' for Inactive)
ROOT
ATOM      1  O1  BZF d   1       1.273  -5.710  -0.267  0.00  0.00    -0.204 OA
ATOM      2  C2  BZF d   1      -0.095  -5.849  -0.402  0.00  0.00     0.174 A 
ATOM      3  C3  BZF d   1      -0.699  -4.644  -0.419  0.00  0.00    -0.012 A 
ATOM      4  C3A BZF d   1       0.365  -3.688  -0.380  0.00  0.00    -0.107 A 
ATOM      5  C4  BZF d   1       0.402  -2.323  -0.391  0.00  0.00     0.055 A 
ATOM      6  C5  BZF d   1       1.601  -1.695  -0.268  0.00  0.00    -0.016 A 
ATOM      7  C6  BZF d   1       2.779  -2.398  -0.128  0.00  0.00     0.022 A 
ATOM      8  C7  BZF d   1       2.793  -3.753  -0.118  0.00  0.00     0.029 A 
ATOM      9  C7A BZF d   1       1.587  -4.392  -0.275  0.00  0.00     0.058 A 
ENDROOT
TORSDOF 0
ENDMDL
