MODEL 1
REMARK minimizedAffinity 4.79011393
REMARK minimizedRMSD -1
REMARK  0 active torsions:
REMARK  status: ('A' for Active; 'I' for Inactive)
ROOT
ATOM      1  O1  BZF d   1       2.130   0.461   5.997  0.00  0.00    -0.204 OA
ATOM      2  C2  BZF d   1       0.803   0.142   5.785  0.00  0.00     0.174 A 
ATOM      3  C3  BZF d   1       0.289   0.879   4.780  0.00  0.00    -0.012 A 
ATOM      4  C3A BZF d   1       1.387   1.645   4.274  0.00  0.00    -0.107 A 
ATOM      5  C4  BZF d   1       1.511   2.553   3.262  0.00  0.00     0.055 A 
ATOM      6  C5  BZF d   1       2.705   3.175   3.076  0.00  0.00    -0.016 A 
ATOM      7  C6  BZF d   1       3.793   2.916   3.884  0.00  0.00     0.022 A 
ATOM      8  C7  BZF d   1       3.719   2.019   4.897  0.00  0.00     0.029 A 
ATOM      9  C7A BZF d   1       2.523   1.365   5.068  0.00  0.00     0.058 A 
ENDROOT
TORSDOF 0
ENDMDL
