MODEL 1
REMARK minimizedAffinity -2.06119037
REMARK minimizedRMSD -1
REMARK  0 active torsions:
REMARK  status: ('A' for Active; 'I' for Inactive)
ROOT
ATOM      1  O1  BZF d   1      -3.860   5.905   5.215  0.00  0.00    -0.204 OA
ATOM      2  C2  BZF d   1      -5.202   5.915   5.542  0.00  0.00     0.174 A 
ATOM      3  C3  BZF d   1      -5.964   6.000   4.432  0.00  0.00    -0.012 A 
ATOM      4  C3A BZF d   1      -5.042   5.953   3.339  0.00  0.00    -0.107 A 
ATOM      5  C4  BZF d   1      -5.194   5.981   1.982  0.00  0.00     0.055 A 
ATOM      6  C5  BZF d   1      -4.086   5.993   1.194  0.00  0.00    -0.016 A 
ATOM      7  C6  BZF d   1      -2.815   5.982   1.729  0.00  0.00     0.022 A 
ATOM      8  C7  BZF d   1      -2.615   5.949   3.069  0.00  0.00     0.029 A 
ATOM      9  C7A BZF d   1      -3.732   5.904   3.867  0.00  0.00     0.058 A 
ENDROOT
TORSDOF 0
ENDMDL
