MODEL 1
REMARK minimizedAffinity -0.772621572
REMARK minimizedRMSD -1
REMARK  0 active torsions:
REMARK  status: ('A' for Active; 'I' for Inactive)
ROOT
ATOM      1  O1  BZF d   1      -5.999   0.377   0.323  0.00  0.00    -0.204 OA
ATOM      2  C2  BZF d   1      -5.841  -0.690   1.187  0.00  0.00     0.174 A 
ATOM      3  C3  BZF d   1      -4.736  -1.397   0.875  0.00  0.00    -0.012 A 
ATOM      4  C3A BZF d   1      -4.118  -0.678  -0.196  0.00  0.00    -0.107 A 
ATOM      5  C4  BZF d   1      -2.979  -0.873  -0.924  0.00  0.00     0.055 A 
ATOM      6  C5  BZF d   1      -2.697  -0.026  -1.949  0.00  0.00    -0.016 A 
ATOM      7  C6  BZF d   1      -3.533   1.021  -2.276  0.00  0.00     0.022 A 
ATOM      8  C7  BZF d   1      -4.672   1.258  -1.580  0.00  0.00     0.029 A 
ATOM      9  C7A BZF d   1      -4.942   0.424  -0.523  0.00  0.00     0.058 A 
ENDROOT
TORSDOF 0
ENDMDL
