MODEL 1
REMARK minimizedAffinity -4.45598459
REMARK minimizedRMSD -1
REMARK  1 active torsions:
REMARK  status: ('A' for Active; 'I' for Inactive)
REMARK    1  A    between atoms: C1_2  and  C2_3 
ROOT
ATOM      1  C2  UNL d   1      -1.150   0.201   0.319  0.00  0.00    -0.081 A 
ATOM      2  C3  UNL d   1      -0.622  -1.093   0.403  0.00  0.00     0.006 A 
ATOM      3  C4  UNL d   1       0.594  -1.404  -0.211  0.00  0.00     0.002 A 
ATOM      4  C5  UNL d   1       1.305  -0.424  -0.912  0.00  0.00    -0.080 A 
ATOM      5  C6  UNL d   1       2.627  -0.736  -1.549  0.00  0.00     0.076 C 
ATOM      6  C7  UNL d   1       0.770   0.864  -1.011  0.00  0.00     0.002 A 
ATOM      7  C8  UNL d   1      -0.446   1.175  -0.398  0.00  0.00     0.006 A 
ENDROOT
BRANCH   1   8
ATOM      8  C1  UNL d   1      -2.429   0.555   1.034  0.00  0.00     0.054 C 
ATOM      9  C   UNL d   1      -2.148   1.259   2.354  0.00  0.00     0.018 C 
ENDBRANCH   1   8
TORSDOF 1
ENDMDL
