MODEL 1
REMARK minimizedAffinity 2.18127799
REMARK minimizedRMSD -1
REMARK  1 active torsions:
REMARK  status: ('A' for Active; 'I' for Inactive)
REMARK    1  A    between atoms: C1_2  and  C2_3 
ROOT
ATOM      1  C2  UNL d   1       1.162   0.763  -0.803  0.00  0.00    -0.081 A 
ATOM      2  C3  UNL d   1       2.083  -0.107  -1.399  0.00  0.00     0.006 A 
ATOM      3  C4  UNL d   1       1.936  -1.490  -1.269  0.00  0.00     0.002 A 
ATOM      4  C5  UNL d   1       0.863  -2.026  -0.549  0.00  0.00    -0.080 A 
ATOM      5  C6  UNL d   1       0.678  -3.509  -0.427  0.00  0.00     0.076 C 
ATOM      6  C7  UNL d   1      -0.047  -1.156   0.061  0.00  0.00     0.002 A 
ATOM      7  C8  UNL d   1       0.099   0.227  -0.068  0.00  0.00     0.006 A 
ENDROOT
BRANCH   1   8
ATOM      8  C1  UNL d   1       1.281   2.253  -0.995  0.00  0.00     0.054 C 
ATOM      9  C   UNL d   1       0.143   2.793  -1.849  0.00  0.00     0.018 C 
ENDBRANCH   1   8
TORSDOF 1
ENDMDL
