MODEL 1
REMARK minimizedAffinity -5.11227369
REMARK minimizedRMSD -1
REMARK  1 active torsions:
REMARK  status: ('A' for Active; 'I' for Inactive)
REMARK    1  A    between atoms: C1_2  and  C2_3 
ROOT
ATOM      1  C2  UNL d   1      -0.581   0.480   0.172  0.00  0.00    -0.081 A 
ATOM      2  C3  UNL d   1      -0.229  -0.875   0.176  0.00  0.00     0.006 A 
ATOM      3  C4  UNL d   1       0.963  -1.299  -0.416  0.00  0.00     0.002 A 
ATOM      4  C5  UNL d   1       1.825  -0.374  -1.016  0.00  0.00    -0.080 A 
ATOM      5  C6  UNL d   1       3.122  -0.812  -1.629  0.00  0.00     0.076 C 
ATOM      6  C7  UNL d   1       1.465   0.977  -1.035  0.00  0.00     0.002 A 
ATOM      7  C8  UNL d   1       0.273   1.401  -0.443  0.00  0.00     0.006 A 
ENDROOT
BRANCH   1   8
ATOM      8  C1  UNL d   1      -1.834   0.948   0.867  0.00  0.00     0.054 C 
ATOM      9  C   UNL d   1      -1.849   0.522   2.328  0.00  0.00     0.018 C 
ENDBRANCH   1   8
TORSDOF 1
ENDMDL
