MODEL 1
REMARK minimizedAffinity -3.97033453
REMARK minimizedRMSD -1
REMARK  1 active torsions:
REMARK  status: ('A' for Active; 'I' for Inactive)
REMARK    1  A    between atoms: C1_2  and  C2_3 
ROOT
ATOM      1  C2  UNL d   1      -0.826   0.146   0.831  0.00  0.00    -0.081 A 
ATOM      2  C3  UNL d   1      -0.757   0.236  -0.565  0.00  0.00     0.006 A 
ATOM      3  C4  UNL d   1       0.471   0.121  -1.221  0.00  0.00     0.002 A 
ATOM      4  C5  UNL d   1       1.647  -0.094  -0.495  0.00  0.00    -0.080 A 
ATOM      5  C6  UNL d   1       2.967  -0.250  -1.190  0.00  0.00     0.076 C 
ATOM      6  C7  UNL d   1       1.580  -0.166   0.900  0.00  0.00     0.002 A 
ATOM      7  C8  UNL d   1       0.353  -0.050   1.558  0.00  0.00     0.006 A 
ENDROOT
BRANCH   1   8
ATOM      8  C1  UNL d   1      -2.157   0.206   1.537  0.00  0.00     0.054 C 
ATOM      9  C   UNL d   1      -1.982   0.489   3.023  0.00  0.00     0.018 C 
ENDBRANCH   1   8
TORSDOF 1
ENDMDL
