MODEL 1
REMARK minimizedAffinity -2.54774165
REMARK minimizedRMSD -1
REMARK  1 active torsions:
REMARK  status: ('A' for Active; 'I' for Inactive)
REMARK    1  A    between atoms: C1_2  and  C2_3 
ROOT
ATOM      1  C2  UNL d   1       0.062   0.839  -1.054  0.00  0.00    -0.081 A 
ATOM      2  C3  UNL d   1       1.213   0.046  -1.145  0.00  0.00     0.006 A 
ATOM      3  C4  UNL d   1       1.253  -1.214  -0.544  0.00  0.00     0.002 A 
ATOM      4  C5  UNL d   1       0.142  -1.705   0.150  0.00  0.00    -0.080 A 
ATOM      5  C6  UNL d   1       0.162  -3.069   0.774  0.00  0.00     0.076 C 
ATOM      6  C7  UNL d   1      -1.000  -0.906   0.257  0.00  0.00     0.002 A 
ATOM      7  C8  UNL d   1      -1.041   0.355  -0.343  0.00  0.00     0.006 A 
ENDROOT
BRANCH   1   8
ATOM      8  C1  UNL d   1      -0.007   2.172  -1.756  0.00  0.00     0.054 C 
ATOM      9  C   UNL d   1       1.161   2.355  -2.713  0.00  0.00     0.018 C 
ENDBRANCH   1   8
TORSDOF 1
ENDMDL
