MODEL 1
REMARK minimizedAffinity -4.22575188
REMARK minimizedRMSD -1
REMARK  1 active torsions:
REMARK  status: ('A' for Active; 'I' for Inactive)
REMARK    1  A    between atoms: C1_2  and  C2_3 
ROOT
ATOM      1  C2  UNL d   1      -0.784   0.481   0.728  0.00  0.00    -0.081 A 
ATOM      2  C3  UNL d   1      -0.397  -0.865   0.726  0.00  0.00     0.006 A 
ATOM      3  C4  UNL d   1       0.709  -1.284  -0.018  0.00  0.00     0.002 A 
ATOM      4  C5  UNL d   1       1.450  -0.363  -0.767  0.00  0.00    -0.080 A 
ATOM      5  C6  UNL d   1       2.657  -0.794  -1.546  0.00  0.00     0.076 C 
ATOM      6  C7  UNL d   1       1.053   0.978  -0.780  0.00  0.00     0.002 A 
ATOM      7  C8  UNL d   1      -0.053   1.397  -0.036  0.00  0.00     0.006 A 
ENDROOT
BRANCH   1   8
ATOM      8  C1  UNL d   1      -1.936   0.946   1.580  0.00  0.00     0.054 C 
ATOM      9  C   UNL d   1      -2.407  -0.154   2.521  0.00  0.00     0.018 C 
ENDBRANCH   1   8
TORSDOF 1
ENDMDL
