MODEL 1
REMARK minimizedAffinity -2.63554001
REMARK minimizedRMSD -1
REMARK  1 active torsions:
REMARK  status: ('A' for Active; 'I' for Inactive)
REMARK    1  A    between atoms: C1_2  and  C2_3 
ROOT
ATOM      1  C2  UNL d   1       0.612  -0.874  -0.107  0.00  0.00    -0.081 A 
ATOM      2  C3  UNL d   1      -0.524  -1.592  -0.499  0.00  0.00     0.006 A 
ATOM      3  C4  UNL d   1      -1.727  -1.452   0.198  0.00  0.00     0.002 A 
ATOM      4  C5  UNL d   1      -1.816  -0.586   1.293  0.00  0.00    -0.080 A 
ATOM      5  C6  UNL d   1      -3.108  -0.403   2.031  0.00  0.00     0.076 C 
ATOM      6  C7  UNL d   1      -0.676   0.118   1.696  0.00  0.00     0.002 A 
ATOM      7  C8  UNL d   1       0.527  -0.022   1.000  0.00  0.00     0.006 A 
ENDROOT
BRANCH   1   8
ATOM      8  C1  UNL d   1       1.892  -0.974  -0.896  0.00  0.00     0.054 C 
ATOM      9  C   UNL d   1       1.718  -0.426  -2.305  0.00  0.00     0.018 C 
ENDBRANCH   1   8
TORSDOF 1
ENDMDL
