MODEL 1
REMARK minimizedAffinity -2.70546532
REMARK minimizedRMSD -1
REMARK  1 active torsions:
REMARK  status: ('A' for Active; 'I' for Inactive)
REMARK    1  A    between atoms: C1_2  and  C2_3 
ROOT
ATOM      1  C2  UNL d   1      -0.137   0.061  -0.325  0.00  0.00    -0.081 A 
ATOM      2  C3  UNL d   1       0.506  -1.139   0.002  0.00  0.00     0.006 A 
ATOM      3  C4  UNL d   1       1.812  -1.384  -0.429  0.00  0.00     0.002 A 
ATOM      4  C5  UNL d   1       2.499  -0.429  -1.187  0.00  0.00    -0.080 A 
ATOM      5  C6  UNL d   1       3.912  -0.666  -1.630  0.00  0.00     0.076 C 
ATOM      6  C7  UNL d   1       1.851   0.763  -1.528  0.00  0.00     0.002 A 
ATOM      7  C8  UNL d   1       0.545   1.007  -1.098  0.00  0.00     0.006 A 
ENDROOT
BRANCH   1   8
ATOM      8  C1  UNL d   1      -1.522   0.355   0.193  0.00  0.00     0.054 C 
ATOM      9  C   UNL d   1      -1.492   0.740   1.666  0.00  0.00     0.018 C 
ENDBRANCH   1   8
TORSDOF 1
ENDMDL
