MODEL 1
REMARK minimizedAffinity -4.88688898
REMARK minimizedRMSD -1
REMARK  1 active torsions:
REMARK  status: ('A' for Active; 'I' for Inactive)
REMARK    1  A    between atoms: C1_2  and  C2_3 
ROOT
ATOM      1  C2  UNL d   1      -1.237  -0.035   0.707  0.00  0.00    -0.081 A 
ATOM      2  C3  UNL d   1      -0.768  -1.352   0.637  0.00  0.00     0.006 A 
ATOM      3  C4  UNL d   1       0.384  -1.656  -0.092  0.00  0.00     0.002 A 
ATOM      4  C5  UNL d   1       1.091  -0.647  -0.755  0.00  0.00    -0.080 A 
ATOM      5  C6  UNL d   1       2.347  -0.955  -1.515  0.00  0.00     0.076 C 
ATOM      6  C7  UNL d   1       0.613   0.667  -0.699  0.00  0.00     0.002 A 
ATOM      7  C8  UNL d   1      -0.539   0.971   0.029  0.00  0.00     0.006 A 
ENDROOT
BRANCH   1   8
ATOM      8  C1  UNL d   1      -2.443   0.306   1.545  0.00  0.00     0.054 C 
ATOM      9  C   UNL d   1      -2.050   1.103   2.782  0.00  0.00     0.018 C 
ENDBRANCH   1   8
TORSDOF 1
ENDMDL
