MODEL 1
REMARK minimizedAffinity -4.27247906
REMARK minimizedRMSD -1
REMARK  1 active torsions:
REMARK  status: ('A' for Active; 'I' for Inactive)
REMARK    1  A    between atoms: C1_2  and  C2_3 
ROOT
ATOM      1  C2  UNL d   1       1.096   0.894  -0.756  0.00  0.00    -0.081 A 
ATOM      2  C3  UNL d   1       1.914  -0.212  -1.017  0.00  0.00     0.006 A 
ATOM      3  C4  UNL d   1       1.479  -1.503  -0.708  0.00  0.00     0.002 A 
ATOM      4  C5  UNL d   1       0.217  -1.711  -0.143  0.00  0.00    -0.080 A 
ATOM      5  C6  UNL d   1      -0.275  -3.094   0.165  0.00  0.00     0.076 C 
ATOM      6  C7  UNL d   1      -0.594  -0.604   0.134  0.00  0.00     0.002 A 
ATOM      7  C8  UNL d   1      -0.159   0.687  -0.174  0.00  0.00     0.006 A 
ENDROOT
BRANCH   1   8
ATOM      8  C1  UNL d   1       1.536   2.282  -1.147  0.00  0.00     0.054 C 
ATOM      9  C   UNL d   1       0.388   3.075  -1.756  0.00  0.00     0.018 C 
ENDBRANCH   1   8
TORSDOF 1
ENDMDL
