MODEL 1
REMARK minimizedAffinity -5.2539959
REMARK minimizedRMSD -1
REMARK  1 active torsions:
REMARK  status: ('A' for Active; 'I' for Inactive)
REMARK    1  A    between atoms: C1_2  and  C2_3 
ROOT
ATOM      1  C2  UNL d   1       0.286  -0.493  -0.161  0.00  0.00    -0.081 A 
ATOM      2  C3  UNL d   1       0.997  -1.601  -0.637  0.00  0.00     0.006 A 
ATOM      3  C4  UNL d   1       2.198  -1.428  -1.329  0.00  0.00     0.002 A 
ATOM      4  C5  UNL d   1       2.712  -0.146  -1.549  0.00  0.00    -0.080 A 
ATOM      5  C6  UNL d   1       4.016   0.052  -2.264  0.00  0.00     0.076 C 
ATOM      6  C7  UNL d   1       1.994   0.962  -1.088  0.00  0.00     0.002 A 
ATOM      7  C8  UNL d   1       0.792   0.790  -0.397  0.00  0.00     0.006 A 
ENDROOT
BRANCH   1   8
ATOM      8  C1  UNL d   1      -0.976  -0.679   0.642  0.00  0.00     0.054 C 
ATOM      9  C   UNL d   1      -1.422   0.628   1.282  0.00  0.00     0.018 C 
ENDBRANCH   1   8
TORSDOF 1
ENDMDL
