MODEL 1
REMARK minimizedAffinity -5.39069557
REMARK minimizedRMSD -1
REMARK  1 active torsions:
REMARK  status: ('A' for Active; 'I' for Inactive)
REMARK    1  A    between atoms: C1_2  and  C2_3 
ROOT
ATOM      1  C2  UNL d   1      -1.005   0.589   1.353  0.00  0.00    -0.081 A 
ATOM      2  C3  UNL d   1      -0.472  -0.676   1.626  0.00  0.00     0.006 A 
ATOM      3  C4  UNL d   1       0.318  -1.331   0.678  0.00  0.00     0.002 A 
ATOM      4  C5  UNL d   1       0.595  -0.728  -0.554  0.00  0.00    -0.080 A 
ATOM      5  C6  UNL d   1       1.466  -1.407  -1.568  0.00  0.00     0.076 C 
ATOM      6  C7  UNL d   1       0.048   0.529  -0.833  0.00  0.00     0.002 A 
ATOM      7  C8  UNL d   1      -0.743   1.183   0.114  0.00  0.00     0.006 A 
ENDROOT
BRANCH   1   8
ATOM      8  C1  UNL d   1      -1.804   1.326   2.398  0.00  0.00     0.054 C 
ATOM      9  C   UNL d   1      -1.660   0.674   3.766  0.00  0.00     0.018 C 
ENDBRANCH   1   8
TORSDOF 1
ENDMDL
