MODEL 1
REMARK minimizedAffinity -2.93960357
REMARK minimizedRMSD -1
REMARK  1 active torsions:
REMARK  status: ('A' for Active; 'I' for Inactive)
REMARK    1  A    between atoms: C1_2  and  C2_3 
ROOT
ATOM      1  C2  UNL d   1       5.692   1.648   4.564  0.00  0.00    -0.081 A 
ATOM      2  C3  UNL d   1       5.888   0.868   5.710  0.00  0.00     0.006 A 
ATOM      3  C4  UNL d   1       5.660  -0.510   5.676  0.00  0.00     0.002 A 
ATOM      4  C5  UNL d   1       5.241  -1.131   4.495  0.00  0.00    -0.080 A 
ATOM      5  C6  UNL d   1       5.022  -2.614   4.437  0.00  0.00     0.076 C 
ATOM      6  C7  UNL d   1       5.029  -0.349   3.354  0.00  0.00     0.002 A 
ATOM      7  C8  UNL d   1       5.256   1.029   3.388  0.00  0.00     0.006 A 
ENDROOT
BRANCH   1   8
ATOM      8  C1  UNL d   1       6.000   3.124   4.580  0.00  0.00     0.054 C 
ATOM      9  C   UNL d   1       5.999   3.674   6.000  0.00  0.00     0.018 C 
ENDBRANCH   1   8
TORSDOF 1
ENDMDL
