MODEL 1
REMARK minimizedAffinity -3.16283488
REMARK minimizedRMSD -1
REMARK  3 active torsions:
REMARK  status: ('A' for Active; 'I' for Inactive)
REMARK    1  A    between atoms: C3'_2  and  C2'_3 
REMARK    2  A    between atoms: C2'_3  and  C1'_4 
REMARK    3  A    between atoms: C1'_4  and  C1_5 
ROOT
ATOM      1  C1  N4B d   1       0.456  -0.370   0.346  0.00  0.00    -0.075 A 
ATOM      2  C2  N4B d   1       1.688  -1.011   0.092  0.00  0.00     0.002 A 
ATOM      3  C3  N4B d   1       2.386  -1.591   1.122  0.00  0.00     0.002 A 
ATOM      4  C4  N4B d   1       1.883  -1.526   2.413  0.00  0.00    -0.004 A 
ATOM      5  C5  N4B d   1       0.680  -0.927   2.647  0.00  0.00     0.002 A 
ATOM      6  C6  N4B d   1      -0.035  -0.344   1.620  0.00  0.00     0.002 A 
ENDROOT
BRANCH   1   7
ATOM      7  C1' N4B d   1      -0.302   0.352  -0.734  0.00  0.00     0.057 C 
BRANCH   7   8
ATOM      8  C2' N4B d   1       0.037   1.839  -0.675  0.00  0.00     0.009 C 
BRANCH   8   9
ATOM      9  C3' N4B d   1       0.152   2.451  -2.061  0.00  0.00     0.004 C 
ATOM     10  C4' N4B d   1      -0.671   3.694  -2.217  0.00  0.00     0.003 C 
ENDBRANCH   8   9
ENDBRANCH   7   8
ENDBRANCH   1   7
TORSDOF 3
ENDMDL
