MODEL 1
REMARK minimizedAffinity -2.6350162
REMARK minimizedRMSD -1
REMARK  3 active torsions:
REMARK  status: ('A' for Active; 'I' for Inactive)
REMARK    1  A    between atoms: C3'_2  and  C2'_3 
REMARK    2  A    between atoms: C2'_3  and  C1'_4 
REMARK    3  A    between atoms: C1'_4  and  C1_5 
ROOT
ATOM      1  C1  N4B d   1      -0.246  -0.110   0.303  0.00  0.00    -0.075 A 
ATOM      2  C2  N4B d   1       1.121   0.048   0.622  0.00  0.00     0.002 A 
ATOM      3  C3  N4B d   1       1.616  -0.468   1.794  0.00  0.00     0.002 A 
ATOM      4  C4  N4B d   1       0.763  -1.126   2.668  0.00  0.00    -0.004 A 
ATOM      5  C5  N4B d   1      -0.550  -1.297   2.340  0.00  0.00     0.002 A 
ATOM      6  C6  N4B d   1      -1.061  -0.787   1.164  0.00  0.00     0.002 A 
ENDROOT
BRANCH   1   7
ATOM      7  C1' N4B d   1      -0.851   0.511  -0.926  0.00  0.00     0.057 C 
BRANCH   7   8
ATOM      8  C2' N4B d   1      -0.067   1.768  -1.290  0.00  0.00     0.009 C 
BRANCH   8   9
ATOM      9  C3' N4B d   1      -0.965   2.856  -1.855  0.00  0.00     0.004 C 
ATOM     10  C4' N4B d   1      -0.198   4.047  -2.346  0.00  0.00     0.003 C 
ENDBRANCH   8   9
ENDBRANCH   7   8
ENDBRANCH   1   7
TORSDOF 3
ENDMDL
