MODEL 1
REMARK minimizedAffinity -5.96624517
REMARK minimizedRMSD -1
REMARK  3 active torsions:
REMARK  status: ('A' for Active; 'I' for Inactive)
REMARK    1  A    between atoms: C3'_2  and  C2'_3 
REMARK    2  A    between atoms: C2'_3  and  C1'_4 
REMARK    3  A    between atoms: C1'_4  and  C1_5 
ROOT
ATOM      1  C1  N4B d   1      -0.255  -0.095   0.281  0.00  0.00    -0.075 A 
ATOM      2  C2  N4B d   1      -0.937   0.026   1.512  0.00  0.00     0.002 A 
ATOM      3  C3  N4B d   1      -0.279  -0.233   2.690  0.00  0.00     0.002 A 
ATOM      4  C4  N4B d   1       1.049  -0.632   2.660  0.00  0.00    -0.004 A 
ATOM      5  C5  N4B d   1       1.707  -0.722   1.468  0.00  0.00     0.002 A 
ATOM      6  C6  N4B d   1       1.060  -0.461   0.278  0.00  0.00     0.002 A 
ENDROOT
BRANCH   1   7
ATOM      7  C1' N4B d   1      -0.956   0.094  -1.036  0.00  0.00     0.057 C 
BRANCH   7   8
ATOM      8  C2' N4B d   1      -0.182   1.108  -1.874  0.00  0.00     0.009 C 
BRANCH   8   9
ATOM      9  C3' N4B d   1      -1.101   2.127  -2.525  0.00  0.00     0.004 C 
ATOM     10  C4' N4B d   1      -0.756   3.539  -2.157  0.00  0.00     0.003 C 
ENDBRANCH   8   9
ENDBRANCH   7   8
ENDBRANCH   1   7
TORSDOF 3
ENDMDL
