MODEL 1
REMARK minimizedAffinity -4.38761044
REMARK minimizedRMSD -1
REMARK  3 active torsions:
REMARK  status: ('A' for Active; 'I' for Inactive)
REMARK    1  A    between atoms: C3'_2  and  C2'_3 
REMARK    2  A    between atoms: C2'_3  and  C1'_4 
REMARK    3  A    between atoms: C1'_4  and  C1_5 
ROOT
ATOM      1  C1  N4B d   1      -0.146   0.049   0.175  0.00  0.00    -0.075 A 
ATOM      2  C2  N4B d   1      -0.856  -0.688   1.148  0.00  0.00     0.002 A 
ATOM      3  C3  N4B d   1      -0.287  -0.935   2.373  0.00  0.00     0.002 A 
ATOM      4  C4  N4B d   1       0.993  -0.473   2.640  0.00  0.00    -0.004 A 
ATOM      5  C5  N4B d   1       1.663   0.260   1.704  0.00  0.00     0.002 A 
ATOM      6  C6  N4B d   1       1.101   0.519   0.470  0.00  0.00     0.002 A 
ENDROOT
BRANCH   1   7
ATOM      7  C1' N4B d   1      -0.693   0.271  -1.209  0.00  0.00     0.057 C 
BRANCH   7   8
ATOM      8  C2' N4B d   1      -0.192   1.612  -1.736  0.00  0.00     0.009 C 
BRANCH   8   9
ATOM      9  C3' N4B d   1      -1.303   2.418  -2.388  0.00  0.00     0.004 C 
ATOM     10  C4' N4B d   1      -1.138   3.896  -2.197  0.00  0.00     0.003 C 
ENDBRANCH   8   9
ENDBRANCH   7   8
ENDBRANCH   1   7
TORSDOF 3
ENDMDL
