MODEL 1
REMARK minimizedAffinity -0.0975726396
REMARK minimizedRMSD -1
REMARK  3 active torsions:
REMARK  status: ('A' for Active; 'I' for Inactive)
REMARK    1  A    between atoms: C3'_2  and  C2'_3 
REMARK    2  A    between atoms: C2'_3  and  C1'_4 
REMARK    3  A    between atoms: C1'_4  and  C1_5 
ROOT
ATOM      1  C1  N4B d   1       0.003  -0.101   0.198  0.00  0.00    -0.075 A 
ATOM      2  C2  N4B d   1       1.404   0.038   0.308  0.00  0.00     0.002 A 
ATOM      3  C3  N4B d   1       2.013  -0.097   1.532  0.00  0.00     0.002 A 
ATOM      4  C4  N4B d   1       1.243  -0.352   2.657  0.00  0.00    -0.004 A 
ATOM      5  C5  N4B d   1      -0.107  -0.510   2.537  0.00  0.00     0.002 A 
ATOM      6  C6  N4B d   1      -0.732  -0.380   1.313  0.00  0.00     0.002 A 
ENDROOT
BRANCH   1   7
ATOM      7  C1' N4B d   1      -0.717   0.124  -1.104  0.00  0.00     0.057 C 
BRANCH   7   8
ATOM      8  C2' N4B d   1      -1.620   1.347  -0.972  0.00  0.00     0.009 C 
BRANCH   8   9
ATOM      9  C3' N4B d   1      -1.825   2.048  -2.304  0.00  0.00     0.004 C 
ATOM     10  C4' N4B d   1      -1.524   3.516  -2.240  0.00  0.00     0.003 C 
ENDBRANCH   8   9
ENDBRANCH   7   8
ENDBRANCH   1   7
TORSDOF 3
ENDMDL
