MODEL 1
REMARK minimizedAffinity -4.29263926
REMARK minimizedRMSD -1
REMARK  3 active torsions:
REMARK  status: ('A' for Active; 'I' for Inactive)
REMARK    1  A    between atoms: C3'_2  and  C2'_3 
REMARK    2  A    between atoms: C2'_3  and  C1'_4 
REMARK    3  A    between atoms: C1'_4  and  C1_5 
ROOT
ATOM      1  C1  N4B d   1       0.045   0.112  -0.019  0.00  0.00    -0.075 A 
ATOM      2  C2  N4B d   1      -1.038  -0.091   0.865  0.00  0.00     0.002 A 
ATOM      3  C3  N4B d   1      -0.802  -0.343   2.194  0.00  0.00     0.002 A 
ATOM      4  C4  N4B d   1       0.503  -0.417   2.657  0.00  0.00    -0.004 A 
ATOM      5  C5  N4B d   1       1.543  -0.196   1.802  0.00  0.00     0.002 A 
ATOM      6  C6  N4B d   1       1.321   0.063   0.464  0.00  0.00     0.002 A 
ENDROOT
BRANCH   1   7
ATOM      7  C1' N4B d   1      -0.161   0.306  -1.496  0.00  0.00     0.057 C 
BRANCH   7   8
ATOM      8  C2' N4B d   1      -0.100   1.796  -1.818  0.00  0.00     0.009 C 
BRANCH   8   9
ATOM      9  C3' N4B d   1      -1.398   2.299  -2.426  0.00  0.00     0.004 C 
ATOM     10  C4' N4B d   1      -1.540   3.790  -2.339  0.00  0.00     0.003 C 
ENDBRANCH   8   9
ENDBRANCH   7   8
ENDBRANCH   1   7
TORSDOF 3
ENDMDL
