MODEL 1
REMARK minimizedAffinity -5.66677523
REMARK minimizedRMSD -1
REMARK  3 active torsions:
REMARK  status: ('A' for Active; 'I' for Inactive)
REMARK    1  A    between atoms: C3'_2  and  C2'_3 
REMARK    2  A    between atoms: C2'_3  and  C1'_4 
REMARK    3  A    between atoms: C1'_4  and  C1_5 
ROOT
ATOM      1  C1  N4B d   1       1.047  -0.801   0.103  0.00  0.00    -0.075 A 
ATOM      2  C2  N4B d   1       1.107   0.122   1.170  0.00  0.00     0.002 A 
ATOM      3  C3  N4B d   1       1.811  -0.188   2.307  0.00  0.00     0.002 A 
ATOM      4  C4  N4B d   1       2.444  -1.418   2.408  0.00  0.00    -0.004 A 
ATOM      5  C5  N4B d   1       2.403  -2.294   1.362  0.00  0.00     0.002 A 
ATOM      6  C6  N4B d   1       1.702  -1.993   0.212  0.00  0.00     0.002 A 
ENDROOT
BRANCH   1   7
ATOM      7  C1' N4B d   1       0.219  -0.542  -1.126  0.00  0.00     0.057 C 
BRANCH   7   8
ATOM      8  C2' N4B d   1      -0.733   0.619  -0.852  0.00  0.00     0.009 C 
BRANCH   8   9
ATOM      9  C3' N4B d   1      -1.279   1.221  -2.136  0.00  0.00     0.004 C 
ATOM     10  C4' N4B d   1      -0.704   2.574  -2.433  0.00  0.00     0.003 C 
ENDBRANCH   8   9
ENDBRANCH   7   8
ENDBRANCH   1   7
TORSDOF 3
ENDMDL
