MODEL 1
REMARK minimizedAffinity -6.70000887
REMARK minimizedRMSD -1
REMARK  3 active torsions:
REMARK  status: ('A' for Active; 'I' for Inactive)
REMARK    1  A    between atoms: C3'_2  and  C2'_3 
REMARK    2  A    between atoms: C2'_3  and  C1'_4 
REMARK    3  A    between atoms: C1'_4  and  C1_5 
ROOT
ATOM      1  C1  N4B d   1       0.108  -0.363  -0.144  0.00  0.00    -0.075 A 
ATOM      2  C2  N4B d   1      -0.835  -0.093   0.873  0.00  0.00     0.002 A 
ATOM      3  C3  N4B d   1      -0.464  -0.178   2.192  0.00  0.00     0.002 A 
ATOM      4  C4  N4B d   1       0.833  -0.546   2.518  0.00  0.00    -0.004 A 
ATOM      5  C5  N4B d   1       1.744  -0.780   1.530  0.00  0.00     0.002 A 
ATOM      6  C6  N4B d   1       1.386  -0.695   0.199  0.00  0.00     0.002 A 
ENDROOT
BRANCH   1   7
ATOM      7  C1' N4B d   1      -0.273  -0.367  -1.599  0.00  0.00     0.057 C 
BRANCH   7   8
ATOM      8  C2' N4B d   1      -1.097   0.881  -1.905  0.00  0.00     0.009 C 
BRANCH   8   9
ATOM      9  C3' N4B d   1      -0.219   2.064  -2.277  0.00  0.00     0.004 C 
ATOM     10  C4' N4B d   1      -0.902   3.382  -2.067  0.00  0.00     0.003 C 
ENDBRANCH   8   9
ENDBRANCH   7   8
ENDBRANCH   1   7
TORSDOF 3
ENDMDL
