MODEL 1
REMARK minimizedAffinity 18.6700268
REMARK minimizedRMSD -1
REMARK  0 active torsions:
REMARK  status: ('A' for Active; 'I' for Inactive)
ROOT
ATOM      1  C   UNL d   1      -0.173   2.677   1.663  0.00  0.00     0.124 A 
ATOM      2  C1  UNL d   1      -0.286   3.238   0.399  0.00  0.00     0.062 A 
ATOM      3  C2  UNL d   1      -0.847   2.507  -0.644  0.00  0.00     0.162 A 
ATOM      4  C3  UNL d   1      -1.301   1.206  -0.427  0.00  0.00    -0.034 A 
ATOM      5  C4  UNL d   1      -1.183   0.648   0.847  0.00  0.00     0.162 A 
ATOM      6  C5  UNL d   1      -0.622   1.383   1.886  0.00  0.00     0.062 A 
ATOM      7  F   UNL d   1      -0.513   0.839   3.107  0.00  0.00    -0.097 F 
ATOM      8  F1  UNL d   1      -1.609  -0.601   1.091  0.00  0.00    -0.096 F 
ATOM      9  I   UNL d   1      -2.141   0.109  -1.984  0.00  0.00    -0.060 I 
ATOM     10  F2  UNL d   1      -0.944   3.074  -1.856  0.00  0.00    -0.096 F 
ATOM     11  F3  UNL d   1       0.147   4.488   0.180  0.00  0.00    -0.097 F 
ATOM     12  F4  UNL d   1       0.368   3.383   2.664  0.00  0.00    -0.092 F 
ENDROOT
TORSDOF 0
ENDMDL
