MODEL 1
REMARK minimizedAffinity 12.3465929
REMARK minimizedRMSD -1
REMARK  0 active torsions:
REMARK  status: ('A' for Active; 'I' for Inactive)
ROOT
ATOM      1  C   UNL d   1      -1.700  -0.066  -0.839  0.00  0.00     0.124 A 
ATOM      2  C1  UNL d   1      -2.730  -0.651  -1.562  0.00  0.00     0.062 A 
ATOM      3  C2  UNL d   1      -2.470  -1.255  -2.789  0.00  0.00     0.162 A 
ATOM      4  C3  UNL d   1      -1.172  -1.278  -3.300  0.00  0.00    -0.034 A 
ATOM      5  C4  UNL d   1      -0.141  -0.686  -2.568  0.00  0.00     0.162 A 
ATOM      6  C5  UNL d   1      -0.407  -0.084  -1.343  0.00  0.00     0.062 A 
ATOM      7  F   UNL d   1       0.590   0.482  -0.646  0.00  0.00    -0.097 F 
ATOM      8  F1  UNL d   1       1.118  -0.690  -3.031  0.00  0.00    -0.096 F 
ATOM      9  I   UNL d   1      -0.779  -2.181  -5.134  0.00  0.00    -0.060 I 
ATOM     10  F2  UNL d   1      -3.485  -1.813  -3.465  0.00  0.00    -0.096 F 
ATOM     11  F3  UNL d   1      -3.981  -0.634  -1.078  0.00  0.00    -0.097 F 
ATOM     12  F4  UNL d   1      -1.954   0.516   0.340  0.00  0.00    -0.092 F 
ENDROOT
TORSDOF 0
ENDMDL
