MODEL 1
REMARK minimizedAffinity 11.7312374
REMARK minimizedRMSD -1
REMARK  0 active torsions:
REMARK  status: ('A' for Active; 'I' for Inactive)
ROOT
ATOM      1  C   UNL d   1       2.823  -2.822  -0.372  0.00  0.00     0.124 A 
ATOM      2  C1  UNL d   1       3.800  -2.162  -1.105  0.00  0.00     0.062 A 
ATOM      3  C2  UNL d   1       4.411  -2.793  -2.185  0.00  0.00     0.162 A 
ATOM      4  C3  UNL d   1       4.047  -4.092  -2.539  0.00  0.00    -0.034 A 
ATOM      5  C4  UNL d   1       3.065  -4.750  -1.797  0.00  0.00     0.162 A 
ATOM      6  C5  UNL d   1       2.457  -4.115  -0.719  0.00  0.00     0.062 A 
ATOM      7  F   UNL d   1       1.514  -4.755  -0.012  0.00  0.00    -0.097 F 
ATOM      8  F1  UNL d   1       2.691  -6.000  -2.110  0.00  0.00    -0.096 F 
ATOM      9  I   UNL d   1       4.959  -5.039  -4.152  0.00  0.00    -0.060 I 
ATOM     10  F2  UNL d   1       5.351  -2.131  -2.875  0.00  0.00    -0.096 F 
ATOM     11  F3  UNL d   1       4.156  -0.913  -0.772  0.00  0.00    -0.097 F 
ATOM     12  F4  UNL d   1       2.237  -2.213   0.666  0.00  0.00    -0.092 F 
ENDROOT
TORSDOF 0
ENDMDL
