MODEL 1
REMARK minimizedAffinity 19.5639
REMARK minimizedRMSD -1
REMARK  0 active torsions:
REMARK  status: ('A' for Active; 'I' for Inactive)
ROOT
ATOM      1  C   UNL d   1      -2.239  -1.400  -1.551  0.00  0.00     0.124 A 
ATOM      2  C1  UNL d   1      -0.869  -1.186  -1.478  0.00  0.00     0.062 A 
ATOM      3  C2  UNL d   1      -0.371   0.101  -1.300  0.00  0.00     0.162 A 
ATOM      4  C3  UNL d   1      -1.242   1.185  -1.192  0.00  0.00    -0.034 A 
ATOM      5  C4  UNL d   1      -2.618   0.961  -1.267  0.00  0.00     0.162 A 
ATOM      6  C5  UNL d   1      -3.112  -0.327  -1.446  0.00  0.00     0.062 A 
ATOM      7  F   UNL d   1      -4.435  -0.532  -1.516  0.00  0.00    -0.097 F 
ATOM      8  F1  UNL d   1      -3.485   1.981  -1.167  0.00  0.00    -0.096 F 
ATOM      9  I   UNL d   1      -0.501   3.111  -0.926  0.00  0.00    -0.060 I 
ATOM     10  F2  UNL d   1       0.957   0.279  -1.233  0.00  0.00    -0.096 F 
ATOM     11  F3  UNL d   1      -0.023  -2.221  -1.581  0.00  0.00    -0.097 F 
ATOM     12  F4  UNL d   1      -2.715  -2.640  -1.724  0.00  0.00    -0.092 F 
ENDROOT
TORSDOF 0
ENDMDL
