MODEL 1
REMARK minimizedAffinity 8.19459629
REMARK minimizedRMSD -1
REMARK  0 active torsions:
REMARK  status: ('A' for Active; 'I' for Inactive)
ROOT
ATOM      1  C   UNL d   1       0.270   2.704   1.152  0.00  0.00     0.124 A 
ATOM      2  C1  UNL d   1      -0.631   2.454   0.126  0.00  0.00     0.062 A 
ATOM      3  C2  UNL d   1      -0.820   3.394  -0.883  0.00  0.00     0.162 A 
ATOM      4  C3  UNL d   1      -0.106   4.592  -0.873  0.00  0.00    -0.034 A 
ATOM      5  C4  UNL d   1       0.798   4.836   0.163  0.00  0.00     0.162 A 
ATOM      6  C5  UNL d   1       0.983   3.894   1.169  0.00  0.00     0.062 A 
ATOM      7  F   UNL d   1       1.854   4.137   2.160  0.00  0.00    -0.097 F 
ATOM      8  F1  UNL d   1       1.501   5.977   0.203  0.00  0.00    -0.096 F 
ATOM      9  I   UNL d   1      -0.386   5.999  -2.381  0.00  0.00    -0.060 I 
ATOM     10  F2  UNL d   1      -1.697   3.126  -1.862  0.00  0.00    -0.096 F 
ATOM     11  F3  UNL d   1      -1.322   1.306   0.108  0.00  0.00    -0.097 F 
ATOM     12  F4  UNL d   1       0.449   1.799   2.123  0.00  0.00    -0.092 F 
ENDROOT
TORSDOF 0
ENDMDL
