MODEL 1
REMARK minimizedAffinity 10.3488865
REMARK minimizedRMSD -1
REMARK  0 active torsions:
REMARK  status: ('A' for Active; 'I' for Inactive)
ROOT
ATOM      1  C   UNL d   1       0.776   3.503   0.753  0.00  0.00     0.124 A 
ATOM      2  C1  UNL d   1       0.405   2.862   1.927  0.00  0.00     0.062 A 
ATOM      3  C2  UNL d   1      -0.702   2.018   1.944  0.00  0.00     0.162 A 
ATOM      4  C3  UNL d   1      -1.446   1.810   0.782  0.00  0.00    -0.034 A 
ATOM      5  C4  UNL d   1      -1.068   2.460  -0.394  0.00  0.00     0.162 A 
ATOM      6  C5  UNL d   1       0.039   3.302  -0.406  0.00  0.00     0.062 A 
ATOM      7  F   UNL d   1       0.396   3.921  -1.541  0.00  0.00    -0.097 F 
ATOM      8  F1  UNL d   1      -1.761   2.283  -1.528  0.00  0.00    -0.096 F 
ATOM      9  I   UNL d   1      -3.102   0.550   0.804  0.00  0.00    -0.060 I 
ATOM     10  F2  UNL d   1      -1.037   1.411   3.092  0.00  0.00    -0.096 F 
ATOM     11  F3  UNL d   1       1.115   3.055   3.048  0.00  0.00    -0.097 F 
ATOM     12  F4  UNL d   1       1.841   4.315   0.740  0.00  0.00    -0.092 F 
ENDROOT
TORSDOF 0
ENDMDL
