MODEL 1
REMARK minimizedAffinity 16.1340809
REMARK minimizedRMSD -1
REMARK  0 active torsions:
REMARK  status: ('A' for Active; 'I' for Inactive)
ROOT
ATOM      1  C   UNL d   1       0.935   3.628   2.103  0.00  0.00     0.124 A 
ATOM      2  C1  UNL d   1       0.577   4.066   0.836  0.00  0.00     0.062 A 
ATOM      3  C2  UNL d   1      -0.326   3.332   0.071  0.00  0.00     0.162 A 
ATOM      4  C3  UNL d   1      -0.877   2.153   0.573  0.00  0.00    -0.034 A 
ATOM      5  C4  UNL d   1      -0.511   1.718   1.848  0.00  0.00     0.162 A 
ATOM      6  C5  UNL d   1       0.392   2.455   2.608  0.00  0.00     0.062 A 
ATOM      7  F   UNL d   1       0.737   2.031   3.832  0.00  0.00    -0.097 F 
ATOM      8  F1  UNL d   1      -1.022   0.589   2.360  0.00  0.00    -0.096 F 
ATOM      9  I   UNL d   1      -2.227   1.053  -0.567  0.00  0.00    -0.060 I 
ATOM     10  F2  UNL d   1      -0.655   3.778  -1.150  0.00  0.00    -0.096 F 
ATOM     11  F3  UNL d   1       1.101   5.198   0.346  0.00  0.00    -0.097 F 
ATOM     12  F4  UNL d   1       1.805   4.336   2.836  0.00  0.00    -0.092 F 
ENDROOT
TORSDOF 0
ENDMDL
