MODEL 1
REMARK minimizedAffinity 8.23574543
REMARK minimizedRMSD -1
REMARK  0 active torsions:
REMARK  status: ('A' for Active; 'I' for Inactive)
ROOT
ATOM      1  C   UNL d   1      -1.450   3.258  -2.085  0.00  0.00     0.124 A 
ATOM      2  C1  UNL d   1      -1.449   2.035  -1.428  0.00  0.00     0.062 A 
ATOM      3  C2  UNL d   1      -0.593   1.819  -0.353  0.00  0.00     0.162 A 
ATOM      4  C3  UNL d   1       0.270   2.828   0.074  0.00  0.00    -0.034 A 
ATOM      5  C4  UNL d   1       0.264   4.055  -0.592  0.00  0.00     0.162 A 
ATOM      6  C5  UNL d   1      -0.594   4.267  -1.666  0.00  0.00     0.062 A 
ATOM      7  F   UNL d   1      -0.594   5.449  -2.299  0.00  0.00    -0.097 F 
ATOM      8  F1  UNL d   1       1.080   5.048  -0.207  0.00  0.00    -0.096 F 
ATOM      9  I   UNL d   1       1.552   2.509   1.682  0.00  0.00    -0.060 I 
ATOM     10  F2  UNL d   1      -0.613   0.627   0.263  0.00  0.00    -0.096 F 
ATOM     11  F3  UNL d   1      -2.275   1.059  -1.831  0.00  0.00    -0.097 F 
ATOM     12  F4  UNL d   1      -2.275   3.463  -3.120  0.00  0.00    -0.092 F 
ENDROOT
TORSDOF 0
ENDMDL
