MODEL 1
REMARK minimizedAffinity 9.74677563
REMARK minimizedRMSD -1
REMARK  0 active torsions:
REMARK  status: ('A' for Active; 'I' for Inactive)
ROOT
ATOM      1  C   UNL d   1      -4.008  -0.839  -0.951  0.00  0.00     0.124 A 
ATOM      2  C1  UNL d   1      -2.664  -0.806  -1.297  0.00  0.00     0.062 A 
ATOM      3  C2  UNL d   1      -1.779   0.004  -0.591  0.00  0.00     0.162 A 
ATOM      4  C3  UNL d   1      -2.234   0.787   0.469  0.00  0.00    -0.034 A 
ATOM      5  C4  UNL d   1      -3.587   0.750   0.811  0.00  0.00     0.162 A 
ATOM      6  C5  UNL d   1      -4.468  -0.061   0.102  0.00  0.00     0.062 A 
ATOM      7  F   UNL d   1      -5.766  -0.091   0.438  0.00  0.00    -0.097 F 
ATOM      8  F1  UNL d   1      -4.059   1.491   1.825  0.00  0.00    -0.096 F 
ATOM      9  I   UNL d   1      -0.914   2.000   1.527  0.00  0.00    -0.060 I 
ATOM     10  F2  UNL d   1      -0.486   0.015  -0.947  0.00  0.00    -0.096 F 
ATOM     11  F3  UNL d   1      -2.217  -1.556  -2.314  0.00  0.00    -0.097 F 
ATOM     12  F4  UNL d   1      -4.857  -1.618  -1.632  0.00  0.00    -0.092 F 
ENDROOT
TORSDOF 0
ENDMDL
