MODEL 1
REMARK minimizedAffinity 10.0513172
REMARK minimizedRMSD -1
REMARK  0 active torsions:
REMARK  status: ('A' for Active; 'I' for Inactive)
ROOT
ATOM      1  C   UNL d   1       0.133   3.786   0.351  0.00  0.00     0.124 A 
ATOM      2  C1  UNL d   1      -0.092   2.954   1.439  0.00  0.00     0.062 A 
ATOM      3  C2  UNL d   1      -1.023   1.924   1.353  0.00  0.00     0.162 A 
ATOM      4  C3  UNL d   1      -1.738   1.718   0.172  0.00  0.00    -0.034 A 
ATOM      5  C4  UNL d   1      -1.507   2.559  -0.918  0.00  0.00     0.162 A 
ATOM      6  C5  UNL d   1      -0.575   3.588  -0.826  0.00  0.00     0.062 A 
ATOM      7  F   UNL d   1      -0.359   4.390  -1.879  0.00  0.00    -0.097 F 
ATOM      8  F1  UNL d   1      -2.176   2.390  -2.068  0.00  0.00    -0.096 F 
ATOM      9  I   UNL d   1      -3.132   0.179   0.039  0.00  0.00    -0.060 I 
ATOM     10  F2  UNL d   1      -1.220   1.135   2.420  0.00  0.00    -0.096 F 
ATOM     11  F3  UNL d   1       0.590   3.144   2.578  0.00  0.00    -0.097 F 
ATOM     12  F4  UNL d   1       1.030   4.777   0.438  0.00  0.00    -0.092 F 
ENDROOT
TORSDOF 0
ENDMDL
