MODEL 1
REMARK minimizedAffinity 5.4519062
REMARK minimizedRMSD -1
REMARK  1 active torsions:
REMARK  status: ('A' for Active; 'I' for Inactive)
REMARK    1  A    between atoms: C1_2  and  C2_3 
ROOT
ATOM      1  C2  UNL d   1      -0.096  -2.424   3.006  0.00  0.00    -0.081 A 
ATOM      2  C3  UNL d   1      -0.773  -1.849   1.924  0.00  0.00     0.006 A 
ATOM      3  C4  UNL d   1      -0.262  -0.713   1.292  0.00  0.00     0.002 A 
ATOM      4  C5  UNL d   1       0.938  -0.138   1.726  0.00  0.00    -0.080 A 
ATOM      5  C6  UNL d   1       1.513   1.064   1.037  0.00  0.00     0.076 C 
ATOM      6  C7  UNL d   1       1.605  -0.702   2.819  0.00  0.00     0.002 A 
ATOM      7  C8  UNL d   1       1.094  -1.837   3.452  0.00  0.00     0.006 A 
ENDROOT
BRANCH   1   8
ATOM      8  C1  UNL d   1      -0.611  -3.687   3.649  0.00  0.00     0.054 C 
ATOM      9  C   UNL d   1      -0.142  -4.922   2.894  0.00  0.00     0.018 C 
ENDBRANCH   1   8
TORSDOF 1
ENDMDL
