MODEL 1
REMARK minimizedAffinity -4.71615601
REMARK minimizedRMSD -1
REMARK  1 active torsions:
REMARK  status: ('A' for Active; 'I' for Inactive)
REMARK    1  A    between atoms: C1_2  and  C2_3 
ROOT
ATOM      1  C2  UNL d   1       1.393  -0.999   0.611  0.00  0.00    -0.081 A 
ATOM      2  C3  UNL d   1       0.510  -0.428  -0.314  0.00  0.00     0.006 A 
ATOM      3  C4  UNL d   1      -0.741   0.039   0.097  0.00  0.00     0.002 A 
ATOM      4  C5  UNL d   1      -1.126  -0.049   1.439  0.00  0.00    -0.080 A 
ATOM      5  C6  UNL d   1      -2.453   0.477   1.899  0.00  0.00     0.076 C 
ATOM      6  C7  UNL d   1      -0.251  -0.636   2.360  0.00  0.00     0.002 A 
ATOM      7  C8  UNL d   1       1.000  -1.104   1.949  0.00  0.00     0.006 A 
ENDROOT
BRANCH   1   8
ATOM      8  C1  UNL d   1       2.768  -1.446   0.183  0.00  0.00     0.054 C 
ATOM      9  C   UNL d   1       2.711  -2.259  -1.102  0.00  0.00     0.018 C 
ENDBRANCH   1   8
TORSDOF 1
ENDMDL
