MODEL 1
REMARK minimizedAffinity -1.14479375
REMARK minimizedRMSD -1
REMARK  1 active torsions:
REMARK  status: ('A' for Active; 'I' for Inactive)
REMARK    1  A    between atoms: C1_2  and  C2_3 
ROOT
ATOM      1  C2  UNL d   1      -3.160   3.019  -2.369  0.00  0.00    -0.081 A 
ATOM      2  C3  UNL d   1      -2.717   1.943  -1.590  0.00  0.00     0.006 A 
ATOM      3  C4  UNL d   1      -1.373   1.565  -1.604  0.00  0.00     0.002 A 
ATOM      4  C5  UNL d   1      -0.448   2.260  -2.390  0.00  0.00    -0.080 A 
ATOM      5  C6  UNL d   1       1.004   1.883  -2.391  0.00  0.00     0.076 C 
ATOM      6  C7  UNL d   1      -0.893   3.324  -3.182  0.00  0.00     0.002 A 
ATOM      7  C8  UNL d   1      -2.237   3.702  -3.169  0.00  0.00     0.006 A 
ENDROOT
BRANCH   1   8
ATOM      8  C1  UNL d   1      -4.597   3.471  -2.307  0.00  0.00     0.054 C 
ATOM      9  C   UNL d   1      -5.543   2.368  -2.758  0.00  0.00     0.018 C 
ENDBRANCH   1   8
TORSDOF 1
ENDMDL
