MODEL 1
REMARK minimizedAffinity 7.03454876
REMARK minimizedRMSD -1
REMARK  1 active torsions:
REMARK  status: ('A' for Active; 'I' for Inactive)
REMARK    1  A    between atoms: C1_2  and  C2_3 
ROOT
ATOM      1  C2  UNL d   1      -0.446   3.065  -3.071  0.00  0.00    -0.081 A 
ATOM      2  C3  UNL d   1      -1.584   2.311  -2.760  0.00  0.00     0.006 A 
ATOM      3  C4  UNL d   1      -2.860   2.808  -3.040  0.00  0.00     0.002 A 
ATOM      4  C5  UNL d   1      -3.018   4.061  -3.641  0.00  0.00    -0.080 A 
ATOM      5  C6  UNL d   1      -4.380   4.592  -3.974  0.00  0.00     0.076 C 
ATOM      6  C7  UNL d   1      -1.881   4.821  -3.935  0.00  0.00     0.002 A 
ATOM      7  C8  UNL d   1      -0.605   4.326  -3.656  0.00  0.00     0.006 A 
ENDROOT
BRANCH   1   8
ATOM      8  C1  UNL d   1       0.933   2.505  -2.831  0.00  0.00     0.054 C 
ATOM      9  C   UNL d   1       1.881   2.862  -3.966  0.00  0.00     0.018 C 
ENDBRANCH   1   8
TORSDOF 1
ENDMDL
