MODEL 1
REMARK minimizedAffinity -2.93211842
REMARK minimizedRMSD -1
REMARK  1 active torsions:
REMARK  status: ('A' for Active; 'I' for Inactive)
REMARK    1  A    between atoms: C1_2  and  C2_3 
ROOT
ATOM      1  C2  UNL d   1       0.283  -1.131   1.285  0.00  0.00    -0.081 A 
ATOM      2  C3  UNL d   1       1.091  -1.123   0.141  0.00  0.00     0.006 A 
ATOM      3  C4  UNL d   1       0.703  -0.409  -0.995  0.00  0.00     0.002 A 
ATOM      4  C5  UNL d   1      -0.494   0.315  -1.003  0.00  0.00    -0.080 A 
ATOM      5  C6  UNL d   1      -0.908   1.111  -2.206  0.00  0.00     0.076 C 
ATOM      6  C7  UNL d   1      -1.309   0.293   0.133  0.00  0.00     0.002 A 
ATOM      7  C8  UNL d   1      -0.922  -0.421   1.269  0.00  0.00     0.006 A 
ENDROOT
BRANCH   1   8
ATOM      8  C1  UNL d   1       0.730  -1.848   2.534  0.00  0.00     0.054 C 
ATOM      9  C   UNL d   1       1.984  -2.672   2.280  0.00  0.00     0.018 C 
ENDBRANCH   1   8
TORSDOF 1
ENDMDL
