MODEL 1
REMARK minimizedAffinity -4.0956893
REMARK minimizedRMSD -1
REMARK  1 active torsions:
REMARK  status: ('A' for Active; 'I' for Inactive)
REMARK    1  A    between atoms: C1_2  and  C2_3 
ROOT
ATOM      1  C2  UNL d   1      -0.934   1.042  -1.670  0.00  0.00    -0.081 A 
ATOM      2  C3  UNL d   1      -1.185  -0.330  -1.542  0.00  0.00     0.006 A 
ATOM      3  C4  UNL d   1      -0.836  -1.007  -0.372  0.00  0.00     0.002 A 
ATOM      4  C5  UNL d   1      -0.237  -0.325   0.692  0.00  0.00    -0.080 A 
ATOM      5  C6  UNL d   1       0.115  -1.034   1.965  0.00  0.00     0.076 C 
ATOM      6  C7  UNL d   1       0.030   1.042   0.558  0.00  0.00     0.002 A 
ATOM      7  C8  UNL d   1      -0.318   1.720  -0.613  0.00  0.00     0.006 A 
ENDROOT
BRANCH   1   8
ATOM      8  C1  UNL d   1      -1.368   1.789  -2.905  0.00  0.00     0.054 C 
ATOM      9  C   UNL d   1      -1.365   3.293  -2.672  0.00  0.00     0.018 C 
ENDBRANCH   1   8
TORSDOF 1
ENDMDL
