MODEL 1
REMARK minimizedAffinity -0.551197171
REMARK minimizedRMSD -1
REMARK  1 active torsions:
REMARK  status: ('A' for Active; 'I' for Inactive)
REMARK    1  A    between atoms: C1_2  and  C2_3 
ROOT
ATOM      1  C2  UNL d   1      -0.672   0.582  -1.252  0.00  0.00    -0.081 A 
ATOM      2  C3  UNL d   1      -1.468   0.841  -0.130  0.00  0.00     0.006 A 
ATOM      3  C4  UNL d   1      -1.136   0.299   1.114  0.00  0.00     0.002 A 
ATOM      4  C5  UNL d   1       0.000  -0.504   1.259  0.00  0.00    -0.080 A 
ATOM      5  C6  UNL d   1       0.385  -1.067   2.595  0.00  0.00     0.076 C 
ATOM      6  C7  UNL d   1       0.786  -0.777   0.134  0.00  0.00     0.002 A 
ATOM      7  C8  UNL d   1       0.455  -0.236  -1.110  0.00  0.00     0.006 A 
ENDROOT
BRANCH   1   8
ATOM      8  C1  UNL d   1      -0.991   1.217  -2.581  0.00  0.00     0.054 C 
ATOM      9  C   UNL d   1      -1.275   2.704  -2.429  0.00  0.00     0.018 C 
ENDBRANCH   1   8
TORSDOF 1
ENDMDL
