MODEL 1
REMARK minimizedAffinity -0.129507348
REMARK minimizedRMSD -1
REMARK  1 active torsions:
REMARK  status: ('A' for Active; 'I' for Inactive)
REMARK    1  A    between atoms: C1_2  and  C2_3 
ROOT
ATOM      1  C2  UNL d   1       0.035  -1.287   1.809  0.00  0.00    -0.081 A 
ATOM      2  C3  UNL d   1      -0.969  -0.351   2.086  0.00  0.00     0.006 A 
ATOM      3  C4  UNL d   1      -1.211   0.709   1.208  0.00  0.00     0.002 A 
ATOM      4  C5  UNL d   1      -0.459   0.845   0.036  0.00  0.00    -0.080 A 
ATOM      5  C6  UNL d   1      -0.729   1.960  -0.930  0.00  0.00     0.076 C 
ATOM      6  C7  UNL d   1       0.555  -0.081  -0.232  0.00  0.00     0.002 A 
ATOM      7  C8  UNL d   1       0.797  -1.140   0.645  0.00  0.00     0.006 A 
ENDROOT
BRANCH   1   8
ATOM      8  C1  UNL d   1       0.254  -2.467   2.721  0.00  0.00     0.054 C 
ATOM      9  C   UNL d   1      -0.879  -3.476   2.604  0.00  0.00     0.018 C 
ENDBRANCH   1   8
TORSDOF 1
ENDMDL
