MODEL 1
REMARK minimizedAffinity -3.10933208
REMARK minimizedRMSD -1
REMARK  0 active torsions:
REMARK  status: ('A' for Active; 'I' for Inactive)
ROOT
ATOM      1  C   UNL d   1       1.769  -2.148   0.418  0.00  0.00    -0.002 A 
ATOM      2  C1  UNL d   1       1.171  -2.030   1.665  0.00  0.00     0.010 A 
ATOM      3  C2  UNL d   1       0.298  -0.975   1.937  0.00  0.00     0.041 A 
ATOM      4  C3  UNL d   1       0.031  -0.033   0.924  0.00  0.00    -0.075 A 
ATOM      5  S   UNL d   1      -1.006   1.341   1.030  0.00  0.00     0.015 SA
ATOM      6  C4  UNL d   1      -0.680   1.803  -0.578  0.00  0.00     0.022 A 
ATOM      7  C5  UNL d   1       0.197   0.942  -1.195  0.00  0.00     0.026 A 
ATOM      8  C6  UNL d   1       0.620  -0.130  -0.339  0.00  0.00    -0.082 A 
ATOM      9  C7  UNL d   1       1.502  -1.211  -0.584  0.00  0.00     0.045 A 
ENDROOT
TORSDOF 0
ENDMDL
