MODEL 1
REMARK minimizedAffinity -4.15405035
REMARK minimizedRMSD -1
REMARK  0 active torsions:
REMARK  status: ('A' for Active; 'I' for Inactive)
ROOT
ATOM      1  C   UNL d   1       1.017  -2.581   1.769  0.00  0.00    -0.002 A 
ATOM      2  C1  UNL d   1      -0.221  -2.255   2.304  0.00  0.00     0.010 A 
ATOM      3  C2  UNL d   1      -0.937  -1.158   1.820  0.00  0.00     0.041 A 
ATOM      4  C3  UNL d   1      -0.383  -0.389   0.778  0.00  0.00    -0.075 A 
ATOM      5  S   UNL d   1      -1.080   0.998   0.026  0.00  0.00     0.015 SA
ATOM      6  C4  UNL d   1       0.249   1.188  -1.024  0.00  0.00     0.022 A 
ATOM      7  C5  UNL d   1       1.210   0.227  -0.819  0.00  0.00     0.026 A 
ATOM      8  C6  UNL d   1       0.861  -0.698   0.222  0.00  0.00    -0.082 A 
ATOM      9  C7  UNL d   1       1.563  -1.816   0.736  0.00  0.00     0.045 A 
ENDROOT
TORSDOF 0
ENDMDL
