MODEL 1
REMARK minimizedAffinity -4.67301226
REMARK minimizedRMSD -1
REMARK  0 active torsions:
REMARK  status: ('A' for Active; 'I' for Inactive)
ROOT
ATOM      1  C   UNL d   1      -1.978   1.510  -1.904  0.00  0.00    -0.002 A 
ATOM      2  C1  UNL d   1      -2.434   1.034  -3.125  0.00  0.00     0.010 A 
ATOM      3  C2  UNL d   1      -2.009   1.620  -4.319  0.00  0.00     0.041 A 
ATOM      4  C3  UNL d   1      -1.108   2.701  -4.265  0.00  0.00    -0.075 A 
ATOM      5  S   UNL d   1      -0.450   3.574  -5.598  0.00  0.00     0.015 SA
ATOM      6  C4  UNL d   1       0.453   4.599  -4.578  0.00  0.00     0.022 A 
ATOM      7  C5  UNL d   1       0.268   4.297  -3.250  0.00  0.00     0.026 A 
ATOM      8  C6  UNL d   1      -0.634   3.198  -3.047  0.00  0.00    -0.082 A 
ATOM      9  C7  UNL d   1      -1.084   2.583  -1.854  0.00  0.00     0.045 A 
ENDROOT
TORSDOF 0
ENDMDL
