MODEL 1
REMARK minimizedAffinity -4.3411994
REMARK minimizedRMSD -1
REMARK  0 active torsions:
REMARK  status: ('A' for Active; 'I' for Inactive)
ROOT
ATOM      1  C   UNL d   1      -1.762   1.414  -1.887  0.00  0.00    -0.002 A 
ATOM      2  C1  UNL d   1      -2.170   0.994  -3.144  0.00  0.00     0.010 A 
ATOM      3  C2  UNL d   1      -1.800   1.707  -4.287  0.00  0.00     0.041 A 
ATOM      4  C3  UNL d   1      -1.004   2.859  -4.142  0.00  0.00    -0.075 A 
ATOM      5  S   UNL d   1      -0.428   3.890  -5.399  0.00  0.00     0.015 SA
ATOM      6  C4  UNL d   1       0.374   4.912  -4.296  0.00  0.00     0.022 A 
ATOM      7  C5  UNL d   1       0.217   4.492  -2.996  0.00  0.00     0.026 A 
ATOM      8  C6  UNL d   1      -0.579   3.302  -2.886  0.00  0.00    -0.082 A 
ATOM      9  C7  UNL d   1      -0.972   2.558  -1.747  0.00  0.00     0.045 A 
ENDROOT
TORSDOF 0
ENDMDL
