MODEL 1
REMARK minimizedAffinity -5.44903231
REMARK minimizedRMSD -1
REMARK  0 active torsions:
REMARK  status: ('A' for Active; 'I' for Inactive)
ROOT
ATOM      1  C   UNL d   1      -0.185   3.710  -5.171  0.00  0.00    -0.002 A 
ATOM      2  C1  UNL d   1       0.314   4.446  -4.107  0.00  0.00     0.010 A 
ATOM      3  C2  UNL d   1      -0.055   4.140  -2.796  0.00  0.00     0.041 A 
ATOM      4  C3  UNL d   1      -0.943   3.069  -2.570  0.00  0.00    -0.075 A 
ATOM      5  S   UNL d   1      -1.534   2.511  -1.050  0.00  0.00     0.015 SA
ATOM      6  C4  UNL d   1      -2.463   1.282  -1.778  0.00  0.00     0.022 A 
ATOM      7  C5  UNL d   1      -2.338   1.283  -3.147  0.00  0.00     0.026 A 
ATOM      8  C6  UNL d   1      -1.459   2.312  -3.626  0.00  0.00    -0.082 A 
ATOM      9  C7  UNL d   1      -1.065   2.649  -4.944  0.00  0.00     0.045 A 
ENDROOT
TORSDOF 0
ENDMDL
