MODEL 1
REMARK minimizedAffinity -1.96172523
REMARK minimizedRMSD -1
REMARK  0 active torsions:
REMARK  status: ('A' for Active; 'I' for Inactive)
ROOT
ATOM      1  C   UNL d   1      -1.536   1.844  -1.805  0.00  0.00    -0.002 A 
ATOM      2  C1  UNL d   1      -2.011   1.285  -2.984  0.00  0.00     0.010 A 
ATOM      3  C2  UNL d   1      -1.734   1.884  -4.215  0.00  0.00     0.041 A 
ATOM      4  C3  UNL d   1      -0.963   3.063  -4.241  0.00  0.00    -0.075 A 
ATOM      5  S   UNL d   1      -0.497   3.969  -5.632  0.00  0.00     0.015 SA
ATOM      6  C4  UNL d   1       0.343   5.118  -4.695  0.00  0.00     0.022 A 
ATOM      7  C5  UNL d   1       0.280   4.832  -3.351  0.00  0.00     0.026 A 
ATOM      8  C6  UNL d   1      -0.473   3.643  -3.068  0.00  0.00    -0.082 A 
ATOM      9  C7  UNL d   1      -0.772   3.013  -1.836  0.00  0.00     0.045 A 
ENDROOT
TORSDOF 0
ENDMDL
