MODEL 1
REMARK minimizedAffinity -2.77620697
REMARK minimizedRMSD -1
REMARK  0 active torsions:
REMARK  status: ('A' for Active; 'I' for Inactive)
ROOT
ATOM      1  C   UNL d   1      -2.084   1.478  -1.605  0.00  0.00    -0.002 A 
ATOM      2  C1  UNL d   1      -2.885   1.319  -2.727  0.00  0.00     0.010 A 
ATOM      3  C2  UNL d   1      -2.587   1.993  -3.913  0.00  0.00     0.041 A 
ATOM      4  C3  UNL d   1      -1.458   2.835  -3.954  0.00  0.00    -0.075 A 
ATOM      5  S   UNL d   1      -0.899   3.759  -5.297  0.00  0.00     0.015 SA
ATOM      6  C4  UNL d   1       0.417   4.385  -4.414  0.00  0.00     0.022 A 
ATOM      7  C5  UNL d   1       0.444   3.911  -3.123  0.00  0.00     0.026 A 
ATOM      8  C6  UNL d   1      -0.636   3.010  -2.837  0.00  0.00    -0.082 A 
ATOM      9  C7  UNL d   1      -0.966   2.314  -1.649  0.00  0.00     0.045 A 
ENDROOT
TORSDOF 0
ENDMDL
