MODEL 1
REMARK minimizedAffinity -2.42956805
REMARK minimizedRMSD -1
REMARK  0 active torsions:
REMARK  status: ('A' for Active; 'I' for Inactive)
ROOT
ATOM      1  C   UNL d   1      -1.923   1.117  -1.690  0.00  0.00    -0.002 A 
ATOM      2  C1  UNL d   1      -2.692   0.980  -2.836  0.00  0.00     0.010 A 
ATOM      3  C2  UNL d   1      -2.366   1.682  -3.998  0.00  0.00     0.041 A 
ATOM      4  C3  UNL d   1      -1.242   2.530  -3.989  0.00  0.00    -0.075 A 
ATOM      5  S   UNL d   1      -0.651   3.487  -5.296  0.00  0.00     0.015 SA
ATOM      6  C4  UNL d   1       0.637   4.100  -4.364  0.00  0.00     0.022 A 
ATOM      7  C5  UNL d   1       0.632   3.597  -3.084  0.00  0.00     0.026 A 
ATOM      8  C6  UNL d   1      -0.451   2.684  -2.847  0.00  0.00    -0.082 A 
ATOM      9  C7  UNL d   1      -0.808   1.960  -1.685  0.00  0.00     0.045 A 
ENDROOT
TORSDOF 0
ENDMDL
