MODEL 1
REMARK minimizedAffinity -3.01534939
REMARK minimizedRMSD -1
REMARK  0 active torsions:
REMARK  status: ('A' for Active; 'I' for Inactive)
ROOT
ATOM      1  C   UNL d   1      -2.105   1.262  -1.733  0.00  0.00    -0.002 A 
ATOM      2  C1  UNL d   1      -2.903   1.244  -2.869  0.00  0.00     0.010 A 
ATOM      3  C2  UNL d   1      -2.537   1.969  -4.005  0.00  0.00     0.041 A 
ATOM      4  C3  UNL d   1      -1.344   2.718  -3.981  0.00  0.00    -0.075 A 
ATOM      5  S   UNL d   1      -0.696   3.682  -5.255  0.00  0.00     0.015 SA
ATOM      6  C4  UNL d   1       0.655   4.140  -4.322  0.00  0.00     0.022 A 
ATOM      7  C5  UNL d   1       0.628   3.580  -3.067  0.00  0.00     0.026 A 
ATOM      8  C6  UNL d   1      -0.525   2.752  -2.849  0.00  0.00    -0.082 A 
ATOM      9  C7  UNL d   1      -0.923   2.007  -1.713  0.00  0.00     0.045 A 
ENDROOT
TORSDOF 0
ENDMDL
