MODEL 1
REMARK minimizedAffinity -2.10532999
REMARK minimizedRMSD -1
REMARK  0 active torsions:
REMARK  status: ('A' for Active; 'I' for Inactive)
ROOT
ATOM      1  C   UNL d   1      -2.353   1.089  -1.453  0.00  0.00    -0.002 A 
ATOM      2  C1  UNL d   1      -3.034   1.062  -2.662  0.00  0.00     0.010 A 
ATOM      3  C2  UNL d   1      -2.540   1.751  -3.771  0.00  0.00     0.041 A 
ATOM      4  C3  UNL d   1      -1.338   2.473  -3.645  0.00  0.00    -0.075 A 
ATOM      5  S   UNL d   1      -0.543   3.391  -4.869  0.00  0.00     0.015 SA
ATOM      6  C4  UNL d   1       0.720   3.840  -3.817  0.00  0.00     0.022 A 
ATOM      7  C5  UNL d   1       0.556   3.312  -2.559  0.00  0.00     0.026 A 
ATOM      8  C6  UNL d   1      -0.633   2.515  -2.439  0.00  0.00    -0.082 A 
ATOM      9  C7  UNL d   1      -1.160   1.807  -1.332  0.00  0.00     0.045 A 
ENDROOT
TORSDOF 0
ENDMDL
