MODEL 1
REMARK minimizedAffinity -0.489480019
REMARK minimizedRMSD -1
REMARK  0 active torsions:
REMARK  status: ('A' for Active; 'I' for Inactive)
ROOT
ATOM      1  C   UNL d   1      -0.461   0.090   0.608  0.00  0.00    -0.002 A 
ATOM      2  C1  UNL d   1       0.758   0.213  -0.042  0.00  0.00     0.010 A 
ATOM      3  C2  UNL d   1       0.825   0.741  -1.333  0.00  0.00     0.041 A 
ATOM      4  C3  UNL d   1      -0.367   1.151  -1.964  0.00  0.00    -0.075 A 
ATOM      5  S   UNL d   1      -0.528   1.828  -3.541  0.00  0.00     0.015 SA
ATOM      6  C4  UNL d   1      -2.219   1.971  -3.388  0.00  0.00     0.022 A 
ATOM      7  C5  UNL d   1      -2.667   1.518  -2.170  0.00  0.00     0.026 A 
ATOM      8  C6  UNL d   1      -1.606   1.038  -1.329  0.00  0.00    -0.082 A 
ATOM      9  C7  UNL d   1      -1.641   0.497  -0.021  0.00  0.00     0.045 A 
ENDROOT
TORSDOF 0
ENDMDL
