MODEL 1
REMARK minimizedAffinity 12.0122051
REMARK minimizedRMSD -1
REMARK  0 active torsions:
REMARK  status: ('A' for Active; 'I' for Inactive)
ROOT
ATOM      1  C   UNL d   1       2.008   3.776  -5.995  0.00  0.00     0.078 C 
ATOM      2  C1  UNL d   1       0.533   3.985  -5.827  0.00  0.00    -0.077 A 
ATOM      3  C2  UNL d   1      -0.041   5.251  -5.999  0.00  0.00    -0.001 A 
ATOM      4  C3  UNL d   1      -1.414   5.432  -5.830  0.00  0.00     0.003 A 
ATOM      5  C4  UNL d   1      -2.226   4.353  -5.486  0.00  0.00    -0.005 A 
ATOM      6  C5  UNL d   1      -1.664   3.090  -5.310  0.00  0.00     0.003 A 
ATOM      7  C6  UNL d   1      -0.290   2.907  -5.479  0.00  0.00    -0.001 A 
ENDROOT
TORSDOF 0
ENDMDL
