MODEL 1
REMARK minimizedAffinity 10.3920031
REMARK minimizedRMSD -1
REMARK  0 active torsions:
REMARK  status: ('A' for Active; 'I' for Inactive)
ROOT
ATOM      1  C   UNL d   1      -2.422  -5.639  -1.123  0.00  0.00     0.078 C 
ATOM      2  C1  UNL d   1      -3.672  -4.850  -1.380  0.00  0.00    -0.077 A 
ATOM      3  C2  UNL d   1      -4.837  -5.084  -0.640  0.00  0.00    -0.001 A 
ATOM      4  C3  UNL d   1      -5.995  -4.348  -0.896  0.00  0.00     0.003 A 
ATOM      5  C4  UNL d   1      -6.000  -3.375  -1.893  0.00  0.00    -0.005 A 
ATOM      6  C5  UNL d   1      -4.846  -3.137  -2.636  0.00  0.00     0.003 A 
ATOM      7  C6  UNL d   1      -3.686  -3.872  -2.382  0.00  0.00    -0.001 A 
ENDROOT
TORSDOF 0
ENDMDL
