MODEL 1
REMARK minimizedAffinity -2.94196844
REMARK minimizedRMSD -1
REMARK  0 active torsions:
REMARK  status: ('A' for Active; 'I' for Inactive)
ROOT
ATOM      1  C   UNL d   1      -5.541   5.663  -3.158  0.00  0.00     0.078 C 
ATOM      2  C1  UNL d   1      -4.955   4.694  -4.142  0.00  0.00    -0.077 A 
ATOM      3  C2  UNL d   1      -3.977   5.099  -5.058  0.00  0.00    -0.001 A 
ATOM      4  C3  UNL d   1      -3.448   4.189  -5.974  0.00  0.00     0.003 A 
ATOM      5  C4  UNL d   1      -3.891   2.868  -5.983  0.00  0.00    -0.005 A 
ATOM      6  C5  UNL d   1      -4.865   2.456  -5.076  0.00  0.00     0.003 A 
ATOM      7  C6  UNL d   1      -5.395   3.365  -4.160  0.00  0.00    -0.001 A 
ENDROOT
TORSDOF 0
ENDMDL
