MODEL 1
REMARK minimizedAffinity -2.98403144
REMARK minimizedRMSD -1
REMARK  0 active torsions:
REMARK  status: ('A' for Active; 'I' for Inactive)
ROOT
ATOM      1  C   UNL d   1      -6.000   2.325  -2.698  0.00  0.00     0.078 C 
ATOM      2  C1  UNL d   1      -5.783   3.550  -3.535  0.00  0.00    -0.077 A 
ATOM      3  C2  UNL d   1      -6.000   4.830  -3.010  0.00  0.00    -0.001 A 
ATOM      4  C3  UNL d   1      -5.803   5.961  -3.804  0.00  0.00     0.003 A 
ATOM      5  C4  UNL d   1      -5.389   5.824  -5.127  0.00  0.00    -0.005 A 
ATOM      6  C5  UNL d   1      -5.172   4.554  -5.659  0.00  0.00     0.003 A 
ATOM      7  C6  UNL d   1      -5.369   3.422  -4.867  0.00  0.00    -0.001 A 
ENDROOT
TORSDOF 0
ENDMDL
