MODEL 1
REMARK minimizedAffinity -1.90274465
REMARK minimizedRMSD -1
REMARK  0 active torsions:
REMARK  status: ('A' for Active; 'I' for Inactive)
ROOT
ATOM      1  C   UNL d   1      -2.529   5.837  -6.000  0.00  0.00     0.078 C 
ATOM      2  C1  UNL d   1      -3.736   5.564  -5.153  0.00  0.00    -0.077 A 
ATOM      3  C2  UNL d   1      -3.794   5.993  -3.821  0.00  0.00    -0.001 A 
ATOM      4  C3  UNL d   1      -4.920   5.724  -3.041  0.00  0.00     0.003 A 
ATOM      5  C4  UNL d   1      -5.995   5.023  -3.583  0.00  0.00    -0.005 A 
ATOM      6  C5  UNL d   1      -5.946   4.591  -4.907  0.00  0.00     0.003 A 
ATOM      7  C6  UNL d   1      -4.821   4.859  -5.688  0.00  0.00    -0.001 A 
ENDROOT
TORSDOF 0
ENDMDL
