MODEL 1
REMARK minimizedAffinity 4.95646143
REMARK minimizedRMSD -1
REMARK  0 active torsions:
REMARK  status: ('A' for Active; 'I' for Inactive)
ROOT
ATOM      1  C   UNL d   1       5.019   5.616   4.012  0.00  0.00     0.078 C 
ATOM      2  C1  UNL d   1       5.204   5.139   2.602  0.00  0.00    -0.077 A 
ATOM      3  C2  UNL d   1       4.851   3.837   2.229  0.00  0.00    -0.001 A 
ATOM      4  C3  UNL d   1       5.038   3.404   0.915  0.00  0.00     0.003 A 
ATOM      5  C4  UNL d   1       5.580   4.267  -0.035  0.00  0.00    -0.005 A 
ATOM      6  C5  UNL d   1       5.937   5.564   0.328  0.00  0.00     0.003 A 
ATOM      7  C6  UNL d   1       5.751   5.999   1.641  0.00  0.00    -0.001 A 
ENDROOT
TORSDOF 0
ENDMDL
