MODEL 1
REMARK minimizedAffinity -2.26669335
REMARK minimizedRMSD -1
REMARK  0 active torsions:
REMARK  status: ('A' for Active; 'I' for Inactive)
ROOT
ATOM      1  C   UNL d   1      -5.990  -0.001   1.210  0.00  0.00     0.078 C 
ATOM      2  C1  UNL d   1      -5.985   1.244   0.373  0.00  0.00    -0.077 A 
ATOM      3  C2  UNL d   1      -5.991   2.512   0.967  0.00  0.00    -0.001 A 
ATOM      4  C3  UNL d   1      -5.997   3.662   0.175  0.00  0.00     0.003 A 
ATOM      5  C4  UNL d   1      -5.998   3.555  -1.214  0.00  0.00    -0.005 A 
ATOM      6  C5  UNL d   1      -5.995   2.297  -1.814  0.00  0.00     0.003 A 
ATOM      7  C6  UNL d   1      -5.989   1.146  -1.024  0.00  0.00    -0.001 A 
ENDROOT
TORSDOF 0
ENDMDL
