MODEL 1
REMARK minimizedAffinity 1.19380581
REMARK minimizedRMSD -1
REMARK  0 active torsions:
REMARK  status: ('A' for Active; 'I' for Inactive)
ROOT
ATOM      1  C   UNL d   1      -2.898  -3.039  -0.862  0.00  0.00     0.078 C 
ATOM      2  C1  UNL d   1      -2.095  -2.101  -0.012  0.00  0.00    -0.077 A 
ATOM      3  C2  UNL d   1      -2.686  -1.405   1.050  0.00  0.00    -0.001 A 
ATOM      4  C3  UNL d   1      -1.929  -0.527   1.827  0.00  0.00     0.003 A 
ATOM      5  C4  UNL d   1      -0.577  -0.335   1.549  0.00  0.00    -0.005 A 
ATOM      6  C5  UNL d   1       0.019  -1.022   0.493  0.00  0.00     0.003 A 
ATOM      7  C6  UNL d   1      -0.736  -1.900  -0.285  0.00  0.00    -0.001 A 
ENDROOT
TORSDOF 0
ENDMDL
