MODEL 1
REMARK minimizedAffinity -2.94915652
REMARK minimizedRMSD -1
REMARK  0 active torsions:
REMARK  status: ('A' for Active; 'I' for Inactive)
ROOT
ATOM      1  C   UNL d   1       1.903   2.618  -2.666  0.00  0.00     0.078 C 
ATOM      2  C1  UNL d   1       3.035   2.103  -3.504  0.00  0.00    -0.077 A 
ATOM      3  C2  UNL d   1       3.027   2.252  -4.896  0.00  0.00    -0.001 A 
ATOM      4  C3  UNL d   1       4.083   1.759  -5.665  0.00  0.00     0.003 A 
ATOM      5  C4  UNL d   1       5.153   1.112  -5.050  0.00  0.00    -0.005 A 
ATOM      6  C5  UNL d   1       5.168   0.958  -3.665  0.00  0.00     0.003 A 
ATOM      7  C6  UNL d   1       4.114   1.450  -2.895  0.00  0.00    -0.001 A 
ENDROOT
TORSDOF 0
ENDMDL
