MODEL 1
REMARK minimizedAffinity 2.32354379
REMARK minimizedRMSD -1
REMARK  0 active torsions:
REMARK  status: ('A' for Active; 'I' for Inactive)
ROOT
ATOM      1  C   UNL d   1       4.162   1.658  -6.000  0.00  0.00     0.078 C 
ATOM      2  C1  UNL d   1       4.397   3.139  -5.990  0.00  0.00    -0.077 A 
ATOM      3  C2  UNL d   1       3.325   4.039  -5.994  0.00  0.00    -0.001 A 
ATOM      4  C3  UNL d   1       3.558   5.415  -5.994  0.00  0.00     0.003 A 
ATOM      5  C4  UNL d   1       4.863   5.903  -5.991  0.00  0.00    -0.005 A 
ATOM      6  C5  UNL d   1       5.937   5.015  -5.988  0.00  0.00     0.003 A 
ATOM      7  C6  UNL d   1       5.705   3.639  -5.988  0.00  0.00    -0.001 A 
ENDROOT
TORSDOF 0
ENDMDL
