MODEL 1
REMARK minimizedAffinity 6.07505369
REMARK minimizedRMSD -1
REMARK  0 active torsions:
REMARK  status: ('A' for Active; 'I' for Inactive)
ROOT
ATOM      1  C   UNL d   1      -2.492   5.999  -4.795  0.00  0.00     0.078 C 
ATOM      2  C1  UNL d   1      -1.302   5.146  -5.116  0.00  0.00    -0.077 A 
ATOM      3  C2  UNL d   1      -0.154   5.698  -5.697  0.00  0.00    -0.001 A 
ATOM      4  C3  UNL d   1       0.943   4.890  -6.000  0.00  0.00     0.003 A 
ATOM      5  C4  UNL d   1       0.903   3.525  -5.726  0.00  0.00    -0.005 A 
ATOM      6  C5  UNL d   1      -0.236   2.965  -5.149  0.00  0.00     0.003 A 
ATOM      7  C6  UNL d   1      -1.334   3.772  -4.846  0.00  0.00    -0.001 A 
ENDROOT
TORSDOF 0
ENDMDL
