MODEL 1
REMARK minimizedAffinity 6.17192411
REMARK minimizedRMSD -1
REMARK  0 active torsions:
REMARK  status: ('A' for Active; 'I' for Inactive)
ROOT
ATOM      1  C   UNL d   1       5.986   4.523   2.562  0.00  0.00     0.078 C 
ATOM      2  C1  UNL d   1       5.249   4.645   1.262  0.00  0.00    -0.077 A 
ATOM      3  C2  UNL d   1       4.943   5.900   0.721  0.00  0.00    -0.001 A 
ATOM      4  C3  UNL d   1       4.248   5.998  -0.485  0.00  0.00     0.003 A 
ATOM      5  C4  UNL d   1       3.852   4.846  -1.160  0.00  0.00    -0.005 A 
ATOM      6  C5  UNL d   1       4.150   3.593  -0.629  0.00  0.00     0.003 A 
ATOM      7  C6  UNL d   1       4.845   3.492   0.577  0.00  0.00    -0.001 A 
ENDROOT
TORSDOF 0
ENDMDL
