MODEL 1
REMARK minimizedAffinity 12.4637547
REMARK minimizedRMSD -1
REMARK  0 active torsions:
REMARK  status: ('A' for Active; 'I' for Inactive)
ROOT
ATOM      1  C   UNL d   1      -2.946  -0.087   1.802  0.00  0.00     0.078 C 
ATOM      2  C1  UNL d   1      -2.676  -1.521   1.455  0.00  0.00    -0.077 A 
ATOM      3  C2  UNL d   1      -2.054  -2.380   2.370  0.00  0.00    -0.001 A 
ATOM      4  C3  UNL d   1      -1.800  -3.709   2.030  0.00  0.00     0.003 A 
ATOM      5  C4  UNL d   1      -2.163  -4.192   0.774  0.00  0.00    -0.005 A 
ATOM      6  C5  UNL d   1      -2.780  -3.344  -0.144  0.00  0.00     0.003 A 
ATOM      7  C6  UNL d   1      -3.035  -2.014   0.194  0.00  0.00    -0.001 A 
ENDROOT
TORSDOF 0
ENDMDL
