MODEL 1
REMARK minimizedAffinity 9.19586086
REMARK minimizedRMSD -1
REMARK  0 active torsions:
REMARK  status: ('A' for Active; 'I' for Inactive)
ROOT
ATOM      1  C   UNL d   1      -1.665  -5.995  -4.058  0.00  0.00     0.078 C 
ATOM      2  C1  UNL d   1      -2.486  -5.243  -3.054  0.00  0.00    -0.077 A 
ATOM      3  C2  UNL d   1      -2.739  -3.874  -3.210  0.00  0.00    -0.001 A 
ATOM      4  C3  UNL d   1      -3.498  -3.185  -2.263  0.00  0.00     0.003 A 
ATOM      5  C4  UNL d   1      -4.008  -3.854  -1.153  0.00  0.00    -0.005 A 
ATOM      6  C5  UNL d   1      -3.760  -5.215  -0.988  0.00  0.00     0.003 A 
ATOM      7  C6  UNL d   1      -3.002  -5.907  -1.934  0.00  0.00    -0.001 A 
ENDROOT
TORSDOF 0
ENDMDL
