MODEL 1
REMARK minimizedAffinity -0.324614644
REMARK minimizedRMSD -1
REMARK  0 active torsions:
REMARK  status: ('A' for Active; 'I' for Inactive)
ROOT
ATOM      1  C   UNL d   1      -1.689   5.999  -4.766  0.00  0.00     0.078 C 
ATOM      2  C1  UNL d   1      -3.183   5.871  -4.792  0.00  0.00    -0.077 A 
ATOM      3  C2  UNL d   1      -3.897   6.000  -5.989  0.00  0.00    -0.001 A 
ATOM      4  C3  UNL d   1      -5.288   5.888  -5.997  0.00  0.00     0.003 A 
ATOM      5  C4  UNL d   1      -5.977   5.648  -4.810  0.00  0.00    -0.005 A 
ATOM      6  C5  UNL d   1      -5.276   5.520  -3.613  0.00  0.00     0.003 A 
ATOM      7  C6  UNL d   1      -3.884   5.632  -3.603  0.00  0.00    -0.001 A 
ENDROOT
TORSDOF 0
ENDMDL
