MODEL 1
REMARK minimizedAffinity 0.453588694
REMARK minimizedRMSD -1
REMARK  0 active torsions:
REMARK  status: ('A' for Active; 'I' for Inactive)
ROOT
ATOM      1  C   UNL d   1       5.783   5.980  -5.890  0.00  0.00     0.078 C 
ATOM      2  C1  UNL d   1       4.489   5.225  -5.936  0.00  0.00    -0.077 A 
ATOM      3  C2  UNL d   1       3.261   5.899  -5.966  0.00  0.00    -0.001 A 
ATOM      4  C3  UNL d   1       2.064   5.183  -5.998  0.00  0.00     0.003 A 
ATOM      5  C4  UNL d   1       2.081   3.789  -6.000  0.00  0.00    -0.005 A 
ATOM      6  C5  UNL d   1       3.298   3.110  -5.968  0.00  0.00     0.003 A 
ATOM      7  C6  UNL d   1       4.496   3.825  -5.935  0.00  0.00    -0.001 A 
ENDROOT
TORSDOF 0
ENDMDL
