MODEL 1
REMARK minimizedAffinity 3.54808474
REMARK minimizedRMSD -1
REMARK  0 active torsions:
REMARK  status: ('A' for Active; 'I' for Inactive)
ROOT
ATOM      1  C   UNL d   1       1.261  -1.861   0.436  0.00  0.00     0.078 C 
ATOM      2  C1  UNL d   1       0.157  -1.031   1.020  0.00  0.00    -0.077 A 
ATOM      3  C2  UNL d   1      -0.918  -1.629   1.690  0.00  0.00    -0.001 A 
ATOM      4  C3  UNL d   1      -1.943  -0.844   2.220  0.00  0.00     0.003 A 
ATOM      5  C4  UNL d   1      -1.906   0.542   2.084  0.00  0.00    -0.005 A 
ATOM      6  C5  UNL d   1      -0.842   1.146   1.417  0.00  0.00     0.003 A 
ATOM      7  C6  UNL d   1       0.185   0.363   0.886  0.00  0.00    -0.001 A 
ENDROOT
TORSDOF 0
ENDMDL
