MODEL 1
REMARK minimizedAffinity 5.47448492
REMARK minimizedRMSD -1
REMARK  0 active torsions:
REMARK  status: ('A' for Active; 'I' for Inactive)
ROOT
ATOM      1  C   UNL d   1       0.483  -0.003   1.275  0.00  0.00     0.078 C 
ATOM      2  C1  UNL d   1       1.323  -0.673   0.230  0.00  0.00    -0.077 A 
ATOM      3  C2  UNL d   1       1.051  -0.503  -1.133  0.00  0.00    -0.001 A 
ATOM      4  C3  UNL d   1       1.836  -1.142  -2.095  0.00  0.00     0.003 A 
ATOM      5  C4  UNL d   1       2.898  -1.955  -1.704  0.00  0.00    -0.005 A 
ATOM      6  C5  UNL d   1       3.175  -2.132  -0.350  0.00  0.00     0.003 A 
ATOM      7  C6  UNL d   1       2.391  -1.494   0.613  0.00  0.00    -0.001 A 
ENDROOT
TORSDOF 0
ENDMDL
