MODEL 1
REMARK minimizedAffinity -3.21317196
REMARK minimizedRMSD -1
REMARK  1 active torsions:
REMARK  status: ('A' for Active; 'I' for Inactive)
REMARK    1  A    between atoms: N_2  and  C1_3 
ROOT
ATOM      1  C1  UNL d   1      -0.252  -0.953   0.729  0.00  0.00     0.143 A 
ATOM      2  C2  UNL d   1      -1.061   0.116   0.330  0.00  0.00    -0.057 A 
ATOM      3  C3  UNL d   1      -1.849   0.815   1.253  0.00  0.00     0.033 A 
ATOM      4  C4  UNL d   1      -1.864   0.437   2.591  0.00  0.00    -0.042 A 
ATOM      5  C5  UNL d   1      -1.087  -0.639   3.006  0.00  0.00     0.033 A 
ATOM      6  C6  UNL d   1      -0.298  -1.329   2.081  0.00  0.00    -0.057 A 
ENDROOT
BRANCH   1   7
ATOM      7  N   UNL d   1       0.477  -1.750  -0.156  0.00  0.00    -0.732 N 
ATOM      8  C   UNL d   1       0.611  -1.373  -1.547  0.00  0.00     0.284 C 
ATOM      9  H3  UNL d   1       1.332  -2.112   0.260  0.00  0.00     0.395 HD
ENDBRANCH   1   7
TORSDOF 1
ENDMDL
