MODEL 1
REMARK minimizedAffinity -1.25272357
REMARK minimizedRMSD -1
REMARK  1 active torsions:
REMARK  status: ('A' for Active; 'I' for Inactive)
REMARK    1  A    between atoms: N_2  and  C1_3 
ROOT
ATOM      1  C1  UNL d   1      -3.785  -5.287   2.931  0.00  0.00     0.143 A 
ATOM      2  C2  UNL d   1      -5.115  -5.633   3.192  0.00  0.00    -0.057 A 
ATOM      3  C3  UNL d   1      -5.986  -6.000   2.160  0.00  0.00     0.033 A 
ATOM      4  C4  UNL d   1      -5.549  -6.000   0.839  0.00  0.00    -0.042 A 
ATOM      5  C5  UNL d   1      -4.238  -5.636   0.553  0.00  0.00     0.033 A 
ATOM      6  C6  UNL d   1      -3.371  -5.276   1.589  0.00  0.00    -0.057 A 
ENDROOT
BRANCH   1   7
ATOM      7  N   UNL d   1      -2.897  -4.818   3.902  0.00  0.00    -0.732 N 
ATOM      8  C   UNL d   1      -3.045  -5.212   5.287  0.00  0.00     0.284 C 
ATOM      9  H3  UNL d   1      -1.934  -4.805   3.575  0.00  0.00     0.395 HD
ENDBRANCH   1   7
TORSDOF 1
ENDMDL
