MODEL 1
REMARK minimizedAffinity -0.339540511
REMARK minimizedRMSD -1
REMARK  1 active torsions:
REMARK  status: ('A' for Active; 'I' for Inactive)
REMARK    1  A    between atoms: N_2  and  C1_3 
ROOT
ATOM      1  C1  UNL d   1      -2.574   2.633   3.857  0.00  0.00     0.143 A 
ATOM      2  C2  UNL d   1      -3.440   3.082   4.860  0.00  0.00    -0.057 A 
ATOM      3  C3  UNL d   1      -4.827   3.097   4.668  0.00  0.00     0.033 A 
ATOM      4  C4  UNL d   1      -5.372   2.689   3.455  0.00  0.00    -0.042 A 
ATOM      5  C5  UNL d   1      -4.529   2.263   2.436  0.00  0.00     0.033 A 
ATOM      6  C6  UNL d   1      -3.145   2.244   2.635  0.00  0.00    -0.057 A 
ENDROOT
BRANCH   1   7
ATOM      7  N   UNL d   1      -1.181   2.687   3.951  0.00  0.00    -0.732 N 
ATOM      8  C   UNL d   1      -0.524   3.848   4.512  0.00  0.00     0.284 C 
ATOM      9  H3  UNL d   1      -0.777   1.800   4.242  0.00  0.00     0.395 HD
ENDBRANCH   1   7
TORSDOF 1
ENDMDL
