MODEL 1
REMARK minimizedAffinity 0.215195924
REMARK minimizedRMSD -1
REMARK  1 active torsions:
REMARK  status: ('A' for Active; 'I' for Inactive)
REMARK    1  A    between atoms: N_2  and  C1_3 
ROOT
ATOM      1  C1  UNL d   1      -3.855  -5.077   1.420  0.00  0.00     0.143 A 
ATOM      2  C2  UNL d   1      -3.109  -3.948   1.773  0.00  0.00    -0.057 A 
ATOM      3  C3  UNL d   1      -2.670  -3.749   3.088  0.00  0.00     0.033 A 
ATOM      4  C4  UNL d   1      -2.996  -4.665   4.082  0.00  0.00    -0.042 A 
ATOM      5  C5  UNL d   1      -3.758  -5.783   3.760  0.00  0.00     0.033 A 
ATOM      6  C6  UNL d   1      -4.188  -5.979   2.444  0.00  0.00    -0.057 A 
ENDROOT
BRANCH   1   7
ATOM      7  N   UNL d   1      -4.404  -5.282   0.152  0.00  0.00    -0.732 N 
ATOM      8  C   UNL d   1      -5.652  -5.999  -0.004  0.00  0.00     0.284 C 
ATOM      9  H3  UNL d   1      -4.318  -4.463  -0.445  0.00  0.00     0.395 HD
ENDBRANCH   1   7
TORSDOF 1
ENDMDL
