MODEL 1
REMARK minimizedAffinity -4.52447987
REMARK minimizedRMSD -1
REMARK  1 active torsions:
REMARK  status: ('A' for Active; 'I' for Inactive)
REMARK    1  A    between atoms: N_2  and  C1_3 
ROOT
ATOM      1  C1  UNL d   1       0.314   0.443   0.296  0.00  0.00     0.143 A 
ATOM      2  C2  UNL d   1      -0.951   0.247   0.861  0.00  0.00    -0.057 A 
ATOM      3  C3  UNL d   1      -1.108   0.049   2.238  0.00  0.00     0.033 A 
ATOM      4  C4  UNL d   1       0.003   0.012   3.073  0.00  0.00    -0.042 A 
ATOM      5  C5  UNL d   1       1.272   0.179   2.530  0.00  0.00     0.033 A 
ATOM      6  C6  UNL d   1       1.422   0.384   1.155  0.00  0.00    -0.057 A 
ENDROOT
BRANCH   1   7
ATOM      7  N   UNL d   1       0.544   0.547  -1.078  0.00  0.00    -0.732 N 
ATOM      8  C   UNL d   1       1.355  -0.434  -1.766  0.00  0.00     0.284 C 
ATOM      9  H3  UNL d   1      -0.287   0.833  -1.590  0.00  0.00     0.395 HD
ENDBRANCH   1   7
TORSDOF 1
ENDMDL
