MODEL 1
REMARK minimizedAffinity -1.49630654
REMARK minimizedRMSD -1
REMARK  1 active torsions:
REMARK  status: ('A' for Active; 'I' for Inactive)
REMARK    1  A    between atoms: N_2  and  C1_3 
ROOT
ATOM      1  C1  UNL d   1       0.803  -0.050  -0.199  0.00  0.00     0.143 A 
ATOM      2  C2  UNL d   1       1.739  -0.748   0.572  0.00  0.00    -0.057 A 
ATOM      3  C3  UNL d   1       1.733  -0.667   1.970  0.00  0.00     0.033 A 
ATOM      4  C4  UNL d   1       0.807   0.140   2.622  0.00  0.00    -0.042 A 
ATOM      5  C5  UNL d   1      -0.116   0.863   1.875  0.00  0.00     0.033 A 
ATOM      6  C6  UNL d   1      -0.110   0.772   0.479  0.00  0.00    -0.057 A 
ENDROOT
BRANCH   1   7
ATOM      7  N   UNL d   1       0.819  -0.012  -1.595  0.00  0.00    -0.732 N 
ATOM      8  C   UNL d   1       1.658  -0.921  -2.348  0.00  0.00     0.284 C 
ATOM      9  H3  UNL d   1      -0.108   0.122  -1.991  0.00  0.00     0.395 HD
ENDBRANCH   1   7
TORSDOF 1
ENDMDL
