MODEL 1
REMARK minimizedAffinity -4.21864796
REMARK minimizedRMSD -1
REMARK  1 active torsions:
REMARK  status: ('A' for Active; 'I' for Inactive)
REMARK    1  A    between atoms: N_2  and  C1_3 
ROOT
ATOM      1  C1  UNL d   1       0.459   0.272   0.519  0.00  0.00     0.143 A 
ATOM      2  C2  UNL d   1       1.041   0.538   1.763  0.00  0.00    -0.057 A 
ATOM      3  C3  UNL d   1       0.479   0.047   2.948  0.00  0.00     0.033 A 
ATOM      4  C4  UNL d   1      -0.697  -0.695   2.912  0.00  0.00    -0.042 A 
ATOM      5  C5  UNL d   1      -1.307  -0.950   1.689  0.00  0.00     0.033 A 
ATOM      6  C6  UNL d   1      -0.737  -0.464   0.508  0.00  0.00    -0.057 A 
ENDROOT
BRANCH   1   7
ATOM      7  N   UNL d   1       0.915   0.814  -0.685  0.00  0.00    -0.732 N 
ATOM      8  C   UNL d   1       0.687   0.124  -1.937  0.00  0.00     0.284 C 
ATOM      9  H3  UNL d   1       0.779   1.821  -0.734  0.00  0.00     0.395 HD
ENDBRANCH   1   7
TORSDOF 1
ENDMDL
