MODEL 1
REMARK minimizedAffinity -3.86276865
REMARK minimizedRMSD -1
REMARK  1 active torsions:
REMARK  status: ('A' for Active; 'I' for Inactive)
REMARK    1  A    between atoms: N_2  and  C1_3 
ROOT
ATOM      1  C1  UNL d   1       0.105   0.081   0.052  0.00  0.00     0.143 A 
ATOM      2  C2  UNL d   1      -0.977  -0.500   0.722  0.00  0.00    -0.057 A 
ATOM      3  C3  UNL d   1      -1.022  -0.552   2.121  0.00  0.00     0.033 A 
ATOM      4  C4  UNL d   1       0.032  -0.049   2.876  0.00  0.00    -0.042 A 
ATOM      5  C5  UNL d   1       1.130   0.511   2.231  0.00  0.00     0.033 A 
ATOM      6  C6  UNL d   1       1.165   0.566   0.834  0.00  0.00    -0.057 A 
ENDROOT
BRANCH   1   7
ATOM      7  N   UNL d   1       0.254   0.075  -1.337  0.00  0.00    -0.732 N 
ATOM      8  C   UNL d   1       1.007  -0.972  -1.993  0.00  0.00     0.284 C 
ATOM      9  H3  UNL d   1      -0.602   0.337  -1.820  0.00  0.00     0.395 HD
ENDBRANCH   1   7
TORSDOF 1
ENDMDL
