MODEL 1
REMARK minimizedAffinity 13.9213476
REMARK minimizedRMSD -1
REMARK  1 active torsions:
REMARK  status: ('A' for Active; 'I' for Inactive)
REMARK    1  A    between atoms: N_2  and  C1_3 
ROOT
ATOM      1  C1  UNL d   1       2.096  -0.530  -2.207  0.00  0.00     0.143 A 
ATOM      2  C2  UNL d   1       3.110  -1.425  -2.565  0.00  0.00    -0.057 A 
ATOM      3  C3  UNL d   1       4.326  -0.971  -3.090  0.00  0.00     0.033 A 
ATOM      4  C4  UNL d   1       4.538   0.388  -3.295  0.00  0.00    -0.042 A 
ATOM      5  C5  UNL d   1       3.535   1.293  -2.969  0.00  0.00     0.033 A 
ATOM      6  C6  UNL d   1       2.325   0.835  -2.439  0.00  0.00    -0.057 A 
ENDROOT
BRANCH   1   7
ATOM      7  N   UNL d   1       0.828  -0.925  -1.772  0.00  0.00    -0.732 N 
ATOM      8  C   UNL d   1      -0.192  -1.307  -2.724  0.00  0.00     0.284 C 
ATOM      9  H3  UNL d   1       0.868  -1.518  -0.946  0.00  0.00     0.395 HD
ENDBRANCH   1   7
TORSDOF 1
ENDMDL
