MODEL 1
REMARK minimizedAffinity -2.93534422
REMARK minimizedRMSD -1
REMARK  1 active torsions:
REMARK  status: ('A' for Active; 'I' for Inactive)
REMARK    1  A    between atoms: N_2  and  C1_3 
ROOT
ATOM      1  C1  UNL d   1       4.300   0.710  -3.245  0.00  0.00     0.143 A 
ATOM      2  C2  UNL d   1       4.112  -0.500  -3.921  0.00  0.00    -0.057 A 
ATOM      3  C3  UNL d   1       2.993  -1.305  -3.671  0.00  0.00     0.033 A 
ATOM      4  C4  UNL d   1       2.055  -0.925  -2.717  0.00  0.00    -0.042 A 
ATOM      5  C5  UNL d   1       2.235   0.262  -2.015  0.00  0.00     0.033 A 
ATOM      6  C6  UNL d   1       3.351   1.064  -2.274  0.00  0.00    -0.057 A 
ENDROOT
BRANCH   1   7
ATOM      7  N   UNL d   1       5.441   1.505  -3.377  0.00  0.00    -0.732 N 
ATOM      8  C   UNL d   1       5.821   2.040  -4.667  0.00  0.00     0.284 C 
ATOM      9  H3  UNL d   1       5.549   2.162  -2.607  0.00  0.00     0.395 HD
ENDBRANCH   1   7
TORSDOF 1
ENDMDL
