MODEL 1
REMARK minimizedAffinity -5.3784132
REMARK minimizedRMSD -1
REMARK  2 active torsions:
REMARK  status: ('A' for Active; 'I' for Inactive)
REMARK    1  A    between atoms: C1_2  and  C2_3 
REMARK    2  A    between atoms: C2_3  and  C3_4 
ROOT
ATOM      1  C3  UNL d   1       0.097  -0.182  -0.201  0.00  0.00    -0.075 A 
ATOM      2  C4  UNL d   1       1.153  -0.660  -0.991  0.00  0.00     0.002 A 
ATOM      3  C5  UNL d   1       1.897  -1.768  -0.584  0.00  0.00     0.002 A 
ATOM      4  C6  UNL d   1       1.602  -2.404   0.620  0.00  0.00    -0.004 A 
ATOM      5  C7  UNL d   1       0.566  -1.928   1.420  0.00  0.00     0.002 A 
ATOM      6  C8  UNL d   1      -0.182  -0.822   1.013  0.00  0.00     0.002 A 
ENDROOT
BRANCH   1   7
ATOM      7  C2  UNL d   1      -0.730   0.999  -0.651  0.00  0.00     0.056 C 
BRANCH   7   8
ATOM      8  C1  UNL d   1      -1.552   0.738  -1.918  0.00  0.00     0.007 C 
ATOM      9  C   UNL d   1      -1.824   2.000  -2.727  0.00  0.00     0.009 C 
ENDBRANCH   7   8
ENDBRANCH   1   7
TORSDOF 2
ENDMDL
