MODEL 1
REMARK minimizedAffinity -5.39815187
REMARK minimizedRMSD -1
REMARK  2 active torsions:
REMARK  status: ('A' for Active; 'I' for Inactive)
REMARK    1  A    between atoms: C1_2  and  C2_3 
REMARK    2  A    between atoms: C2_3  and  C3_4 
ROOT
ATOM      1  C3  UNL d   1       0.581   0.201   0.323  0.00  0.00    -0.075 A 
ATOM      2  C4  UNL d   1      -0.081  -0.941   0.799  0.00  0.00     0.002 A 
ATOM      3  C5  UNL d   1       0.644  -2.057   1.215  0.00  0.00     0.002 A 
ATOM      4  C6  UNL d   1       2.036  -2.051   1.152  0.00  0.00    -0.004 A 
ATOM      5  C7  UNL d   1       2.703  -0.929   0.665  0.00  0.00     0.002 A 
ATOM      6  C8  UNL d   1       1.980   0.192   0.252  0.00  0.00     0.002 A 
ENDROOT
BRANCH   1   7
ATOM      7  C2  UNL d   1      -0.197   1.424  -0.102  0.00  0.00     0.056 C 
BRANCH   7   8
ATOM      8  C1  UNL d   1      -0.182   1.679  -1.612  0.00  0.00     0.007 C 
ATOM      9  C   UNL d   1      -1.029   0.686  -2.397  0.00  0.00     0.009 C 
ENDBRANCH   7   8
ENDBRANCH   1   7
TORSDOF 2
ENDMDL
