MODEL 1
REMARK minimizedAffinity -4.34845877
REMARK minimizedRMSD -1
REMARK  2 active torsions:
REMARK  status: ('A' for Active; 'I' for Inactive)
REMARK    1  A    between atoms: C1_2  and  C2_3 
REMARK    2  A    between atoms: C2_3  and  C3_4 
ROOT
ATOM      1  C3  UNL d   1       0.207  -0.107   0.289  0.00  0.00    -0.075 A 
ATOM      2  C4  UNL d   1       1.558  -0.359   0.010  0.00  0.00     0.002 A 
ATOM      3  C5  UNL d   1       2.159  -1.546   0.431  0.00  0.00     0.002 A 
ATOM      4  C6  UNL d   1       1.421  -2.489   1.143  0.00  0.00    -0.004 A 
ATOM      5  C7  UNL d   1       0.083  -2.242   1.440  0.00  0.00     0.002 A 
ATOM      6  C8  UNL d   1      -0.522  -1.058   1.017  0.00  0.00     0.002 A 
ENDROOT
BRANCH   1   7
ATOM      7  C2  UNL d   1      -0.457   1.162  -0.189  0.00  0.00     0.056 C 
BRANCH   7   8
ATOM      8  C1  UNL d   1      -1.521   0.941  -1.269  0.00  0.00     0.007 C 
ATOM      9  C   UNL d   1      -1.376   1.883  -2.456  0.00  0.00     0.009 C 
ENDBRANCH   7   8
ENDBRANCH   1   7
TORSDOF 2
ENDMDL
