MODEL 1
REMARK minimizedAffinity -4.99974585
REMARK minimizedRMSD -1
REMARK  2 active torsions:
REMARK  status: ('A' for Active; 'I' for Inactive)
REMARK    1  A    between atoms: C1_2  and  C2_3 
REMARK    2  A    between atoms: C2_3  and  C3_4 
ROOT
ATOM      1  C3  UNL d   1       0.115   0.112  -0.141  0.00  0.00    -0.075 A 
ATOM      2  C4  UNL d   1      -0.492  -0.935   0.567  0.00  0.00     0.002 A 
ATOM      3  C5  UNL d   1       0.274  -1.986   1.073  0.00  0.00     0.002 A 
ATOM      4  C6  UNL d   1       1.652  -2.009   0.868  0.00  0.00    -0.004 A 
ATOM      5  C7  UNL d   1       2.263  -0.982   0.151  0.00  0.00     0.002 A 
ATOM      6  C8  UNL d   1       1.499   0.073  -0.352  0.00  0.00     0.002 A 
ENDROOT
BRANCH   1   7
ATOM      7  C2  UNL d   1      -0.705   1.268  -0.665  0.00  0.00     0.056 C 
BRANCH   7   8
ATOM      8  C1  UNL d   1      -1.838   0.851  -1.608  0.00  0.00     0.007 C 
ATOM      9  C   UNL d   1      -2.033   1.812  -2.774  0.00  0.00     0.009 C 
ENDBRANCH   7   8
ENDBRANCH   1   7
TORSDOF 2
ENDMDL
