MODEL 1
REMARK minimizedAffinity -4.40066242
REMARK minimizedRMSD -1
REMARK  2 active torsions:
REMARK  status: ('A' for Active; 'I' for Inactive)
REMARK    1  A    between atoms: C1_2  and  C2_3 
REMARK    2  A    between atoms: C2_3  and  C3_4 
ROOT
ATOM      1  C3  UNL d   1       0.184  -0.643  -0.342  0.00  0.00    -0.075 A 
ATOM      2  C4  UNL d   1       1.163   0.361  -0.348  0.00  0.00     0.002 A 
ATOM      3  C5  UNL d   1       2.357   0.190   0.354  0.00  0.00     0.002 A 
ATOM      4  C6  UNL d   1       2.582  -0.979   1.077  0.00  0.00    -0.004 A 
ATOM      5  C7  UNL d   1       1.610  -1.976   1.104  0.00  0.00     0.002 A 
ATOM      6  C8  UNL d   1       0.416  -1.810   0.399  0.00  0.00     0.002 A 
ENDROOT
BRANCH   1   7
ATOM      7  C2  UNL d   1      -1.098  -0.478  -1.123  0.00  0.00     0.056 C 
BRANCH   7   8
ATOM      8  C1  UNL d   1      -1.260   0.902  -1.769  0.00  0.00     0.007 C 
ATOM      9  C   UNL d   1      -2.021   0.862  -3.088  0.00  0.00     0.009 C 
ENDBRANCH   7   8
ENDBRANCH   1   7
TORSDOF 2
ENDMDL
