MODEL 1
REMARK minimizedAffinity -4.74010515
REMARK minimizedRMSD -1
REMARK  2 active torsions:
REMARK  status: ('A' for Active; 'I' for Inactive)
REMARK    1  A    between atoms: C1_2  and  C2_3 
REMARK    2  A    between atoms: C2_3  and  C3_4 
ROOT
ATOM      1  C3  UNL d   1       0.045   0.365  -0.301  0.00  0.00    -0.075 A 
ATOM      2  C4  UNL d   1       1.448   0.378  -0.308  0.00  0.00     0.002 A 
ATOM      3  C5  UNL d   1       2.168  -0.621   0.347  0.00  0.00     0.002 A 
ATOM      4  C6  UNL d   1       1.498  -1.638   1.024  0.00  0.00    -0.004 A 
ATOM      5  C7  UNL d   1       0.105  -1.651   1.051  0.00  0.00     0.002 A 
ATOM      6  C8  UNL d   1      -0.618  -0.655   0.393  0.00  0.00     0.002 A 
ENDROOT
BRANCH   1   7
ATOM      7  C2  UNL d   1      -0.740   1.427  -1.033  0.00  0.00     0.056 C 
BRANCH   7   8
ATOM      8  C1  UNL d   1      -1.808   0.871  -1.981  0.00  0.00     0.007 C 
ATOM      9  C   UNL d   1      -2.059   1.762  -3.191  0.00  0.00     0.009 C 
ENDBRANCH   7   8
ENDBRANCH   1   7
TORSDOF 2
ENDMDL
