MODEL 1
REMARK minimizedAffinity -5.52663088
REMARK minimizedRMSD -1
REMARK  2 active torsions:
REMARK  status: ('A' for Active; 'I' for Inactive)
REMARK    1  A    between atoms: C1_2  and  C2_3 
REMARK    2  A    between atoms: C2_3  and  C3_4 
ROOT
ATOM      1  C3  UNL d   1      -0.163   0.422   0.224  0.00  0.00    -0.075 A 
ATOM      2  C4  UNL d   1       1.153   0.650  -0.204  0.00  0.00     0.002 A 
ATOM      3  C5  UNL d   1       2.148  -0.302   0.025  0.00  0.00     0.002 A 
ATOM      4  C6  UNL d   1       1.842  -1.486   0.692  0.00  0.00    -0.004 A 
ATOM      5  C7  UNL d   1       0.542  -1.716   1.136  0.00  0.00     0.002 A 
ATOM      6  C8  UNL d   1      -0.456  -0.767   0.904  0.00  0.00     0.002 A 
ENDROOT
BRANCH   1   7
ATOM      7  C2  UNL d   1      -1.249   1.435  -0.047  0.00  0.00     0.056 C 
BRANCH   7   8
ATOM      8  C1  UNL d   1      -1.262   1.967  -1.484  0.00  0.00     0.007 C 
ATOM      9  C   UNL d   1      -2.470   1.503  -2.285  0.00  0.00     0.009 C 
ENDBRANCH   7   8
ENDBRANCH   1   7
TORSDOF 2
ENDMDL
