MODEL 1
REMARK minimizedAffinity -5.34388876
REMARK minimizedRMSD -1
REMARK  2 active torsions:
REMARK  status: ('A' for Active; 'I' for Inactive)
REMARK    1  A    between atoms: C1_2  and  C2_3 
REMARK    2  A    between atoms: C2_3  and  C3_4 
ROOT
ATOM      1  C3  UNL d   1       0.520  -0.516   0.331  0.00  0.00    -0.075 A 
ATOM      2  C4  UNL d   1       1.871  -0.629  -0.028  0.00  0.00     0.002 A 
ATOM      3  C5  UNL d   1       2.559  -1.826   0.169  0.00  0.00     0.002 A 
ATOM      4  C6  UNL d   1       1.910  -2.920   0.737  0.00  0.00    -0.004 A 
ATOM      5  C7  UNL d   1       0.573  -2.815   1.113  0.00  0.00     0.002 A 
ATOM      6  C8  UNL d   1      -0.120  -1.619   0.912  0.00  0.00     0.002 A 
ENDROOT
BRANCH   1   7
ATOM      7  C2  UNL d   1      -0.239   0.768   0.092  0.00  0.00     0.056 C 
BRANCH   7   8
ATOM      8  C1  UNL d   1      -1.173   0.724  -1.122  0.00  0.00     0.007 C 
ATOM      9  C   UNL d   1      -1.198   2.029  -1.906  0.00  0.00     0.009 C 
ENDBRANCH   7   8
ENDBRANCH   1   7
TORSDOF 2
ENDMDL
