MODEL 1
REMARK minimizedAffinity -5.1610918
REMARK minimizedRMSD -1
REMARK  2 active torsions:
REMARK  status: ('A' for Active; 'I' for Inactive)
REMARK    1  A    between atoms: C1_2  and  C2_3 
REMARK    2  A    between atoms: C2_3  and  C3_4 
ROOT
ATOM      1  C3  UNL d   1       0.348  -1.131   0.616  0.00  0.00    -0.075 A 
ATOM      2  C4  UNL d   1      -0.709  -1.132   1.538  0.00  0.00     0.002 A 
ATOM      3  C5  UNL d   1      -0.665  -1.955   2.664  0.00  0.00     0.002 A 
ATOM      4  C6  UNL d   1       0.428  -2.792   2.877  0.00  0.00    -0.004 A 
ATOM      5  C7  UNL d   1       1.475  -2.811   1.959  0.00  0.00     0.002 A 
ATOM      6  C8  UNL d   1       1.436  -1.986   0.834  0.00  0.00     0.002 A 
ENDROOT
BRANCH   1   7
ATOM      7  C2  UNL d   1       0.320  -0.221  -0.589  0.00  0.00     0.056 C 
BRANCH   7   8
ATOM      8  C1  UNL d   1      -0.586   1.004  -0.425  0.00  0.00     0.007 C 
ATOM      9  C   UNL d   1      -1.436   1.291  -1.656  0.00  0.00     0.009 C 
ENDBRANCH   7   8
ENDBRANCH   1   7
TORSDOF 2
ENDMDL
