MODEL 1
REMARK minimizedAffinity -6.47217464
REMARK minimizedRMSD -1
REMARK  2 active torsions:
REMARK  status: ('A' for Active; 'I' for Inactive)
REMARK    1  A    between atoms: C1_2  and  C2_3 
REMARK    2  A    between atoms: C2_3  and  C3_4 
ROOT
ATOM      1  C3  UNL d   1       0.377  -0.932   0.439  0.00  0.00    -0.075 A 
ATOM      2  C4  UNL d   1      -0.629  -1.039   1.411  0.00  0.00     0.002 A 
ATOM      3  C5  UNL d   1      -0.587  -2.057   2.364  0.00  0.00     0.002 A 
ATOM      4  C6  UNL d   1       0.452  -2.984   2.352  0.00  0.00    -0.004 A 
ATOM      5  C7  UNL d   1       1.448  -2.898   1.382  0.00  0.00     0.002 A 
ATOM      6  C8  UNL d   1       1.411  -1.878   0.429  0.00  0.00     0.002 A 
ENDROOT
BRANCH   1   7
ATOM      7  C2  UNL d   1       0.354   0.184  -0.577  0.00  0.00     0.056 C 
BRANCH   7   8
ATOM      8  C1  UNL d   1      -0.834   1.141  -0.426  0.00  0.00     0.007 C 
ATOM      9  C   UNL d   1      -1.524   1.454  -1.747  0.00  0.00     0.009 C 
ENDBRANCH   7   8
ENDBRANCH   1   7
TORSDOF 2
ENDMDL
