MODEL 1
REMARK minimizedAffinity -4.80067301
REMARK minimizedRMSD -1
REMARK  2 active torsions:
REMARK  status: ('A' for Active; 'I' for Inactive)
REMARK    1  A    between atoms: C1_2  and  C2_3 
REMARK    2  A    between atoms: C2_3  and  C3_4 
ROOT
ATOM      1  C3  UNL d   1      -0.314   0.637  -0.490  0.00  0.00    -0.075 A 
ATOM      2  C4  UNL d   1       0.943   0.162  -0.890  0.00  0.00     0.002 A 
ATOM      3  C5  UNL d   1       1.551  -0.893  -0.209  0.00  0.00     0.002 A 
ATOM      4  C6  UNL d   1       0.917  -1.478   0.885  0.00  0.00    -0.004 A 
ATOM      5  C7  UNL d   1      -0.325  -1.003   1.302  0.00  0.00     0.002 A 
ATOM      6  C8  UNL d   1      -0.937   0.050   0.619  0.00  0.00     0.002 A 
ENDROOT
BRANCH   1   7
ATOM      7  C2  UNL d   1      -0.991   1.759  -1.240  0.00  0.00     0.056 C 
BRANCH   7   8
ATOM      8  C1  UNL d   1      -1.512   1.358  -2.624  0.00  0.00     0.007 C 
ATOM      9  C   UNL d   1      -0.748   2.013  -3.767  0.00  0.00     0.009 C 
ENDBRANCH   7   8
ENDBRANCH   1   7
TORSDOF 2
ENDMDL
