MODEL 1
REMARK minimizedAffinity -5.67399263
REMARK minimizedRMSD -1
REMARK  2 active torsions:
REMARK  status: ('A' for Active; 'I' for Inactive)
REMARK    1  A    between atoms: C1_2  and  C2_3 
REMARK    2  A    between atoms: C2_3  and  C3_4 
ROOT
ATOM      1  C3  UNL d   1       0.839  -0.200   0.120  0.00  0.00    -0.075 A 
ATOM      2  C4  UNL d   1       0.117  -1.019   1.000  0.00  0.00     0.002 A 
ATOM      3  C5  UNL d   1       0.595  -2.283   1.345  0.00  0.00     0.002 A 
ATOM      4  C6  UNL d   1       1.793  -2.748   0.808  0.00  0.00    -0.004 A 
ATOM      5  C7  UNL d   1       2.511  -1.950  -0.080  0.00  0.00     0.002 A 
ATOM      6  C8  UNL d   1       2.037  -0.682  -0.423  0.00  0.00     0.002 A 
ENDROOT
BRANCH   1   7
ATOM      7  C2  UNL d   1       0.342   1.182  -0.234  0.00  0.00     0.056 C 
BRANCH   7   8
ATOM      8  C1  UNL d   1      -0.259   1.287  -1.639  0.00  0.00     0.007 C 
ATOM      9  C   UNL d   1      -0.236   2.704  -2.197  0.00  0.00     0.009 C 
ENDBRANCH   7   8
ENDBRANCH   1   7
TORSDOF 2
ENDMDL
