MODEL 1
REMARK minimizedAffinity 4.22646046
REMARK minimizedRMSD -1
REMARK  0 active torsions:
REMARK  status: ('A' for Active; 'I' for Inactive)
ROOT
ATOM      1  C1  BNZ d   1       0.580   4.894   1.790  0.00  0.00     0.000 A 
ATOM      2  C2  BNZ d   1       1.386   5.999   1.713  0.00  0.00     0.000 A 
ATOM      3  C3  BNZ d   1       2.689   5.944   2.122  0.00  0.00     0.000 A 
ATOM      4  C4  BNZ d   1       3.173   4.799   2.644  0.00  0.00     0.000 A 
ATOM      5  C5  BNZ d   1       2.370   3.679   2.737  0.00  0.00     0.000 A 
ATOM      6  C6  BNZ d   1       1.070   3.726   2.289  0.00  0.00     0.000 A 
ENDROOT
TORSDOF 0
ENDMDL
