MODEL 1
REMARK minimizedAffinity 4.09467936
REMARK minimizedRMSD -1
REMARK  0 active torsions:
REMARK  status: ('A' for Active; 'I' for Inactive)
ROOT
ATOM      1  C1  BNZ d   1       1.869   2.274   0.741  0.00  0.00     0.000 A 
ATOM      2  C2  BNZ d   1       2.512   1.099   0.456  0.00  0.00     0.000 A 
ATOM      3  C3  BNZ d   1       2.033   0.256  -0.507  0.00  0.00     0.000 A 
ATOM      4  C4  BNZ d   1       0.892   0.568  -1.154  0.00  0.00     0.000 A 
ATOM      5  C5  BNZ d   1       0.227   1.745  -0.871  0.00  0.00     0.000 A 
ATOM      6  C6  BNZ d   1       0.734   2.610   0.071  0.00  0.00     0.000 A 
ENDROOT
TORSDOF 0
ENDMDL
