MODEL 1
REMARK minimizedAffinity 2.22716165
REMARK minimizedRMSD -1
REMARK  0 active torsions:
REMARK  status: ('A' for Active; 'I' for Inactive)
ROOT
ATOM      1  C1  BNZ d   1       3.647   0.877  -1.861  0.00  0.00     0.000 A 
ATOM      2  C2  BNZ d   1       4.570   1.605  -2.563  0.00  0.00     0.000 A 
ATOM      3  C3  BNZ d   1       5.646   2.165  -1.934  0.00  0.00     0.000 A 
ATOM      4  C4  BNZ d   1       5.777   2.030  -0.598  0.00  0.00     0.000 A 
ATOM      5  C5  BNZ d   1       4.850   1.306   0.125  0.00  0.00     0.000 A 
ATOM      6  C6  BNZ d   1       3.789   0.712  -0.518  0.00  0.00     0.000 A 
ENDROOT
TORSDOF 0
ENDMDL
