MODEL 1
REMARK minimizedAffinity 4.46762466
REMARK minimizedRMSD -1
REMARK  0 active torsions:
REMARK  status: ('A' for Active; 'I' for Inactive)
ROOT
ATOM      1  C1  BNZ d   1      -0.148   3.912   0.772  0.00  0.00     0.000 A 
ATOM      2  C2  BNZ d   1       1.066   3.299   0.935  0.00  0.00     0.000 A 
ATOM      3  C3  BNZ d   1       1.385   2.179   0.219  0.00  0.00     0.000 A 
ATOM      4  C4  BNZ d   1       0.478   1.651  -0.627  0.00  0.00     0.000 A 
ATOM      5  C5  BNZ d   1      -0.754   2.253  -0.796  0.00  0.00     0.000 A 
ATOM      6  C6  BNZ d   1      -1.057   3.402  -0.103  0.00  0.00     0.000 A 
ENDROOT
TORSDOF 0
ENDMDL
