MODEL 1
REMARK minimizedAffinity 3.11673427
REMARK minimizedRMSD -1
REMARK  0 active torsions:
REMARK  status: ('A' for Active; 'I' for Inactive)
ROOT
ATOM      1  C1  BNZ d   1       2.675  -0.037  -1.500  0.00  0.00     0.000 A 
ATOM      2  C2  BNZ d   1       2.744   0.008  -0.133  0.00  0.00     0.000 A 
ATOM      3  C3  BNZ d   1       3.662   0.802   0.496  0.00  0.00     0.000 A 
ATOM      4  C4  BNZ d   1       4.534   1.519  -0.241  0.00  0.00     0.000 A 
ATOM      5  C5  BNZ d   1       4.483   1.478  -1.620  0.00  0.00     0.000 A 
ATOM      6  C6  BNZ d   1       3.533   0.707  -2.250  0.00  0.00     0.000 A 
ENDROOT
TORSDOF 0
ENDMDL
