MODEL 1
REMARK minimizedAffinity 0.433137715
REMARK minimizedRMSD -1
REMARK  0 active torsions:
REMARK  status: ('A' for Active; 'I' for Inactive)
ROOT
ATOM      1  C1  BNZ d   1       3.968   1.227  -1.176  0.00  0.00     0.000 A 
ATOM      2  C2  BNZ d   1       4.044   1.439   0.175  0.00  0.00     0.000 A 
ATOM      3  C3  BNZ d   1       2.998   1.118   0.994  0.00  0.00     0.000 A 
ATOM      4  C4  BNZ d   1       1.864   0.623   0.458  0.00  0.00     0.000 A 
ATOM      5  C5  BNZ d   1       1.768   0.412  -0.904  0.00  0.00     0.000 A 
ATOM      6  C6  BNZ d   1       2.837   0.700  -1.720  0.00  0.00     0.000 A 
ENDROOT
TORSDOF 0
ENDMDL
