MODEL 1
REMARK minimizedAffinity 4.19353199
REMARK minimizedRMSD -1
REMARK  0 active torsions:
REMARK  status: ('A' for Active; 'I' for Inactive)
ROOT
ATOM      1  C1  BNZ d   1       4.550   1.437  -2.641  0.00  0.00     0.000 A 
ATOM      2  C2  BNZ d   1       3.425   0.670  -2.496  0.00  0.00     0.000 A 
ATOM      3  C3  BNZ d   1       2.983   0.304  -1.255  0.00  0.00     0.000 A 
ATOM      4  C4  BNZ d   1       3.689   0.671  -0.165  0.00  0.00     0.000 A 
ATOM      5  C5  BNZ d   1       4.830   1.436  -0.296  0.00  0.00     0.000 A 
ATOM      6  C6  BNZ d   1       5.250   1.836  -1.544  0.00  0.00     0.000 A 
ENDROOT
TORSDOF 0
ENDMDL
