MODEL 1
REMARK minimizedAffinity -4.50325346
REMARK minimizedRMSD -1
REMARK  0 active torsions:
REMARK  status: ('A' for Active; 'I' for Inactive)
ROOT
ATOM      1  C1  BNZ d   1      -5.422   0.010  -3.744  0.00  0.00     0.000 A 
ATOM      2  C2  BNZ d   1      -5.999   0.569  -4.853  0.00  0.00     0.000 A 
ATOM      3  C3  BNZ d   1      -5.348   1.535  -5.569  0.00  0.00     0.000 A 
ATOM      4  C4  BNZ d   1      -4.141   1.968  -5.152  0.00  0.00     0.000 A 
ATOM      5  C5  BNZ d   1      -3.551   1.422  -4.030  0.00  0.00     0.000 A 
ATOM      6  C6  BNZ d   1      -4.192   0.422  -3.334  0.00  0.00     0.000 A 
ENDROOT
TORSDOF 0
ENDMDL
