MODEL 1
REMARK minimizedAffinity 6.91134596
REMARK minimizedRMSD -1
REMARK  0 active torsions:
REMARK  status: ('A' for Active; 'I' for Inactive)
ROOT
ATOM      1  C1  BNZ d   1      -1.334   3.992  -0.065  0.00  0.00     0.000 A 
ATOM      2  C2  BNZ d   1      -1.247   5.158   0.647  0.00  0.00     0.000 A 
ATOM      3  C3  BNZ d   1      -0.378   5.274   1.696  0.00  0.00     0.000 A 
ATOM      4  C4  BNZ d   1       0.373   4.213   2.055  0.00  0.00     0.000 A 
ATOM      5  C5  BNZ d   1       0.290   3.028   1.352  0.00  0.00     0.000 A 
ATOM      6  C6  BNZ d   1      -0.558   2.927   0.273  0.00  0.00     0.000 A 
ENDROOT
TORSDOF 0
ENDMDL
