MODEL 1
REMARK minimizedAffinity 10.9148655
REMARK minimizedRMSD -1
REMARK  0 active torsions:
REMARK  status: ('A' for Active; 'I' for Inactive)
ROOT
ATOM      1  C1  BNZ d   1      -5.781   0.442  -6.000  0.00  0.00     0.000 A 
ATOM      2  C2  BNZ d   1      -5.250  -0.820  -5.999  0.00  0.00     0.000 A 
ATOM      3  C3  BNZ d   1      -4.935  -1.446  -4.825  0.00  0.00     0.000 A 
ATOM      4  C4  BNZ d   1      -5.113  -0.794  -3.658  0.00  0.00     0.000 A 
ATOM      5  C5  BNZ d   1      -5.639   0.482  -3.643  0.00  0.00     0.000 A 
ATOM      6  C6  BNZ d   1      -5.992   1.094  -4.824  0.00  0.00     0.000 A 
ENDROOT
TORSDOF 0
ENDMDL
