MODEL 1
REMARK minimizedAffinity 5.94525051
REMARK minimizedRMSD -1
REMARK  1 active torsions:
REMARK  status: ('A' for Active; 'I' for Inactive)
REMARK    1  A    between atoms: C1_2  and  C2_3 
ROOT
ATOM      1  C2  UNL d   1      -1.304   2.482  -1.935  0.00  0.00    -0.076 A 
ATOM      2  C3  UNL d   1      -2.623   2.814  -1.582  0.00  0.00     0.004 A 
ATOM      3  C4  UNL d   1      -3.704   2.345  -2.326  0.00  0.00    -0.003 A 
ATOM      4  C5  UNL d   1      -3.484   1.537  -3.436  0.00  0.00     0.000 A 
ATOM      5  C6  UNL d   1      -2.182   1.184  -3.791  0.00  0.00     0.000 A 
ATOM      6  C7  UNL d   1      -1.082   1.634  -3.041  0.00  0.00    -0.073 A 
ATOM      7  C8  UNL d   1       0.301   1.227  -3.472  0.00  0.00     0.078 C 
ENDROOT
BRANCH   1   8
ATOM      8  C1  UNL d   1      -0.169   3.042  -1.106  0.00  0.00     0.053 C 
ATOM      9  C   UNL d   1      -0.457   2.988   0.386  0.00  0.00     0.018 C 
ENDBRANCH   1   8
TORSDOF 1
ENDMDL
