MODEL 1
REMARK minimizedAffinity 12.6094246
REMARK minimizedRMSD -1
REMARK  1 active torsions:
REMARK  status: ('A' for Active; 'I' for Inactive)
REMARK    1  A    between atoms: C1_2  and  C2_3 
ROOT
ATOM      1  C2  UNL d   1       4.830  -2.349  -5.265  0.00  0.00    -0.076 A 
ATOM      2  C3  UNL d   1       5.997  -3.056  -5.603  0.00  0.00     0.004 A 
ATOM      3  C4  UNL d   1       5.944  -4.404  -5.951  0.00  0.00    -0.003 A 
ATOM      4  C5  UNL d   1       4.722  -5.068  -5.968  0.00  0.00     0.000 A 
ATOM      5  C6  UNL d   1       3.552  -4.378  -5.653  0.00  0.00     0.000 A 
ATOM      6  C7  UNL d   1       3.586  -3.014  -5.315  0.00  0.00    -0.073 A 
ATOM      7  C8  UNL d   1       2.295  -2.321  -4.978  0.00  0.00     0.078 C 
ENDROOT
BRANCH   1   8
ATOM      8  C1  UNL d   1       4.953  -0.895  -4.868  0.00  0.00     0.053 C 
ATOM      9  C   UNL d   1       5.978  -0.147  -5.707  0.00  0.00     0.018 C 
ENDBRANCH   1   8
TORSDOF 1
ENDMDL
