MODEL 1
REMARK minimizedAffinity 3.30362058
REMARK minimizedRMSD -1
REMARK  1 active torsions:
REMARK  status: ('A' for Active; 'I' for Inactive)
REMARK    1  A    between atoms: C1_2  and  C2_3 
ROOT
ATOM      1  C2  UNL d   1       4.638   5.651  -1.867  0.00  0.00    -0.076 A 
ATOM      2  C3  UNL d   1       5.821   5.999  -2.542  0.00  0.00     0.004 A 
ATOM      3  C4  UNL d   1       5.999   5.680  -3.887  0.00  0.00    -0.003 A 
ATOM      4  C5  UNL d   1       4.998   5.008  -4.579  0.00  0.00     0.000 A 
ATOM      5  C6  UNL d   1       3.811   4.670  -3.930  0.00  0.00     0.000 A 
ATOM      6  C7  UNL d   1       3.608   4.999  -2.578  0.00  0.00    -0.073 A 
ATOM      7  C8  UNL d   1       2.311   4.605  -1.926  0.00  0.00     0.078 C 
ENDROOT
BRANCH   1   8
ATOM      8  C1  UNL d   1       4.512   5.999  -0.401  0.00  0.00     0.053 C 
ATOM      9  C   UNL d   1       4.466   4.766   0.489  0.00  0.00     0.018 C 
ENDBRANCH   1   8
TORSDOF 1
ENDMDL
