MODEL 1
REMARK minimizedAffinity 9.35419178
REMARK minimizedRMSD -1
REMARK  1 active torsions:
REMARK  status: ('A' for Active; 'I' for Inactive)
REMARK    1  A    between atoms: C1_2  and  C2_3 
ROOT
ATOM      1  C2  UNL d   1       0.847   2.663  -2.568  0.00  0.00    -0.076 A 
ATOM      2  C3  UNL d   1       1.927   3.045  -3.382  0.00  0.00     0.004 A 
ATOM      3  C4  UNL d   1       2.713   4.151  -3.060  0.00  0.00    -0.003 A 
ATOM      4  C5  UNL d   1       2.432   4.892  -1.917  0.00  0.00     0.000 A 
ATOM      5  C6  UNL d   1       1.375   4.516  -1.088  0.00  0.00     0.000 A 
ATOM      6  C7  UNL d   1       0.583   3.395  -1.390  0.00  0.00    -0.073 A 
ATOM      7  C8  UNL d   1      -0.547   3.039  -0.464  0.00  0.00     0.078 C 
ENDROOT
BRANCH   1   8
ATOM      8  C1  UNL d   1       0.014   1.472  -2.982  0.00  0.00     0.053 C 
ATOM      9  C   UNL d   1      -1.421   1.852  -3.315  0.00  0.00     0.018 C 
ENDBRANCH   1   8
TORSDOF 1
ENDMDL
