MODEL 1
REMARK minimizedAffinity 2.0810473
REMARK minimizedRMSD -1
REMARK  1 active torsions:
REMARK  status: ('A' for Active; 'I' for Inactive)
REMARK    1  A    between atoms: C1_2  and  C2_3 
ROOT
ATOM      1  C2  UNL d   1      -4.165   2.112  -3.251  0.00  0.00    -0.076 A 
ATOM      2  C3  UNL d   1      -3.717   3.241  -3.960  0.00  0.00     0.004 A 
ATOM      3  C4  UNL d   1      -4.403   4.452  -3.888  0.00  0.00    -0.003 A 
ATOM      4  C5  UNL d   1      -5.549   4.554  -3.106  0.00  0.00     0.000 A 
ATOM      5  C6  UNL d   1      -5.997   3.449  -2.383  0.00  0.00     0.000 A 
ATOM      6  C7  UNL d   1      -5.308   2.226  -2.431  0.00  0.00    -0.073 A 
ATOM      7  C8  UNL d   1      -5.840   1.065  -1.636  0.00  0.00     0.078 C 
ENDROOT
BRANCH   1   8
ATOM      8  C1  UNL d   1      -3.395   0.818  -3.389  0.00  0.00     0.053 C 
ATOM      9  C   UNL d   1      -1.889   1.033  -3.395  0.00  0.00     0.018 C 
ENDBRANCH   1   8
TORSDOF 1
ENDMDL
