MODEL 1
REMARK minimizedAffinity 2.51619053
REMARK minimizedRMSD -1
REMARK  1 active torsions:
REMARK  status: ('A' for Active; 'I' for Inactive)
REMARK    1  A    between atoms: C1_2  and  C2_3 
ROOT
ATOM      1  C2  UNL d   1       3.191  -3.041  -5.832  0.00  0.00    -0.076 A 
ATOM      2  C3  UNL d   1       3.939  -1.851  -5.842  0.00  0.00     0.004 A 
ATOM      3  C4  UNL d   1       5.331  -1.878  -5.915  0.00  0.00    -0.003 A 
ATOM      4  C5  UNL d   1       5.997  -3.097  -5.980  0.00  0.00     0.000 A 
ATOM      5  C6  UNL d   1       5.270  -4.287  -5.990  0.00  0.00     0.000 A 
ATOM      6  C7  UNL d   1       3.866  -4.276  -5.933  0.00  0.00    -0.073 A 
ATOM      7  C8  UNL d   1       3.133  -5.590  -5.940  0.00  0.00     0.078 C 
ENDROOT
BRANCH   1   8
ATOM      8  C1  UNL d   1       1.686  -2.949  -5.724  0.00  0.00     0.053 C 
ATOM      9  C   UNL d   1       1.222  -1.611  -5.170  0.00  0.00     0.018 C 
ENDBRANCH   1   8
TORSDOF 1
ENDMDL
