MODEL 1
REMARK minimizedAffinity 15.3900099
REMARK minimizedRMSD -1
REMARK  1 active torsions:
REMARK  status: ('A' for Active; 'I' for Inactive)
REMARK    1  A    between atoms: C1_2  and  C2_3 
ROOT
ATOM      1  C2  UNL d   1      -4.212   1.984  -2.139  0.00  0.00    -0.076 A 
ATOM      2  C3  UNL d   1      -3.393   0.853  -1.980  0.00  0.00     0.004 A 
ATOM      3  C4  UNL d   1      -2.381   0.565  -2.895  0.00  0.00    -0.003 A 
ATOM      4  C5  UNL d   1      -2.173   1.404  -3.984  0.00  0.00     0.000 A 
ATOM      5  C6  UNL d   1      -2.965   2.540  -4.148  0.00  0.00     0.000 A 
ATOM      6  C7  UNL d   1      -3.978   2.853  -3.226  0.00  0.00    -0.073 A 
ATOM      7  C8  UNL d   1      -4.806   4.088  -3.455  0.00  0.00     0.078 C 
ENDROOT
BRANCH   1   8
ATOM      8  C1  UNL d   1      -5.310   2.231  -1.130  0.00  0.00     0.053 C 
ATOM      9  C   UNL d   1      -5.996   0.946  -0.689  0.00  0.00     0.018 C 
ENDBRANCH   1   8
TORSDOF 1
ENDMDL
