MODEL 1
REMARK minimizedAffinity 7.11597872
REMARK minimizedRMSD -1
REMARK  1 active torsions:
REMARK  status: ('A' for Active; 'I' for Inactive)
REMARK    1  A    between atoms: C1_2  and  C2_3 
ROOT
ATOM      1  C2  UNL d   1      -4.916   2.995  -2.904  0.00  0.00    -0.076 A 
ATOM      2  C3  UNL d   1      -4.193   2.975  -4.109  0.00  0.00     0.004 A 
ATOM      3  C4  UNL d   1      -3.331   1.922  -4.411  0.00  0.00    -0.003 A 
ATOM      4  C5  UNL d   1      -3.179   0.871  -3.513  0.00  0.00     0.000 A 
ATOM      5  C6  UNL d   1      -3.902   0.866  -2.321  0.00  0.00     0.000 A 
ATOM      6  C7  UNL d   1      -4.788   1.912  -2.008  0.00  0.00    -0.073 A 
ATOM      7  C8  UNL d   1      -5.537   1.857  -0.705  0.00  0.00     0.078 C 
ENDROOT
BRANCH   1   8
ATOM      8  C1  UNL d   1      -5.815   4.177  -2.618  0.00  0.00     0.053 C 
ATOM      9  C   UNL d   1      -5.058   5.496  -2.608  0.00  0.00     0.018 C 
ENDBRANCH   1   8
TORSDOF 1
ENDMDL
