MODEL 1
REMARK minimizedAffinity -0.456117123
REMARK minimizedRMSD -1
REMARK  1 active torsions:
REMARK  status: ('A' for Active; 'I' for Inactive)
REMARK    1  A    between atoms: C1_2  and  C2_3 
ROOT
ATOM      1  C2  UNL d   1       0.314   1.622   0.083  0.00  0.00    -0.073 A 
ATOM      2  C3  UNL d   1      -0.543   1.086   1.051  0.00  0.00    -0.002 A 
ATOM      3  C4  UNL d   1      -0.869  -0.270   1.030  0.00  0.00     0.004 A 
ATOM      4  C5  UNL d   1      -0.339  -1.105   0.046  0.00  0.00    -0.004 A 
ATOM      5  C6  UNL d   1       0.527  -0.590  -0.923  0.00  0.00    -0.075 A 
ATOM      6  C7  UNL d   1       1.105  -1.474  -1.990  0.00  0.00     0.076 C 
ATOM      7  C8  UNL d   1       0.849   0.774  -0.897  0.00  0.00     0.001 A 
ENDROOT
BRANCH   1   8
ATOM      8  C1  UNL d   1       0.674   3.085   0.106  0.00  0.00     0.053 C 
ATOM      9  C   UNL d   1       2.179   3.301   0.159  0.00  0.00     0.018 C 
ENDBRANCH   1   8
TORSDOF 1
ENDMDL
