MODEL 1
REMARK minimizedAffinity -3.61631823
REMARK minimizedRMSD -1
REMARK  1 active torsions:
REMARK  status: ('A' for Active; 'I' for Inactive)
REMARK    1  A    between atoms: C1_2  and  C2_3 
ROOT
ATOM      1  C2  UNL d   1       1.708   1.850  -0.162  0.00  0.00    -0.073 A 
ATOM      2  C3  UNL d   1       1.790   1.248  -1.423  0.00  0.00    -0.002 A 
ATOM      3  C4  UNL d   1       0.916   0.217  -1.770  0.00  0.00     0.004 A 
ATOM      4  C5  UNL d   1      -0.051  -0.218  -0.863  0.00  0.00    -0.004 A 
ATOM      5  C6  UNL d   1      -0.156   0.378   0.397  0.00  0.00    -0.075 A 
ATOM      6  C7  UNL d   1      -1.189  -0.080   1.384  0.00  0.00     0.076 C 
ATOM      7  C8  UNL d   1       0.727   1.412   0.739  0.00  0.00     0.001 A 
ENDROOT
BRANCH   1   8
ATOM      8  C1  UNL d   1       2.645   2.969   0.214  0.00  0.00     0.053 C 
ATOM      9  C   UNL d   1       2.274   3.600   1.547  0.00  0.00     0.018 C 
ENDBRANCH   1   8
TORSDOF 1
ENDMDL
