MODEL 1
REMARK minimizedAffinity -4.85331583
REMARK minimizedRMSD -1
REMARK  1 active torsions:
REMARK  status: ('A' for Active; 'I' for Inactive)
REMARK    1  A    between atoms: C1_2  and  C2_3 
ROOT
ATOM      1  C2  UNL d   1       0.142   0.162  -0.060  0.00  0.00    -0.073 A 
ATOM      2  C3  UNL d   1      -0.924   0.408   0.813  0.00  0.00    -0.002 A 
ATOM      3  C4  UNL d   1      -1.564  -0.650   1.459  0.00  0.00     0.004 A 
ATOM      4  C5  UNL d   1      -1.143  -1.962   1.245  0.00  0.00    -0.004 A 
ATOM      5  C6  UNL d   1      -0.072  -2.227   0.385  0.00  0.00    -0.075 A 
ATOM      6  C7  UNL d   1       0.392  -3.633   0.142  0.00  0.00     0.076 C 
ATOM      7  C8  UNL d   1       0.564  -1.160  -0.262  0.00  0.00     0.001 A 
ENDROOT
BRANCH   1   8
ATOM      8  C1  UNL d   1       0.841   1.302  -0.756  0.00  0.00     0.053 C 
ATOM      9  C   UNL d   1       1.342   2.348   0.227  0.00  0.00     0.018 C 
ENDBRANCH   1   8
TORSDOF 1
ENDMDL
