MODEL 1
REMARK minimizedAffinity -4.2789588
REMARK minimizedRMSD -1
REMARK  1 active torsions:
REMARK  status: ('A' for Active; 'I' for Inactive)
REMARK    1  A    between atoms: C1_2  and  C2_3 
ROOT
ATOM      1  C2  UNL d   1      -0.555  -0.200  -0.638  0.00  0.00    -0.073 A 
ATOM      2  C3  UNL d   1      -1.453   0.221   0.350  0.00  0.00    -0.002 A 
ATOM      3  C4  UNL d   1      -1.802  -0.634   1.396  0.00  0.00     0.004 A 
ATOM      4  C5  UNL d   1      -1.253  -1.914   1.469  0.00  0.00    -0.004 A 
ATOM      5  C6  UNL d   1      -0.345  -2.349   0.498  0.00  0.00    -0.075 A 
ATOM      6  C7  UNL d   1       0.253  -3.724   0.561  0.00  0.00     0.076 C 
ATOM      7  C8  UNL d   1      -0.002  -1.485  -0.551  0.00  0.00     0.001 A 
ENDROOT
BRANCH   1   8
ATOM      8  C1  UNL d   1      -0.170   0.722  -1.765  0.00  0.00     0.053 C 
ATOM      9  C   UNL d   1       0.198  -0.042  -3.027  0.00  0.00     0.018 C 
ENDBRANCH   1   8
TORSDOF 1
ENDMDL
