MODEL 1
REMARK minimizedAffinity -3.43451834
REMARK minimizedRMSD -1
REMARK  1 active torsions:
REMARK  status: ('A' for Active; 'I' for Inactive)
REMARK    1  A    between atoms: C1_2  and  C2_3 
ROOT
ATOM      1  C2  UNL d   1      -0.603  -1.326   0.631  0.00  0.00    -0.073 A 
ATOM      2  C3  UNL d   1      -1.300  -0.335   1.333  0.00  0.00    -0.002 A 
ATOM      3  C4  UNL d   1      -1.322   0.978   0.862  0.00  0.00     0.004 A 
ATOM      4  C5  UNL d   1      -0.655   1.312  -0.317  0.00  0.00    -0.004 A 
ATOM      5  C6  UNL d   1       0.037   0.334  -1.038  0.00  0.00    -0.075 A 
ATOM      6  C7  UNL d   1       0.761   0.678  -2.306  0.00  0.00     0.076 C 
ATOM      7  C8  UNL d   1       0.057  -0.982  -0.557  0.00  0.00     0.001 A 
ENDROOT
BRANCH   1   8
ATOM      8  C1  UNL d   1      -0.582  -2.747   1.133  0.00  0.00     0.053 C 
ATOM      9  C   UNL d   1       0.676  -3.485   0.701  0.00  0.00     0.018 C 
ENDBRANCH   1   8
TORSDOF 1
ENDMDL
