MODEL 1
REMARK minimizedAffinity -3.28296542
REMARK minimizedRMSD -1
REMARK  1 active torsions:
REMARK  status: ('A' for Active; 'I' for Inactive)
REMARK    1  A    between atoms: C1_2  and  C2_3 
ROOT
ATOM      1  C2  UNL d   1       0.389   1.833  -0.281  0.00  0.00    -0.073 A 
ATOM      2  C3  UNL d   1       0.115   1.839  -1.654  0.00  0.00    -0.002 A 
ATOM      3  C4  UNL d   1      -0.129   0.642  -2.329  0.00  0.00     0.004 A 
ATOM      4  C5  UNL d   1      -0.109  -0.570  -1.639  0.00  0.00    -0.004 A 
ATOM      5  C6  UNL d   1       0.151  -0.595  -0.265  0.00  0.00    -0.075 A 
ATOM      6  C7  UNL d   1       0.178  -1.891   0.491  0.00  0.00     0.076 C 
ATOM      7  C8  UNL d   1       0.398   0.610   0.406  0.00  0.00     0.001 A 
ENDROOT
BRANCH   1   8
ATOM      8  C1  UNL d   1       0.648   3.123   0.453  0.00  0.00     0.053 C 
ATOM      9  C   UNL d   1       2.128   3.466   0.499  0.00  0.00     0.018 C 
ENDBRANCH   1   8
TORSDOF 1
ENDMDL
