MODEL 1
REMARK minimizedAffinity -4.03190565
REMARK minimizedRMSD -1
REMARK  1 active torsions:
REMARK  status: ('A' for Active; 'I' for Inactive)
REMARK    1  A    between atoms: C1_2  and  C2_3 
ROOT
ATOM      1  C2  UNL d   1      -0.053   1.336  -0.061  0.00  0.00    -0.073 A 
ATOM      2  C3  UNL d   1      -1.227   1.519   0.678  0.00  0.00    -0.002 A 
ATOM      3  C4  UNL d   1      -1.849   0.432   1.295  0.00  0.00     0.004 A 
ATOM      4  C5  UNL d   1      -1.301  -0.846   1.184  0.00  0.00    -0.004 A 
ATOM      5  C6  UNL d   1      -0.121  -1.047   0.460  0.00  0.00    -0.075 A 
ATOM      6  C7  UNL d   1       0.480  -2.416   0.329  0.00  0.00     0.076 C 
ATOM      7  C8  UNL d   1       0.496   0.049  -0.159  0.00  0.00     0.001 A 
ENDROOT
BRANCH   1   8
ATOM      8  C1  UNL d   1       0.625   2.507  -0.723  0.00  0.00     0.053 C 
ATOM      9  C   UNL d   1       1.773   3.048   0.114  0.00  0.00     0.018 C 
ENDBRANCH   1   8
TORSDOF 1
ENDMDL
