MODEL 1
REMARK minimizedAffinity -3.73661876
REMARK minimizedRMSD -1
REMARK  1 active torsions:
REMARK  status: ('A' for Active; 'I' for Inactive)
REMARK    1  A    between atoms: C1_2  and  C2_3 
ROOT
ATOM      1  C2  UNL d   1       0.158   0.404   0.056  0.00  0.00    -0.073 A 
ATOM      2  C3  UNL d   1      -1.058   0.507   0.742  0.00  0.00    -0.002 A 
ATOM      3  C4  UNL d   1      -1.651  -0.626   1.298  0.00  0.00     0.004 A 
ATOM      4  C5  UNL d   1      -1.033  -1.871   1.182  0.00  0.00    -0.004 A 
ATOM      5  C6  UNL d   1       0.188  -1.993   0.510  0.00  0.00    -0.075 A 
ATOM      6  C7  UNL d   1       0.864  -3.325   0.374  0.00  0.00     0.076 C 
ATOM      7  C8  UNL d   1       0.776  -0.850  -0.049  0.00  0.00     0.001 A 
ENDROOT
BRANCH   1   8
ATOM      8  C1  UNL d   1       0.806   1.626  -0.542  0.00  0.00     0.053 C 
ATOM      9  C   UNL d   1       0.736   2.823   0.393  0.00  0.00     0.018 C 
ENDBRANCH   1   8
TORSDOF 1
ENDMDL
