MODEL 1
REMARK minimizedAffinity -3.51991796
REMARK minimizedRMSD -1
REMARK  1 active torsions:
REMARK  status: ('A' for Active; 'I' for Inactive)
REMARK    1  A    between atoms: C1_2  and  C2_3 
ROOT
ATOM      1  C2  UNL d   1      -0.061  -0.163   0.901  0.00  0.00    -0.073 A 
ATOM      2  C3  UNL d   1      -0.128  -0.293  -0.491  0.00  0.00    -0.002 A 
ATOM      3  C4  UNL d   1       0.253   0.766  -1.317  0.00  0.00     0.004 A 
ATOM      4  C5  UNL d   1       0.710   1.960  -0.761  0.00  0.00    -0.004 A 
ATOM      5  C6  UNL d   1       0.795   2.105   0.628  0.00  0.00    -0.075 A 
ATOM      6  C7  UNL d   1       1.283   3.385   1.242  0.00  0.00     0.076 C 
ATOM      7  C8  UNL d   1       0.409   1.039   1.450  0.00  0.00     0.001 A 
ENDROOT
BRANCH   1   8
ATOM      8  C1  UNL d   1      -0.465  -1.306   1.796  0.00  0.00     0.053 C 
ATOM      9  C   UNL d   1      -0.210  -2.657   1.147  0.00  0.00     0.018 C 
ENDBRANCH   1   8
TORSDOF 1
ENDMDL
