MODEL 1
REMARK minimizedAffinity -2.20617366
REMARK minimizedRMSD -1
REMARK  1 active torsions:
REMARK  status: ('A' for Active; 'I' for Inactive)
REMARK    1  A    between atoms: C1_2  and  C2_3 
ROOT
ATOM      1  C2  UNL d   1       0.075   0.841   0.596  0.00  0.00    -0.073 A 
ATOM      2  C3  UNL d   1      -0.578   0.013   1.515  0.00  0.00    -0.002 A 
ATOM      3  C4  UNL d   1      -0.783  -1.337   1.226  0.00  0.00     0.004 A 
ATOM      4  C5  UNL d   1      -0.331  -1.873   0.020  0.00  0.00    -0.004 A 
ATOM      5  C6  UNL d   1       0.335  -1.064  -0.906  0.00  0.00    -0.075 A 
ATOM      6  C7  UNL d   1       0.825  -1.625  -2.208  0.00  0.00     0.076 C 
ATOM      7  C8  UNL d   1       0.534   0.291  -0.610  0.00  0.00     0.001 A 
ENDROOT
BRANCH   1   8
ATOM      8  C1  UNL d   1       0.304   2.298   0.906  0.00  0.00     0.053 C 
ATOM      9  C   UNL d   1       1.777   2.670   0.839  0.00  0.00     0.018 C 
ENDBRANCH   1   8
TORSDOF 1
ENDMDL
