MODEL 1
REMARK minimizedAffinity -5.14351463
REMARK minimizedRMSD -1
REMARK  1 active torsions:
REMARK  status: ('A' for Active; 'I' for Inactive)
REMARK    1  A    between atoms: C1_2  and  C2_3 
ROOT
ATOM      1  C2  UNL d   1      -0.151   0.293  -0.221  0.00  0.00    -0.073 A 
ATOM      2  C3  UNL d   1      -1.163   0.590   0.700  0.00  0.00    -0.002 A 
ATOM      3  C4  UNL d   1      -1.640  -0.396   1.564  0.00  0.00     0.004 A 
ATOM      4  C5  UNL d   1      -1.107  -1.685   1.523  0.00  0.00    -0.004 A 
ATOM      5  C6  UNL d   1      -0.087  -1.997   0.618  0.00  0.00    -0.075 A 
ATOM      6  C7  UNL d   1       0.495  -3.379   0.559  0.00  0.00     0.076 C 
ATOM      7  C8  UNL d   1       0.385  -1.002  -0.249  0.00  0.00     0.001 A 
ENDROOT
BRANCH   1   8
ATOM      8  C1  UNL d   1       0.372   1.356  -1.152  0.00  0.00     0.053 C 
ATOM      9  C   UNL d   1       1.150   2.431  -0.410  0.00  0.00     0.018 C 
ENDBRANCH   1   8
TORSDOF 1
ENDMDL
