MODEL 1
REMARK minimizedAffinity -1.14030445
REMARK minimizedRMSD -1
REMARK  1 active torsions:
REMARK  status: ('A' for Active; 'I' for Inactive)
REMARK    1  A    between atoms: C1_2  and  C2_3 
ROOT
ATOM      1  C2  UNL d   1       0.127  -0.606   0.040  0.00  0.00    -0.073 A 
ATOM      2  C3  UNL d   1      -0.108  -0.551  -1.339  0.00  0.00    -0.002 A 
ATOM      3  C4  UNL d   1      -0.006   0.661  -2.023  0.00  0.00     0.004 A 
ATOM      4  C5  UNL d   1       0.339   1.826  -1.339  0.00  0.00    -0.004 A 
ATOM      5  C6  UNL d   1       0.589   1.789   0.036  0.00  0.00    -0.075 A 
ATOM      6  C7  UNL d   1       0.959   3.035   0.787  0.00  0.00     0.076 C 
ATOM      7  C8  UNL d   1       0.481   0.569   0.717  0.00  0.00     0.001 A 
ENDROOT
BRANCH   1   8
ATOM      8  C1  UNL d   1       0.023  -1.913   0.782  0.00  0.00     0.053 C 
ATOM      9  C   UNL d   1      -1.418  -2.376   0.924  0.00  0.00     0.018 C 
ENDBRANCH   1   8
TORSDOF 1
ENDMDL
