MODEL 1
REMARK minimizedAffinity -4.79146194
REMARK minimizedRMSD -1
REMARK  1 active torsions:
REMARK  status: ('A' for Active; 'I' for Inactive)
REMARK    1  A    between atoms: C1_2  and  C2_3 
ROOT
ATOM      1  C2  UNL d   1       1.133   1.777   0.098  0.00  0.00    -0.076 A 
ATOM      2  C3  UNL d   1       0.915   0.392   0.001  0.00  0.00     0.004 A 
ATOM      3  C4  UNL d   1       0.980  -0.260  -1.230  0.00  0.00    -0.003 A 
ATOM      4  C5  UNL d   1       1.265   0.463  -2.383  0.00  0.00     0.000 A 
ATOM      5  C6  UNL d   1       1.502   1.835  -2.302  0.00  0.00     0.000 A 
ATOM      6  C7  UNL d   1       1.456   2.505  -1.067  0.00  0.00    -0.073 A 
ATOM      7  C8  UNL d   1       1.714   3.987  -1.040  0.00  0.00     0.078 C 
ENDROOT
BRANCH   1   8
ATOM      8  C1  UNL d   1       1.023   2.434   1.455  0.00  0.00     0.053 C 
ATOM      9  C   UNL d   1       1.891   1.756   2.503  0.00  0.00     0.018 C 
ENDBRANCH   1   8
TORSDOF 1
ENDMDL
