MODEL 1
REMARK minimizedAffinity 0.311800957
REMARK minimizedRMSD -1
REMARK  1 active torsions:
REMARK  status: ('A' for Active; 'I' for Inactive)
REMARK    1  A    between atoms: C1_2  and  C2_3 
ROOT
ATOM      1  C2  UNL d   1       1.167   1.784  -0.051  0.00  0.00    -0.076 A 
ATOM      2  C3  UNL d   1       1.252   1.830  -1.454  0.00  0.00     0.004 A 
ATOM      3  C4  UNL d   1       1.966   0.865  -2.161  0.00  0.00    -0.003 A 
ATOM      4  C5  UNL d   1       2.606  -0.163  -1.478  0.00  0.00     0.000 A 
ATOM      5  C6  UNL d   1       2.517  -0.235  -0.088  0.00  0.00     0.000 A 
ATOM      6  C7  UNL d   1       1.788   0.721   0.639  0.00  0.00    -0.073 A 
ATOM      7  C8  UNL d   1       1.731   0.599   2.137  0.00  0.00     0.078 C 
ENDROOT
BRANCH   1   8
ATOM      8  C1  UNL d   1       0.401   2.874   0.664  0.00  0.00     0.053 C 
ATOM      9  C   UNL d   1       1.096   4.224   0.582  0.00  0.00     0.018 C 
ENDBRANCH   1   8
TORSDOF 1
ENDMDL
