MODEL 1
REMARK minimizedAffinity -3.30233359
REMARK minimizedRMSD -1
REMARK  1 active torsions:
REMARK  status: ('A' for Active; 'I' for Inactive)
REMARK    1  A    between atoms: C1_2  and  C2_3 
ROOT
ATOM      1  C2  UNL d   1       1.149   2.580  -0.999  0.00  0.00    -0.076 A 
ATOM      2  C3  UNL d   1       0.929   2.579   0.390  0.00  0.00     0.004 A 
ATOM      3  C4  UNL d   1       0.811   1.383   1.096  0.00  0.00    -0.003 A 
ATOM      4  C5  UNL d   1       0.912   0.169   0.426  0.00  0.00     0.000 A 
ATOM      5  C6  UNL d   1       1.148   0.151  -0.948  0.00  0.00     0.000 A 
ATOM      6  C7  UNL d   1       1.285   1.348  -1.673  0.00  0.00    -0.073 A 
ATOM      7  C8  UNL d   1       1.533   1.270  -3.155  0.00  0.00     0.078 C 
ENDROOT
BRANCH   1   8
ATOM      8  C1  UNL d   1       1.242   3.908  -1.716  0.00  0.00     0.053 C 
ATOM      9  C   UNL d   1       1.685   5.036  -0.798  0.00  0.00     0.018 C 
ENDBRANCH   1   8
TORSDOF 1
ENDMDL
