MODEL 1
REMARK minimizedAffinity -0.651390314
REMARK minimizedRMSD -1
REMARK  1 active torsions:
REMARK  status: ('A' for Active; 'I' for Inactive)
REMARK    1  A    between atoms: C1_2  and  C2_3 
ROOT
ATOM      1  C2  UNL d   1       1.247   2.092   0.012  0.00  0.00    -0.076 A 
ATOM      2  C3  UNL d   1       1.593   3.449  -0.108  0.00  0.00     0.004 A 
ATOM      3  C4  UNL d   1       1.769   4.036  -1.360  0.00  0.00    -0.003 A 
ATOM      4  C5  UNL d   1       1.602   3.276  -2.512  0.00  0.00     0.000 A 
ATOM      5  C6  UNL d   1       1.241   1.932  -2.412  0.00  0.00     0.000 A 
ATOM      6  C7  UNL d   1       1.044   1.329  -1.158  0.00  0.00    -0.073 A 
ATOM      7  C8  UNL d   1       0.662  -0.125  -1.108  0.00  0.00     0.078 C 
ENDROOT
BRANCH   1   8
ATOM      8  C1  UNL d   1       1.097   1.503   1.396  0.00  0.00     0.053 C 
ATOM      9  C   UNL d   1       2.436   1.237   2.066  0.00  0.00     0.018 C 
ENDBRANCH   1   8
TORSDOF 1
ENDMDL
