MODEL 1
REMARK minimizedAffinity -1.52109528
REMARK minimizedRMSD -1
REMARK  1 active torsions:
REMARK  status: ('A' for Active; 'I' for Inactive)
REMARK    1  A    between atoms: C1_2  and  C2_3 
ROOT
ATOM      1  C2  UNL d   1       1.216   2.026  -1.124  0.00  0.00    -0.076 A 
ATOM      2  C3  UNL d   1       1.248   0.734  -1.677  0.00  0.00     0.004 A 
ATOM      3  C4  UNL d   1       1.315  -0.394  -0.860  0.00  0.00    -0.003 A 
ATOM      4  C5  UNL d   1       1.350  -0.248   0.522  0.00  0.00     0.000 A 
ATOM      5  C6  UNL d   1       1.301   1.026   1.088  0.00  0.00     0.000 A 
ATOM      6  C7  UNL d   1       1.216   2.172   0.280  0.00  0.00    -0.073 A 
ATOM      7  C8  UNL d   1       1.172   3.522   0.944  0.00  0.00     0.078 C 
ENDROOT
BRANCH   1   8
ATOM      8  C1  UNL d   1       1.170   3.213  -2.059  0.00  0.00     0.053 C 
ATOM      9  C   UNL d   1       2.189   4.282  -1.694  0.00  0.00     0.018 C 
ENDBRANCH   1   8
TORSDOF 1
ENDMDL
