MODEL 1
REMARK minimizedAffinity 5.26254129
REMARK minimizedRMSD -1
REMARK  1 active torsions:
REMARK  status: ('A' for Active; 'I' for Inactive)
REMARK    1  A    between atoms: C1_2  and  C2_3 
ROOT
ATOM      1  C2  UNL d   1       1.581   3.553  -0.822  0.00  0.00    -0.076 A 
ATOM      2  C3  UNL d   1       1.492   2.575   0.183  0.00  0.00     0.004 A 
ATOM      3  C4  UNL d   1       1.655   2.909   1.527  0.00  0.00    -0.003 A 
ATOM      4  C5  UNL d   1       1.910   4.228   1.886  0.00  0.00     0.000 A 
ATOM      5  C6  UNL d   1       1.984   5.215   0.904  0.00  0.00     0.000 A 
ATOM      6  C7  UNL d   1       1.806   4.897  -0.454  0.00  0.00    -0.073 A 
ATOM      7  C8  UNL d   1       1.902   6.000  -1.472  0.00  0.00     0.078 C 
ENDROOT
BRANCH   1   8
ATOM      8  C1  UNL d   1       1.422   3.127  -2.264  0.00  0.00     0.053 C 
ATOM      9  C   UNL d   1       1.068   1.654  -2.400  0.00  0.00     0.018 C 
ENDBRANCH   1   8
TORSDOF 1
ENDMDL
