MODEL 1
REMARK minimizedAffinity -0.0232712831
REMARK minimizedRMSD -1
REMARK  1 active torsions:
REMARK  status: ('A' for Active; 'I' for Inactive)
REMARK    1  A    between atoms: C1_2  and  C2_3 
ROOT
ATOM      1  C2  UNL d   1       2.096   0.704  -0.441  0.00  0.00    -0.076 A 
ATOM      2  C3  UNL d   1       2.072   1.671   0.579  0.00  0.00     0.004 A 
ATOM      3  C4  UNL d   1       1.386   2.873   0.412  0.00  0.00    -0.003 A 
ATOM      4  C5  UNL d   1       0.712   3.127  -0.777  0.00  0.00     0.000 A 
ATOM      5  C6  UNL d   1       0.710   2.171  -1.793  0.00  0.00     0.000 A 
ATOM      6  C7  UNL d   1       1.383   0.948  -1.634  0.00  0.00    -0.073 A 
ATOM      7  C8  UNL d   1       1.354  -0.044  -2.765  0.00  0.00     0.078 C 
ENDROOT
BRANCH   1   8
ATOM      8  C1  UNL d   1       2.879  -0.570  -0.213  0.00  0.00     0.053 C 
ATOM      9  C   UNL d   1       4.379  -0.365  -0.358  0.00  0.00     0.018 C 
ENDBRANCH   1   8
TORSDOF 1
ENDMDL
