MODEL 1
REMARK minimizedAffinity -1.77334416
REMARK minimizedRMSD -1
REMARK  1 active torsions:
REMARK  status: ('A' for Active; 'I' for Inactive)
REMARK    1  A    between atoms: C1_2  and  C2_3 
ROOT
ATOM      1  C2  UNL d   1       1.094   2.669  -0.636  0.00  0.00    -0.076 A 
ATOM      2  C3  UNL d   1       1.471   2.520  -1.982  0.00  0.00     0.004 A 
ATOM      3  C4  UNL d   1       1.559   1.259  -2.567  0.00  0.00    -0.003 A 
ATOM      4  C5  UNL d   1       1.271   0.124  -1.816  0.00  0.00     0.000 A 
ATOM      5  C6  UNL d   1       0.878   0.254  -0.484  0.00  0.00     0.000 A 
ATOM      6  C7  UNL d   1       0.769   1.520   0.116  0.00  0.00    -0.073 A 
ATOM      7  C8  UNL d   1       0.347   1.601   1.558  0.00  0.00     0.078 C 
ENDROOT
BRANCH   1   8
ATOM      8  C1  UNL d   1       1.043   4.061  -0.047  0.00  0.00     0.053 C 
ATOM      9  C   UNL d   1       1.551   5.121  -1.012  0.00  0.00     0.018 C 
ENDBRANCH   1   8
TORSDOF 1
ENDMDL
