MODEL 1
REMARK minimizedAffinity -0.879942
REMARK minimizedRMSD -1
REMARK  1 active torsions:
REMARK  status: ('A' for Active; 'I' for Inactive)
REMARK    1  A    between atoms: C1_2  and  C2_3 
ROOT
ATOM      1  C2  UNL d   1       1.256   1.254  -0.618  0.00  0.00    -0.076 A 
ATOM      2  C3  UNL d   1       0.723   0.638  -1.763  0.00  0.00     0.004 A 
ATOM      3  C4  UNL d   1       0.694  -0.750  -1.883  0.00  0.00    -0.003 A 
ATOM      4  C5  UNL d   1       1.198  -1.545  -0.859  0.00  0.00     0.000 A 
ATOM      5  C6  UNL d   1       1.714  -0.951   0.292  0.00  0.00     0.000 A 
ATOM      6  C7  UNL d   1       1.736   0.447   0.436  0.00  0.00    -0.073 A 
ATOM      7  C8  UNL d   1       2.310   1.034   1.696  0.00  0.00     0.078 C 
ENDROOT
BRANCH   1   8
ATOM      8  C1  UNL d   1       1.285   2.765  -0.555  0.00  0.00     0.053 C 
ATOM      9  C   UNL d   1       1.661   3.396  -1.887  0.00  0.00     0.018 C 
ENDBRANCH   1   8
TORSDOF 1
ENDMDL
