MODEL 1
REMARK minimizedAffinity -0.929723442
REMARK minimizedRMSD -1
REMARK  0 active torsions:
REMARK  status: ('A' for Active; 'I' for Inactive)
ROOT
ATOM      1  C   UNL d   1      -3.111  -0.752   2.183  0.00  0.00     0.078 C 
ATOM      2  C1  UNL d   1      -4.125  -0.778   1.078  0.00  0.00    -0.077 A 
ATOM      3  C2  UNL d   1      -4.873  -1.932   0.813  0.00  0.00    -0.001 A 
ATOM      4  C3  UNL d   1      -5.806  -1.945  -0.225  0.00  0.00     0.003 A 
ATOM      5  C4  UNL d   1      -6.000  -0.807  -1.006  0.00  0.00    -0.005 A 
ATOM      6  C5  UNL d   1      -5.259   0.345  -0.751  0.00  0.00     0.003 A 
ATOM      7  C6  UNL d   1      -4.325   0.360   0.287  0.00  0.00    -0.001 A 
ENDROOT
TORSDOF 0
ENDMDL
