MODEL 1
REMARK minimizedAffinity 6.87755585
REMARK minimizedRMSD -1
REMARK  0 active torsions:
REMARK  status: ('A' for Active; 'I' for Inactive)
ROOT
ATOM      1  C   UNL d   1       4.867   1.505  -1.188  0.00  0.00     0.078 C 
ATOM      2  C1  UNL d   1       4.976   1.174   0.271  0.00  0.00    -0.077 A 
ATOM      3  C2  UNL d   1       5.901   1.829   1.092  0.00  0.00    -0.001 A 
ATOM      4  C3  UNL d   1       5.998   1.503   2.446  0.00  0.00     0.003 A 
ATOM      5  C4  UNL d   1       5.173   0.521   2.990  0.00  0.00    -0.005 A 
ATOM      6  C5  UNL d   1       4.251  -0.138   2.180  0.00  0.00     0.003 A 
ATOM      7  C6  UNL d   1       4.152   0.186   0.826  0.00  0.00    -0.001 A 
ENDROOT
TORSDOF 0
ENDMDL
