MODEL 1
REMARK minimizedAffinity 3.73105001
REMARK minimizedRMSD -1
REMARK  0 active torsions:
REMARK  status: ('A' for Active; 'I' for Inactive)
ROOT
ATOM      1  C   UNL d   1       5.988   1.514  -1.130  0.00  0.00     0.078 C 
ATOM      2  C1  UNL d   1       5.997   1.272   0.350  0.00  0.00    -0.077 A 
ATOM      3  C2  UNL d   1       6.000  -0.029   0.868  0.00  0.00    -0.001 A 
ATOM      4  C3  UNL d   1       5.999  -0.240   2.248  0.00  0.00     0.003 A 
ATOM      5  C4  UNL d   1       5.994   0.846   3.121  0.00  0.00    -0.005 A 
ATOM      6  C5  UNL d   1       5.990   2.144   2.615  0.00  0.00     0.003 A 
ATOM      7  C6  UNL d   1       5.991   2.357   1.236  0.00  0.00    -0.001 A 
ENDROOT
TORSDOF 0
ENDMDL
