MODEL 1
REMARK minimizedAffinity 10.0044851
REMARK minimizedRMSD -1
REMARK  0 active torsions:
REMARK  status: ('A' for Active; 'I' for Inactive)
ROOT
ATOM      1  C   UNL d   1       1.854  -5.031   5.998  0.00  0.00     0.078 C 
ATOM      2  C1  UNL d   1       1.327  -3.736   5.455  0.00  0.00    -0.077 A 
ATOM      3  C2  UNL d   1       1.729  -2.509   5.998  0.00  0.00    -0.001 A 
ATOM      4  C3  UNL d   1       1.223  -1.312   5.489  0.00  0.00     0.003 A 
ATOM      5  C4  UNL d   1       0.311  -1.330   4.435  0.00  0.00    -0.005 A 
ATOM      6  C5  UNL d   1      -0.096  -2.545   3.890  0.00  0.00     0.003 A 
ATOM      7  C6  UNL d   1       0.408  -3.744   4.398  0.00  0.00    -0.001 A 
ENDROOT
TORSDOF 0
ENDMDL
