MODEL 1
REMARK minimizedAffinity 7.85915041
REMARK minimizedRMSD -1
REMARK  0 active torsions:
REMARK  status: ('A' for Active; 'I' for Inactive)
ROOT
ATOM      1  C   UNL d   1       4.788   1.181  -0.456  0.00  0.00     0.078 C 
ATOM      2  C1  UNL d   1       5.215   1.119   0.980  0.00  0.00    -0.077 A 
ATOM      3  C2  UNL d   1       5.225  -0.095   1.679  0.00  0.00    -0.001 A 
ATOM      4  C3  UNL d   1       5.615  -0.136   3.018  0.00  0.00     0.003 A 
ATOM      5  C4  UNL d   1       5.998   1.034   3.671  0.00  0.00    -0.005 A 
ATOM      6  C5  UNL d   1       5.989   2.247   2.985  0.00  0.00     0.003 A 
ATOM      7  C6  UNL d   1       5.599   2.290   1.646  0.00  0.00    -0.001 A 
ENDROOT
TORSDOF 0
ENDMDL
