MODEL 1
REMARK minimizedAffinity 5.30985022
REMARK minimizedRMSD -1
REMARK  0 active torsions:
REMARK  status: ('A' for Active; 'I' for Inactive)
ROOT
ATOM      1  C   UNL d   1       0.806   2.055   3.758  0.00  0.00     0.078 C 
ATOM      2  C1  UNL d   1       1.445   3.395   3.547  0.00  0.00    -0.077 A 
ATOM      3  C2  UNL d   1       0.785   4.405   2.837  0.00  0.00    -0.001 A 
ATOM      4  C3  UNL d   1       1.396   5.644   2.640  0.00  0.00     0.003 A 
ATOM      5  C4  UNL d   1       2.670   5.885   3.148  0.00  0.00    -0.005 A 
ATOM      6  C5  UNL d   1       3.336   4.885   3.854  0.00  0.00     0.003 A 
ATOM      7  C6  UNL d   1       2.727   3.645   4.053  0.00  0.00    -0.001 A 
ENDROOT
TORSDOF 0
ENDMDL
