MODEL 1
REMARK minimizedAffinity 3.56951976
REMARK minimizedRMSD -1
REMARK  0 active torsions:
REMARK  status: ('A' for Active; 'I' for Inactive)
ROOT
ATOM      1  O1  BZF d   1       2.974  -2.952  -1.379  0.00  0.00    -0.204 OA
ATOM      2  C2  BZF d   1       1.636  -3.251  -1.209  0.00  0.00     0.174 A 
ATOM      3  C3  BZF d   1       0.969  -2.192  -0.709  0.00  0.00    -0.012 A 
ATOM      4  C3A BZF d   1       1.933  -1.136  -0.644  0.00  0.00    -0.107 A 
ATOM      5  C4  BZF d   1       1.870   0.169  -0.246  0.00  0.00     0.055 A 
ATOM      6  C5  BZF d   1       3.009   0.911  -0.236  0.00  0.00    -0.016 A 
ATOM      7  C6  BZF d   1       4.225   0.380  -0.612  0.00  0.00     0.022 A 
ATOM      8  C7  BZF d   1       4.336  -0.908  -1.019  0.00  0.00     0.029 A 
ATOM      9  C7A BZF d   1       3.181  -1.651  -1.062  0.00  0.00     0.058 A 
ENDROOT
TORSDOF 0
ENDMDL
