MODEL 1
REMARK minimizedAffinity 3.3409152
REMARK minimizedRMSD -1
REMARK  0 active torsions:
REMARK  status: ('A' for Active; 'I' for Inactive)
ROOT
ATOM      1  O1  BZF d   1       3.909   1.074  -1.215  0.00  0.00    -0.204 OA
ATOM      2  C2  BZF d   1       5.027   1.881  -1.128  0.00  0.00     0.174 A 
ATOM      3  C3  BZF d   1       6.000   1.276  -0.418  0.00  0.00    -0.012 A 
ATOM      4  C3A BZF d   1       5.490  -0.026  -0.114  0.00  0.00    -0.107 A 
ATOM      5  C4  BZF d   1       5.999  -1.101   0.557  0.00  0.00     0.055 A 
ATOM      6  C5  BZF d   1       5.217  -2.197   0.740  0.00  0.00    -0.016 A 
ATOM      7  C6  BZF d   1       3.921  -2.250   0.271  0.00  0.00     0.022 A 
ATOM      8  C7  BZF d   1       3.373  -1.210  -0.405  0.00  0.00     0.029 A 
ATOM      9  C7A BZF d   1       4.173  -0.114  -0.620  0.00  0.00     0.058 A 
ENDROOT
TORSDOF 0
ENDMDL
