MODEL 1
REMARK minimizedAffinity 9.9039917
REMARK minimizedRMSD -1
REMARK  0 active torsions:
REMARK  status: ('A' for Active; 'I' for Inactive)
ROOT
ATOM      1  O1  BZF d   1       4.224  -0.272  -2.343  0.00  0.00    -0.204 OA
ATOM      2  C2  BZF d   1       4.551   0.567  -1.295  0.00  0.00     0.174 A 
ATOM      3  C3  BZF d   1       3.971   0.151  -0.150  0.00  0.00    -0.012 A 
ATOM      4  C3A BZF d   1       3.311  -1.073  -0.486  0.00  0.00    -0.107 A 
ATOM      5  C4  BZF d   1       2.572  -1.969   0.233  0.00  0.00     0.055 A 
ATOM      6  C5  BZF d   1       2.007  -3.024  -0.410  0.00  0.00    -0.016 A 
ATOM      7  C6  BZF d   1       2.154  -3.211  -1.769  0.00  0.00     0.022 A 
ATOM      8  C7  BZF d   1       2.882  -2.352  -2.523  0.00  0.00     0.029 A 
ATOM      9  C7A BZF d   1       3.482  -1.302  -1.871  0.00  0.00     0.058 A 
ENDROOT
TORSDOF 0
ENDMDL
