MODEL 1
REMARK minimizedAffinity 13.6003771
REMARK minimizedRMSD -1
REMARK  0 active torsions:
REMARK  status: ('A' for Active; 'I' for Inactive)
ROOT
ATOM      1  O1  BZF d   1       2.675  -0.419  -0.587  0.00  0.00    -0.204 OA
ATOM      2  C2  BZF d   1       3.173   0.755  -1.119  0.00  0.00     0.174 A 
ATOM      3  C3  BZF d   1       4.474   0.910  -0.801  0.00  0.00    -0.012 A 
ATOM      4  C3A BZF d   1       4.835  -0.284  -0.100  0.00  0.00    -0.107 A 
ATOM      5  C4  BZF d   1       6.000  -0.730   0.457  0.00  0.00     0.055 A 
ATOM      6  C5  BZF d   1       5.999  -1.909   1.133  0.00  0.00    -0.016 A 
ATOM      7  C6  BZF d   1       4.854  -2.664   1.276  0.00  0.00     0.022 A 
ATOM      8  C7  BZF d   1       3.676  -2.265   0.737  0.00  0.00     0.029 A 
ATOM      9  C7A BZF d   1       3.680  -1.090   0.025  0.00  0.00     0.058 A 
ENDROOT
TORSDOF 0
ENDMDL
