MODEL 1
REMARK minimizedAffinity 15.4263039
REMARK minimizedRMSD -1
REMARK  0 active torsions:
REMARK  status: ('A' for Active; 'I' for Inactive)
ROOT
ATOM      1  O1  BZF d   1       2.260  -3.158   3.570  0.00  0.00    -0.204 OA
ATOM      2  C2  BZF d   1       1.142  -2.570   3.010  0.00  0.00     0.174 A 
ATOM      3  C3  BZF d   1       0.016  -3.163   3.456  0.00  0.00    -0.012 A 
ATOM      4  C3A BZF d   1       0.454  -4.124   4.421  0.00  0.00    -0.107 A 
ATOM      5  C4  BZF d   1      -0.201  -5.015   5.223  0.00  0.00     0.055 A 
ATOM      6  C5  BZF d   1       0.525  -5.863   5.999  0.00  0.00    -0.016 A 
ATOM      7  C6  BZF d   1       1.904  -5.850   5.994  0.00  0.00     0.022 A 
ATOM      8  C7  BZF d   1       2.598  -4.981   5.220  0.00  0.00     0.029 A 
ATOM      9  C7A BZF d   1       1.867  -4.101   4.459  0.00  0.00     0.058 A 
ENDROOT
TORSDOF 0
ENDMDL
