MODEL 1
REMARK minimizedAffinity 11.0194941
REMARK minimizedRMSD -1
REMARK  0 active torsions:
REMARK  status: ('A' for Active; 'I' for Inactive)
ROOT
ATOM      1  O1  BZF d   1       4.693   1.919  -0.772  0.00  0.00    -0.204 OA
ATOM      2  C2  BZF d   1       5.979   1.501  -0.488  0.00  0.00     0.174 A 
ATOM      3  C3  BZF d   1       6.000   0.187  -0.185  0.00  0.00    -0.012 A 
ATOM      4  C3A BZF d   1       4.655  -0.264  -0.375  0.00  0.00    -0.107 A 
ATOM      5  C4  BZF d   1       4.046  -1.479  -0.247  0.00  0.00     0.055 A 
ATOM      6  C5  BZF d   1       2.703  -1.568  -0.435  0.00  0.00    -0.016 A 
ATOM      7  C6  BZF d   1       1.939  -0.462  -0.748  0.00  0.00     0.022 A 
ATOM      8  C7  BZF d   1       2.500   0.763  -0.890  0.00  0.00     0.029 A 
ATOM      9  C7A BZF d   1       3.861   0.850  -0.733  0.00  0.00     0.058 A 
ENDROOT
TORSDOF 0
ENDMDL
