MODEL 1
REMARK minimizedAffinity 10.9456882
REMARK minimizedRMSD -1
REMARK  0 active torsions:
REMARK  status: ('A' for Active; 'I' for Inactive)
ROOT
ATOM      1  O1  BZF d   1      -1.433   0.747  -3.752  0.00  0.00    -0.204 OA
ATOM      2  C2  BZF d   1      -1.648  -0.067  -2.657  0.00  0.00     0.174 A 
ATOM      3  C3  BZF d   1      -2.948  -0.414  -2.568  0.00  0.00    -0.012 A 
ATOM      4  C3A BZF d   1      -3.568   0.146  -3.729  0.00  0.00    -0.107 A 
ATOM      5  C4  BZF d   1      -4.846   0.131  -4.211  0.00  0.00     0.055 A 
ATOM      6  C5  BZF d   1      -5.136   0.839  -5.334  0.00  0.00    -0.016 A 
ATOM      7  C6  BZF d   1      -4.176   1.575  -5.997  0.00  0.00     0.022 A 
ATOM      8  C7  BZF d   1      -2.894   1.616  -5.560  0.00  0.00     0.029 A 
ATOM      9  C7A BZF d   1      -2.590   0.876  -4.444  0.00  0.00     0.058 A 
ENDROOT
TORSDOF 0
ENDMDL
