MODEL 1
REMARK minimizedAffinity 0.0439453758
REMARK minimizedRMSD -1
REMARK  0 active torsions:
REMARK  status: ('A' for Active; 'I' for Inactive)
ROOT
ATOM      1  N1  IND d   1      -4.496   4.907  -5.622  0.00  0.00    -0.196 N 
ATOM      2  C2  IND d   1      -5.712   4.408  -5.996  0.00  0.00     0.054 A 
ATOM      3  C3  IND d   1      -5.998   3.290  -5.292  0.00  0.00    -0.031 A 
ATOM      4  C4  IND d   1      -4.660   2.157  -3.406  0.00  0.00     0.051 A 
ATOM      5  C5  IND d   1      -3.469   2.226  -2.739  0.00  0.00    -0.031 A 
ATOM      6  C6  IND d   1      -2.542   3.213  -3.002  0.00  0.00     0.015 A 
ATOM      7  C7  IND d   1      -2.777   4.180  -3.939  0.00  0.00    -0.016 A 
ATOM      8  C8  IND d   1      -3.983   4.109  -4.623  0.00  0.00    -0.047 A 
ATOM      9  C9  IND d   1      -4.909   3.085  -4.390  0.00  0.00    -0.096 A 
ATOM     10  HN1 IND d   1      -4.115   5.603  -5.954  0.00  0.00     0.298 HD
ENDROOT
TORSDOF 0
ENDMDL
