MODEL 1
REMARK minimizedAffinity 8.06187916
REMARK minimizedRMSD -1
REMARK  0 active torsions:
REMARK  status: ('A' for Active; 'I' for Inactive)
ROOT
ATOM      1  N1  IND d   1       2.324   4.167  -0.448  0.00  0.00    -0.196 N 
ATOM      2  C2  IND d   1       1.616   5.246  -0.898  0.00  0.00     0.054 A 
ATOM      3  C3  IND d   1       0.288   5.007  -0.808  0.00  0.00    -0.031 A 
ATOM      4  C4  IND d   1      -0.945   2.957   0.143  0.00  0.00     0.051 A 
ATOM      5  C5  IND d   1      -0.725   1.703   0.639  0.00  0.00    -0.031 A 
ATOM      6  C6  IND d   1       0.547   1.196   0.803  0.00  0.00     0.015 A 
ATOM      7  C7  IND d   1       1.654   1.933   0.488  0.00  0.00    -0.016 A 
ATOM      8  C8  IND d   1       1.435   3.205  -0.023  0.00  0.00    -0.047 A 
ATOM      9  C9  IND d   1       0.144   3.708  -0.232  0.00  0.00    -0.096 A 
ATOM     10  HN1 IND d   1       3.181   4.100  -0.433  0.00  0.00     0.298 HD
ENDROOT
TORSDOF 0
ENDMDL
