MODEL 1
REMARK minimizedAffinity 5.2722311
REMARK minimizedRMSD -1
REMARK  0 active torsions:
REMARK  status: ('A' for Active; 'I' for Inactive)
ROOT
ATOM      1  N1  IND d   1      -0.442   2.563   0.555  0.00  0.00    -0.196 N 
ATOM      2  C2  IND d   1      -1.795   2.520   0.751  0.00  0.00     0.054 A 
ATOM      3  C3  IND d   1      -2.391   3.572   0.145  0.00  0.00    -0.031 A 
ATOM      4  C4  IND d   1      -1.353   5.428  -1.306  0.00  0.00     0.051 A 
ATOM      5  C5  IND d   1      -0.150   5.910  -1.740  0.00  0.00    -0.031 A 
ATOM      6  C6  IND d   1       1.041   5.287  -1.427  0.00  0.00     0.015 A 
ATOM      7  C7  IND d   1       1.072   4.147  -0.675  0.00  0.00    -0.016 A 
ATOM      8  C8  IND d   1      -0.147   3.659  -0.226  0.00  0.00    -0.047 A 
ATOM      9  C9  IND d   1      -1.355   4.310  -0.505  0.00  0.00    -0.096 A 
ATOM     10  HN1 IND d   1       0.128   2.000   0.868  0.00  0.00     0.298 HD
ENDROOT
TORSDOF 0
ENDMDL
