MODEL 1
REMARK minimizedAffinity 1.95081401
REMARK minimizedRMSD -1
REMARK  0 active torsions:
REMARK  status: ('A' for Active; 'I' for Inactive)
ROOT
ATOM      1  N1  IND d   1      -4.364   6.000   0.237  0.00  0.00    -0.196 N 
ATOM      2  C2  IND d   1      -5.245   5.740   1.250  0.00  0.00     0.054 A 
ATOM      3  C3  IND d   1      -4.904   4.598   1.888  0.00  0.00    -0.031 A 
ATOM      4  C4  IND d   1      -2.882   3.052   1.505  0.00  0.00     0.051 A 
ATOM      5  C5  IND d   1      -1.818   2.857   0.670  0.00  0.00    -0.031 A 
ATOM      6  C6  IND d   1      -1.541   3.719  -0.372  0.00  0.00     0.015 A 
ATOM      7  C7  IND d   1      -2.315   4.819  -0.611  0.00  0.00    -0.016 A 
ATOM      8  C8  IND d   1      -3.401   5.016   0.231  0.00  0.00    -0.047 A 
ATOM      9  C9  IND d   1      -3.711   4.121   1.263  0.00  0.00    -0.096 A 
ATOM     10  HN1 IND d   1      -4.406   6.666  -0.305  0.00  0.00     0.298 HD
ENDROOT
TORSDOF 0
ENDMDL
