MODEL 1
REMARK minimizedAffinity 9.0759697
REMARK minimizedRMSD -1
REMARK  0 active torsions:
REMARK  status: ('A' for Active; 'I' for Inactive)
ROOT
ATOM      1  N1  IND d   1       4.587  -2.604   0.030  0.00  0.00    -0.196 N 
ATOM      2  C2  IND d   1       5.594  -2.973   0.878  0.00  0.00     0.054 A 
ATOM      3  C3  IND d   1       5.286  -2.630   2.149  0.00  0.00    -0.031 A 
ATOM      4  C4  IND d   1       3.143  -1.548   3.079  0.00  0.00     0.051 A 
ATOM      5  C5  IND d   1       1.957  -0.996   2.684  0.00  0.00    -0.031 A 
ATOM      6  C6  IND d   1       1.577  -0.954   1.358  0.00  0.00     0.015 A 
ATOM      7  C7  IND d   1       2.369  -1.475   0.374  0.00  0.00    -0.016 A 
ATOM      8  C8  IND d   1       3.578  -2.029   0.770  0.00  0.00    -0.047 A 
ATOM      9  C9  IND d   1       3.988  -2.036   2.110  0.00  0.00    -0.096 A 
ATOM     10  HN1 IND d   1       4.585  -2.712  -0.823  0.00  0.00     0.298 HD
ENDROOT
TORSDOF 0
ENDMDL
