MODEL 1
REMARK minimizedAffinity -3.54402661
REMARK minimizedRMSD -1
REMARK  0 active torsions:
REMARK  status: ('A' for Active; 'I' for Inactive)
ROOT
ATOM      1  N1  IND d   1      -4.696   4.275   2.092  0.00  0.00    -0.196 N 
ATOM      2  C2  IND d   1      -4.854   5.590   1.753  0.00  0.00     0.054 A 
ATOM      3  C3  IND d   1      -3.831   6.000   0.971  0.00  0.00    -0.031 A 
ATOM      4  C4  IND d   1      -1.844   4.655   0.039  0.00  0.00     0.051 A 
ATOM      5  C5  IND d   1      -1.251   3.425   0.102  0.00  0.00    -0.031 A 
ATOM      6  C6  IND d   1      -1.789   2.393   0.844  0.00  0.00     0.015 A 
ATOM      7  C7  IND d   1      -2.951   2.551   1.545  0.00  0.00    -0.016 A 
ATOM      8  C8  IND d   1      -3.552   3.801   1.489  0.00  0.00    -0.047 A 
ATOM      9  C9  IND d   1      -2.988   4.864   0.772  0.00  0.00    -0.096 A 
ATOM     10  HN1 IND d   1      -5.223   3.820   2.597  0.00  0.00     0.298 HD
ENDROOT
TORSDOF 0
ENDMDL
