MODEL 1
REMARK minimizedAffinity 13.0478983
REMARK minimizedRMSD -1
REMARK  0 active torsions:
REMARK  status: ('A' for Active; 'I' for Inactive)
ROOT
ATOM      1  N1  IND d   1       0.761  -5.673   0.529  0.00  0.00    -0.196 N 
ATOM      2  C2  IND d   1      -0.331  -5.376  -0.238  0.00  0.00     0.054 A 
ATOM      3  C3  IND d   1       0.031  -5.227  -1.533  0.00  0.00    -0.031 A 
ATOM      4  C4  IND d   1       2.340  -5.527  -2.631  0.00  0.00     0.051 A 
ATOM      5  C5  IND d   1       3.653  -5.762  -2.332  0.00  0.00    -0.031 A 
ATOM      6  C6  IND d   1       4.077  -5.987  -1.038  0.00  0.00     0.015 A 
ATOM      7  C7  IND d   1       3.198  -5.996   0.008  0.00  0.00    -0.016 A 
ATOM      8  C8  IND d   1       1.865  -5.750  -0.291  0.00  0.00    -0.047 A 
ATOM      9  C9  IND d   1       1.436  -5.480  -1.596  0.00  0.00    -0.096 A 
ATOM     10  HN1 IND d   1       0.758  -5.791   1.381  0.00  0.00     0.298 HD
ENDROOT
TORSDOF 0
ENDMDL
