MODEL 1
REMARK minimizedAffinity 13.9953327
REMARK minimizedRMSD -1
REMARK  1 active torsions:
REMARK  status: ('A' for Active; 'I' for Inactive)
REMARK    1  A    between atoms: C1_2  and  C2_3 
ROOT
ATOM      1  C2  UNL d   1       3.598   2.058  -5.649  0.00  0.00    -0.073 A 
ATOM      2  C3  UNL d   1       2.389   1.805  -4.991  0.00  0.00    -0.002 A 
ATOM      3  C4  UNL d   1       2.022   0.498  -4.669  0.00  0.00     0.004 A 
ATOM      4  C5  UNL d   1       2.861  -0.567  -4.994  0.00  0.00    -0.004 A 
ATOM      5  C6  UNL d   1       4.079  -0.334  -5.641  0.00  0.00    -0.075 A 
ATOM      6  C7  UNL d   1       4.993  -1.469  -6.000  0.00  0.00     0.076 C 
ATOM      7  C8  UNL d   1       4.440   0.981  -5.964  0.00  0.00     0.001 A 
ENDROOT
BRANCH   1   8
ATOM      8  C1  UNL d   1       4.002   3.468  -5.994  0.00  0.00     0.053 C 
ATOM      9  C   UNL d   1       5.508   3.665  -5.917  0.00  0.00     0.018 C 
ENDBRANCH   1   8
TORSDOF 1
ENDMDL
