MODEL 1
REMARK minimizedAffinity 11.982049
REMARK minimizedRMSD -1
REMARK  1 active torsions:
REMARK  status: ('A' for Active; 'I' for Inactive)
REMARK    1  A    between atoms: C1_2  and  C2_3 
ROOT
ATOM      1  C2  UNL d   1      -5.273   2.517   3.433  0.00  0.00    -0.073 A 
ATOM      2  C3  UNL d   1      -5.652   3.151   2.244  0.00  0.00    -0.002 A 
ATOM      3  C4  UNL d   1      -6.000   4.502   2.246  0.00  0.00     0.004 A 
ATOM      4  C5  UNL d   1      -5.967   5.234   3.433  0.00  0.00    -0.004 A 
ATOM      5  C6  UNL d   1      -5.580   4.621   4.629  0.00  0.00    -0.075 A 
ATOM      6  C7  UNL d   1      -5.541   5.394   5.915  0.00  0.00     0.076 C 
ATOM      7  C8  UNL d   1      -5.234   3.263   4.619  0.00  0.00     0.001 A 
ENDROOT
BRANCH   1   8
ATOM      8  C1  UNL d   1      -4.890   1.059   3.435  0.00  0.00     0.053 C 
ATOM      9  C   UNL d   1      -3.839   0.745   2.382  0.00  0.00     0.018 C 
ENDBRANCH   1   8
TORSDOF 1
ENDMDL
