MODEL 1
REMARK minimizedAffinity 7.7007556
REMARK minimizedRMSD -1
REMARK  1 active torsions:
REMARK  status: ('A' for Active; 'I' for Inactive)
REMARK    1  A    between atoms: C1_2  and  C2_3 
ROOT
ATOM      1  C2  UNL d   1       0.029  -0.427  -5.007  0.00  0.00    -0.073 A 
ATOM      2  C3  UNL d   1      -0.684   0.751  -5.260  0.00  0.00    -0.002 A 
ATOM      3  C4  UNL d   1      -1.986   0.693  -5.756  0.00  0.00     0.004 A 
ATOM      4  C5  UNL d   1      -2.592  -0.539  -5.999  0.00  0.00    -0.004 A 
ATOM      5  C6  UNL d   1      -1.900  -1.728  -5.741  0.00  0.00    -0.075 A 
ATOM      6  C7  UNL d   1      -2.537  -3.062  -5.999  0.00  0.00     0.076 C 
ATOM      7  C8  UNL d   1      -0.591  -1.662  -5.245  0.00  0.00     0.001 A 
ENDROOT
BRANCH   1   8
ATOM      8  C1  UNL d   1       1.434  -0.370  -4.465  0.00  0.00     0.053 C 
ATOM      9  C   UNL d   1       1.461   0.006  -2.992  0.00  0.00     0.018 C 
ENDBRANCH   1   8
TORSDOF 1
ENDMDL
