MODEL 1
REMARK minimizedAffinity 4.68286562
REMARK minimizedRMSD -1
REMARK  1 active torsions:
REMARK  status: ('A' for Active; 'I' for Inactive)
REMARK    1  A    between atoms: C1_2  and  C2_3 
ROOT
ATOM      1  C2  UNL d   1       0.652   0.694   2.746  0.00  0.00    -0.073 A 
ATOM      2  C3  UNL d   1       0.178  -0.502   3.297  0.00  0.00    -0.002 A 
ATOM      3  C4  UNL d   1      -1.193  -0.721   3.431  0.00  0.00     0.004 A 
ATOM      4  C5  UNL d   1      -2.104   0.248   3.009  0.00  0.00    -0.004 A 
ATOM      5  C6  UNL d   1      -1.650   1.444   2.445  0.00  0.00    -0.075 A 
ATOM      6  C7  UNL d   1      -2.616   2.497   1.988  0.00  0.00     0.076 C 
ATOM      7  C8  UNL d   1      -0.271   1.658   2.316  0.00  0.00     0.001 A 
ENDROOT
BRANCH   1   8
ATOM      8  C1  UNL d   1       2.132   0.932   2.593  0.00  0.00     0.053 C 
ATOM      9  C   UNL d   1       2.942  -0.332   2.835  0.00  0.00     0.018 C 
ENDBRANCH   1   8
TORSDOF 1
ENDMDL
