MODEL 1
REMARK minimizedAffinity 12.1581364
REMARK minimizedRMSD -1
REMARK  1 active torsions:
REMARK  status: ('A' for Active; 'I' for Inactive)
REMARK    1  A    between atoms: C1_2  and  C2_3 
ROOT
ATOM      1  C2  UNL d   1      -1.460   0.474   2.281  0.00  0.00    -0.073 A 
ATOM      2  C3  UNL d   1      -0.958  -0.640   2.964  0.00  0.00    -0.002 A 
ATOM      3  C4  UNL d   1       0.400  -0.723   3.274  0.00  0.00     0.004 A 
ATOM      4  C5  UNL d   1       1.268   0.307   2.913  0.00  0.00    -0.004 A 
ATOM      5  C6  UNL d   1       0.783   1.434   2.241  0.00  0.00    -0.075 A 
ATOM      6  C7  UNL d   1       1.704   2.550   1.843  0.00  0.00     0.076 C 
ATOM      7  C8  UNL d   1      -0.581   1.509   1.930  0.00  0.00     0.001 A 
ENDROOT
BRANCH   1   8
ATOM      8  C1  UNL d   1      -2.926   0.572   1.949  0.00  0.00     0.053 C 
ATOM      9  C   UNL d   1      -3.348   2.001   1.646  0.00  0.00     0.018 C 
ENDBRANCH   1   8
TORSDOF 1
ENDMDL
