MODEL 1
REMARK minimizedAffinity 11.4852533
REMARK minimizedRMSD -1
REMARK  1 active torsions:
REMARK  status: ('A' for Active; 'I' for Inactive)
REMARK    1  A    between atoms: C1_2  and  C2_3 
ROOT
ATOM      1  C2  UNL d   1      -3.753  -0.355   1.389  0.00  0.00    -0.073 A 
ATOM      2  C3  UNL d   1      -4.357   0.907   1.382  0.00  0.00    -0.002 A 
ATOM      3  C4  UNL d   1      -3.625   2.040   1.741  0.00  0.00     0.004 A 
ATOM      4  C5  UNL d   1      -2.283   1.923   2.104  0.00  0.00    -0.004 A 
ATOM      5  C6  UNL d   1      -1.659   0.671   2.105  0.00  0.00    -0.075 A 
ATOM      6  C7  UNL d   1      -0.217   0.528   2.494  0.00  0.00     0.076 C 
ATOM      7  C8  UNL d   1      -2.401  -0.462   1.746  0.00  0.00     0.001 A 
ENDROOT
BRANCH   1   8
ATOM      8  C1  UNL d   1      -4.538  -1.581   0.996  0.00  0.00     0.053 C 
ATOM      9  C   UNL d   1      -6.000  -1.475   1.400  0.00  0.00     0.018 C 
ENDBRANCH   1   8
TORSDOF 1
ENDMDL
