MODEL 1
REMARK minimizedAffinity 17.6613216
REMARK minimizedRMSD -1
REMARK  1 active torsions:
REMARK  status: ('A' for Active; 'I' for Inactive)
REMARK    1  A    between atoms: C1_2  and  C2_3 
ROOT
ATOM      1  C2  UNL d   1      -4.117  -0.015   3.445  0.00  0.00    -0.073 A 
ATOM      2  C3  UNL d   1      -3.645  -0.107   4.759  0.00  0.00    -0.002 A 
ATOM      3  C4  UNL d   1      -3.941  -1.226   5.538  0.00  0.00     0.004 A 
ATOM      4  C5  UNL d   1      -4.705  -2.267   5.010  0.00  0.00    -0.004 A 
ATOM      5  C6  UNL d   1      -5.175  -2.199   3.695  0.00  0.00    -0.075 A 
ATOM      6  C7  UNL d   1      -6.000  -3.309   3.112  0.00  0.00     0.076 C 
ATOM      7  C8  UNL d   1      -4.876  -1.071   2.920  0.00  0.00     0.001 A 
ENDROOT
BRANCH   1   8
ATOM      8  C1  UNL d   1      -3.794   1.189   2.598  0.00  0.00     0.053 C 
ATOM      9  C   UNL d   1      -2.600   0.942   1.689  0.00  0.00     0.018 C 
ENDBRANCH   1   8
TORSDOF 1
ENDMDL
