MODEL 1
REMARK minimizedAffinity 18.7658081
REMARK minimizedRMSD -1
REMARK  1 active torsions:
REMARK  status: ('A' for Active; 'I' for Inactive)
REMARK    1  A    between atoms: C1_2  and  C2_3 
ROOT
ATOM      1  C2  UNL d   1       2.745   4.766  -3.424  0.00  0.00    -0.073 A 
ATOM      2  C3  UNL d   1       1.938   5.343  -4.411  0.00  0.00    -0.002 A 
ATOM      3  C4  UNL d   1       2.445   5.576  -5.690  0.00  0.00     0.004 A 
ATOM      4  C5  UNL d   1       3.760   5.227  -5.998  0.00  0.00    -0.004 A 
ATOM      5  C6  UNL d   1       4.579   4.638  -5.029  0.00  0.00    -0.075 A 
ATOM      6  C7  UNL d   1       5.997   4.260  -5.343  0.00  0.00     0.076 C 
ATOM      7  C8  UNL d   1       4.063   4.411  -3.746  0.00  0.00     0.001 A 
ENDROOT
BRANCH   1   8
ATOM      8  C1  UNL d   1       2.200   4.507  -2.044  0.00  0.00     0.053 C 
ATOM      9  C   UNL d   1       2.208   3.027  -1.696  0.00  0.00     0.018 C 
ENDBRANCH   1   8
TORSDOF 1
ENDMDL
