MODEL 1
REMARK minimizedAffinity 14.9240932
REMARK minimizedRMSD -1
REMARK  1 active torsions:
REMARK  status: ('A' for Active; 'I' for Inactive)
REMARK    1  A    between atoms: C1_2  and  C2_3 
ROOT
ATOM      1  C2  UNL d   1      -3.907  -1.993   0.731  0.00  0.00    -0.073 A 
ATOM      2  C3  UNL d   1      -4.809  -1.674   1.752  0.00  0.00    -0.002 A 
ATOM      3  C4  UNL d   1      -4.440  -0.790   2.767  0.00  0.00     0.004 A 
ATOM      4  C5  UNL d   1      -3.171  -0.211   2.768  0.00  0.00    -0.004 A 
ATOM      5  C6  UNL d   1      -2.260  -0.509   1.749  0.00  0.00    -0.075 A 
ATOM      6  C7  UNL d   1      -0.890   0.104   1.736  0.00  0.00     0.076 C 
ATOM      7  C8  UNL d   1      -2.636  -1.400   0.735  0.00  0.00     0.001 A 
ENDROOT
BRANCH   1   8
ATOM      8  C1  UNL d   1      -4.302  -2.943  -0.370  0.00  0.00     0.053 C 
ATOM      9  C   UNL d   1      -5.120  -2.253  -1.451  0.00  0.00     0.018 C 
ENDBRANCH   1   8
TORSDOF 1
ENDMDL
