MODEL 1
REMARK minimizedAffinity 18.8850918
REMARK minimizedRMSD -1
REMARK  1 active torsions:
REMARK  status: ('A' for Active; 'I' for Inactive)
REMARK    1  A    between atoms: C1_2  and  C2_3 
ROOT
ATOM      1  C2  UNL d   1      -2.076  -1.115   0.777  0.00  0.00    -0.073 A 
ATOM      2  C3  UNL d   1      -3.190  -1.767   0.236  0.00  0.00    -0.002 A 
ATOM      3  C4  UNL d   1      -3.121  -3.120  -0.099  0.00  0.00     0.004 A 
ATOM      4  C5  UNL d   1      -1.942  -3.836   0.110  0.00  0.00    -0.004 A 
ATOM      5  C6  UNL d   1      -0.822  -3.205   0.660  0.00  0.00    -0.075 A 
ATOM      6  C7  UNL d   1       0.454  -3.960   0.889  0.00  0.00     0.076 C 
ATOM      7  C8  UNL d   1      -0.898  -1.845   0.992  0.00  0.00     0.001 A 
ENDROOT
BRANCH   1   8
ATOM      8  C1  UNL d   1      -2.148   0.344   1.146  0.00  0.00     0.053 C 
ATOM      9  C   UNL d   1      -1.676   0.596   2.569  0.00  0.00     0.018 C 
ENDBRANCH   1   8
TORSDOF 1
ENDMDL
