MODEL 1
REMARK minimizedAffinity -6.23640537
REMARK minimizedRMSD -1
REMARK  0 active torsions:
REMARK  status: ('A' for Active; 'I' for Inactive)
ROOT
ATOM      1  C1  DEN d   1      -0.328  -3.054  -0.950  0.00  0.00     0.130 A 
ATOM      2  C2  DEN d   1       0.066  -2.641  -2.294  0.00  0.00    -0.031 A 
ATOM      3  C3  DEN d   1       0.161  -1.167  -2.309  0.00  0.00     0.027 A 
ATOM      4  C4  DEN d   1      -0.256   0.505  -0.390  0.00  0.00     0.027 A 
ATOM      5  C5  DEN d   1      -0.622   0.627   0.933  0.00  0.00    -0.003 A 
ATOM      6  C6  DEN d   1      -0.946  -0.457   1.704  0.00  0.00     0.001 A 
ATOM      7  C7  DEN d   1      -0.866  -1.717   1.172  0.00  0.00     0.017 A 
ATOM      8  C8  DEN d   1      -0.505  -1.848  -0.163  0.00  0.00    -0.094 A 
ATOM      9  C9  DEN d   1      -0.170  -0.740  -0.923  0.00  0.00    -0.072 A 
ENDROOT
TORSDOF 0
ENDMDL
