MODEL 1
REMARK minimizedAffinity -5.7848196
REMARK minimizedRMSD -1
REMARK  0 active torsions:
REMARK  status: ('A' for Active; 'I' for Inactive)
ROOT
ATOM      1  C1  DEN d   1      -0.064   0.658  -0.785  0.00  0.00     0.130 A 
ATOM      2  C2  DEN d   1      -0.436   1.089   0.560  0.00  0.00    -0.031 A 
ATOM      3  C3  DEN d   1      -0.694  -0.118   1.370  0.00  0.00     0.027 A 
ATOM      4  C4  DEN d   1      -0.551  -2.599   0.678  0.00  0.00     0.027 A 
ATOM      5  C5  DEN d   1      -0.286  -3.460  -0.364  0.00  0.00    -0.003 A 
ATOM      6  C6  DEN d   1       0.035  -3.012  -1.617  0.00  0.00     0.001 A 
ATOM      7  C7  DEN d   1       0.145  -1.667  -1.850  0.00  0.00     0.017 A 
ATOM      8  C8  DEN d   1      -0.128  -0.792  -0.807  0.00  0.00    -0.094 A 
ATOM      9  C9  DEN d   1      -0.439  -1.264   0.457  0.00  0.00    -0.072 A 
ENDROOT
TORSDOF 0
ENDMDL
