MODEL 1
REMARK minimizedAffinity -4.47128534
REMARK minimizedRMSD -1
REMARK  0 active torsions:
REMARK  status: ('A' for Active; 'I' for Inactive)
ROOT
ATOM      1  C1  DEN d   1       0.750  -2.039  -0.862  0.00  0.00     0.130 A 
ATOM      2  C2  DEN d   1       0.354  -3.150  -0.000  0.00  0.00    -0.031 A 
ATOM      3  C3  DEN d   1      -0.490  -2.608   1.084  0.00  0.00     0.027 A 
ATOM      4  C4  DEN d   1      -1.222  -0.171   1.507  0.00  0.00     0.027 A 
ATOM      5  C5  DEN d   1      -1.125   1.125   1.052  0.00  0.00    -0.003 A 
ATOM      6  C6  DEN d   1      -0.375   1.460  -0.044  0.00  0.00     0.001 A 
ATOM      7  C7  DEN d   1       0.271   0.479  -0.750  0.00  0.00     0.017 A 
ATOM      8  C8  DEN d   1       0.185  -0.829  -0.292  0.00  0.00    -0.094 A 
ATOM      9  C9  DEN d   1      -0.588  -1.149   0.811  0.00  0.00    -0.072 A 
ENDROOT
TORSDOF 0
ENDMDL
