MODEL 1
REMARK minimizedAffinity -3.79559922
REMARK minimizedRMSD -1
REMARK  0 active torsions:
REMARK  status: ('A' for Active; 'I' for Inactive)
ROOT
ATOM      1  C1  DEN d   1       0.801   0.854  -1.049  0.00  0.00     0.130 A 
ATOM      2  C2  DEN d   1       0.529   2.101  -0.339  0.00  0.00    -0.031 A 
ATOM      3  C3  DEN d   1      -0.341   1.790   0.813  0.00  0.00     0.027 A 
ATOM      4  C4  DEN d   1      -1.283  -0.490   1.566  0.00  0.00     0.027 A 
ATOM      5  C5  DEN d   1      -1.335  -1.835   1.273  0.00  0.00    -0.003 A 
ATOM      6  C6  DEN d   1      -0.712  -2.368   0.176  0.00  0.00     0.001 A 
ATOM      7  C7  DEN d   1       0.028  -1.559  -0.644  0.00  0.00     0.017 A 
ATOM      8  C8  DEN d   1       0.080  -0.201  -0.360  0.00  0.00    -0.094 A 
ATOM      9  C9  DEN d   1      -0.547   0.317   0.761  0.00  0.00    -0.072 A 
ENDROOT
TORSDOF 0
ENDMDL
