MODEL 1
REMARK minimizedAffinity -2.2174778
REMARK minimizedRMSD -1
REMARK  0 active torsions:
REMARK  status: ('A' for Active; 'I' for Inactive)
ROOT
ATOM      1  C1  DEN d   1       0.610   0.973  -1.173  0.00  0.00     0.130 A 
ATOM      2  C2  DEN d   1       0.393   2.112  -0.286  0.00  0.00    -0.031 A 
ATOM      3  C3  DEN d   1      -0.329   1.630   0.908  0.00  0.00     0.027 A 
ATOM      4  C4  DEN d   1      -1.124  -0.759   1.469  0.00  0.00     0.027 A 
ATOM      5  C5  DEN d   1      -1.179  -2.059   1.016  0.00  0.00    -0.003 A 
ATOM      6  C6  DEN d   1      -0.677  -2.430  -0.202  0.00  0.00     0.001 A 
ATOM      7  C7  DEN d   1      -0.055  -1.499  -0.992  0.00  0.00     0.017 A 
ATOM      8  C8  DEN d   1      -0.002  -0.185  -0.546  0.00  0.00    -0.094 A 
ATOM      9  C9  DEN d   1      -0.506   0.168   0.695  0.00  0.00    -0.072 A 
ENDROOT
TORSDOF 0
ENDMDL
