MODEL 1
REMARK minimizedAffinity -3.90579939
REMARK minimizedRMSD -1
REMARK  0 active torsions:
REMARK  status: ('A' for Active; 'I' for Inactive)
ROOT
ATOM      1  C1  DEN d   1       1.115  -2.501  -0.103  0.00  0.00     0.130 A 
ATOM      2  C2  DEN d   1      -0.038  -3.374   0.103  0.00  0.00    -0.031 A 
ATOM      3  C3  DEN d   1      -1.227  -2.522   0.304  0.00  0.00     0.027 A 
ATOM      4  C4  DEN d   1      -1.394   0.052   0.312  0.00  0.00     0.027 A 
ATOM      5  C5  DEN d   1      -0.680   1.224   0.191  0.00  0.00    -0.003 A 
ATOM      6  C6  DEN d   1       0.676   1.236  -0.000  0.00  0.00     0.001 A 
ATOM      7  C7  DEN d   1       1.355   0.053  -0.122  0.00  0.00     0.017 A 
ATOM      8  C8  DEN d   1       0.643  -1.133   0.006  0.00  0.00    -0.094 A 
ATOM      9  C9  DEN d   1      -0.729  -1.124   0.187  0.00  0.00    -0.072 A 
ENDROOT
TORSDOF 0
ENDMDL
