MODEL 1
REMARK minimizedAffinity -3.4830687
REMARK minimizedRMSD -1
REMARK  0 active torsions:
REMARK  status: ('A' for Active; 'I' for Inactive)
ROOT
ATOM      1  C1  DEN d   1      -0.612   0.865   1.613  0.00  0.00     0.130 A 
ATOM      2  C2  DEN d   1      -0.578  -0.138   0.552  0.00  0.00    -0.031 A 
ATOM      3  C3  DEN d   1       0.218   0.407  -0.566  0.00  0.00     0.027 A 
ATOM      4  C4  DEN d   1       1.400   2.691  -0.755  0.00  0.00     0.027 A 
ATOM      5  C5  DEN d   1       1.645   3.885  -0.112  0.00  0.00    -0.003 A 
ATOM      6  C6  DEN d   1       1.131   4.167   1.125  0.00  0.00     0.001 A 
ATOM      7  C7  DEN d   1       0.382   3.225   1.780  0.00  0.00     0.017 A 
ATOM      8  C8  DEN d   1       0.125   2.022   1.136  0.00  0.00    -0.094 A 
ATOM      9  C9  DEN d   1       0.664   1.751  -0.110  0.00  0.00    -0.072 A 
ENDROOT
TORSDOF 0
ENDMDL
