MODEL 1
REMARK minimizedAffinity -3.35085821
REMARK minimizedRMSD -1
REMARK  0 active torsions:
REMARK  status: ('A' for Active; 'I' for Inactive)
ROOT
ATOM      1  C1  DEN d   1       0.544  -0.222   1.529  0.00  0.00     0.130 A 
ATOM      2  C2  DEN d   1      -0.745  -0.669   1.006  0.00  0.00    -0.031 A 
ATOM      3  C3  DEN d   1      -1.249   0.371   0.086  0.00  0.00     0.027 A 
ATOM      4  C4  DEN d   1      -0.163   2.613  -0.580  0.00  0.00     0.027 A 
ATOM      5  C5  DEN d   1       0.926   3.435  -0.387  0.00  0.00    -0.003 A 
ATOM      6  C6  DEN d   1       1.938   3.113   0.478  0.00  0.00     0.001 A 
ATOM      7  C7  DEN d   1       1.906   1.918   1.147  0.00  0.00     0.017 A 
ATOM      8  C8  DEN d   1       0.808   1.088   0.963  0.00  0.00    -0.094 A 
ATOM      9  C9  DEN d   1      -0.200   1.426   0.076  0.00  0.00    -0.072 A 
ENDROOT
TORSDOF 0
ENDMDL
