MODEL 1
REMARK minimizedAffinity -4.4462285
REMARK minimizedRMSD -1
REMARK  0 active torsions:
REMARK  status: ('A' for Active; 'I' for Inactive)
ROOT
ATOM      1  C1  DEN d   1       0.098   0.788  -0.641  0.00  0.00     0.130 A 
ATOM      2  C2  DEN d   1      -1.055   1.472  -0.062  0.00  0.00    -0.031 A 
ATOM      3  C3  DEN d   1      -1.725   0.536   0.863  0.00  0.00     0.027 A 
ATOM      4  C4  DEN d   1      -1.089  -1.893   1.455  0.00  0.00     0.027 A 
ATOM      5  C5  DEN d   1      -0.196  -2.912   1.206  0.00  0.00    -0.003 A 
ATOM      6  C6  DEN d   1       0.829  -2.782   0.307  0.00  0.00     0.001 A 
ATOM      7  C7  DEN d   1       1.013  -1.590  -0.344  0.00  0.00     0.017 A 
ATOM      8  C8  DEN d   1       0.112  -0.561  -0.104  0.00  0.00    -0.094 A 
ATOM      9  C9  DEN d   1      -0.910  -0.708   0.818  0.00  0.00    -0.072 A 
ENDROOT
TORSDOF 0
ENDMDL
