MODEL 1
REMARK minimizedAffinity -5.05018139
REMARK minimizedRMSD -1
REMARK  0 active torsions:
REMARK  status: ('A' for Active; 'I' for Inactive)
ROOT
ATOM      1  C1  DEN d   1       0.273   0.313  -0.679  0.00  0.00     0.130 A 
ATOM      2  C2  DEN d   1      -0.632   1.121   0.134  0.00  0.00    -0.031 A 
ATOM      3  C3  DEN d   1      -1.276   0.232   1.121  0.00  0.00     0.027 A 
ATOM      4  C4  DEN d   1      -0.959  -2.304   1.471  0.00  0.00     0.027 A 
ATOM      5  C5  DEN d   1      -0.304  -3.427   1.015  0.00  0.00    -0.003 A 
ATOM      6  C6  DEN d   1       0.556  -3.388  -0.051  0.00  0.00     0.001 A 
ATOM      7  C7  DEN d   1       0.819  -2.194  -0.668  0.00  0.00     0.017 A 
ATOM      8  C8  DEN d   1       0.157  -1.059  -0.218  0.00  0.00    -0.094 A 
ATOM      9  C9  DEN d   1      -0.700  -1.116   0.868  0.00  0.00    -0.072 A 
ENDROOT
TORSDOF 0
ENDMDL
