MODEL 1
REMARK minimizedAffinity -1.18527949
REMARK minimizedRMSD -1
REMARK  0 active torsions:
REMARK  status: ('A' for Active; 'I' for Inactive)
ROOT
ATOM      1  C1  DEN d   1       0.596  -1.485  -2.175  0.00  0.00     0.130 A 
ATOM      2  C2  DEN d   1       0.495  -2.722  -1.406  0.00  0.00    -0.031 A 
ATOM      3  C3  DEN d   1       0.102  -2.371  -0.027  0.00  0.00     0.027 A 
ATOM      4  C4  DEN d   1      -0.363  -0.045   0.986  0.00  0.00     0.027 A 
ATOM      5  C5  DEN d   1      -0.394   1.307   0.725  0.00  0.00    -0.003 A 
ATOM      6  C6  DEN d   1      -0.067   1.822  -0.501  0.00  0.00     0.001 A 
ATOM      7  C7  DEN d   1       0.262   0.975  -1.527  0.00  0.00     0.017 A 
ATOM      8  C8  DEN d   1       0.303  -0.389  -1.269  0.00  0.00    -0.094 A 
ATOM      9  C9  DEN d   1      -0.043  -0.890  -0.026  0.00  0.00    -0.072 A 
ENDROOT
TORSDOF 0
ENDMDL
