MODEL 1
REMARK minimizedAffinity -5.87341881
REMARK minimizedRMSD -1
REMARK  0 active torsions:
REMARK  status: ('A' for Active; 'I' for Inactive)
ROOT
ATOM      1  C1  DEN d   1      -0.225  -3.487  -0.443  0.00  0.00     0.130 A 
ATOM      2  C2  DEN d   1       0.203  -3.356  -1.833  0.00  0.00    -0.031 A 
ATOM      3  C3  DEN d   1       0.383  -1.919  -2.122  0.00  0.00     0.027 A 
ATOM      4  C4  DEN d   1       0.048   0.104  -0.558  0.00  0.00     0.027 A 
ATOM      5  C5  DEN d   1      -0.321   0.493   0.711  0.00  0.00    -0.003 A 
ATOM      6  C6  DEN d   1      -0.713  -0.407   1.666  0.00  0.00     0.001 A 
ATOM      7  C7  DEN d   1      -0.702  -1.747   1.381  0.00  0.00     0.017 A 
ATOM      8  C8  DEN d   1      -0.338  -2.146   0.101  0.00  0.00    -0.094 A 
ATOM      9  C9  DEN d   1       0.066  -1.222  -0.846  0.00  0.00    -0.072 A 
ENDROOT
TORSDOF 0
ENDMDL
