MODEL 1
REMARK minimizedAffinity -3.31311202
REMARK minimizedRMSD -1
REMARK  0 active torsions:
REMARK  status: ('A' for Active; 'I' for Inactive)
ROOT
ATOM      1  C1  DEN d   1      -0.106   2.325   0.913  0.00  0.00     0.130 A 
ATOM      2  C2  DEN d   1       0.727   2.860  -0.160  0.00  0.00    -0.031 A 
ATOM      3  C3  DEN d   1       1.139   1.734  -1.022  0.00  0.00     0.027 A 
ATOM      4  C4  DEN d   1       0.569  -0.771  -0.802  0.00  0.00     0.027 A 
ATOM      5  C5  DEN d   1      -0.098  -1.709  -0.044  0.00  0.00    -0.003 A 
ATOM      6  C6  DEN d   1      -0.780  -1.375   1.095  0.00  0.00     0.001 A 
ATOM      7  C7  DEN d   1      -0.849  -0.063   1.486  0.00  0.00     0.017 A 
ATOM      8  C8  DEN d   1      -0.173   0.886   0.731  0.00  0.00    -0.094 A 
ATOM      9  C9  DEN d   1       0.501   0.530  -0.425  0.00  0.00    -0.072 A 
ENDROOT
TORSDOF 0
ENDMDL
