MODEL 1
REMARK minimizedAffinity 3.00081301
REMARK minimizedRMSD -1
REMARK  1 active torsions:
REMARK  status: ('A' for Active; 'I' for Inactive)
REMARK    1  A    between atoms: C1_2  and  C2_3 
ROOT
ATOM      1  C2  UNL d   1       3.711  -1.920   4.829  0.00  0.00    -0.081 A 
ATOM      2  C3  UNL d   1       2.312  -1.896   4.872  0.00  0.00     0.006 A 
ATOM      3  C4  UNL d   1       1.576  -1.469   3.764  0.00  0.00     0.002 A 
ATOM      4  C5  UNL d   1       2.227  -1.066   2.593  0.00  0.00    -0.080 A 
ATOM      5  C6  UNL d   1       1.449  -0.633   1.386  0.00  0.00     0.076 C 
ATOM      6  C7  UNL d   1       3.626  -1.072   2.556  0.00  0.00     0.002 A 
ATOM      7  C8  UNL d   1       4.361  -1.499   3.664  0.00  0.00     0.006 A 
ENDROOT
BRANCH   1   8
ATOM      8  C1  UNL d   1       4.505  -2.441   6.000  0.00  0.00     0.054 C 
ATOM      9  C   UNL d   1       6.000  -2.263   5.778  0.00  0.00     0.018 C 
ENDBRANCH   1   8
TORSDOF 1
ENDMDL
