MODEL 1
REMARK minimizedAffinity 6.11012125
REMARK minimizedRMSD -1
REMARK  1 active torsions:
REMARK  status: ('A' for Active; 'I' for Inactive)
REMARK    1  A    between atoms: C1_2  and  C2_3 
ROOT
ATOM      1  C2  UNL d   1       1.028  -1.007   1.245  0.00  0.00    -0.081 A 
ATOM      2  C3  UNL d   1      -0.109  -0.230   1.497  0.00  0.00     0.006 A 
ATOM      3  C4  UNL d   1      -1.136  -0.151   0.553  0.00  0.00     0.002 A 
ATOM      4  C5  UNL d   1      -1.046  -0.852  -0.654  0.00  0.00    -0.080 A 
ATOM      5  C6  UNL d   1      -2.154  -0.799  -1.663  0.00  0.00     0.076 C 
ATOM      6  C7  UNL d   1       0.098  -1.614  -0.913  0.00  0.00     0.002 A 
ATOM      7  C8  UNL d   1       1.125  -1.694   0.030  0.00  0.00     0.006 A 
ENDROOT
BRANCH   1   8
ATOM      8  C1  UNL d   1       2.107  -1.147   2.288  0.00  0.00     0.054 C 
ATOM      9  C   UNL d   1       1.659  -2.047   3.431  0.00  0.00     0.018 C 
ENDBRANCH   1   8
TORSDOF 1
ENDMDL
