MODEL 1
REMARK minimizedAffinity 1.24527991
REMARK minimizedRMSD -1
REMARK  1 active torsions:
REMARK  status: ('A' for Active; 'I' for Inactive)
REMARK    1  A    between atoms: C1_2  and  C2_3 
ROOT
ATOM      1  C2  UNL d   1       3.973   5.735  -2.176  0.00  0.00    -0.081 A 
ATOM      2  C3  UNL d   1       3.253   5.529  -3.359  0.00  0.00     0.006 A 
ATOM      3  C4  UNL d   1       3.901   5.554  -4.596  0.00  0.00     0.002 A 
ATOM      4  C5  UNL d   1       5.280   5.777  -4.671  0.00  0.00    -0.080 A 
ATOM      5  C6  UNL d   1       5.993   5.776  -5.990  0.00  0.00     0.076 C 
ATOM      6  C7  UNL d   1       5.997   6.000  -3.490  0.00  0.00     0.002 A 
ATOM      7  C8  UNL d   1       5.350   5.976  -2.253  0.00  0.00     0.006 A 
ENDROOT
BRANCH   1   8
ATOM      8  C1  UNL d   1       3.289   5.644  -0.836  0.00  0.00     0.054 C 
ATOM      9  C   UNL d   1       1.789   5.871  -0.965  0.00  0.00     0.018 C 
ENDBRANCH   1   8
TORSDOF 1
ENDMDL
