MODEL 1
REMARK minimizedAffinity 18.0809174
REMARK minimizedRMSD -1
REMARK  1 active torsions:
REMARK  status: ('A' for Active; 'I' for Inactive)
REMARK    1  A    between atoms: C1_2  and  C2_3 
ROOT
ATOM      1  C2  UNL d   1       5.026   5.796  -3.724  0.00  0.00    -0.081 A 
ATOM      2  C3  UNL d   1       5.460   5.999  -2.408  0.00  0.00     0.006 A 
ATOM      3  C4  UNL d   1       4.594   5.776  -1.335  0.00  0.00     0.002 A 
ATOM      4  C5  UNL d   1       3.284   5.340  -1.558  0.00  0.00    -0.080 A 
ATOM      5  C6  UNL d   1       2.354   5.068  -0.414  0.00  0.00     0.076 C 
ATOM      6  C7  UNL d   1       2.845   5.154  -2.874  0.00  0.00     0.002 A 
ATOM      7  C8  UNL d   1       3.710   5.377  -3.947  0.00  0.00     0.006 A 
ENDROOT
BRANCH   1   8
ATOM      8  C1  UNL d   1       5.977   5.973  -4.880  0.00  0.00     0.054 C 
ATOM      9  C   UNL d   1       5.806   4.867  -5.911  0.00  0.00     0.018 C 
ENDBRANCH   1   8
TORSDOF 1
ENDMDL
