MODEL 1
REMARK minimizedAffinity 1.53354657
REMARK minimizedRMSD -1
REMARK  1 active torsions:
REMARK  status: ('A' for Active; 'I' for Inactive)
REMARK    1  A    between atoms: C1_2  and  C2_3 
ROOT
ATOM      1  C2  UNL d   1       1.822  -3.354   4.671  0.00  0.00    -0.081 A 
ATOM      2  C3  UNL d   1       2.147  -3.775   3.376  0.00  0.00     0.006 A 
ATOM      3  C4  UNL d   1       2.305  -2.843   2.347  0.00  0.00     0.002 A 
ATOM      4  C5  UNL d   1       2.149  -1.476   2.597  0.00  0.00    -0.080 A 
ATOM      5  C6  UNL d   1       2.346  -0.463   1.508  0.00  0.00     0.076 C 
ATOM      6  C7  UNL d   1       1.807  -1.056   3.887  0.00  0.00     0.002 A 
ATOM      7  C8  UNL d   1       1.648  -1.987   4.916  0.00  0.00     0.006 A 
ENDROOT
BRANCH   1   8
ATOM      8  C1  UNL d   1       1.714  -4.350   5.797  0.00  0.00     0.054 C 
ATOM      9  C   UNL d   1       0.277  -4.811   5.992  0.00  0.00     0.018 C 
ENDBRANCH   1   8
TORSDOF 1
ENDMDL
