MODEL 1
REMARK minimizedAffinity 5.64719915
REMARK minimizedRMSD -1
REMARK  1 active torsions:
REMARK  status: ('A' for Active; 'I' for Inactive)
REMARK    1  A    between atoms: C1_2  and  C2_3 
ROOT
ATOM      1  C2  UNL d   1       2.024  -1.774   4.895  0.00  0.00    -0.081 A 
ATOM      2  C3  UNL d   1       3.223  -2.464   4.674  0.00  0.00     0.006 A 
ATOM      3  C4  UNL d   1       3.345  -3.807   5.039  0.00  0.00     0.002 A 
ATOM      4  C5  UNL d   1       2.270  -4.484   5.623  0.00  0.00    -0.080 A 
ATOM      5  C6  UNL d   1       2.378  -5.934   5.991  0.00  0.00     0.076 C 
ATOM      6  C7  UNL d   1       1.078  -3.791   5.859  0.00  0.00     0.002 A 
ATOM      7  C8  UNL d   1       0.955  -2.448   5.496  0.00  0.00     0.006 A 
ENDROOT
BRANCH   1   8
ATOM      8  C1  UNL d   1       1.868  -0.345   4.444  0.00  0.00     0.054 C 
ATOM      9  C   UNL d   1       2.216  -0.188   2.970  0.00  0.00     0.018 C 
ENDBRANCH   1   8
TORSDOF 1
ENDMDL
