MODEL 1
REMARK minimizedAffinity 11.6329517
REMARK minimizedRMSD -1
REMARK  0 active torsions:
REMARK  status: ('A' for Active; 'I' for Inactive)
ROOT
ATOM      1  C   UNL d   1       0.285  -0.639   2.849  0.00  0.00     0.124 A 
ATOM      2  C1  UNL d   1       0.666   0.617   3.298  0.00  0.00     0.062 A 
ATOM      3  C2  UNL d   1       1.670   1.321   2.640  0.00  0.00     0.162 A 
ATOM      4  C3  UNL d   1       2.301   0.771   1.525  0.00  0.00    -0.034 A 
ATOM      5  C4  UNL d   1       1.913  -0.494   1.079  0.00  0.00     0.162 A 
ATOM      6  C5  UNL d   1       0.909  -1.194   1.740  0.00  0.00     0.062 A 
ATOM      7  F   UNL d   1       0.542  -2.408   1.304  0.00  0.00    -0.097 F 
ATOM      8  F1  UNL d   1       2.498  -1.053   0.010  0.00  0.00    -0.096 F 
ATOM      9  I   UNL d   1       3.803   1.820   0.538  0.00  0.00    -0.060 I 
ATOM     10  F2  UNL d   1       2.018   2.534   3.097  0.00  0.00    -0.096 F 
ATOM     11  F3  UNL d   1       0.065   1.155   4.370  0.00  0.00    -0.097 F 
ATOM     12  F4  UNL d   1      -0.681  -1.315   3.484  0.00  0.00    -0.092 F 
ENDROOT
TORSDOF 0
ENDMDL
