MODEL 1
REMARK minimizedAffinity 27.4164696
REMARK minimizedRMSD -1
REMARK  0 active torsions:
REMARK  status: ('A' for Active; 'I' for Inactive)
ROOT
ATOM      1  C   UNL d   1      -3.131   0.894  -2.556  0.00  0.00     0.124 A 
ATOM      2  C1  UNL d   1      -4.243   0.350  -3.185  0.00  0.00     0.062 A 
ATOM      3  C2  UNL d   1      -4.929   1.083  -4.149  0.00  0.00     0.162 A 
ATOM      4  C3  UNL d   1      -4.506   2.367  -4.491  0.00  0.00    -0.034 A 
ATOM      5  C4  UNL d   1      -3.388   2.908  -3.853  0.00  0.00     0.162 A 
ATOM      6  C5  UNL d   1      -2.705   2.172  -2.890  0.00  0.00     0.062 A 
ATOM      7  F   UNL d   1      -1.632   2.699  -2.283  0.00  0.00    -0.097 F 
ATOM      8  F1  UNL d   1      -2.954   4.140  -4.158  0.00  0.00    -0.096 F 
ATOM      9  I   UNL d   1      -5.530   3.465  -5.932  0.00  0.00    -0.060 I 
ATOM     10  F2  UNL d   1      -6.000   0.532  -4.741  0.00  0.00    -0.096 F 
ATOM     11  F3  UNL d   1      -4.657  -0.884  -2.863  0.00  0.00    -0.097 F 
ATOM     12  F4  UNL d   1      -2.473   0.188  -1.628  0.00  0.00    -0.092 F 
ENDROOT
TORSDOF 0
ENDMDL
