MODEL 1
REMARK minimizedAffinity 22.0051842
REMARK minimizedRMSD -1
REMARK  0 active torsions:
REMARK  status: ('A' for Active; 'I' for Inactive)
ROOT
ATOM      1  C   UNL d   1       3.702   2.021   1.009  0.00  0.00     0.124 A 
ATOM      2  C1  UNL d   1       4.604   1.117   0.466  0.00  0.00     0.062 A 
ATOM      3  C2  UNL d   1       4.234  -0.211   0.273  0.00  0.00     0.162 A 
ATOM      4  C3  UNL d   1       2.955  -0.643   0.622  0.00  0.00    -0.034 A 
ATOM      5  C4  UNL d   1       2.053   0.272   1.169  0.00  0.00     0.162 A 
ATOM      6  C5  UNL d   1       2.428   1.598   1.360  0.00  0.00     0.062 A 
ATOM      7  F   UNL d   1       1.554   2.470   1.885  0.00  0.00    -0.097 F 
ATOM      8  F1  UNL d   1       0.815  -0.110   1.516  0.00  0.00    -0.096 F 
ATOM      9  I   UNL d   1       2.398  -2.628   0.335  0.00  0.00    -0.060 I 
ATOM     10  F2  UNL d   1       5.126  -1.063  -0.254  0.00  0.00    -0.096 F 
ATOM     11  F3  UNL d   1       5.836   1.523   0.127  0.00  0.00    -0.097 F 
ATOM     12  F4  UNL d   1       4.061   3.298   1.194  0.00  0.00    -0.092 F 
ENDROOT
TORSDOF 0
ENDMDL
