MODEL 1
REMARK minimizedAffinity 14.3868036
REMARK minimizedRMSD -1
REMARK  0 active torsions:
REMARK  status: ('A' for Active; 'I' for Inactive)
ROOT
ATOM      1  C   UNL d   1      -3.115   0.979  -2.593  0.00  0.00     0.124 A 
ATOM      2  C1  UNL d   1      -2.888   2.323  -2.856  0.00  0.00     0.062 A 
ATOM      3  C2  UNL d   1      -3.710   3.012  -3.743  0.00  0.00     0.162 A 
ATOM      4  C3  UNL d   1      -4.768   2.358  -4.374  0.00  0.00    -0.034 A 
ATOM      5  C4  UNL d   1      -4.990   1.006  -4.105  0.00  0.00     0.162 A 
ATOM      6  C5  UNL d   1      -4.166   0.322  -3.218  0.00  0.00     0.062 A 
ATOM      7  F   UNL d   1      -4.387  -0.976  -2.965  0.00  0.00    -0.097 F 
ATOM      8  F1  UNL d   1      -5.999   0.347  -4.694  0.00  0.00    -0.096 F 
ATOM      9  I   UNL d   1      -6.000   3.384  -5.701  0.00  0.00    -0.060 I 
ATOM     10  F2  UNL d   1      -3.467   4.310  -3.979  0.00  0.00    -0.096 F 
ATOM     11  F3  UNL d   1      -1.873   2.960  -2.255  0.00  0.00    -0.097 F 
ATOM     12  F4  UNL d   1      -2.322   0.319  -1.740  0.00  0.00    -0.092 F 
ENDROOT
TORSDOF 0
ENDMDL
