MODEL 1
REMARK minimizedAffinity 25.9893398
REMARK minimizedRMSD -1
REMARK  0 active torsions:
REMARK  status: ('A' for Active; 'I' for Inactive)
ROOT
ATOM      1  C   UNL d   1       3.489  -4.030  -0.764  0.00  0.00     0.124 A 
ATOM      2  C1  UNL d   1       4.494  -4.951  -0.504  0.00  0.00     0.062 A 
ATOM      3  C2  UNL d   1       5.005  -5.087   0.783  0.00  0.00     0.162 A 
ATOM      4  C3  UNL d   1       4.510  -4.299   1.823  0.00  0.00    -0.034 A 
ATOM      5  C4  UNL d   1       3.499  -3.374   1.554  0.00  0.00     0.162 A 
ATOM      6  C5  UNL d   1       2.992  -3.243   0.266  0.00  0.00     0.062 A 
ATOM      7  F   UNL d   1       2.021  -2.352   0.017  0.00  0.00    -0.097 F 
ATOM      8  F1  UNL d   1       3.000  -2.602   2.531  0.00  0.00    -0.096 F 
ATOM      9  I   UNL d   1       5.270  -4.499   3.750  0.00  0.00    -0.060 I 
ATOM     10  F2  UNL d   1       5.976  -5.985   1.005  0.00  0.00    -0.096 F 
ATOM     11  F3  UNL d   1       4.976  -5.712  -1.497  0.00  0.00    -0.097 F 
ATOM     12  F4  UNL d   1       3.000  -3.901  -2.004  0.00  0.00    -0.092 F 
ENDROOT
TORSDOF 0
ENDMDL
