MODEL 1
REMARK minimizedAffinity 20.7908649
REMARK minimizedRMSD -1
REMARK  0 active torsions:
REMARK  status: ('A' for Active; 'I' for Inactive)
ROOT
ATOM      1  C   UNL d   1      -3.173   0.594  -2.624  0.00  0.00     0.124 A 
ATOM      2  C1  UNL d   1      -4.292   0.180  -3.333  0.00  0.00     0.062 A 
ATOM      3  C2  UNL d   1      -4.920   1.050  -4.219  0.00  0.00     0.162 A 
ATOM      4  C3  UNL d   1      -4.431   2.343  -4.402  0.00  0.00    -0.034 A 
ATOM      5  C4  UNL d   1      -3.306   2.753  -3.684  0.00  0.00     0.162 A 
ATOM      6  C5  UNL d   1      -2.681   1.879  -2.800  0.00  0.00     0.062 A 
ATOM      7  F   UNL d   1      -1.600   2.281  -2.116  0.00  0.00    -0.097 F 
ATOM      8  F1  UNL d   1      -2.809   3.989  -3.836  0.00  0.00    -0.096 F 
ATOM      9  I   UNL d   1      -5.369   3.647  -5.725  0.00  0.00    -0.060 I 
ATOM     10  F2  UNL d   1      -6.000   0.623  -4.891  0.00  0.00    -0.096 F 
ATOM     11  F3  UNL d   1      -4.769  -1.062  -3.164  0.00  0.00    -0.097 F 
ATOM     12  F4  UNL d   1      -2.570  -0.245  -1.771  0.00  0.00    -0.092 F 
ENDROOT
TORSDOF 0
ENDMDL
