MODEL 1
REMARK minimizedAffinity 24.4570751
REMARK minimizedRMSD -1
REMARK  0 active torsions:
REMARK  status: ('A' for Active; 'I' for Inactive)
ROOT
ATOM      1  C   UNL d   1       2.605   0.236   1.327  0.00  0.00     0.124 A 
ATOM      2  C1  UNL d   1       1.988  -1.006   1.270  0.00  0.00     0.062 A 
ATOM      3  C2  UNL d   1       2.722  -2.136   0.920  0.00  0.00     0.162 A 
ATOM      4  C3  UNL d   1       4.081  -2.029   0.625  0.00  0.00    -0.034 A 
ATOM      5  C4  UNL d   1       4.694  -0.776   0.684  0.00  0.00     0.162 A 
ATOM      6  C5  UNL d   1       3.956   0.350   1.034  0.00  0.00     0.062 A 
ATOM      7  F   UNL d   1       4.553   1.550   1.089  0.00  0.00    -0.097 F 
ATOM      8  F1  UNL d   1       5.999  -0.637   0.407  0.00  0.00    -0.096 F 
ATOM      9  I   UNL d   1       5.182  -3.716   0.102  0.00  0.00    -0.060 I 
ATOM     10  F2  UNL d   1       2.101  -3.324   0.873  0.00  0.00    -0.096 F 
ATOM     11  F3  UNL d   1       0.682  -1.119   1.552  0.00  0.00    -0.097 F 
ATOM     12  F4  UNL d   1       1.896   1.322   1.663  0.00  0.00    -0.092 F 
ENDROOT
TORSDOF 0
ENDMDL
