MODEL 1
REMARK minimizedAffinity 21.1929436
REMARK minimizedRMSD -1
REMARK  0 active torsions:
REMARK  status: ('A' for Active; 'I' for Inactive)
ROOT
ATOM      1  C   UNL d   1       0.471  -1.407   2.356  0.00  0.00     0.124 A 
ATOM      2  C1  UNL d   1       0.728  -0.153   2.893  0.00  0.00     0.062 A 
ATOM      3  C2  UNL d   1       1.695   0.668   2.321  0.00  0.00     0.162 A 
ATOM      4  C3  UNL d   1       2.412   0.239   1.204  0.00  0.00    -0.034 A 
ATOM      5  C4  UNL d   1       2.149  -1.023   0.670  0.00  0.00     0.162 A 
ATOM      6  C5  UNL d   1       1.181  -1.841   1.245  0.00  0.00     0.062 A 
ATOM      7  F   UNL d   1       0.934  -3.052   0.725  0.00  0.00    -0.097 F 
ATOM      8  F1  UNL d   1       2.820  -1.467  -0.403  0.00  0.00    -0.096 F 
ATOM      9  I   UNL d   1       3.860   1.464   0.346  0.00  0.00    -0.060 I 
ATOM     10  F2  UNL d   1       1.923   1.875   2.861  0.00  0.00    -0.096 F 
ATOM     11  F3  UNL d   1       0.043   0.268   3.966  0.00  0.00    -0.097 F 
ATOM     12  F4  UNL d   1      -0.460  -2.196   2.908  0.00  0.00    -0.092 F 
ENDROOT
TORSDOF 0
ENDMDL
