MODEL 1
REMARK minimizedAffinity 2.20489931
REMARK minimizedRMSD -1
REMARK  0 active torsions:
REMARK  status: ('A' for Active; 'I' for Inactive)
ROOT
ATOM      1  C   UNL d   1      -5.912  -5.998  -5.997  0.00  0.00     0.172 C 
ATOM      2  N   UNL d   1      -4.666  -5.413  -5.560  0.00  0.00    -0.070 N 
ATOM      3  C1  UNL d   1      -3.786  -5.976  -4.674  0.00  0.00    -0.004 A 
ATOM      4  C2  UNL d   1      -2.726  -5.109  -4.523  0.00  0.00    -0.047 A 
ATOM      5  C3  UNL d   1      -2.977  -3.985  -5.345  0.00  0.00    -0.047 A 
ATOM      6  C4  UNL d   1      -4.185  -4.199  -5.976  0.00  0.00    -0.004 A 
ENDROOT
TORSDOF 0
ENDMDL
