MODEL 1
REMARK minimizedAffinity 7.13301468
REMARK minimizedRMSD -1
REMARK  0 active torsions:
REMARK  status: ('A' for Active; 'I' for Inactive)
ROOT
ATOM      1  C   UNL d   1       1.197   4.726  -2.694  0.00  0.00     0.172 C 
ATOM      2  N   UNL d   1       0.816   3.898  -1.573  0.00  0.00    -0.070 N 
ATOM      3  C1  UNL d   1      -0.153   2.931  -1.588  0.00  0.00    -0.004 A 
ATOM      4  C2  UNL d   1      -0.211   2.372  -0.330  0.00  0.00    -0.047 A 
ATOM      5  C3  UNL d   1       0.757   3.027   0.469  0.00  0.00    -0.047 A 
ATOM      6  C4  UNL d   1       1.378   3.967  -0.326  0.00  0.00    -0.004 A 
ENDROOT
TORSDOF 0
ENDMDL
