MODEL 1
REMARK minimizedAffinity 8.90008068
REMARK minimizedRMSD -1
REMARK  0 active torsions:
REMARK  status: ('A' for Active; 'I' for Inactive)
ROOT
ATOM      1  C   UNL d   1       1.023   4.460  -1.733  0.00  0.00     0.172 C 
ATOM      2  N   UNL d   1       0.312   3.633  -0.786  0.00  0.00    -0.070 N 
ATOM      3  C1  UNL d   1       0.884   2.749   0.089  0.00  0.00    -0.004 A 
ATOM      4  C2  UNL d   1      -0.128   2.160   0.816  0.00  0.00    -0.047 A 
ATOM      5  C3  UNL d   1      -1.351   2.709   0.361  0.00  0.00    -0.047 A 
ATOM      6  C4  UNL d   1      -1.049   3.618  -0.631  0.00  0.00    -0.004 A 
ENDROOT
TORSDOF 0
ENDMDL
