MODEL 1
REMARK minimizedAffinity 7.41928864
REMARK minimizedRMSD -1
REMARK  0 active torsions:
REMARK  status: ('A' for Active; 'I' for Inactive)
ROOT
ATOM      1  C   UNL d   1       0.072   1.836   0.212  0.00  0.00     0.172 C 
ATOM      2  N   UNL d   1       0.131   3.033  -0.593  0.00  0.00    -0.070 N 
ATOM      3  C1  UNL d   1      -0.871   3.503  -1.400  0.00  0.00    -0.004 A 
ATOM      4  C2  UNL d   1      -0.426   4.664  -1.993  0.00  0.00    -0.047 A 
ATOM      5  C3  UNL d   1       0.889   4.900  -1.528  0.00  0.00    -0.047 A 
ATOM      6  C4  UNL d   1       1.209   3.876  -0.662  0.00  0.00    -0.004 A 
ENDROOT
TORSDOF 0
ENDMDL
