MODEL 1
REMARK minimizedAffinity 11.9819345
REMARK minimizedRMSD -1
REMARK  0 active torsions:
REMARK  status: ('A' for Active; 'I' for Inactive)
ROOT
ATOM      1  C   UNL d   1      -5.908   0.841   3.569  0.00  0.00     0.172 C 
ATOM      2  N   UNL d   1      -5.916  -0.394   4.317  0.00  0.00    -0.070 N 
ATOM      3  C1  UNL d   1      -6.000  -0.501   5.680  0.00  0.00    -0.004 A 
ATOM      4  C2  UNL d   1      -5.977  -1.842   6.000  0.00  0.00    -0.047 A 
ATOM      5  C3  UNL d   1      -5.874  -2.565   4.788  0.00  0.00    -0.047 A 
ATOM      6  C4  UNL d   1      -5.838  -1.644   3.762  0.00  0.00    -0.004 A 
ENDROOT
TORSDOF 0
ENDMDL
