MODEL 1
REMARK minimizedAffinity 5.06493044
REMARK minimizedRMSD -1
REMARK  0 active torsions:
REMARK  status: ('A' for Active; 'I' for Inactive)
ROOT
ATOM      1  C   UNL d   1       0.958   1.765   2.119  0.00  0.00     0.172 C 
ATOM      2  N   UNL d   1       0.194   2.083   0.936  0.00  0.00    -0.070 N 
ATOM      3  C1  UNL d   1      -0.900   2.905   0.889  0.00  0.00    -0.004 A 
ATOM      4  C2  UNL d   1      -1.339   2.950  -0.416  0.00  0.00    -0.047 A 
ATOM      5  C3  UNL d   1      -0.480   2.125  -1.180  0.00  0.00    -0.047 A 
ATOM      6  C4  UNL d   1       0.460   1.601  -0.318  0.00  0.00    -0.004 A 
ENDROOT
TORSDOF 0
ENDMDL
