MODEL 1
REMARK minimizedAffinity 7.86851311
REMARK minimizedRMSD -1
REMARK  0 active torsions:
REMARK  status: ('A' for Active; 'I' for Inactive)
ROOT
ATOM      1  C   UNL d   1      -0.026   3.450  -1.696  0.00  0.00     0.172 C 
ATOM      2  N   UNL d   1      -0.198   2.833  -0.401  0.00  0.00    -0.070 N 
ATOM      3  C1  UNL d   1       0.678   1.964   0.191  0.00  0.00    -0.004 A 
ATOM      4  C2  UNL d   1       0.154   1.604   1.414  0.00  0.00    -0.047 A 
ATOM      5  C3  UNL d   1      -1.080   2.281   1.561  0.00  0.00    -0.047 A 
ATOM      6  C4  UNL d   1      -1.273   3.035   0.423  0.00  0.00    -0.004 A 
ENDROOT
TORSDOF 0
ENDMDL
