MODEL 1
REMARK minimizedAffinity 9.20140839
REMARK minimizedRMSD -1
REMARK  0 active torsions:
REMARK  status: ('A' for Active; 'I' for Inactive)
ROOT
ATOM      1  C   UNL d   1      -1.892   5.217   0.873  0.00  0.00     0.172 C 
ATOM      2  N   UNL d   1      -1.115   4.194   0.215  0.00  0.00    -0.070 N 
ATOM      3  C1  UNL d   1      -0.418   3.194   0.839  0.00  0.00    -0.004 A 
ATOM      4  C2  UNL d   1       0.186   2.428  -0.134  0.00  0.00    -0.047 A 
ATOM      5  C3  UNL d   1      -0.158   2.988  -1.388  0.00  0.00    -0.047 A 
ATOM      6  C4  UNL d   1      -0.964   4.080  -1.142  0.00  0.00    -0.004 A 
ENDROOT
TORSDOF 0
ENDMDL
