MODEL 1
REMARK minimizedAffinity 1.80722427
REMARK minimizedRMSD -1
REMARK  0 active torsions:
REMARK  status: ('A' for Active; 'I' for Inactive)
ROOT
ATOM      1  C   UNL d   1       0.342   2.951  -1.037  0.00  0.00     0.172 C 
ATOM      2  N   UNL d   1      -0.236   2.844   0.282  0.00  0.00    -0.070 N 
ATOM      3  C1  UNL d   1       0.441   2.517   1.427  0.00  0.00    -0.004 A 
ATOM      4  C2  UNL d   1      -0.462   2.523   2.468  0.00  0.00    -0.047 A 
ATOM      5  C3  UNL d   1      -1.725   2.865   1.930  0.00  0.00    -0.047 A 
ATOM      6  C4  UNL d   1      -1.557   3.058   0.575  0.00  0.00    -0.004 A 
ENDROOT
TORSDOF 0
ENDMDL
