MODEL 1
REMARK minimizedAffinity 5.57756281
REMARK minimizedRMSD -1
REMARK  0 active torsions:
REMARK  status: ('A' for Active; 'I' for Inactive)
ROOT
ATOM      1  C   UNL d   1       0.330  -3.472  -3.779  0.00  0.00     0.172 C 
ATOM      2  N   UNL d   1       0.748  -4.004  -2.503  0.00  0.00    -0.070 N 
ATOM      3  C1  UNL d   1       0.577  -3.394  -1.289  0.00  0.00    -0.004 A 
ATOM      4  C2  UNL d   1       1.109  -4.220  -0.323  0.00  0.00    -0.047 A 
ATOM      5  C3  UNL d   1       1.618  -5.366  -0.979  0.00  0.00    -0.047 A 
ATOM      6  C4  UNL d   1       1.381  -5.206  -2.328  0.00  0.00    -0.004 A 
ENDROOT
TORSDOF 0
ENDMDL
