MODEL 1
REMARK minimizedAffinity -4.58169031
REMARK minimizedRMSD -1
REMARK  1 active torsions:
REMARK  status: ('A' for Active; 'I' for Inactive)
REMARK    1  A    between atoms: N_2  and  C1_3 
ROOT
ATOM      1  C1  UNL d   1      -0.585  -0.060   1.020  0.00  0.00     0.143 A 
ATOM      2  C2  UNL d   1      -0.365  -0.373   2.366  0.00  0.00    -0.057 A 
ATOM      3  C3  UNL d   1      -1.423  -0.424   3.282  0.00  0.00     0.033 A 
ATOM      4  C4  UNL d   1      -2.720  -0.135   2.872  0.00  0.00    -0.042 A 
ATOM      5  C5  UNL d   1      -2.959   0.203   1.544  0.00  0.00     0.033 A 
ATOM      6  C6  UNL d   1      -1.899   0.247   0.633  0.00  0.00    -0.057 A 
ENDROOT
BRANCH   1   7
ATOM      7  N   UNL d   1       0.437   0.104   0.082  0.00  0.00    -0.732 N 
ATOM      8  C   UNL d   1       1.778   0.446   0.506  0.00  0.00     0.284 C 
ATOM      9  H3  UNL d   1       0.400  -0.592  -0.658  0.00  0.00     0.395 HD
ENDBRANCH   1   7
TORSDOF 1
ENDMDL
