MODEL 1
REMARK minimizedAffinity -3.49268126
REMARK minimizedRMSD -1
REMARK  1 active torsions:
REMARK  status: ('A' for Active; 'I' for Inactive)
REMARK    1  A    between atoms: N_2  and  C1_3 
ROOT
ATOM      1  C1  UNL d   1       0.228  -0.589  -0.813  0.00  0.00     0.143 A 
ATOM      2  C2  UNL d   1      -0.075  -1.383   0.298  0.00  0.00    -0.057 A 
ATOM      3  C3  UNL d   1       0.155  -0.927   1.601  0.00  0.00     0.033 A 
ATOM      4  C4  UNL d   1       0.721   0.325   1.817  0.00  0.00    -0.042 A 
ATOM      5  C5  UNL d   1       1.054   1.122   0.727  0.00  0.00     0.033 A 
ATOM      6  C6  UNL d   1       0.815   0.663  -0.572  0.00  0.00    -0.057 A 
ENDROOT
BRANCH   1   7
ATOM      7  N   UNL d   1       0.114  -1.024  -2.135  0.00  0.00    -0.732 N 
ATOM      8  C   UNL d   1       1.280  -1.102  -2.989  0.00  0.00     0.284 C 
ATOM      9  H3  UNL d   1      -0.525  -1.810  -2.232  0.00  0.00     0.395 HD
ENDBRANCH   1   7
TORSDOF 1
ENDMDL
