MODEL 1
REMARK minimizedAffinity -4.97007132
REMARK minimizedRMSD -1
REMARK  1 active torsions:
REMARK  status: ('A' for Active; 'I' for Inactive)
REMARK    1  A    between atoms: N_2  and  C1_3 
ROOT
ATOM      1  C1  UNL d   1       0.209   0.069   0.645  0.00  0.00     0.143 A 
ATOM      2  C2  UNL d   1      -1.181   0.159   0.518  0.00  0.00    -0.057 A 
ATOM      3  C3  UNL d   1      -2.024  -0.012   1.622  0.00  0.00     0.033 A 
ATOM      4  C4  UNL d   1      -1.491  -0.306   2.873  0.00  0.00    -0.042 A 
ATOM      5  C5  UNL d   1      -0.113  -0.424   3.018  0.00  0.00     0.033 A 
ATOM      6  C6  UNL d   1       0.724  -0.246   1.912  0.00  0.00    -0.057 A 
ENDROOT
BRANCH   1   7
ATOM      7  N   UNL d   1       1.094   0.132  -0.434  0.00  0.00    -0.732 N 
ATOM      8  C   UNL d   1       0.679  -0.290  -1.754  0.00  0.00     0.284 C 
ATOM      9  H3  UNL d   1       1.656   0.980  -0.426  0.00  0.00     0.395 HD
ENDBRANCH   1   7
TORSDOF 1
ENDMDL
