MODEL 1
REMARK minimizedAffinity -3.74667048
REMARK minimizedRMSD -1
REMARK  1 active torsions:
REMARK  status: ('A' for Active; 'I' for Inactive)
REMARK    1  A    between atoms: N_2  and  C1_3 
ROOT
ATOM      1  C1  UNL d   1      -0.062   0.115   1.230  0.00  0.00     0.143 A 
ATOM      2  C2  UNL d   1      -0.025  -0.018   2.622  0.00  0.00    -0.057 A 
ATOM      3  C3  UNL d   1      -1.200  -0.013   3.384  0.00  0.00     0.033 A 
ATOM      4  C4  UNL d   1      -2.435   0.154   2.766  0.00  0.00    -0.042 A 
ATOM      5  C5  UNL d   1      -2.494   0.313   1.387  0.00  0.00     0.033 A 
ATOM      6  C6  UNL d   1      -1.318   0.301   0.631  0.00  0.00    -0.057 A 
ENDROOT
BRANCH   1   7
ATOM      7  N   UNL d   1       1.077   0.217   0.428  0.00  0.00    -0.732 N 
ATOM      8  C   UNL d   1       0.983   0.066  -1.009  0.00  0.00     0.284 C 
ATOM      9  H3  UNL d   1       1.697   0.966   0.727  0.00  0.00     0.395 HD
ENDBRANCH   1   7
TORSDOF 1
ENDMDL
