MODEL 1
REMARK minimizedAffinity -3.97830009
REMARK minimizedRMSD -1
REMARK  1 active torsions:
REMARK  status: ('A' for Active; 'I' for Inactive)
REMARK    1  A    between atoms: N_2  and  C1_3 
ROOT
ATOM      1  C1  UNL d   1       0.418   0.048  -0.655  0.00  0.00     0.143 A 
ATOM      2  C2  UNL d   1      -0.743  -0.406  -0.022  0.00  0.00    -0.057 A 
ATOM      3  C3  UNL d   1      -0.841  -0.446   1.375  0.00  0.00     0.033 A 
ATOM      4  C4  UNL d   1       0.236  -0.058   2.164  0.00  0.00    -0.042 A 
ATOM      5  C5  UNL d   1       1.410   0.373   1.556  0.00  0.00     0.033 A 
ATOM      6  C6  UNL d   1       1.499   0.417   0.162  0.00  0.00    -0.057 A 
ENDROOT
BRANCH   1   7
ATOM      7  N   UNL d   1       0.612   0.018  -2.038  0.00  0.00    -0.732 N 
ATOM      8  C   UNL d   1       0.202  -1.131  -2.816  0.00  0.00     0.284 C 
ATOM      9  H3  UNL d   1       0.408   0.912  -2.478  0.00  0.00     0.395 HD
ENDBRANCH   1   7
TORSDOF 1
ENDMDL
