MODEL 1
REMARK minimizedAffinity -5.13688517
REMARK minimizedRMSD -1
REMARK  1 active torsions:
REMARK  status: ('A' for Active; 'I' for Inactive)
REMARK    1  A    between atoms: N_2  and  C1_3 
ROOT
ATOM      1  C1  UNL d   1      -0.399   0.111   1.225  0.00  0.00     0.143 A 
ATOM      2  C2  UNL d   1      -0.042  -0.253   2.527  0.00  0.00    -0.057 A 
ATOM      3  C3  UNL d   1      -1.011  -0.443   3.520  0.00  0.00     0.033 A 
ATOM      4  C4  UNL d   1      -2.357  -0.243   3.233  0.00  0.00    -0.042 A 
ATOM      5  C5  UNL d   1      -2.734   0.144   1.952  0.00  0.00     0.033 A 
ATOM      6  C6  UNL d   1      -1.762   0.326   0.963  0.00  0.00    -0.057 A 
ENDROOT
BRANCH   1   7
ATOM      7  N   UNL d   1       0.524   0.411   0.220  0.00  0.00    -0.732 N 
ATOM      8  C   UNL d   1       0.125   0.410  -1.171  0.00  0.00     0.284 C 
ATOM      9  H3  UNL d   1       1.140   1.179   0.475  0.00  0.00     0.395 HD
ENDBRANCH   1   7
TORSDOF 1
ENDMDL
