MODEL 1
REMARK minimizedAffinity -3.69748187
REMARK minimizedRMSD -1
REMARK  1 active torsions:
REMARK  status: ('A' for Active; 'I' for Inactive)
REMARK    1  A    between atoms: N_2  and  C1_3 
ROOT
ATOM      1  C1  UNL d   1      -0.411   0.539   0.207  0.00  0.00     0.143 A 
ATOM      2  C2  UNL d   1       0.429   0.210   1.276  0.00  0.00    -0.057 A 
ATOM      3  C3  UNL d   1      -0.067   0.086   2.579  0.00  0.00     0.033 A 
ATOM      4  C4  UNL d   1      -1.413   0.320   2.842  0.00  0.00    -0.042 A 
ATOM      5  C5  UNL d   1      -2.262   0.674   1.799  0.00  0.00     0.033 A 
ATOM      6  C6  UNL d   1      -1.761   0.789   0.499  0.00  0.00    -0.057 A 
ENDROOT
BRANCH   1   7
ATOM      7  N   UNL d   1       0.041   0.773  -1.094  0.00  0.00    -0.732 N 
ATOM      8  C   UNL d   1       0.488  -0.322  -1.927  0.00  0.00     0.284 C 
ATOM      9  H3  UNL d   1      -0.525   1.464  -1.583  0.00  0.00     0.395 HD
ENDBRANCH   1   7
TORSDOF 1
ENDMDL
