MODEL 1
REMARK minimizedAffinity -2.59987831
REMARK minimizedRMSD -1
REMARK  1 active torsions:
REMARK  status: ('A' for Active; 'I' for Inactive)
REMARK    1  A    between atoms: N_2  and  C1_3 
ROOT
ATOM      1  C1  UNL d   1       0.401   0.048  -1.495  0.00  0.00     0.143 A 
ATOM      2  C2  UNL d   1       1.312   0.578  -2.416  0.00  0.00    -0.057 A 
ATOM      3  C3  UNL d   1       1.850  -0.210  -3.441  0.00  0.00     0.033 A 
ATOM      4  C4  UNL d   1       1.508  -1.554  -3.545  0.00  0.00    -0.042 A 
ATOM      5  C5  UNL d   1       0.624  -2.108  -2.626  0.00  0.00     0.033 A 
ATOM      6  C6  UNL d   1       0.085  -1.315  -1.609  0.00  0.00    -0.057 A 
ENDROOT
BRANCH   1   7
ATOM      7  N   UNL d   1      -0.093   0.754  -0.396  0.00  0.00    -0.732 N 
ATOM      8  C   UNL d   1       0.281   0.378   0.950  0.00  0.00     0.284 C 
ATOM      9  H3  UNL d   1      -0.113   1.759  -0.556  0.00  0.00     0.395 HD
ENDBRANCH   1   7
TORSDOF 1
ENDMDL
