MODEL 1
REMARK minimizedAffinity -3.86983991
REMARK minimizedRMSD -1
REMARK  1 active torsions:
REMARK  status: ('A' for Active; 'I' for Inactive)
REMARK    1  A    between atoms: N_2  and  C1_3 
ROOT
ATOM      1  C1  UNL d   1      -0.284   0.226   1.099  0.00  0.00     0.143 A 
ATOM      2  C2  UNL d   1      -0.228   0.332   2.493  0.00  0.00    -0.057 A 
ATOM      3  C3  UNL d   1      -1.392   0.461   3.259  0.00  0.00     0.033 A 
ATOM      4  C4  UNL d   1      -2.637   0.516   2.640  0.00  0.00    -0.042 A 
ATOM      5  C5  UNL d   1      -2.715   0.438   1.254  0.00  0.00     0.033 A 
ATOM      6  C6  UNL d   1      -1.549   0.302   0.495  0.00  0.00    -0.057 A 
ENDROOT
BRANCH   1   7
ATOM      7  N   UNL d   1       0.844   0.195   0.275  0.00  0.00    -0.732 N 
ATOM      8  C   UNL d   1       0.704   0.156  -1.165  0.00  0.00     0.284 C 
ATOM      9  H3  UNL d   1       1.583   0.811   0.604  0.00  0.00     0.395 HD
ENDBRANCH   1   7
TORSDOF 1
ENDMDL
