MODEL 1
REMARK minimizedAffinity -2.46252632
REMARK minimizedRMSD -1
REMARK  1 active torsions:
REMARK  status: ('A' for Active; 'I' for Inactive)
REMARK    1  A    between atoms: N_2  and  C1_3 
ROOT
ATOM      1  C1  UNL d   1       0.658   0.079  -1.045  0.00  0.00     0.143 A 
ATOM      2  C2  UNL d   1       1.531  -0.158   0.023  0.00  0.00    -0.057 A 
ATOM      3  C3  UNL d   1       1.096  -0.064   1.351  0.00  0.00     0.033 A 
ATOM      4  C4  UNL d   1      -0.216   0.300   1.635  0.00  0.00    -0.042 A 
ATOM      5  C5  UNL d   1      -1.094   0.565   0.590  0.00  0.00     0.033 A 
ATOM      6  C6  UNL d   1      -0.656   0.463  -0.733  0.00  0.00    -0.057 A 
ENDROOT
BRANCH   1   7
ATOM      7  N   UNL d   1       1.055   0.098  -2.384  0.00  0.00    -0.732 N 
ATOM      8  C   UNL d   1       0.798  -1.037  -3.244  0.00  0.00     0.284 C 
ATOM      9  H3  UNL d   1       0.890   1.000  -2.825  0.00  0.00     0.395 HD
ENDBRANCH   1   7
TORSDOF 1
ENDMDL
