MODEL 1
REMARK minimizedAffinity -5.79531002
REMARK minimizedRMSD -1
REMARK  1 active torsions:
REMARK  status: ('A' for Active; 'I' for Inactive)
REMARK    1  A    between atoms: N_2  and  C1_3 
ROOT
ATOM      1  C1  UNL d   1      -1.263   0.120   1.056  0.00  0.00     0.143 A 
ATOM      2  C2  UNL d   1      -0.608  -0.381   2.187  0.00  0.00    -0.057 A 
ATOM      3  C3  UNL d   1      -1.310  -0.678   3.361  0.00  0.00     0.033 A 
ATOM      4  C4  UNL d   1      -2.681  -0.451   3.435  0.00  0.00    -0.042 A 
ATOM      5  C5  UNL d   1      -3.349   0.069   2.332  0.00  0.00     0.033 A 
ATOM      6  C6  UNL d   1      -2.643   0.358   1.160  0.00  0.00    -0.057 A 
ENDROOT
BRANCH   1   7
ATOM      7  N   UNL d   1      -0.606   0.528  -0.107  0.00  0.00    -0.732 N 
ATOM      8  C   UNL d   1       0.778   0.949  -0.063  0.00  0.00     0.284 C 
ATOM      9  H3  UNL d   1      -0.838  -0.054  -0.908  0.00  0.00     0.395 HD
ENDBRANCH   1   7
TORSDOF 1
ENDMDL
