MODEL 1
REMARK minimizedAffinity -5.85969305
REMARK minimizedRMSD -1
REMARK  1 active torsions:
REMARK  status: ('A' for Active; 'I' for Inactive)
REMARK    1  A    between atoms: N_2  and  C1_3 
ROOT
ATOM      1  C1  UNL d   1      -1.481  -0.060   1.094  0.00  0.00     0.143 A 
ATOM      2  C2  UNL d   1      -0.756  -0.691   2.110  0.00  0.00    -0.057 A 
ATOM      3  C3  UNL d   1      -1.304  -0.879   3.385  0.00  0.00     0.033 A 
ATOM      4  C4  UNL d   1      -2.581  -0.410   3.675  0.00  0.00    -0.042 A 
ATOM      5  C5  UNL d   1      -3.310   0.243   2.688  0.00  0.00     0.033 A 
ATOM      6  C6  UNL d   1      -2.760   0.421   1.415  0.00  0.00    -0.057 A 
ENDROOT
BRANCH   1   7
ATOM      7  N   UNL d   1      -0.955   0.244  -0.164  0.00  0.00    -0.732 N 
ATOM      8  C   UNL d   1       0.378  -0.185  -0.529  0.00  0.00     0.284 C 
ATOM      9  H3  UNL d   1      -1.642   0.142  -0.907  0.00  0.00     0.395 HD
ENDBRANCH   1   7
TORSDOF 1
ENDMDL
