MODEL 1
REMARK minimizedAffinity -3.70403099
REMARK minimizedRMSD -1
REMARK  0 active torsions:
REMARK  status: ('A' for Active; 'I' for Inactive)
ROOT
ATOM      1  C   UNL d   1       1.099  -1.838  -0.284  0.00  0.00    -0.002 A 
ATOM      2  C1  UNL d   1      -0.131  -1.253  -0.549  0.00  0.00     0.010 A 
ATOM      3  C2  UNL d   1      -0.340   0.105  -0.299  0.00  0.00     0.041 A 
ATOM      4  C3  UNL d   1       0.719   0.873   0.225  0.00  0.00    -0.075 A 
ATOM      5  S   UNL d   1       0.694   2.553   0.609  0.00  0.00     0.015 SA
ATOM      6  C4  UNL d   1       2.316   2.534   1.132  0.00  0.00     0.022 A 
ATOM      7  C5  UNL d   1       2.878   1.284   1.024  0.00  0.00     0.026 A 
ATOM      8  C6  UNL d   1       1.967   0.306   0.499  0.00  0.00    -0.082 A 
ATOM      9  C7  UNL d   1       2.147  -1.073   0.235  0.00  0.00     0.045 A 
ENDROOT
TORSDOF 0
ENDMDL
