MODEL 1
REMARK minimizedAffinity 1.81449223
REMARK minimizedRMSD -1
REMARK  0 active torsions:
REMARK  status: ('A' for Active; 'I' for Inactive)
ROOT
ATOM      1  C   UNL d   1       3.406  -1.297   1.145  0.00  0.00    -0.002 A 
ATOM      2  C1  UNL d   1       2.655  -1.525   0.000  0.00  0.00     0.010 A 
ATOM      3  C2  UNL d   1       1.671  -0.617  -0.396  0.00  0.00     0.041 A 
ATOM      4  C3  UNL d   1       1.455   0.537   0.383  0.00  0.00    -0.075 A 
ATOM      5  S   UNL d   1       0.305   1.788   0.090  0.00  0.00     0.015 SA
ATOM      6  C4  UNL d   1       0.785   2.655   1.477  0.00  0.00     0.022 A 
ATOM      7  C5  UNL d   1       1.796   2.020   2.159  0.00  0.00     0.026 A 
ATOM      8  C6  UNL d   1       2.199   0.789   1.539  0.00  0.00    -0.082 A 
ATOM      9  C7  UNL d   1       3.188  -0.152   1.915  0.00  0.00     0.045 A 
ENDROOT
TORSDOF 0
ENDMDL
