MODEL 1
REMARK minimizedAffinity -1.1513139
REMARK minimizedRMSD -1
REMARK  0 active torsions:
REMARK  status: ('A' for Active; 'I' for Inactive)
ROOT
ATOM      1  C   UNL d   1       0.375  -1.748  -0.964  0.00  0.00    -0.002 A 
ATOM      2  C1  UNL d   1      -0.730  -0.989  -1.324  0.00  0.00     0.010 A 
ATOM      3  C2  UNL d   1      -0.898   0.304  -0.824  0.00  0.00     0.041 A 
ATOM      4  C3  UNL d   1       0.074   0.827   0.052  0.00  0.00    -0.075 A 
ATOM      5  S   UNL d   1       0.078   2.386   0.787  0.00  0.00     0.015 SA
ATOM      6  C4  UNL d   1       1.547   2.083   1.597  0.00  0.00     0.022 A 
ATOM      7  C5  UNL d   1       2.036   0.827   1.324  0.00  0.00     0.026 A 
ATOM      8  C6  UNL d   1       1.196   0.083   0.428  0.00  0.00    -0.082 A 
ATOM      9  C7  UNL d   1       1.337  -1.225  -0.095  0.00  0.00     0.045 A 
ENDROOT
TORSDOF 0
ENDMDL
