MODEL 1
REMARK minimizedAffinity 4.16648245
REMARK minimizedRMSD -1
REMARK  0 active torsions:
REMARK  status: ('A' for Active; 'I' for Inactive)
ROOT
ATOM      1  C   UNL d   1      -0.157  -2.243  -1.134  0.00  0.00    -0.002 A 
ATOM      2  C1  UNL d   1       1.167  -2.449  -0.771  0.00  0.00     0.010 A 
ATOM      3  C2  UNL d   1       1.943  -1.394  -0.287  0.00  0.00     0.041 A 
ATOM      4  C3  UNL d   1       1.360  -0.117  -0.170  0.00  0.00    -0.075 A 
ATOM      5  S   UNL d   1       2.118   1.323   0.399  0.00  0.00     0.015 SA
ATOM      6  C4  UNL d   1       0.703   2.246   0.175  0.00  0.00     0.022 A 
ATOM      7  C5  UNL d   1      -0.332   1.490  -0.322  0.00  0.00     0.026 A 
ATOM      8  C6  UNL d   1       0.029   0.115  -0.528  0.00  0.00    -0.082 A 
ATOM      9  C7  UNL d   1      -0.731  -0.974  -1.017  0.00  0.00     0.045 A 
ENDROOT
TORSDOF 0
ENDMDL
