MODEL 1
REMARK minimizedAffinity -1.34655797
REMARK minimizedRMSD -1
REMARK  0 active torsions:
REMARK  status: ('A' for Active; 'I' for Inactive)
ROOT
ATOM      1  C   UNL d   1       3.807  -2.131  -1.854  0.00  0.00    -0.002 A 
ATOM      2  C1  UNL d   1       2.718  -2.689  -1.200  0.00  0.00     0.010 A 
ATOM      3  C2  UNL d   1       2.015  -1.957  -0.241  0.00  0.00     0.041 A 
ATOM      4  C3  UNL d   1       2.428  -0.642   0.051  0.00  0.00    -0.075 A 
ATOM      5  S   UNL d   1       1.717   0.443   1.187  0.00  0.00     0.015 SA
ATOM      6  C4  UNL d   1       2.843   1.672   0.830  0.00  0.00     0.022 A 
ATOM      7  C5  UNL d   1       3.746   1.281  -0.130  0.00  0.00     0.026 A 
ATOM      8  C6  UNL d   1       3.521  -0.059  -0.596  0.00  0.00    -0.082 A 
ATOM      9  C7  UNL d   1       4.214  -0.827  -1.562  0.00  0.00     0.045 A 
ENDROOT
TORSDOF 0
ENDMDL
