MODEL 1
REMARK minimizedAffinity -1.37682593
REMARK minimizedRMSD -1
REMARK  0 active torsions:
REMARK  status: ('A' for Active; 'I' for Inactive)
ROOT
ATOM      1  C   UNL d   1       3.145  -2.169  -1.993  0.00  0.00    -0.002 A 
ATOM      2  C1  UNL d   1       1.960  -2.590  -1.406  0.00  0.00     0.010 A 
ATOM      3  C2  UNL d   1       1.324  -1.801  -0.445  0.00  0.00     0.041 A 
ATOM      4  C3  UNL d   1       1.902  -0.569  -0.083  0.00  0.00    -0.075 A 
ATOM      5  S   UNL d   1       1.300   0.563   1.069  0.00  0.00     0.015 SA
ATOM      6  C4  UNL d   1       2.601   1.633   0.809  0.00  0.00     0.022 A 
ATOM      7  C5  UNL d   1       3.483   1.154  -0.131  0.00  0.00     0.026 A 
ATOM      8  C6  UNL d   1       3.094  -0.123  -0.661  0.00  0.00    -0.082 A 
ATOM      9  C7  UNL d   1       3.716  -0.946  -1.631  0.00  0.00     0.045 A 
ENDROOT
TORSDOF 0
ENDMDL
