MODEL 1
REMARK minimizedAffinity 5.85583496
REMARK minimizedRMSD -1
REMARK  0 active torsions:
REMARK  status: ('A' for Active; 'I' for Inactive)
ROOT
ATOM      1  C   UNL d   1       3.681   1.856  -0.086  0.00  0.00    -0.002 A 
ATOM      2  C1  UNL d   1       2.555   1.963   0.717  0.00  0.00     0.010 A 
ATOM      3  C2  UNL d   1       1.621   0.927   0.773  0.00  0.00     0.041 A 
ATOM      4  C3  UNL d   1       1.841  -0.232   0.002  0.00  0.00    -0.075 A 
ATOM      5  S   UNL d   1       0.835  -1.628  -0.086  0.00  0.00     0.015 SA
ATOM      6  C4  UNL d   1       1.876  -2.401  -1.192  0.00  0.00     0.022 A 
ATOM      7  C5  UNL d   1       2.971  -1.626  -1.497  0.00  0.00     0.026 A 
ATOM      8  C6  UNL d   1       2.969  -0.364  -0.813  0.00  0.00    -0.082 A 
ATOM      9  C7  UNL d   1       3.896   0.705  -0.849  0.00  0.00     0.045 A 
ENDROOT
TORSDOF 0
ENDMDL
