MODEL 1
REMARK minimizedAffinity 8.06881809
REMARK minimizedRMSD -1
REMARK  0 active torsions:
REMARK  status: ('A' for Active; 'I' for Inactive)
ROOT
ATOM      1  C   UNL d   1      -0.359  -3.058  -1.401  0.00  0.00    -0.002 A 
ATOM      2  C1  UNL d   1       0.941  -3.277  -0.968  0.00  0.00     0.010 A 
ATOM      3  C2  UNL d   1       1.739  -2.211  -0.549  0.00  0.00     0.041 A 
ATOM      4  C3  UNL d   1       1.203  -0.908  -0.571  0.00  0.00    -0.075 A 
ATOM      5  S   UNL d   1       1.994   0.550  -0.103  0.00  0.00     0.015 SA
ATOM      6  C4  UNL d   1       0.625   1.498  -0.467  0.00  0.00     0.022 A 
ATOM      7  C5  UNL d   1      -0.419   0.737  -0.935  0.00  0.00     0.026 A 
ATOM      8  C6  UNL d   1      -0.104  -0.663  -1.003  0.00  0.00    -0.082 A 
ATOM      9  C7  UNL d   1      -0.887  -1.765  -1.422  0.00  0.00     0.045 A 
ENDROOT
TORSDOF 0
ENDMDL
