MODEL 1
REMARK minimizedAffinity 4.78167868
REMARK minimizedRMSD -1
REMARK  0 active torsions:
REMARK  status: ('A' for Active; 'I' for Inactive)
ROOT
ATOM      1  C   UNL d   1      -3.484   1.679   2.234  0.00  0.00    -0.002 A 
ATOM      2  C1  UNL d   1      -4.098   1.148   1.109  0.00  0.00     0.010 A 
ATOM      3  C2  UNL d   1      -3.377   0.963  -0.073  0.00  0.00     0.041 A 
ATOM      4  C3  UNL d   1      -2.016   1.323  -0.104  0.00  0.00    -0.075 A 
ATOM      5  S   UNL d   1      -0.935   1.186  -1.441  0.00  0.00     0.015 SA
ATOM      6  C4  UNL d   1       0.368   1.828  -0.549  0.00  0.00     0.022 A 
ATOM      7  C5  UNL d   1       0.005   2.145   0.739  0.00  0.00     0.026 A 
ATOM      8  C6  UNL d   1      -1.375   1.859   1.016  0.00  0.00    -0.082 A 
ATOM      9  C7  UNL d   1      -2.133   2.035   2.199  0.00  0.00     0.045 A 
ENDROOT
TORSDOF 0
ENDMDL
