MODEL 1
REMARK minimizedAffinity 2.60087967
REMARK minimizedRMSD -1
REMARK  0 active torsions:
REMARK  status: ('A' for Active; 'I' for Inactive)
ROOT
ATOM      1  C   UNL d   1      -0.886  -2.133  -1.524  0.00  0.00    -0.002 A 
ATOM      2  C1  UNL d   1      -0.382  -1.409  -0.453  0.00  0.00     0.010 A 
ATOM      3  C2  UNL d   1       0.995  -1.292  -0.259  0.00  0.00     0.041 A 
ATOM      4  C3  UNL d   1       1.867  -1.921  -1.170  0.00  0.00    -0.075 A 
ATOM      5  S   UNL d   1       3.591  -1.914  -1.132  0.00  0.00     0.015 SA
ATOM      6  C4  UNL d   1       3.700  -2.872  -2.538  0.00  0.00     0.022 A 
ATOM      7  C5  UNL d   1       2.461  -3.199  -3.036  0.00  0.00     0.026 A 
ATOM      8  C6  UNL d   1       1.384  -2.656  -2.256  0.00  0.00    -0.082 A 
ATOM      9  C7  UNL d   1      -0.018  -2.756  -2.425  0.00  0.00     0.045 A 
ENDROOT
TORSDOF 0
ENDMDL
