MODEL 1
REMARK minimizedAffinity -0.0606381893
REMARK minimizedRMSD -1
REMARK  0 active torsions:
REMARK  status: ('A' for Active; 'I' for Inactive)
ROOT
ATOM      1  C   UNL d   1       0.099   1.245  -0.361  0.00  0.00    -0.002 A 
ATOM      2  C1  UNL d   1      -0.340   0.114  -1.035  0.00  0.00     0.010 A 
ATOM      3  C2  UNL d   1       0.567  -0.864  -1.448  0.00  0.00     0.041 A 
ATOM      4  C3  UNL d   1       1.936  -0.686  -1.167  0.00  0.00    -0.075 A 
ATOM      5  S   UNL d   1       3.228  -1.752  -1.575  0.00  0.00     0.015 SA
ATOM      6  C4  UNL d   1       4.393  -0.732  -0.864  0.00  0.00     0.022 A 
ATOM      7  C5  UNL d   1       3.828   0.399  -0.323  0.00  0.00     0.026 A 
ATOM      8  C6  UNL d   1       2.402   0.444  -0.489  0.00  0.00    -0.082 A 
ATOM      9  C7  UNL d   1       1.458   1.418  -0.084  0.00  0.00     0.045 A 
ENDROOT
TORSDOF 0
ENDMDL
