MODEL 1
REMARK minimizedAffinity -4.33534956
REMARK minimizedRMSD -1
REMARK  0 active torsions:
REMARK  status: ('A' for Active; 'I' for Inactive)
ROOT
ATOM      1  C   UNL d   1      -0.328   1.965   3.100  0.00  0.00     0.077 C 
ATOM      2  C1  UNL d   1      -0.399   0.955   1.993  0.00  0.00    -0.074 A 
ATOM      3  C2  UNL d   1       0.764   0.376   1.474  0.00  0.00    -0.005 A 
ATOM      4  C3  UNL d   1       0.682  -0.569   0.451  0.00  0.00     0.006 A 
ATOM      5  C4  UNL d   1      -0.560  -0.943  -0.062  0.00  0.00    -0.005 A 
ATOM      6  C5  UNL d   1      -1.733  -0.375   0.445  0.00  0.00    -0.074 A 
ATOM      7  C6  UNL d   1      -3.077  -0.773  -0.089  0.00  0.00     0.077 C 
ATOM      8  C7  UNL d   1      -1.643   0.568   1.477  0.00  0.00    -0.001 A 
ENDROOT
TORSDOF 0
ENDMDL
