MODEL 1
REMARK minimizedAffinity 0.46808368
REMARK minimizedRMSD -1
REMARK  0 active torsions:
REMARK  status: ('A' for Active; 'I' for Inactive)
ROOT
ATOM      1  C   UNL d   1      -0.839  -0.712  -0.062  0.00  0.00     0.077 C 
ATOM      2  C1  UNL d   1       0.505  -0.076  -0.263  0.00  0.00    -0.074 A 
ATOM      3  C2  UNL d   1       1.410   0.041   0.796  0.00  0.00    -0.005 A 
ATOM      4  C3  UNL d   1       2.660   0.626   0.591  0.00  0.00     0.006 A 
ATOM      5  C4  UNL d   1       3.016   1.099  -0.672  0.00  0.00    -0.005 A 
ATOM      6  C5  UNL d   1       2.124   0.990  -1.743  0.00  0.00    -0.074 A 
ATOM      7  C6  UNL d   1       2.494   1.484  -3.110  0.00  0.00     0.077 C 
ATOM      8  C7  UNL d   1       0.873   0.394  -1.531  0.00  0.00    -0.001 A 
ENDROOT
TORSDOF 0
ENDMDL
