MODEL 1
REMARK minimizedAffinity -5.12524128
REMARK minimizedRMSD -1
REMARK  0 active torsions:
REMARK  status: ('A' for Active; 'I' for Inactive)
ROOT
ATOM      1  C   UNL d   1      -0.601   1.810   3.075  0.00  0.00     0.077 C 
ATOM      2  C1  UNL d   1      -0.565   0.874   1.904  0.00  0.00    -0.074 A 
ATOM      3  C2  UNL d   1       0.652   0.455   1.356  0.00  0.00    -0.005 A 
ATOM      4  C3  UNL d   1       0.670  -0.423   0.273  0.00  0.00     0.006 A 
ATOM      5  C4  UNL d   1      -0.527  -0.892  -0.272  0.00  0.00    -0.005 A 
ATOM      6  C5  UNL d   1      -1.753  -0.485   0.264  0.00  0.00    -0.074 A 
ATOM      7  C6  UNL d   1      -3.047  -0.986  -0.303  0.00  0.00     0.077 C 
ATOM      8  C7  UNL d   1      -1.762   0.393   1.356  0.00  0.00    -0.001 A 
ENDROOT
TORSDOF 0
ENDMDL
