MODEL 1
REMARK minimizedAffinity -3.05746031
REMARK minimizedRMSD -1
REMARK  0 active torsions:
REMARK  status: ('A' for Active; 'I' for Inactive)
ROOT
ATOM      1  C   UNL d   1       0.828   1.048  -2.452  0.00  0.00     0.077 C 
ATOM      2  C1  UNL d   1       1.256   0.392  -1.173  0.00  0.00    -0.074 A 
ATOM      3  C2  UNL d   1       2.026  -0.775  -1.187  0.00  0.00    -0.005 A 
ATOM      4  C3  UNL d   1       2.425  -1.369   0.011  0.00  0.00     0.006 A 
ATOM      5  C4  UNL d   1       2.058  -0.802   1.232  0.00  0.00    -0.005 A 
ATOM      6  C5  UNL d   1       1.289   0.365   1.266  0.00  0.00    -0.074 A 
ATOM      7  C6  UNL d   1       0.894   0.992   2.570  0.00  0.00     0.077 C 
ATOM      8  C7  UNL d   1       0.898   0.959   0.058  0.00  0.00    -0.001 A 
ENDROOT
TORSDOF 0
ENDMDL
