MODEL 1
REMARK minimizedAffinity 0.382955641
REMARK minimizedRMSD -1
REMARK  0 active torsions:
REMARK  status: ('A' for Active; 'I' for Inactive)
ROOT
ATOM      1  C   UNL d   1       0.010   0.940  -2.431  0.00  0.00     0.077 C 
ATOM      2  C1  UNL d   1       0.406   0.472  -1.062  0.00  0.00    -0.074 A 
ATOM      3  C2  UNL d   1       1.206  -0.662  -0.893  0.00  0.00    -0.005 A 
ATOM      4  C3  UNL d   1       1.574  -1.080   0.386  0.00  0.00     0.006 A 
ATOM      5  C4  UNL d   1       1.147  -0.368   1.507  0.00  0.00    -0.005 A 
ATOM      6  C5  UNL d   1       0.347   0.770   1.358  0.00  0.00    -0.074 A 
ATOM      7  C6  UNL d   1      -0.113   1.552   2.552  0.00  0.00     0.077 C 
ATOM      8  C7  UNL d   1      -0.013   1.187   0.069  0.00  0.00    -0.001 A 
ENDROOT
TORSDOF 0
ENDMDL
