MODEL 1
REMARK minimizedAffinity 4.13251019
REMARK minimizedRMSD -1
REMARK  0 active torsions:
REMARK  status: ('A' for Active; 'I' for Inactive)
ROOT
ATOM      1  C   UNL d   1       1.075  -1.283  -3.208  0.00  0.00     0.023 A 
ATOM      2  C1  UNL d   1      -0.042  -1.451  -4.026  0.00  0.00     0.003 A 
ATOM      3  C2  UNL d   1      -1.325  -1.277  -3.503  0.00  0.00     0.048 A 
ATOM      4  C3  UNL d   1      -1.484  -0.935  -2.161  0.00  0.00     0.023 A 
ATOM      5  C4  UNL d   1      -0.369  -0.765  -1.338  0.00  0.00     0.048 A 
ATOM      6  C5  UNL d   1       0.912  -0.940  -1.865  0.00  0.00     0.003 A 
ATOM      7  I   UNL d   1      -3.392  -0.675  -1.380  0.00  0.00    -0.146 I 
ENDROOT
TORSDOF 0
ENDMDL
