MODEL 1
REMARK minimizedAffinity 14.1774044
REMARK minimizedRMSD -1
REMARK  0 active torsions:
REMARK  status: ('A' for Active; 'I' for Inactive)
ROOT
ATOM      1  C   UNL d   1      -3.475   0.514  -1.144  0.00  0.00     0.023 A 
ATOM      2  C1  UNL d   1      -3.362  -0.830  -1.503  0.00  0.00     0.003 A 
ATOM      3  C2  UNL d   1      -2.101  -1.399  -1.693  0.00  0.00     0.048 A 
ATOM      4  C3  UNL d   1      -0.958  -0.620  -1.521  0.00  0.00     0.023 A 
ATOM      5  C4  UNL d   1      -1.066   0.724  -1.162  0.00  0.00     0.048 A 
ATOM      6  C5  UNL d   1      -2.328   1.289  -0.974  0.00  0.00     0.003 A 
ATOM      7  I   UNL d   1       0.920  -1.466  -1.803  0.00  0.00    -0.146 I 
ENDROOT
TORSDOF 0
ENDMDL
