MODEL 1
REMARK minimizedAffinity 7.82819891
REMARK minimizedRMSD -1
REMARK  0 active torsions:
REMARK  status: ('A' for Active; 'I' for Inactive)
ROOT
ATOM      1  C   UNL d   1      -0.781   1.397   2.069  0.00  0.00     0.023 A 
ATOM      2  C1  UNL d   1      -1.525   2.274   1.279  0.00  0.00     0.003 A 
ATOM      3  C2  UNL d   1      -0.882   3.095   0.350  0.00  0.00     0.048 A 
ATOM      4  C3  UNL d   1       0.504   3.034   0.216  0.00  0.00     0.023 A 
ATOM      5  C4  UNL d   1       1.253   2.158   1.004  0.00  0.00     0.048 A 
ATOM      6  C5  UNL d   1       0.606   1.339   1.932  0.00  0.00     0.003 A 
ATOM      7  I   UNL d   1       1.463   4.256  -1.165  0.00  0.00    -0.146 I 
ENDROOT
TORSDOF 0
ENDMDL
