MODEL 1
REMARK minimizedAffinity 5.92111349
REMARK minimizedRMSD -1
REMARK  0 active torsions:
REMARK  status: ('A' for Active; 'I' for Inactive)
ROOT
ATOM      1  N1  IND d   1      -1.129  -1.128  -2.832  0.00  0.00    -0.196 N 
ATOM      2  C2  IND d   1      -1.647  -1.603  -1.659  0.00  0.00     0.054 A 
ATOM      3  C3  IND d   1      -2.410  -2.695  -1.890  0.00  0.00    -0.031 A 
ATOM      4  C4  IND d   1      -2.865  -3.935  -4.100  0.00  0.00     0.051 A 
ATOM      5  C5  IND d   1      -2.639  -3.856  -5.446  0.00  0.00    -0.031 A 
ATOM      6  C6  IND d   1      -1.881  -2.845  -6.000  0.00  0.00     0.015 A 
ATOM      7  C7  IND d   1      -1.308  -1.877  -5.224  0.00  0.00    -0.016 A 
ATOM      8  C8  IND d   1      -1.541  -1.950  -3.858  0.00  0.00    -0.047 A 
ATOM      9  C9  IND d   1      -2.345  -2.949  -3.294  0.00  0.00    -0.096 A 
ATOM     10  HN1 IND d   1      -0.630  -0.433  -2.915  0.00  0.00     0.298 HD
ENDROOT
TORSDOF 0
ENDMDL
