MODEL 1
REMARK minimizedAffinity 3.99616265
REMARK minimizedRMSD -1
REMARK  0 active torsions:
REMARK  status: ('A' for Active; 'I' for Inactive)
ROOT
ATOM      1  N1  IND d   1       3.103   1.976  -5.984  0.00  0.00    -0.196 N 
ATOM      2  C2  IND d   1       1.736   2.003  -5.952  0.00  0.00     0.054 A 
ATOM      3  C3  IND d   1       1.292   3.280  -5.912  0.00  0.00    -0.031 A 
ATOM      4  C4  IND d   1       2.627   5.479  -5.991  0.00  0.00     0.051 A 
ATOM      5  C5  IND d   1       3.905   5.965  -5.986  0.00  0.00    -0.031 A 
ATOM      6  C6  IND d   1       5.002   5.128  -5.983  0.00  0.00     0.015 A 
ATOM      7  C7  IND d   1       4.863   3.769  -5.996  0.00  0.00    -0.016 A 
ATOM      8  C8  IND d   1       3.567   3.273  -5.994  0.00  0.00    -0.047 A 
ATOM      9  C9  IND d   1       2.449   4.116  -5.954  0.00  0.00    -0.096 A 
ATOM     10  HN1 IND d   1       3.590   1.268  -5.995  0.00  0.00     0.298 HD
ENDROOT
TORSDOF 0
ENDMDL
