MODEL 1
REMARK minimizedAffinity 11.8768034
REMARK minimizedRMSD -1
REMARK  0 active torsions:
REMARK  status: ('A' for Active; 'I' for Inactive)
ROOT
ATOM      1  N1  IND d   1      -1.083  -2.276   2.513  0.00  0.00    -0.196 N 
ATOM      2  C2  IND d   1      -2.164  -1.484   2.782  0.00  0.00     0.054 A 
ATOM      3  C3  IND d   1      -2.708  -1.026   1.633  0.00  0.00    -0.031 A 
ATOM      4  C4  IND d   1      -2.050  -1.532  -0.804  0.00  0.00     0.051 A 
ATOM      5  C5  IND d   1      -1.105  -2.174  -1.554  0.00  0.00    -0.031 A 
ATOM      6  C6  IND d   1      -0.084  -2.900  -0.974  0.00  0.00     0.015 A 
ATOM      7  C7  IND d   1       0.022  -3.020   0.383  0.00  0.00    -0.016 A 
ATOM      8  C8  IND d   1      -0.932  -2.364   1.147  0.00  0.00    -0.047 A 
ATOM      9  C9  IND d   1      -1.945  -1.591   0.565  0.00  0.00    -0.096 A 
ATOM     10  HN1 IND d   1      -0.581  -2.656   3.100  0.00  0.00     0.298 HD
ENDROOT
TORSDOF 0
ENDMDL
