MODEL 1
REMARK minimizedAffinity 11.7629194
REMARK minimizedRMSD -1
REMARK  0 active torsions:
REMARK  status: ('A' for Active; 'I' for Inactive)
ROOT
ATOM      1  N1  IND d   1      -1.974  -4.377  -2.394  0.00  0.00    -0.196 N 
ATOM      2  C2  IND d   1      -1.340  -3.454  -1.610  0.00  0.00     0.054 A 
ATOM      3  C3  IND d   1      -0.952  -2.393  -2.353  0.00  0.00    -0.031 A 
ATOM      4  C4  IND d   1      -1.344  -1.916  -4.852  0.00  0.00     0.051 A 
ATOM      5  C5  IND d   1      -1.844  -2.481  -5.991  0.00  0.00    -0.031 A 
ATOM      6  C6  IND d   1      -2.428  -3.732  -5.989  0.00  0.00     0.015 A 
ATOM      7  C7  IND d   1      -2.543  -4.462  -4.840  0.00  0.00    -0.016 A 
ATOM      8  C8  IND d   1      -2.030  -3.894  -3.682  0.00  0.00    -0.047 A 
ATOM      9  C9  IND d   1      -1.398  -2.643  -3.686  0.00  0.00    -0.096 A 
ATOM     10  HN1 IND d   1      -2.286  -5.133  -2.126  0.00  0.00     0.298 HD
ENDROOT
TORSDOF 0
ENDMDL
