MODEL 1
REMARK minimizedAffinity 6.6837554
REMARK minimizedRMSD -1
REMARK  0 active torsions:
REMARK  status: ('A' for Active; 'I' for Inactive)
ROOT
ATOM      1  N1  IND d   1      -0.349  -3.574   2.400  0.00  0.00    -0.196 N 
ATOM      2  C2  IND d   1      -1.406  -3.259   3.208  0.00  0.00     0.054 A 
ATOM      3  C3  IND d   1      -2.246  -2.411   2.574  0.00  0.00    -0.031 A 
ATOM      4  C4  IND d   1      -2.137  -1.491   0.173  0.00  0.00     0.051 A 
ATOM      5  C5  IND d   1      -1.339  -1.467  -0.936  0.00  0.00    -0.031 A 
ATOM      6  C6  IND d   1      -0.147  -2.160  -0.992  0.00  0.00     0.015 A 
ATOM      7  C7  IND d   1       0.287  -2.916   0.060  0.00  0.00    -0.016 A 
ATOM      8  C8  IND d   1      -0.517  -2.937   1.190  0.00  0.00    -0.047 A 
ATOM      9  C9  IND d   1      -1.707  -2.201   1.268  0.00  0.00    -0.096 A 
ATOM     10  HN1 IND d   1       0.310  -4.084   2.612  0.00  0.00     0.298 HD
ENDROOT
TORSDOF 0
ENDMDL
