MODEL 1
REMARK minimizedAffinity 0.35186553
REMARK minimizedRMSD -1
REMARK  0 active torsions:
REMARK  status: ('A' for Active; 'I' for Inactive)
ROOT
ATOM      1  N1  IND d   1       4.719   1.433  -6.000  0.00  0.00    -0.196 N 
ATOM      2  C2  IND d   1       5.601   0.410  -5.796  0.00  0.00     0.054 A 
ATOM      3  C3  IND d   1       5.997   0.381  -4.503  0.00  0.00    -0.031 A 
ATOM      4  C4  IND d   1       5.247   1.853  -2.530  0.00  0.00     0.051 A 
ATOM      5  C5  IND d   1       4.482   2.946  -2.231  0.00  0.00    -0.031 A 
ATOM      6  C6  IND d   1       3.741   3.602  -3.192  0.00  0.00     0.015 A 
ATOM      7  C7  IND d   1       3.727   3.181  -4.491  0.00  0.00    -0.016 A 
ATOM      8  C8  IND d   1       4.507   2.076  -4.800  0.00  0.00    -0.047 A 
ATOM      9  C9  IND d   1       5.295   1.432  -3.837  0.00  0.00    -0.096 A 
ATOM     10  HN1 IND d   1       4.357   1.641  -6.752  0.00  0.00     0.298 HD
ENDROOT
TORSDOF 0
ENDMDL
