MODEL 1
REMARK minimizedAffinity 3.23957276
REMARK minimizedRMSD -1
REMARK  0 active torsions:
REMARK  status: ('A' for Active; 'I' for Inactive)
ROOT
ATOM      1  N1  IND d   1       4.758   3.800  -5.954  0.00  0.00    -0.196 N 
ATOM      2  C2  IND d   1       5.453   4.966  -5.789  0.00  0.00     0.054 A 
ATOM      3  C3  IND d   1       4.601   6.000  -5.608  0.00  0.00    -0.031 A 
ATOM      4  C4  IND d   1       2.031   5.992  -5.446  0.00  0.00     0.051 A 
ATOM      5  C5  IND d   1       0.947   5.170  -5.571  0.00  0.00    -0.031 A 
ATOM      6  C6  IND d   1       1.080   3.822  -5.834  0.00  0.00     0.015 A 
ATOM      7  C7  IND d   1       2.309   3.241  -5.969  0.00  0.00    -0.016 A 
ATOM      8  C8  IND d   1       3.412   4.073  -5.850  0.00  0.00    -0.047 A 
ATOM      9  C9  IND d   1       3.282   5.450  -5.626  0.00  0.00    -0.096 A 
ATOM     10  HN1 IND d   1       5.104   3.026  -6.100  0.00  0.00     0.298 HD
ENDROOT
TORSDOF 0
ENDMDL
