MODEL 1
REMARK minimizedAffinity 8.75434113
REMARK minimizedRMSD -1
REMARK  0 active torsions:
REMARK  status: ('A' for Active; 'I' for Inactive)
ROOT
ATOM      1  N1  IND d   1       3.319   4.711  -2.209  0.00  0.00    -0.196 N 
ATOM      2  C2  IND d   1       3.355   3.379  -1.907  0.00  0.00     0.054 A 
ATOM      3  C3  IND d   1       2.884   2.649  -2.943  0.00  0.00    -0.031 A 
ATOM      4  C4  IND d   1       2.099   3.427  -5.268  0.00  0.00     0.051 A 
ATOM      5  C5  IND d   1       1.851   4.554  -6.000  0.00  0.00    -0.031 A 
ATOM      6  C6  IND d   1       2.087   5.817  -5.496  0.00  0.00     0.015 A 
ATOM      7  C7  IND d   1       2.593   6.000  -4.240  0.00  0.00    -0.016 A 
ATOM      8  C8  IND d   1       2.839   4.858  -3.492  0.00  0.00    -0.047 A 
ATOM      9  C9  IND d   1       2.562   3.575  -3.982  0.00  0.00    -0.096 A 
ATOM     10  HN1 IND d   1       3.557   5.351  -1.685  0.00  0.00     0.298 HD
ENDROOT
TORSDOF 0
ENDMDL
