MODEL 1
REMARK minimizedAffinity 11.6940889
REMARK minimizedRMSD -1
REMARK  0 active torsions:
REMARK  status: ('A' for Active; 'I' for Inactive)
ROOT
ATOM      1  N1  IND d   1      -2.983  -3.362  -2.304  0.00  0.00    -0.196 N 
ATOM      2  C2  IND d   1      -2.276  -2.453  -1.567  0.00  0.00     0.054 A 
ATOM      3  C3  IND d   1      -1.407  -1.782  -2.355  0.00  0.00    -0.031 A 
ATOM      4  C4  IND d   1      -1.049  -1.939  -4.900  0.00  0.00     0.051 A 
ATOM      5  C5  IND d   1      -1.436  -2.651  -6.000  0.00  0.00    -0.031 A 
ATOM      6  C6  IND d   1      -2.380  -3.655  -5.923  0.00  0.00     0.015 A 
ATOM      7  C7  IND d   1      -2.982  -3.978  -4.740  0.00  0.00    -0.016 A 
ATOM      8  C8  IND d   1      -2.586  -3.262  -3.620  0.00  0.00    -0.047 A 
ATOM      9  C9  IND d   1      -1.598  -2.271  -3.684  0.00  0.00    -0.096 A 
ATOM     10  HN1 IND d   1      -3.575  -3.904  -1.998  0.00  0.00     0.298 HD
ENDROOT
TORSDOF 0
ENDMDL
