MODEL 1
REMARK minimizedAffinity -2.84393048
REMARK minimizedRMSD -1
REMARK  0 active torsions:
REMARK  status: ('A' for Active; 'I' for Inactive)
ROOT
ATOM      1  N1  IND d   1       5.490   3.934  -5.996  0.00  0.00    -0.196 N 
ATOM      2  C2  IND d   1       5.951   5.184  -5.693  0.00  0.00     0.054 A 
ATOM      3  C3  IND d   1       4.926   5.991  -5.337  0.00  0.00    -0.031 A 
ATOM      4  C4  IND d   1       2.424   5.439  -5.083  0.00  0.00     0.051 A 
ATOM      5  C5  IND d   1       1.516   4.438  -5.284  0.00  0.00    -0.031 A 
ATOM      6  C6  IND d   1       1.894   3.191  -5.738  0.00  0.00     0.015 A 
ATOM      7  C7  IND d   1       3.202   2.895  -6.000  0.00  0.00    -0.016 A 
ATOM      8  C8  IND d   1       4.126   3.911  -5.804  0.00  0.00    -0.047 A 
ATOM      9  C9  IND d   1       3.742   5.191  -5.384  0.00  0.00    -0.096 A 
ATOM     10  HN1 IND d   1       5.971   3.272  -6.262  0.00  0.00     0.298 HD
ENDROOT
TORSDOF 0
ENDMDL
