MODEL 1
REMARK minimizedAffinity 11.1883879
REMARK minimizedRMSD -1
REMARK  0 active torsions:
REMARK  status: ('A' for Active; 'I' for Inactive)
ROOT
ATOM      1  N1  IND d   1      -1.355  -2.611   2.540  0.00  0.00    -0.196 N 
ATOM      2  C2  IND d   1      -2.339  -1.751   2.940  0.00  0.00     0.054 A 
ATOM      3  C3  IND d   1      -2.753  -0.992   1.900  0.00  0.00    -0.031 A 
ATOM      4  C4  IND d   1      -2.026  -1.064  -0.568  0.00  0.00     0.051 A 
ATOM      5  C5  IND d   1      -1.128  -1.660  -1.410  0.00  0.00    -0.031 A 
ATOM      6  C6  IND d   1      -0.245  -2.624  -0.969  0.00  0.00     0.015 A 
ATOM      7  C7  IND d   1      -0.233  -3.039   0.332  0.00  0.00    -0.016 A 
ATOM      8  C8  IND d   1      -1.138  -2.431   1.191  0.00  0.00    -0.047 A 
ATOM      9  C9  IND d   1      -2.008  -1.422   0.760  0.00  0.00    -0.096 A 
ATOM     10  HN1 IND d   1      -0.941  -3.170   3.045  0.00  0.00     0.298 HD
ENDROOT
TORSDOF 0
ENDMDL
