MODEL 1
REMARK minimizedAffinity -2.64602852
REMARK minimizedRMSD -1
REMARK  0 active torsions:
REMARK  status: ('A' for Active; 'I' for Inactive)
ROOT
ATOM      1  N1  IND d   1       2.562   1.844   1.004  0.00  0.00    -0.196 N 
ATOM      2  C2  IND d   1       3.066   2.938   0.357  0.00  0.00     0.054 A 
ATOM      3  C3  IND d   1       4.410   2.990   0.499  0.00  0.00    -0.031 A 
ATOM      4  C4  IND d   1       5.997   1.332   1.665  0.00  0.00     0.051 A 
ATOM      5  C5  IND d   1       6.000   0.200   2.430  0.00  0.00    -0.031 A 
ATOM      6  C6  IND d   1       4.833  -0.457   2.764  0.00  0.00     0.015 A 
ATOM      7  C7  IND d   1       3.616  -0.010   2.333  0.00  0.00    -0.016 A 
ATOM      8  C8  IND d   1       3.609   1.143   1.561  0.00  0.00    -0.047 A 
ATOM      9  C9  IND d   1       4.786   1.838   1.255  0.00  0.00    -0.096 A 
ATOM     10  HN1 IND d   1       1.731   1.630   1.055  0.00  0.00     0.298 HD
ENDROOT
TORSDOF 0
ENDMDL
