MODEL 1
REMARK minimizedAffinity -0.845800996
REMARK minimizedRMSD -1
REMARK  0 active torsions:
REMARK  status: ('A' for Active; 'I' for Inactive)
ROOT
ATOM      1  N1  IND d   1       1.116   3.744  -5.992  0.00  0.00    -0.196 N 
ATOM      2  C2  IND d   1       0.716   5.051  -5.968  0.00  0.00     0.054 A 
ATOM      3  C3  IND d   1       1.789   5.871  -5.929  0.00  0.00    -0.031 A 
ATOM      4  C4  IND d   1       4.296   5.289  -6.000  0.00  0.00     0.051 A 
ATOM      5  C5  IND d   1       5.156   4.227  -5.986  0.00  0.00    -0.031 A 
ATOM      6  C6  IND d   1       4.704   2.923  -5.977  0.00  0.00     0.015 A 
ATOM      7  C7  IND d   1       3.370   2.632  -5.992  0.00  0.00    -0.016 A 
ATOM      8  C8  IND d   1       2.493   3.708  -5.998  0.00  0.00    -0.047 A 
ATOM      9  C9  IND d   1       2.946   5.033  -5.965  0.00  0.00    -0.096 A 
ATOM     10  HN1 IND d   1       0.596   3.060  -6.001  0.00  0.00     0.298 HD
ENDROOT
TORSDOF 0
ENDMDL
