MODEL 1
REMARK minimizedAffinity -3.90493703
REMARK minimizedRMSD -1
REMARK  0 active torsions:
REMARK  status: ('A' for Active; 'I' for Inactive)
ROOT
ATOM      1  N1  IND d   1       6.000   2.957  -5.784  0.00  0.00    -0.196 N 
ATOM      2  C2  IND d   1       5.459   1.704  -5.724  0.00  0.00     0.054 A 
ATOM      3  C3  IND d   1       4.128   1.776  -5.496  0.00  0.00    -0.031 A 
ATOM      4  C4  IND d   1       2.614   3.848  -5.293  0.00  0.00     0.051 A 
ATOM      5  C5  IND d   1       2.657   5.213  -5.245  0.00  0.00    -0.031 A 
ATOM      6  C6  IND d   1       3.841   5.910  -5.379  0.00  0.00     0.015 A 
ATOM      7  C7  IND d   1       5.028   5.266  -5.579  0.00  0.00    -0.016 A 
ATOM      8  C8  IND d   1       4.989   3.879  -5.622  0.00  0.00    -0.047 A 
ATOM      9  C9  IND d   1       3.798   3.165  -5.444  0.00  0.00    -0.096 A 
ATOM     10  HN1 IND d   1       6.832   3.140  -5.904  0.00  0.00     0.298 HD
ENDROOT
TORSDOF 0
ENDMDL
