MODEL 1
REMARK minimizedAffinity -0.384167552
REMARK minimizedRMSD -1
REMARK  0 active torsions:
REMARK  status: ('A' for Active; 'I' for Inactive)
ROOT
ATOM      1  N1  IND d   1       2.083   2.058  -6.000  0.00  0.00    -0.196 N 
ATOM      2  C2  IND d   1       1.762   3.375  -5.817  0.00  0.00     0.054 A 
ATOM      3  C3  IND d   1       2.829   4.058  -5.347  0.00  0.00    -0.031 A 
ATOM      4  C4  IND d   1       5.229   3.240  -4.900  0.00  0.00     0.051 A 
ATOM      5  C5  IND d   1       5.995   2.109  -4.884  0.00  0.00    -0.031 A 
ATOM      6  C6  IND d   1       5.488   0.879  -5.249  0.00  0.00     0.015 A 
ATOM      7  C7  IND d   1       4.192   0.735  -5.657  0.00  0.00    -0.016 A 
ATOM      8  C8  IND d   1       3.408   1.880  -5.667  0.00  0.00    -0.047 A 
ATOM      9  C9  IND d   1       3.906   3.124  -5.257  0.00  0.00    -0.096 A 
ATOM     10  HN1 IND d   1       1.548   1.445  -6.276  0.00  0.00     0.298 HD
ENDROOT
TORSDOF 0
ENDMDL
