MODEL 1
REMARK minimizedAffinity 1.89191937
REMARK minimizedRMSD -1
REMARK  0 active torsions:
REMARK  status: ('A' for Active; 'I' for Inactive)
ROOT
ATOM      1  N1  IND d   1       5.523   3.553  -5.998  0.00  0.00    -0.196 N 
ATOM      2  C2  IND d   1       5.957   4.470  -5.081  0.00  0.00     0.054 A 
ATOM      3  C3  IND d   1       5.997   3.919  -3.847  0.00  0.00    -0.031 A 
ATOM      4  C4  IND d   1       5.492   1.502  -3.119  0.00  0.00     0.051 A 
ATOM      5  C5  IND d   1       5.025   0.309  -3.594  0.00  0.00    -0.031 A 
ATOM      6  C6  IND d   1       4.696   0.132  -4.923  0.00  0.00     0.015 A 
ATOM      7  C7  IND d   1       4.833   1.143  -5.831  0.00  0.00    -0.016 A 
ATOM      8  C8  IND d   1       5.301   2.358  -5.351  0.00  0.00    -0.047 A 
ATOM      9  C9  IND d   1       5.596   2.556  -3.996  0.00  0.00    -0.096 A 
ATOM     10  HN1 IND d   1       5.409   3.699  -6.837  0.00  0.00     0.298 HD
ENDROOT
TORSDOF 0
ENDMDL
