MODEL 1
REMARK minimizedAffinity -1.61038077
REMARK minimizedRMSD -1
REMARK  0 active torsions:
REMARK  status: ('A' for Active; 'I' for Inactive)
ROOT
ATOM      1  N1  IND d   1       1.341  -0.216   0.474  0.00  0.00    -0.196 N 
ATOM      2  C2  IND d   1       1.471   0.299  -0.785  0.00  0.00     0.054 A 
ATOM      3  C3  IND d   1       0.255   0.482  -1.347  0.00  0.00    -0.031 A 
ATOM      4  C4  IND d   1      -2.084   0.098  -0.344  0.00  0.00     0.051 A 
ATOM      5  C5  IND d   1      -2.714  -0.398   0.763  0.00  0.00    -0.031 A 
ATOM      6  C6  IND d   1      -2.010  -0.866   1.854  0.00  0.00     0.015 A 
ATOM      7  C7  IND d   1      -0.644  -0.845   1.882  0.00  0.00    -0.016 A 
ATOM      8  C8  IND d   1      -0.001  -0.348   0.757  0.00  0.00    -0.047 A 
ATOM      9  C9  IND d   1      -0.710   0.089  -0.370  0.00  0.00    -0.096 A 
ATOM     10  HN1 IND d   1       1.988  -0.424   1.001  0.00  0.00     0.298 HD
ENDROOT
TORSDOF 0
ENDMDL
