MODEL 1
REMARK minimizedAffinity -2.57820082
REMARK minimizedRMSD -1
REMARK  0 active torsions:
REMARK  status: ('A' for Active; 'I' for Inactive)
ROOT
ATOM      1  N1  IND d   1       1.070   0.444   0.662  0.00  0.00    -0.196 N 
ATOM      2  C2  IND d   1       1.742   0.820  -0.467  0.00  0.00     0.054 A 
ATOM      3  C3  IND d   1       1.007   0.542  -1.567  0.00  0.00    -0.031 A 
ATOM      4  C4  IND d   1      -1.368  -0.437  -1.742  0.00  0.00     0.051 A 
ATOM      5  C5  IND d   1      -2.372  -0.971  -0.983  0.00  0.00    -0.031 A 
ATOM      6  C6  IND d   1      -2.279  -1.059   0.391  0.00  0.00     0.015 A 
ATOM      7  C7  IND d   1      -1.179  -0.605   1.061  0.00  0.00    -0.016 A 
ATOM      8  C8  IND d   1      -0.154  -0.069   0.293  0.00  0.00    -0.047 A 
ATOM      9  C9  IND d   1      -0.225  -0.016  -1.105  0.00  0.00    -0.096 A 
ATOM     10  HN1 IND d   1       1.362   0.516   1.467  0.00  0.00     0.298 HD
ENDROOT
TORSDOF 0
ENDMDL
