MODEL 1
REMARK minimizedAffinity -4.08976889
REMARK minimizedRMSD -1
REMARK  0 active torsions:
REMARK  status: ('A' for Active; 'I' for Inactive)
ROOT
ATOM      1  N1  IND d   1       0.705   0.282  -0.734  0.00  0.00    -0.196 N 
ATOM      2  C2  IND d   1       1.770  -0.006   0.073  0.00  0.00     0.054 A 
ATOM      3  C3  IND d   1       1.352  -0.613   1.206  0.00  0.00    -0.031 A 
ATOM      4  C4  IND d   1      -1.023  -1.324   1.899  0.00  0.00     0.051 A 
ATOM      5  C5  IND d   1      -2.330  -1.243   1.506  0.00  0.00    -0.031 A 
ATOM      6  C6  IND d   1      -2.699  -0.640   0.320  0.00  0.00     0.015 A 
ATOM      7  C7  IND d   1      -1.769  -0.103  -0.525  0.00  0.00    -0.016 A 
ATOM      8  C8  IND d   1      -0.442  -0.177  -0.125  0.00  0.00    -0.047 A 
ATOM      9  C9  IND d   1      -0.066  -0.750   1.096  0.00  0.00    -0.096 A 
ATOM     10  HN1 IND d   1       0.745   0.682  -1.494  0.00  0.00     0.298 HD
ENDROOT
TORSDOF 0
ENDMDL
