MODEL 1
REMARK minimizedAffinity -2.63137484
REMARK minimizedRMSD -1
REMARK  0 active torsions:
REMARK  status: ('A' for Active; 'I' for Inactive)
ROOT
ATOM      1  N1  IND d   1      -2.626  -0.611  -1.316  0.00  0.00    -0.196 N 
ATOM      2  C2  IND d   1      -3.381  -1.068  -0.272  0.00  0.00     0.054 A 
ATOM      3  C3  IND d   1      -2.619  -1.204   0.836  0.00  0.00    -0.031 A 
ATOM      4  C4  IND d   1      -0.132  -0.639   1.189  0.00  0.00     0.051 A 
ATOM      5  C5  IND d   1       0.985  -0.228   0.518  0.00  0.00    -0.031 A 
ATOM      6  C6  IND d   1       0.955   0.085  -0.826  0.00  0.00     0.015 A 
ATOM      7  C7  IND d   1      -0.202   0.009  -1.548  0.00  0.00    -0.016 A 
ATOM      8  C8  IND d   1      -1.337  -0.414  -0.871  0.00  0.00    -0.047 A 
ATOM      9  C9  IND d   1      -1.303  -0.774   0.482  0.00  0.00    -0.096 A 
ATOM     10  HN1 IND d   1      -2.909  -0.471  -2.116  0.00  0.00     0.298 HD
ENDROOT
TORSDOF 0
ENDMDL
