MODEL 1
REMARK minimizedAffinity -1.69114375
REMARK minimizedRMSD -1
REMARK  0 active torsions:
REMARK  status: ('A' for Active; 'I' for Inactive)
ROOT
ATOM      1  N1  IND d   1      -2.503  -0.962  -1.561  0.00  0.00    -0.196 N 
ATOM      2  C2  IND d   1      -3.372  -1.247  -0.545  0.00  0.00     0.054 A 
ATOM      3  C3  IND d   1      -2.764  -1.085   0.652  0.00  0.00    -0.031 A 
ATOM      4  C4  IND d   1      -0.383  -0.260   1.179  0.00  0.00     0.051 A 
ATOM      5  C5  IND d   1       0.794   0.089   0.579  0.00  0.00    -0.031 A 
ATOM      6  C6  IND d   1       0.934   0.108  -0.794  0.00  0.00     0.015 A 
ATOM      7  C7  IND d   1      -0.106  -0.211  -1.621  0.00  0.00    -0.016 A 
ATOM      8  C8  IND d   1      -1.301  -0.572  -1.014  0.00  0.00    -0.047 A 
ATOM      9  C9  IND d   1      -1.436  -0.635   0.379  0.00  0.00    -0.096 A 
ATOM     10  HN1 IND d   1      -2.679  -1.016  -2.401  0.00  0.00     0.298 HD
ENDROOT
TORSDOF 0
ENDMDL
