MODEL 1
REMARK minimizedAffinity -2.26399136
REMARK minimizedRMSD -1
REMARK  0 active torsions:
REMARK  status: ('A' for Active; 'I' for Inactive)
ROOT
ATOM      1  N1  IND d   1      -2.144  -0.425   0.420  0.00  0.00    -0.196 N 
ATOM      2  C2  IND d   1      -2.743  -0.097  -0.764  0.00  0.00     0.054 A 
ATOM      3  C3  IND d   1      -1.824   0.354  -1.647  0.00  0.00    -0.031 A 
ATOM      4  C4  IND d   1       0.731   0.543  -1.395  0.00  0.00     0.051 A 
ATOM      5  C5  IND d   1       1.737   0.396  -0.481  0.00  0.00    -0.031 A 
ATOM      6  C6  IND d   1       1.497  -0.043   0.804  0.00  0.00     0.015 A 
ATOM      7  C7  IND d   1       0.236  -0.364   1.223  0.00  0.00    -0.016 A 
ATOM      8  C8  IND d   1      -0.789  -0.210   0.300  0.00  0.00    -0.047 A 
ATOM      9  C9  IND d   1      -0.556   0.276  -0.993  0.00  0.00    -0.096 A 
ATOM     10  HN1 IND d   1      -2.546  -0.716   1.122  0.00  0.00     0.298 HD
ENDROOT
TORSDOF 0
ENDMDL
