MODEL 1
REMARK minimizedAffinity 3.69853902
REMARK minimizedRMSD -1
REMARK  0 active torsions:
REMARK  status: ('A' for Active; 'I' for Inactive)
ROOT
ATOM      1  N1  IND d   1      -3.598   4.330   4.183  0.00  0.00    -0.196 N 
ATOM      2  C2  IND d   1      -4.083   5.196   5.123  0.00  0.00     0.054 A 
ATOM      3  C3  IND d   1      -5.025   6.000   4.580  0.00  0.00    -0.031 A 
ATOM      4  C4  IND d   1      -6.000   6.000   2.197  0.00  0.00     0.051 A 
ATOM      5  C5  IND d   1      -5.848   5.415   0.971  0.00  0.00    -0.031 A 
ATOM      6  C6  IND d   1      -4.921   4.417   0.750  0.00  0.00     0.015 A 
ATOM      7  C7  IND d   1      -4.117   3.956   1.753  0.00  0.00    -0.016 A 
ATOM      8  C8  IND d   1      -4.263   4.552   2.997  0.00  0.00    -0.047 A 
ATOM      9  C9  IND d   1      -5.172   5.595   3.218  0.00  0.00    -0.096 A 
ATOM     10  HN1 IND d   1      -2.982   3.744   4.311  0.00  0.00     0.298 HD
ENDROOT
TORSDOF 0
ENDMDL
