MODEL 1
REMARK minimizedAffinity -2.35112619
REMARK minimizedRMSD -1
REMARK  0 active torsions:
REMARK  status: ('A' for Active; 'I' for Inactive)
ROOT
ATOM      1  N1  IND d   1       1.308   0.356  -1.089  0.00  0.00    -0.196 N 
ATOM      2  C2  IND d   1       2.137   0.131  -0.026  0.00  0.00     0.054 A 
ATOM      3  C3  IND d   1       1.426  -0.292   1.044  0.00  0.00    -0.031 A 
ATOM      4  C4  IND d   1      -1.093  -0.784   1.242  0.00  0.00     0.051 A 
ATOM      5  C5  IND d   1      -2.266  -0.694   0.547  0.00  0.00    -0.031 A 
ATOM      6  C6  IND d   1      -2.308  -0.243  -0.756  0.00  0.00     0.015 A 
ATOM      7  C7  IND d   1      -1.172   0.126  -1.420  0.00  0.00    -0.016 A 
ATOM      8  C8  IND d   1       0.020   0.042  -0.715  0.00  0.00    -0.047 A 
ATOM      9  C9  IND d   1       0.064  -0.374   0.622  0.00  0.00    -0.096 A 
ATOM     10  HN1 IND d   1       1.550   0.644  -1.862  0.00  0.00     0.298 HD
ENDROOT
TORSDOF 0
ENDMDL
