MODEL 1
REMARK minimizedAffinity -5.04697371
REMARK minimizedRMSD -1
REMARK  0 active torsions:
REMARK  status: ('A' for Active; 'I' for Inactive)
ROOT
ATOM      1  N1  IND d   1       4.528   4.655  -1.238  0.00  0.00    -0.196 N 
ATOM      2  C2  IND d   1       4.751   4.056  -2.446  0.00  0.00     0.054 A 
ATOM      3  C3  IND d   1       4.132   2.855  -2.498  0.00  0.00    -0.031 A 
ATOM      4  C4  IND d   1       2.615   1.722  -0.754  0.00  0.00     0.051 A 
ATOM      5  C5  IND d   1       2.145   1.866   0.521  0.00  0.00    -0.031 A 
ATOM      6  C6  IND d   1       2.449   2.972   1.289  0.00  0.00     0.015 A 
ATOM      7  C7  IND d   1       3.228   3.983   0.805  0.00  0.00    -0.016 A 
ATOM      8  C8  IND d   1       3.714   3.837  -0.487  0.00  0.00    -0.047 A 
ATOM      9  C9  IND d   1       3.444   2.697  -1.256  0.00  0.00    -0.096 A 
ATOM     10  HN1 IND d   1       4.842   5.416  -0.990  0.00  0.00     0.298 HD
ENDROOT
TORSDOF 0
ENDMDL
