MODEL 1
REMARK minimizedAffinity -4.29812717
REMARK minimizedRMSD -1
REMARK  0 active torsions:
REMARK  status: ('A' for Active; 'I' for Inactive)
ROOT
ATOM      1  N1  IND d   1      -1.330  -2.258   1.902  0.00  0.00    -0.196 N 
ATOM      2  C2  IND d   1      -2.373  -3.140   1.847  0.00  0.00     0.054 A 
ATOM      3  C3  IND d   1      -3.105  -2.935   0.729  0.00  0.00    -0.031 A 
ATOM      4  C4  IND d   1      -2.715  -1.274  -1.198  0.00  0.00     0.051 A 
ATOM      5  C5  IND d   1      -1.912  -0.235  -1.580  0.00  0.00    -0.031 A 
ATOM      6  C6  IND d   1      -0.851   0.189  -0.806  0.00  0.00     0.015 A 
ATOM      7  C7  IND d   1      -0.546  -0.420   0.378  0.00  0.00    -0.016 A 
ATOM      8  C8  IND d   1      -1.363  -1.470   0.773  0.00  0.00    -0.047 A 
ATOM      9  C9  IND d   1      -2.467  -1.877   0.012  0.00  0.00    -0.096 A 
ATOM     10  HN1 IND d   1      -0.752  -2.203   2.536  0.00  0.00     0.298 HD
ENDROOT
TORSDOF 0
ENDMDL
