MODEL 1
REMARK minimizedAffinity -1.29401541
REMARK minimizedRMSD -1
REMARK  0 active torsions:
REMARK  status: ('A' for Active; 'I' for Inactive)
ROOT
ATOM      1  N1  IND d   1       1.314  -1.483   1.263  0.00  0.00    -0.196 N 
ATOM      2  C2  IND d   1       2.184  -0.571   0.735  0.00  0.00     0.054 A 
ATOM      3  C3  IND d   1       1.546   0.233  -0.145  0.00  0.00    -0.031 A 
ATOM      4  C4  IND d   1      -0.945   0.296  -0.794  0.00  0.00     0.051 A 
ATOM      5  C5  IND d   1      -2.125  -0.365  -0.603  0.00  0.00    -0.031 A 
ATOM      6  C6  IND d   1      -2.222  -1.454   0.240  0.00  0.00     0.015 A 
ATOM      7  C7  IND d   1      -1.140  -1.916   0.934  0.00  0.00    -0.016 A 
ATOM      8  C8  IND d   1       0.062  -1.251   0.736  0.00  0.00    -0.047 A 
ATOM      9  C9  IND d   1       0.176  -0.172  -0.150  0.00  0.00    -0.096 A 
ATOM     10  HN1 IND d   1       1.514  -2.098   1.829  0.00  0.00     0.298 HD
ENDROOT
TORSDOF 0
ENDMDL
