MODEL 1
REMARK minimizedAffinity -4.52317524
REMARK minimizedRMSD -1
REMARK  0 active torsions:
REMARK  status: ('A' for Active; 'I' for Inactive)
ROOT
ATOM      1  N1  IND d   1      -1.407  -1.428   1.509  0.00  0.00    -0.196 N 
ATOM      2  C2  IND d   1      -2.613  -1.300   0.879  0.00  0.00     0.054 A 
ATOM      3  C3  IND d   1      -2.475  -0.585  -0.261  0.00  0.00    -0.031 A 
ATOM      4  C4  IND d   1      -0.345   0.383  -1.336  0.00  0.00     0.051 A 
ATOM      5  C5  IND d   1       0.992   0.553  -1.113  0.00  0.00    -0.031 A 
ATOM      6  C6  IND d   1       1.612   0.060   0.017  0.00  0.00     0.015 A 
ATOM      7  C7  IND d   1       0.915  -0.636   0.965  0.00  0.00    -0.016 A 
ATOM      8  C8  IND d   1      -0.445  -0.805   0.745  0.00  0.00    -0.047 A 
ATOM      9  C9  IND d   1      -1.087  -0.269  -0.379  0.00  0.00    -0.096 A 
ATOM     10  HN1 IND d   1      -1.272  -1.830   2.257  0.00  0.00     0.298 HD
ENDROOT
TORSDOF 0
ENDMDL
