MODEL 1
REMARK minimizedAffinity -4.73014069
REMARK minimizedRMSD -1
REMARK  0 active torsions:
REMARK  status: ('A' for Active; 'I' for Inactive)
ROOT
ATOM      1  C1  BNZ d   1      -0.714   1.884   0.676  0.00  0.00     0.000 A 
ATOM      2  C2  BNZ d   1      -0.817   3.209   1.004  0.00  0.00     0.000 A 
ATOM      3  C3  BNZ d   1      -0.807   4.173   0.034  0.00  0.00     0.000 A 
ATOM      4  C4  BNZ d   1      -0.653   3.813  -1.256  0.00  0.00     0.000 A 
ATOM      5  C5  BNZ d   1      -0.539   2.481  -1.602  0.00  0.00     0.000 A 
ATOM      6  C6  BNZ d   1      -0.588   1.511  -0.627  0.00  0.00     0.000 A 
ENDROOT
TORSDOF 0
ENDMDL
