MODEL 1
REMARK minimizedAffinity -4.81694651
REMARK minimizedRMSD -1
REMARK  0 active torsions:
REMARK  status: ('A' for Active; 'I' for Inactive)
ROOT
ATOM      1  C1  BNZ d   1      -0.813   4.032   0.618  0.00  0.00     0.000 A 
ATOM      2  C2  BNZ d   1      -0.635   2.965   1.457  0.00  0.00     0.000 A 
ATOM      3  C3  BNZ d   1      -0.561   1.692   0.965  0.00  0.00     0.000 A 
ATOM      4  C4  BNZ d   1      -0.706   1.484  -0.360  0.00  0.00     0.000 A 
ATOM      5  C5  BNZ d   1      -0.895   2.549  -1.218  0.00  0.00     0.000 A 
ATOM      6  C6  BNZ d   1      -0.930   3.833  -0.723  0.00  0.00     0.000 A 
ENDROOT
TORSDOF 0
ENDMDL
