MODEL 1
REMARK minimizedAffinity -1.29114962
REMARK minimizedRMSD -1
REMARK  0 active torsions:
REMARK  status: ('A' for Active; 'I' for Inactive)
ROOT
ATOM      1  C1  BNZ d   1       0.366  -0.763   0.464  0.00  0.00     0.000 A 
ATOM      2  C2  BNZ d   1       0.164  -0.876  -0.886  0.00  0.00     0.000 A 
ATOM      3  C3  BNZ d   1      -0.108   0.226  -1.648  0.00  0.00     0.000 A 
ATOM      4  C4  BNZ d   1      -0.217   1.432  -1.054  0.00  0.00     0.000 A 
ATOM      5  C5  BNZ d   1      -0.025   1.561   0.307  0.00  0.00     0.000 A 
ATOM      6  C6  BNZ d   1       0.287   0.455   1.065  0.00  0.00     0.000 A 
ENDROOT
TORSDOF 0
ENDMDL
