MODEL 1
REMARK minimizedAffinity -4.57717943
REMARK minimizedRMSD -1
REMARK  0 active torsions:
REMARK  status: ('A' for Active; 'I' for Inactive)
ROOT
ATOM      1  C1  BNZ d   1      -0.588   2.632   1.109  0.00  0.00     0.000 A 
ATOM      2  C2  BNZ d   1       0.123   1.886   2.012  0.00  0.00     0.000 A 
ATOM      3  C3  BNZ d   1       0.750   0.734   1.628  0.00  0.00     0.000 A 
ATOM      4  C4  BNZ d   1       0.634   0.308   0.354  0.00  0.00     0.000 A 
ATOM      5  C5  BNZ d   1      -0.087   1.044  -0.566  0.00  0.00     0.000 A 
ATOM      6  C6  BNZ d   1      -0.685   2.224  -0.185  0.00  0.00     0.000 A 
ENDROOT
TORSDOF 0
ENDMDL
