MODEL 1
REMARK minimizedAffinity -4.7448101
REMARK minimizedRMSD -1
REMARK  0 active torsions:
REMARK  status: ('A' for Active; 'I' for Inactive)
ROOT
ATOM      1  C1  BNZ d   1       0.005   0.398   1.116  0.00  0.00     0.000 A 
ATOM      2  C2  BNZ d   1      -0.737   1.501   1.446  0.00  0.00     0.000 A 
ATOM      3  C3  BNZ d   1      -1.134   2.391   0.488  0.00  0.00     0.000 A 
ATOM      4  C4  BNZ d   1      -0.755   2.199  -0.792  0.00  0.00     0.000 A 
ATOM      5  C5  BNZ d   1       0.001   1.097  -1.140  0.00  0.00     0.000 A 
ATOM      6  C6  BNZ d   1       0.366   0.183  -0.178  0.00  0.00     0.000 A 
ENDROOT
TORSDOF 0
ENDMDL
