MODEL 1
REMARK minimizedAffinity -4.69261265
REMARK minimizedRMSD -1
REMARK  0 active torsions:
REMARK  status: ('A' for Active; 'I' for Inactive)
ROOT
ATOM      1  C1  BNZ d   1      -1.583   1.585   0.254  0.00  0.00     0.000 A 
ATOM      2  C2  BNZ d   1      -0.835   0.591  -0.318  0.00  0.00     0.000 A 
ATOM      3  C3  BNZ d   1       0.251   0.072   0.330  0.00  0.00     0.000 A 
ATOM      4  C4  BNZ d   1       0.610   0.573   1.529  0.00  0.00     0.000 A 
ATOM      5  C5  BNZ d   1      -0.129   1.582   2.115  0.00  0.00     0.000 A 
ATOM      6  C6  BNZ d   1      -1.244   2.075   1.477  0.00  0.00     0.000 A 
ENDROOT
TORSDOF 0
ENDMDL
