MODEL 1
REMARK minimizedAffinity -4.41184187
REMARK minimizedRMSD -1
REMARK  0 active torsions:
REMARK  status: ('A' for Active; 'I' for Inactive)
ROOT
ATOM      1  C1  BNZ d   1      -0.032   0.354   1.152  0.00  0.00     0.000 A 
ATOM      2  C2  BNZ d   1      -0.766   0.524   2.295  0.00  0.00     0.000 A 
ATOM      3  C3  BNZ d   1      -1.357   1.725   2.575  0.00  0.00     0.000 A 
ATOM      4  C4  BNZ d   1      -1.181   2.763   1.733  0.00  0.00     0.000 A 
ATOM      5  C5  BNZ d   1      -0.436   2.610   0.581  0.00  0.00     0.000 A 
ATOM      6  C6  BNZ d   1       0.126   1.390   0.283  0.00  0.00     0.000 A 
ENDROOT
TORSDOF 0
ENDMDL
