MODEL 1
REMARK minimizedAffinity 1.06577599
REMARK minimizedRMSD -1
REMARK  3 active torsions:
REMARK  status: ('A' for Active; 'I' for Inactive)
REMARK    1  A    between atoms: C3'_2  and  C2'_3 
REMARK    2  A    between atoms: C2'_3  and  C1'_4 
REMARK    3  A    between atoms: C1'_4  and  C1_5 
ROOT
ATOM      1  C1  N4B d   1       0.330   0.359   0.181  0.00  0.00    -0.075 A 
ATOM      2  C2  N4B d   1       1.015  -0.871   0.286  0.00  0.00     0.002 A 
ATOM      3  C3  N4B d   1       0.946  -1.598   1.449  0.00  0.00     0.002 A 
ATOM      4  C4  N4B d   1       0.218  -1.108   2.523  0.00  0.00    -0.004 A 
ATOM      5  C5  N4B d   1      -0.461   0.069   2.405  0.00  0.00     0.002 A 
ATOM      6  C6  N4B d   1      -0.404   0.809   1.240  0.00  0.00     0.002 A 
ENDROOT
BRANCH   1   7
ATOM      7  C1' N4B d   1       0.445   1.231  -1.040  0.00  0.00     0.057 C 
BRANCH   7   8
ATOM      8  C2' N4B d   1      -0.936   1.400  -1.665  0.00  0.00     0.009 C 
BRANCH   8   9
ATOM      9  C3' N4B d   1      -1.119   2.780  -2.274  0.00  0.00     0.004 C 
ATOM     10  C4' N4B d   1       0.105   3.264  -2.994  0.00  0.00     0.003 C 
ENDBRANCH   8   9
ENDBRANCH   7   8
ENDBRANCH   1   7
TORSDOF 3
ENDMDL
