MODEL 1
REMARK minimizedAffinity -3.08516407
REMARK minimizedRMSD -1
REMARK  3 active torsions:
REMARK  status: ('A' for Active; 'I' for Inactive)
REMARK    1  A    between atoms: C3'_2  and  C2'_3 
REMARK    2  A    between atoms: C2'_3  and  C1'_4 
REMARK    3  A    between atoms: C1'_4  and  C1_5 
ROOT
ATOM      1  C1  N4B d   1       0.398  -0.830   0.219  0.00  0.00    -0.075 A 
ATOM      2  C2  N4B d   1      -0.251  -0.629   1.457  0.00  0.00     0.002 A 
ATOM      3  C3  N4B d   1       0.202  -1.274   2.582  0.00  0.00     0.002 A 
ATOM      4  C4  N4B d   1       1.285  -2.135   2.490  0.00  0.00    -0.004 A 
ATOM      5  C5  N4B d   1       1.923  -2.303   1.295  0.00  0.00     0.002 A 
ATOM      6  C6  N4B d   1       1.481  -1.658   0.157  0.00  0.00     0.002 A 
ENDROOT
BRANCH   1   7
ATOM      7  C1' N4B d   1      -0.113  -0.214  -1.055  0.00  0.00     0.057 C 
BRANCH   7   8
ATOM      8  C2' N4B d   1       0.063   1.300  -0.985  0.00  0.00     0.009 C 
BRANCH   8   9
ATOM      9  C3' N4B d   1      -0.578   2.002  -2.169  0.00  0.00     0.004 C 
ATOM     10  C4' N4B d   1       0.192   3.208  -2.617  0.00  0.00     0.003 C 
ENDBRANCH   8   9
ENDBRANCH   7   8
ENDBRANCH   1   7
TORSDOF 3
ENDMDL
