MODEL 1
REMARK minimizedAffinity -2.38615108
REMARK minimizedRMSD -1
REMARK  3 active torsions:
REMARK  status: ('A' for Active; 'I' for Inactive)
REMARK    1  A    between atoms: C3'_2  and  C2'_3 
REMARK    2  A    between atoms: C2'_3  and  C1'_4 
REMARK    3  A    between atoms: C1'_4  and  C1_5 
ROOT
ATOM      1  C1  N4B d   1      -0.691  -0.405  -0.050  0.00  0.00    -0.075 A 
ATOM      2  C2  N4B d   1       0.508  -1.125   0.148  0.00  0.00     0.002 A 
ATOM      3  C3  N4B d   1       0.880  -1.503   1.415  0.00  0.00     0.002 A 
ATOM      4  C4  N4B d   1       0.083  -1.157   2.496  0.00  0.00    -0.004 A 
ATOM      5  C5  N4B d   1      -1.087  -0.484   2.293  0.00  0.00     0.002 A 
ATOM      6  C6  N4B d   1      -1.475  -0.101   1.025  0.00  0.00     0.002 A 
ENDROOT
BRANCH   1   7
ATOM      7  C1' N4B d   1      -1.096   0.104  -1.407  0.00  0.00     0.057 C 
BRANCH   7   8
ATOM      8  C2' N4B d   1      -0.426   1.451  -1.657  0.00  0.00     0.009 C 
BRANCH   8   9
ATOM      9  C3' N4B d   1      -1.107   2.227  -2.771  0.00  0.00     0.004 C 
ATOM     10  C4' N4B d   1      -0.252   3.331  -3.317  0.00  0.00     0.003 C 
ENDBRANCH   8   9
ENDBRANCH   7   8
ENDBRANCH   1   7
TORSDOF 3
ENDMDL
