MODEL 1
REMARK minimizedAffinity -3.62678003
REMARK minimizedRMSD -1
REMARK  3 active torsions:
REMARK  status: ('A' for Active; 'I' for Inactive)
REMARK    1  A    between atoms: C3'_2  and  C2'_3 
REMARK    2  A    between atoms: C2'_3  and  C1'_4 
REMARK    3  A    between atoms: C1'_4  and  C1_5 
ROOT
ATOM      1  C1  N4B d   1       0.869  -0.300   1.119  0.00  0.00    -0.075 A 
ATOM      2  C2  N4B d   1       1.200  -0.536   2.472  0.00  0.00     0.002 A 
ATOM      3  C3  N4B d   1       2.158  -1.467   2.791  0.00  0.00     0.002 A 
ATOM      4  C4  N4B d   1       2.782  -2.184   1.781  0.00  0.00    -0.004 A 
ATOM      5  C5  N4B d   1       2.474  -1.931   0.476  0.00  0.00     0.002 A 
ATOM      6  C6  N4B d   1       1.516  -0.996   0.140  0.00  0.00     0.002 A 
ENDROOT
BRANCH   1   7
ATOM      7  C1' N4B d   1      -0.233   0.646   0.725  0.00  0.00     0.057 C 
BRANCH   7   8
ATOM      8  C2' N4B d   1      -0.754   0.260  -0.656  0.00  0.00     0.009 C 
BRANCH   8   9
ATOM      9  C3' N4B d   1      -0.630   1.402  -1.650  0.00  0.00     0.004 C 
ATOM     10  C4' N4B d   1      -1.959   1.886  -2.148  0.00  0.00     0.003 C 
ENDBRANCH   8   9
ENDBRANCH   7   8
ENDBRANCH   1   7
TORSDOF 3
ENDMDL
