MODEL 1
REMARK minimizedAffinity 1.88265359
REMARK minimizedRMSD -1
REMARK  1 active torsions:
REMARK  status: ('A' for Active; 'I' for Inactive)
REMARK    1  A    between atoms: C1_2  and  C2_3 
ROOT
ATOM      1  C2  UNL d   1       1.059   2.292   0.436  0.00  0.00    -0.073 A 
ATOM      2  C3  UNL d   1       1.421   1.288   1.341  0.00  0.00    -0.002 A 
ATOM      3  C4  UNL d   1       1.833   0.037   0.879  0.00  0.00     0.004 A 
ATOM      4  C5  UNL d   1       1.895  -0.220  -0.490  0.00  0.00    -0.004 A 
ATOM      5  C6  UNL d   1       1.549   0.775  -1.411  0.00  0.00    -0.075 A 
ATOM      6  C7  UNL d   1       1.608   0.514  -2.887  0.00  0.00     0.076 C 
ATOM      7  C8  UNL d   1       1.133   2.027  -0.939  0.00  0.00     0.001 A 
ENDROOT
BRANCH   1   8
ATOM      8  C1  UNL d   1       0.620   3.646   0.930  0.00  0.00     0.053 C 
ATOM      9  C   UNL d   1       1.061   4.764  -0.001  0.00  0.00     0.018 C 
ENDBRANCH   1   8
TORSDOF 1
ENDMDL
