MODEL 1
REMARK minimizedAffinity 0.250972241
REMARK minimizedRMSD -1
REMARK  1 active torsions:
REMARK  status: ('A' for Active; 'I' for Inactive)
REMARK    1  A    between atoms: C1_2  and  C2_3 
ROOT
ATOM      1  C2  UNL d   1       1.833   0.296  -0.472  0.00  0.00    -0.073 A 
ATOM      2  C3  UNL d   1       1.730   0.741  -1.795  0.00  0.00    -0.002 A 
ATOM      3  C4  UNL d   1       0.993   1.887  -2.098  0.00  0.00     0.004 A 
ATOM      4  C5  UNL d   1       0.359   2.603  -1.082  0.00  0.00    -0.004 A 
ATOM      5  C6  UNL d   1       0.461   2.181   0.247  0.00  0.00    -0.075 A 
ATOM      6  C7  UNL d   1      -0.217   2.939   1.351  0.00  0.00     0.076 C 
ATOM      7  C8  UNL d   1       1.200   1.028   0.543  0.00  0.00     0.001 A 
ENDROOT
BRANCH   1   8
ATOM      8  C1  UNL d   1       2.632  -0.937  -0.139  0.00  0.00     0.053 C 
ATOM      9  C   UNL d   1       3.951  -0.597   0.537  0.00  0.00     0.018 C 
ENDBRANCH   1   8
TORSDOF 1
ENDMDL
