MODEL 1
REMARK minimizedAffinity -2.35062051
REMARK minimizedRMSD -1
REMARK  1 active torsions:
REMARK  status: ('A' for Active; 'I' for Inactive)
REMARK    1  A    between atoms: C1_2  and  C2_3 
ROOT
ATOM      1  C2  UNL d   1       1.315  -0.482  -0.645  0.00  0.00    -0.073 A 
ATOM      2  C3  UNL d   1       1.141  -0.371   0.739  0.00  0.00    -0.002 A 
ATOM      3  C4  UNL d   1       0.961   0.881   1.329  0.00  0.00     0.004 A 
ATOM      4  C5  UNL d   1       0.947   2.032   0.542  0.00  0.00    -0.004 A 
ATOM      5  C6  UNL d   1       1.107   1.940  -0.845  0.00  0.00    -0.075 A 
ATOM      6  C7  UNL d   1       1.096   3.170  -1.706  0.00  0.00     0.076 C 
ATOM      7  C8  UNL d   1       1.290   0.680  -1.429  0.00  0.00     0.001 A 
ENDROOT
BRANCH   1   8
ATOM      8  C1  UNL d   1       1.503  -1.833  -1.287  0.00  0.00     0.053 C 
ATOM      9  C   UNL d   1       0.925  -2.953  -0.437  0.00  0.00     0.018 C 
ENDBRANCH   1   8
TORSDOF 1
ENDMDL
