MODEL 1
REMARK minimizedAffinity 0.870146871
REMARK minimizedRMSD -1
REMARK  1 active torsions:
REMARK  status: ('A' for Active; 'I' for Inactive)
REMARK    1  A    between atoms: C1_2  and  C2_3 
ROOT
ATOM      1  C2  UNL d   1       1.083   2.742  -0.936  0.00  0.00    -0.073 A 
ATOM      2  C3  UNL d   1       1.366   2.803   0.434  0.00  0.00    -0.002 A 
ATOM      3  C4  UNL d   1       1.407   1.636   1.197  0.00  0.00     0.004 A 
ATOM      4  C5  UNL d   1       1.173   0.398   0.600  0.00  0.00    -0.004 A 
ATOM      5  C6  UNL d   1       0.901   0.315  -0.769  0.00  0.00    -0.075 A 
ATOM      6  C7  UNL d   1       0.644  -1.009  -1.427  0.00  0.00     0.076 C 
ATOM      7  C8  UNL d   1       0.859   1.492  -1.529  0.00  0.00     0.001 A 
ENDROOT
BRANCH   1   8
ATOM      8  C1  UNL d   1       1.045   3.999  -1.766  0.00  0.00     0.053 C 
ATOM      9  C   UNL d   1       1.494   5.218  -0.976  0.00  0.00     0.018 C 
ENDBRANCH   1   8
TORSDOF 1
ENDMDL
