MODEL 1
REMARK minimizedAffinity -2.5070045
REMARK minimizedRMSD -1
REMARK  1 active torsions:
REMARK  status: ('A' for Active; 'I' for Inactive)
REMARK    1  A    between atoms: C1_2  and  C2_3 
ROOT
ATOM      1  C2  UNL d   1       1.472   0.259  -0.586  0.00  0.00    -0.073 A 
ATOM      2  C3  UNL d   1       1.708   0.610  -1.920  0.00  0.00    -0.002 A 
ATOM      3  C4  UNL d   1       1.594   1.938  -2.331  0.00  0.00     0.004 A 
ATOM      4  C5  UNL d   1       1.250   2.930  -1.412  0.00  0.00    -0.004 A 
ATOM      5  C6  UNL d   1       1.022   2.602  -0.072  0.00  0.00    -0.075 A 
ATOM      6  C7  UNL d   1       0.648   3.656   0.928  0.00  0.00     0.076 C 
ATOM      7  C8  UNL d   1       1.136   1.265   0.332  0.00  0.00     0.001 A 
ENDROOT
BRANCH   1   8
ATOM      8  C1  UNL d   1       1.601  -1.173  -0.136  0.00  0.00     0.053 C 
ATOM      9  C   UNL d   1       0.858  -2.128  -1.056  0.00  0.00     0.018 C 
ENDBRANCH   1   8
TORSDOF 1
ENDMDL
