MODEL 1
REMARK minimizedAffinity 11.7819366
REMARK minimizedRMSD -1
REMARK  1 active torsions:
REMARK  status: ('A' for Active; 'I' for Inactive)
REMARK    1  A    between atoms: C1_2  and  C2_3 
ROOT
ATOM      1  C2  UNL d   1       2.238   0.726   0.072  0.00  0.00    -0.073 A 
ATOM      2  C3  UNL d   1       1.743  -0.320  -0.714  0.00  0.00    -0.002 A 
ATOM      3  C4  UNL d   1       0.965  -0.048  -1.840  0.00  0.00     0.004 A 
ATOM      4  C5  UNL d   1       0.682   1.271  -2.196  0.00  0.00    -0.004 A 
ATOM      5  C6  UNL d   1       1.178   2.330  -1.430  0.00  0.00    -0.075 A 
ATOM      6  C7  UNL d   1       0.881   3.754  -1.798  0.00  0.00     0.076 C 
ATOM      7  C8  UNL d   1       1.956   2.049  -0.298  0.00  0.00     0.001 A 
ENDROOT
BRANCH   1   8
ATOM      8  C1  UNL d   1       3.083   0.438   1.286  0.00  0.00     0.053 C 
ATOM      9  C   UNL d   1       4.416  -0.195   0.916  0.00  0.00     0.018 C 
ENDBRANCH   1   8
TORSDOF 1
ENDMDL
