MODEL 1
REMARK minimizedAffinity 1.64039195
REMARK minimizedRMSD -1
REMARK  1 active torsions:
REMARK  status: ('A' for Active; 'I' for Inactive)
REMARK    1  A    between atoms: C1_2  and  C2_3 
ROOT
ATOM      1  C2  UNL d   1       0.940   2.181  -1.206  0.00  0.00    -0.073 A 
ATOM      2  C3  UNL d   1       0.577   1.053  -1.951  0.00  0.00    -0.002 A 
ATOM      3  C4  UNL d   1       0.856  -0.228  -1.472  0.00  0.00     0.004 A 
ATOM      4  C5  UNL d   1       1.493  -0.394  -0.243  0.00  0.00    -0.004 A 
ATOM      5  C6  UNL d   1       1.852   0.720   0.522  0.00  0.00    -0.075 A 
ATOM      6  C7  UNL d   1       2.540   0.558   1.846  0.00  0.00     0.076 C 
ATOM      7  C8  UNL d   1       1.572   2.003   0.033  0.00  0.00     0.001 A 
ENDROOT
BRANCH   1   8
ATOM      8  C1  UNL d   1       0.635   3.565  -1.717  0.00  0.00     0.053 C 
ATOM      9  C   UNL d   1       1.316   4.642  -0.886  0.00  0.00     0.018 C 
ENDBRANCH   1   8
TORSDOF 1
ENDMDL
