MODEL 1
REMARK minimizedAffinity -3.40723062
REMARK minimizedRMSD -1
REMARK  1 active torsions:
REMARK  status: ('A' for Active; 'I' for Inactive)
REMARK    1  A    between atoms: C1_2  and  C2_3 
ROOT
ATOM      1  C2  UNL d   1       0.959   2.801  -0.551  0.00  0.00    -0.073 A 
ATOM      2  C3  UNL d   1       0.493   2.863   0.767  0.00  0.00    -0.002 A 
ATOM      3  C4  UNL d   1       0.428   1.708   1.547  0.00  0.00     0.004 A 
ATOM      4  C5  UNL d   1       0.835   0.482   1.021  0.00  0.00    -0.004 A 
ATOM      5  C6  UNL d   1       1.316   0.402  -0.290  0.00  0.00    -0.075 A 
ATOM      6  C7  UNL d   1       1.755  -0.910  -0.872  0.00  0.00     0.076 C 
ATOM      7  C8  UNL d   1       1.375   1.566  -1.068  0.00  0.00     0.001 A 
ENDROOT
BRANCH   1   8
ATOM      8  C1  UNL d   1       1.037   4.047  -1.395  0.00  0.00     0.053 C 
ATOM      9  C   UNL d   1       1.325   5.285  -0.559  0.00  0.00     0.018 C 
ENDBRANCH   1   8
TORSDOF 1
ENDMDL
