MODEL 1
REMARK minimizedAffinity 2.55841351
REMARK minimizedRMSD -1
REMARK  1 active torsions:
REMARK  status: ('A' for Active; 'I' for Inactive)
REMARK    1  A    between atoms: C1_2  and  C2_3 
ROOT
ATOM      1  C2  UNL d   1       1.817   0.188  -0.796  0.00  0.00    -0.073 A 
ATOM      2  C3  UNL d   1       1.768   0.979  -1.950  0.00  0.00    -0.002 A 
ATOM      3  C4  UNL d   1       1.013   2.152  -1.969  0.00  0.00     0.004 A 
ATOM      4  C5  UNL d   1       0.305   2.550  -0.835  0.00  0.00    -0.004 A 
ATOM      5  C6  UNL d   1       0.350   1.780   0.331  0.00  0.00    -0.075 A 
ATOM      6  C7  UNL d   1      -0.407   2.193   1.559  0.00  0.00     0.076 C 
ATOM      7  C8  UNL d   1       1.109   0.602   0.342  0.00  0.00     0.001 A 
ENDROOT
BRANCH   1   8
ATOM      8  C1  UNL d   1       2.636  -1.076  -0.768  0.00  0.00     0.053 C 
ATOM      9  C   UNL d   1       3.957  -0.883  -0.039  0.00  0.00     0.018 C 
ENDBRANCH   1   8
TORSDOF 1
ENDMDL
