MODEL 1
REMARK minimizedAffinity 3.33784437
REMARK minimizedRMSD -1
REMARK  1 active torsions:
REMARK  status: ('A' for Active; 'I' for Inactive)
REMARK    1  A    between atoms: C1_2  and  C2_3 
ROOT
ATOM      1  C2  UNL d   1       0.949   2.386  -1.273  0.00  0.00    -0.073 A 
ATOM      2  C3  UNL d   1       0.259   2.451  -0.057  0.00  0.00    -0.002 A 
ATOM      3  C4  UNL d   1       0.269   1.366   0.819  0.00  0.00     0.004 A 
ATOM      4  C5  UNL d   1       0.975   0.207   0.493  0.00  0.00    -0.004 A 
ATOM      5  C6  UNL d   1       1.681   0.127  -0.712  0.00  0.00    -0.075 A 
ATOM      6  C7  UNL d   1       2.443  -1.113  -1.078  0.00  0.00     0.076 C 
ATOM      7  C8  UNL d   1       1.663   1.220  -1.588  0.00  0.00     0.001 A 
ENDROOT
BRANCH   1   8
ATOM      8  C1  UNL d   1       0.945   3.558  -2.220  0.00  0.00     0.053 C 
ATOM      9  C   UNL d   1       1.112   4.881  -1.489  0.00  0.00     0.018 C 
ENDBRANCH   1   8
TORSDOF 1
ENDMDL
