MODEL 1
REMARK minimizedAffinity -1.77790225
REMARK minimizedRMSD -1
REMARK  1 active torsions:
REMARK  status: ('A' for Active; 'I' for Inactive)
REMARK    1  A    between atoms: C1_2  and  C2_3 
ROOT
ATOM      1  C2  UNL d   1       0.824   1.005  -0.602  0.00  0.00    -0.073 A 
ATOM      2  C3  UNL d   1       1.095   1.561  -1.857  0.00  0.00    -0.002 A 
ATOM      3  C4  UNL d   1       1.280   2.938  -1.992  0.00  0.00     0.004 A 
ATOM      4  C5  UNL d   1       1.202   3.770  -0.875  0.00  0.00    -0.004 A 
ATOM      5  C6  UNL d   1       0.944   3.231   0.389  0.00  0.00    -0.075 A 
ATOM      6  C7  UNL d   1       0.854   4.113   1.600  0.00  0.00     0.076 C 
ATOM      7  C8  UNL d   1       0.757   1.848   0.517  0.00  0.00     0.001 A 
ENDROOT
BRANCH   1   8
ATOM      8  C1  UNL d   1       0.630  -0.482  -0.449  0.00  0.00     0.053 C 
ATOM      9  C   UNL d   1      -0.345  -1.038  -1.475  0.00  0.00     0.018 C 
ENDBRANCH   1   8
TORSDOF 1
ENDMDL
