MODEL 1
REMARK minimizedAffinity 6.09179592
REMARK minimizedRMSD -1
REMARK  1 active torsions:
REMARK  status: ('A' for Active; 'I' for Inactive)
REMARK    1  A    between atoms: C1_2  and  C2_3 
ROOT
ATOM      1  C2  UNL d   1      -3.082   1.494   3.149  0.00  0.00    -0.073 A 
ATOM      2  C3  UNL d   1      -2.157   2.424   3.637  0.00  0.00    -0.002 A 
ATOM      3  C4  UNL d   1      -1.564   2.239   4.886  0.00  0.00     0.004 A 
ATOM      4  C5  UNL d   1      -1.884   1.121   5.657  0.00  0.00    -0.004 A 
ATOM      5  C6  UNL d   1      -2.797   0.175   5.181  0.00  0.00    -0.075 A 
ATOM      6  C7  UNL d   1      -3.153  -1.032   5.999  0.00  0.00     0.076 C 
ATOM      7  C8  UNL d   1      -3.390   0.369   3.927  0.00  0.00     0.001 A 
ENDROOT
BRANCH   1   8
ATOM      8  C1  UNL d   1      -3.720   1.686   1.797  0.00  0.00     0.053 C 
ATOM      9  C   UNL d   1      -3.354   3.026   1.179  0.00  0.00     0.018 C 
ENDBRANCH   1   8
TORSDOF 1
ENDMDL
