MODEL 1
REMARK minimizedAffinity 6.81906033
REMARK minimizedRMSD -1
REMARK  1 active torsions:
REMARK  status: ('A' for Active; 'I' for Inactive)
REMARK    1  A    between atoms: C1_2  and  C2_3 
ROOT
ATOM      1  C2  UNL d   1       1.077   2.396  -1.182  0.00  0.00    -0.073 A 
ATOM      2  C3  UNL d   1       1.348   1.288  -1.993  0.00  0.00    -0.002 A 
ATOM      3  C4  UNL d   1       1.598   0.040  -1.421  0.00  0.00     0.004 A 
ATOM      4  C5  UNL d   1       1.574  -0.115  -0.035  0.00  0.00    -0.004 A 
ATOM      5  C6  UNL d   1       1.294   0.978   0.792  0.00  0.00    -0.075 A 
ATOM      6  C7  UNL d   1       1.267   0.829   2.285  0.00  0.00     0.076 C 
ATOM      7  C8  UNL d   1       1.046   2.229   0.210  0.00  0.00     0.001 A 
ENDROOT
BRANCH   1   8
ATOM      8  C1  UNL d   1       0.800   3.744  -1.795  0.00  0.00     0.053 C 
ATOM      9  C   UNL d   1       1.446   4.873  -1.007  0.00  0.00     0.018 C 
ENDBRANCH   1   8
TORSDOF 1
ENDMDL
