MODEL 1
REMARK minimizedAffinity -4.13321114
REMARK minimizedRMSD -1
REMARK  1 active torsions:
REMARK  status: ('A' for Active; 'I' for Inactive)
REMARK    1  A    between atoms: C1_2  and  C2_3 
ROOT
ATOM      1  C2  UNL d   1       1.002   2.686  -0.828  0.00  0.00    -0.073 A 
ATOM      2  C3  UNL d   1       1.121   1.540  -1.623  0.00  0.00    -0.002 A 
ATOM      3  C4  UNL d   1       0.950   0.273  -1.063  0.00  0.00     0.004 A 
ATOM      4  C5  UNL d   1       0.652   0.139   0.293  0.00  0.00    -0.004 A 
ATOM      5  C6  UNL d   1       0.517   1.273   1.101  0.00  0.00    -0.075 A 
ATOM      6  C7  UNL d   1       0.198   1.146   2.562  0.00  0.00     0.076 C 
ATOM      7  C8  UNL d   1       0.693   2.542   0.532  0.00  0.00     0.001 A 
ENDROOT
BRANCH   1   8
ATOM      8  C1  UNL d   1       1.180   4.056  -1.430  0.00  0.00     0.053 C 
ATOM      9  C   UNL d   1       1.255   5.140  -0.366  0.00  0.00     0.018 C 
ENDBRANCH   1   8
TORSDOF 1
ENDMDL
