MODEL 1
REMARK minimizedAffinity -4.37733984
REMARK minimizedRMSD -1
REMARK  1 active torsions:
REMARK  status: ('A' for Active; 'I' for Inactive)
REMARK    1  A    between atoms: C1_2  and  C2_3 
ROOT
ATOM      1  C2  UNL d   1      -0.166  -0.948  -0.509  0.00  0.00    -0.081 A 
ATOM      2  C3  UNL d   1      -1.076  -0.051   0.064  0.00  0.00     0.006 A 
ATOM      3  C4  UNL d   1      -0.634   1.162   0.598  0.00  0.00     0.002 A 
ATOM      4  C5  UNL d   1       0.723   1.502   0.560  0.00  0.00    -0.080 A 
ATOM      5  C6  UNL d   1       1.206   2.814   1.102  0.00  0.00     0.076 C 
ATOM      6  C7  UNL d   1       1.634   0.598   0.003  0.00  0.00     0.002 A 
ATOM      7  C8  UNL d   1       1.192  -0.615  -0.530  0.00  0.00     0.006 A 
ENDROOT
BRANCH   1   8
ATOM      8  C1  UNL d   1      -0.648  -2.227  -1.144  0.00  0.00     0.054 C 
ATOM      9  C   UNL d   1      -1.843  -1.978  -2.053  0.00  0.00     0.018 C 
ENDBRANCH   1   8
TORSDOF 1
ENDMDL
