MODEL 1
REMARK minimizedAffinity -5.04473925
REMARK minimizedRMSD -1
REMARK  1 active torsions:
REMARK  status: ('A' for Active; 'I' for Inactive)
REMARK    1  A    between atoms: C1_2  and  C2_3 
ROOT
ATOM      1  C2  UNL d   1       0.313  -0.794  -0.293  0.00  0.00    -0.081 A 
ATOM      2  C3  UNL d   1      -0.376  -0.163   0.749  0.00  0.00     0.006 A 
ATOM      3  C4  UNL d   1       0.006   1.110   1.182  0.00  0.00     0.002 A 
ATOM      4  C5  UNL d   1       1.077   1.774   0.575  0.00  0.00    -0.080 A 
ATOM      5  C6  UNL d   1       1.477   3.152   1.010  0.00  0.00     0.076 C 
ATOM      6  C7  UNL d   1       1.777   1.136  -0.454  0.00  0.00     0.002 A 
ATOM      7  C8  UNL d   1       1.396  -0.137  -0.887  0.00  0.00     0.006 A 
ENDROOT
BRANCH   1   8
ATOM      8  C1  UNL d   1      -0.136  -2.139  -0.805  0.00  0.00     0.054 C 
ATOM      9  C   UNL d   1      -1.506  -2.051  -1.463  0.00  0.00     0.018 C 
ENDBRANCH   1   8
TORSDOF 1
ENDMDL
