MODEL 1
REMARK minimizedAffinity -3.12569857
REMARK minimizedRMSD -1
REMARK  1 active torsions:
REMARK  status: ('A' for Active; 'I' for Inactive)
REMARK    1  A    between atoms: C1_2  and  C2_3 
ROOT
ATOM      1  C2  UNL d   1      -2.820  -2.530  -1.824  0.00  0.00    -0.081 A 
ATOM      2  C3  UNL d   1      -2.156  -2.485  -0.592  0.00  0.00     0.006 A 
ATOM      3  C4  UNL d   1      -0.966  -1.766  -0.455  0.00  0.00     0.002 A 
ATOM      4  C5  UNL d   1      -0.424  -1.075  -1.543  0.00  0.00    -0.080 A 
ATOM      5  C6  UNL d   1       0.836  -0.275  -1.401  0.00  0.00     0.076 C 
ATOM      6  C7  UNL d   1      -1.078  -1.135  -2.779  0.00  0.00     0.002 A 
ATOM      7  C8  UNL d   1      -2.268  -1.853  -2.917  0.00  0.00     0.006 A 
ENDROOT
BRANCH   1   8
ATOM      8  C1  UNL d   1      -4.137  -3.250  -1.960  0.00  0.00     0.054 C 
ATOM      9  C   UNL d   1      -4.556  -3.889  -0.643  0.00  0.00     0.018 C 
ENDBRANCH   1   8
TORSDOF 1
ENDMDL
