MODEL 1
REMARK minimizedAffinity 0.258835971
REMARK minimizedRMSD -1
REMARK  1 active torsions:
REMARK  status: ('A' for Active; 'I' for Inactive)
REMARK    1  A    between atoms: C1_2  and  C2_3 
ROOT
ATOM      1  C2  UNL d   1      -0.392  -1.156  -0.975  0.00  0.00    -0.081 A 
ATOM      2  C3  UNL d   1      -0.960  -0.677   0.212  0.00  0.00     0.006 A 
ATOM      3  C4  UNL d   1      -0.355   0.368   0.915  0.00  0.00     0.002 A 
ATOM      4  C5  UNL d   1       0.823   0.955   0.440  0.00  0.00    -0.080 A 
ATOM      5  C6  UNL d   1       1.466   2.097   1.169  0.00  0.00     0.076 C 
ATOM      6  C7  UNL d   1       1.399   0.465  -0.737  0.00  0.00     0.002 A 
ATOM      7  C8  UNL d   1       0.795  -0.580  -1.440  0.00  0.00     0.006 A 
ENDROOT
BRANCH   1   8
ATOM      8  C1  UNL d   1      -1.077  -2.238  -1.770  0.00  0.00     0.054 C 
ATOM      9  C   UNL d   1      -1.787  -1.665  -2.988  0.00  0.00     0.018 C 
ENDBRANCH   1   8
TORSDOF 1
ENDMDL
