MODEL 1
REMARK minimizedAffinity -3.79472876
REMARK minimizedRMSD -1
REMARK  1 active torsions:
REMARK  status: ('A' for Active; 'I' for Inactive)
REMARK    1  A    between atoms: C1_2  and  C2_3 
ROOT
ATOM      1  C2  UNL d   1      -0.879  -1.507  -0.274  0.00  0.00    -0.081 A 
ATOM      2  C3  UNL d   1      -1.079  -1.139   1.062  0.00  0.00     0.006 A 
ATOM      3  C4  UNL d   1      -0.432  -0.021   1.593  0.00  0.00     0.002 A 
ATOM      4  C5  UNL d   1       0.418   0.753   0.795  0.00  0.00    -0.080 A 
ATOM      5  C6  UNL d   1       1.094   1.974   1.344  0.00  0.00     0.076 C 
ATOM      6  C7  UNL d   1       0.631   0.376  -0.535  0.00  0.00     0.002 A 
ATOM      7  C8  UNL d   1      -0.015  -0.743  -1.066  0.00  0.00     0.006 A 
ENDROOT
BRANCH   1   8
ATOM      8  C1  UNL d   1      -1.625  -2.675  -0.867  0.00  0.00     0.054 C 
ATOM      9  C   UNL d   1      -2.324  -2.285  -2.162  0.00  0.00     0.018 C 
ENDBRANCH   1   8
TORSDOF 1
ENDMDL
