MODEL 1
REMARK minimizedAffinity -4.54264927
REMARK minimizedRMSD -1
REMARK  1 active torsions:
REMARK  status: ('A' for Active; 'I' for Inactive)
REMARK    1  A    between atoms: C1_2  and  C2_3 
ROOT
ATOM      1  C2  UNL d   1       0.217  -0.466  -0.354  0.00  0.00    -0.081 A 
ATOM      2  C3  UNL d   1      -0.551   0.313   0.520  0.00  0.00     0.006 A 
ATOM      3  C4  UNL d   1      -0.000   1.441   1.133  0.00  0.00     0.002 A 
ATOM      4  C5  UNL d   1       1.324   1.813   0.877  0.00  0.00    -0.080 A 
ATOM      5  C6  UNL d   1       1.918   3.038   1.505  0.00  0.00     0.076 C 
ATOM      6  C7  UNL d   1       2.097   1.024   0.017  0.00  0.00     0.002 A 
ATOM      7  C8  UNL d   1       1.547  -0.104  -0.595  0.00  0.00     0.006 A 
ENDROOT
BRANCH   1   8
ATOM      8  C1  UNL d   1      -0.393  -1.646  -1.067  0.00  0.00     0.054 C 
ATOM      9  C   UNL d   1      -1.471  -1.204  -2.046  0.00  0.00     0.018 C 
ENDBRANCH   1   8
TORSDOF 1
ENDMDL
