MODEL 1
REMARK minimizedAffinity -5.0977087
REMARK minimizedRMSD -1
REMARK  1 active torsions:
REMARK  status: ('A' for Active; 'I' for Inactive)
REMARK    1  A    between atoms: C1_2  and  C2_3 
ROOT
ATOM      1  C2  UNL d   1      -0.401  -0.403  -0.182  0.00  0.00    -0.081 A 
ATOM      2  C3  UNL d   1      -1.005   0.359   0.827  0.00  0.00     0.006 A 
ATOM      3  C4  UNL d   1      -0.329   1.441   1.397  0.00  0.00     0.002 A 
ATOM      4  C5  UNL d   1       0.956   1.784   0.963  0.00  0.00    -0.080 A 
ATOM      5  C6  UNL d   1       1.679   2.962   1.546  0.00  0.00     0.076 C 
ATOM      6  C7  UNL d   1       1.565   1.013  -0.032  0.00  0.00     0.002 A 
ATOM      7  C8  UNL d   1       0.891  -0.070  -0.602  0.00  0.00     0.006 A 
ENDROOT
BRANCH   1   8
ATOM      8  C1  UNL d   1      -1.152  -1.530  -0.844  0.00  0.00     0.054 C 
ATOM      9  C   UNL d   1      -1.673  -1.118  -2.213  0.00  0.00     0.018 C 
ENDBRANCH   1   8
TORSDOF 1
ENDMDL
