MODEL 1
REMARK minimizedAffinity -4.2980485
REMARK minimizedRMSD -1
REMARK  1 active torsions:
REMARK  status: ('A' for Active; 'I' for Inactive)
REMARK    1  A    between atoms: C1_2  and  C2_3 
ROOT
ATOM      1  C2  UNL d   1      -0.212  -0.723  -0.244  0.00  0.00    -0.081 A 
ATOM      2  C3  UNL d   1      -0.644   0.390   0.488  0.00  0.00     0.006 A 
ATOM      3  C4  UNL d   1       0.275   1.336   0.949  0.00  0.00     0.002 A 
ATOM      4  C5  UNL d   1       1.640   1.188   0.679  0.00  0.00    -0.080 A 
ATOM      5  C6  UNL d   1       2.634   2.211   1.142  0.00  0.00     0.076 C 
ATOM      6  C7  UNL d   1       2.074   0.067  -0.036  0.00  0.00     0.002 A 
ATOM      7  C8  UNL d   1       1.155  -0.879  -0.497  0.00  0.00     0.006 A 
ENDROOT
BRANCH   1   8
ATOM      8  C1  UNL d   1      -1.208  -1.710  -0.797  0.00  0.00     0.054 C 
ATOM      9  C   UNL d   1      -1.882  -1.171  -2.051  0.00  0.00     0.018 C 
ENDBRANCH   1   8
TORSDOF 1
ENDMDL
