MODEL 1
REMARK minimizedAffinity -4.44164276
REMARK minimizedRMSD -1
REMARK  1 active torsions:
REMARK  status: ('A' for Active; 'I' for Inactive)
REMARK    1  A    between atoms: C1_2  and  C2_3 
ROOT
ATOM      1  C2  UNL d   1      -0.320  -0.581  -0.368  0.00  0.00    -0.081 A 
ATOM      2  C3  UNL d   1      -0.899   0.025   0.754  0.00  0.00     0.006 A 
ATOM      3  C4  UNL d   1      -0.348   1.190   1.293  0.00  0.00     0.002 A 
ATOM      4  C5  UNL d   1       0.785   1.772   0.715  0.00  0.00    -0.080 A 
ATOM      5  C6  UNL d   1       1.369   3.039   1.265  0.00  0.00     0.076 C 
ATOM      6  C7  UNL d   1       1.374   1.157  -0.395  0.00  0.00     0.002 A 
ATOM      7  C8  UNL d   1       0.824  -0.008  -0.934  0.00  0.00     0.006 A 
ENDROOT
BRANCH   1   8
ATOM      8  C1  UNL d   1      -0.950  -1.801  -0.990  0.00  0.00     0.054 C 
ATOM      9  C   UNL d   1      -1.716  -1.444  -2.256  0.00  0.00     0.018 C 
ENDBRANCH   1   8
TORSDOF 1
ENDMDL
