MODEL 1
REMARK minimizedAffinity -3.50771213
REMARK minimizedRMSD -1
REMARK  1 active torsions:
REMARK  status: ('A' for Active; 'I' for Inactive)
REMARK    1  A    between atoms: C1_2  and  C2_3 
ROOT
ATOM      1  C2  UNL d   1       1.158   1.211  -0.007  0.00  0.00    -0.081 A 
ATOM      2  C3  UNL d   1       0.857   2.037   1.084  0.00  0.00     0.006 A 
ATOM      3  C4  UNL d   1      -0.277   1.797   1.863  0.00  0.00     0.002 A 
ATOM      4  C5  UNL d   1      -1.125   0.723   1.570  0.00  0.00    -0.080 A 
ATOM      5  C6  UNL d   1      -2.329   0.436   2.417  0.00  0.00     0.076 C 
ATOM      6  C7  UNL d   1      -0.834  -0.091   0.470  0.00  0.00     0.002 A 
ATOM      7  C8  UNL d   1       0.299   0.149  -0.309  0.00  0.00     0.006 A 
ENDROOT
BRANCH   1   8
ATOM      8  C1  UNL d   1       2.415   1.429  -0.809  0.00  0.00     0.054 C 
ATOM      9  C   UNL d   1       3.147   0.118  -1.057  0.00  0.00     0.018 C 
ENDBRANCH   1   8
TORSDOF 1
ENDMDL
