MODEL 1
REMARK minimizedAffinity -4.50590181
REMARK minimizedRMSD -1
REMARK  1 active torsions:
REMARK  status: ('A' for Active; 'I' for Inactive)
REMARK    1  A    between atoms: C1_2  and  C2_3 
ROOT
ATOM      1  C2  UNL d   1      -0.297  -0.475  -0.097  0.00  0.00    -0.081 A 
ATOM      2  C3  UNL d   1      -0.822   0.202   1.011  0.00  0.00     0.006 A 
ATOM      3  C4  UNL d   1      -0.194   1.350   1.501  0.00  0.00     0.002 A 
ATOM      4  C5  UNL d   1       0.963   1.843   0.888  0.00  0.00    -0.080 A 
ATOM      5  C6  UNL d   1       1.629   3.092   1.386  0.00  0.00     0.076 C 
ATOM      6  C7  UNL d   1       1.497   1.157  -0.207  0.00  0.00     0.002 A 
ATOM      7  C8  UNL d   1       0.870   0.009  -0.698  0.00  0.00     0.006 A 
ENDROOT
BRANCH   1   8
ATOM      8  C1  UNL d   1      -1.008  -1.676  -0.668  0.00  0.00     0.054 C 
ATOM      9  C   UNL d   1      -1.538  -1.392  -2.066  0.00  0.00     0.018 C 
ENDBRANCH   1   8
TORSDOF 1
ENDMDL
