MODEL 1
REMARK minimizedAffinity -5.61538267
REMARK minimizedRMSD -1
REMARK  0 active torsions:
REMARK  status: ('A' for Active; 'I' for Inactive)
ROOT
ATOM      1  C   UNL d   1       0.305  -0.006  -0.157  0.00  0.00     0.078 C 
ATOM      2  C1  UNL d   1      -0.261   1.321   0.252  0.00  0.00    -0.077 A 
ATOM      3  C2  UNL d   1      -0.373   2.372  -0.666  0.00  0.00    -0.001 A 
ATOM      4  C3  UNL d   1      -0.893   3.605  -0.268  0.00  0.00     0.003 A 
ATOM      5  C4  UNL d   1      -1.303   3.799   1.049  0.00  0.00    -0.005 A 
ATOM      6  C5  UNL d   1      -1.193   2.760   1.971  0.00  0.00     0.003 A 
ATOM      7  C6  UNL d   1      -0.674   1.526   1.575  0.00  0.00    -0.001 A 
ENDROOT
TORSDOF 0
ENDMDL
