MODEL 1
REMARK minimizedAffinity -1.26337087
REMARK minimizedRMSD -1
REMARK  0 active torsions:
REMARK  status: ('A' for Active; 'I' for Inactive)
ROOT
ATOM      1  C   UNL d   1       2.962  -0.817   0.791  0.00  0.00     0.078 C 
ATOM      2  C1  UNL d   1       1.700  -0.006   0.800  0.00  0.00    -0.077 A 
ATOM      3  C2  UNL d   1       0.788  -0.080  -0.260  0.00  0.00    -0.001 A 
ATOM      4  C3  UNL d   1      -0.377   0.688  -0.243  0.00  0.00     0.003 A 
ATOM      5  C4  UNL d   1      -0.641   1.535   0.831  0.00  0.00    -0.005 A 
ATOM      6  C5  UNL d   1       0.261   1.617   1.889  0.00  0.00     0.003 A 
ATOM      7  C6  UNL d   1       1.427   0.850   1.874  0.00  0.00    -0.001 A 
ENDROOT
TORSDOF 0
ENDMDL
