MODEL 1
REMARK minimizedAffinity -5.05080652
REMARK minimizedRMSD -1
REMARK  0 active torsions:
REMARK  status: ('A' for Active; 'I' for Inactive)
ROOT
ATOM      1  C   UNL d   1       1.834  -0.115   1.911  0.00  0.00     0.078 C 
ATOM      2  C1  UNL d   1       0.650   0.603   1.336  0.00  0.00    -0.077 A 
ATOM      3  C2  UNL d   1      -0.081   0.055   0.276  0.00  0.00    -0.001 A 
ATOM      4  C3  UNL d   1      -1.175   0.739  -0.256  0.00  0.00     0.003 A 
ATOM      5  C4  UNL d   1      -1.547   1.977   0.266  0.00  0.00    -0.005 A 
ATOM      6  C5  UNL d   1      -0.824   2.532   1.320  0.00  0.00     0.003 A 
ATOM      7  C6  UNL d   1       0.271   1.849   1.853  0.00  0.00    -0.001 A 
ENDROOT
TORSDOF 0
ENDMDL
