MODEL 1
REMARK minimizedAffinity -4.67227173
REMARK minimizedRMSD -1
REMARK  0 active torsions:
REMARK  status: ('A' for Active; 'I' for Inactive)
ROOT
ATOM      1  C   UNL d   1      -0.017   1.098  -2.047  0.00  0.00     0.078 C 
ATOM      2  C1  UNL d   1      -0.485   1.294  -0.636  0.00  0.00    -0.077 A 
ATOM      3  C2  UNL d   1      -1.633   2.045  -0.354  0.00  0.00    -0.001 A 
ATOM      4  C3  UNL d   1      -2.051   2.227   0.965  0.00  0.00     0.003 A 
ATOM      5  C4  UNL d   1      -1.327   1.662   2.013  0.00  0.00    -0.005 A 
ATOM      6  C5  UNL d   1      -0.182   0.916   1.743  0.00  0.00     0.003 A 
ATOM      7  C6  UNL d   1       0.238   0.732   0.425  0.00  0.00    -0.001 A 
ENDROOT
TORSDOF 0
ENDMDL
