MODEL 1
REMARK minimizedAffinity -3.84557056
REMARK minimizedRMSD -1
REMARK  0 active torsions:
REMARK  status: ('A' for Active; 'I' for Inactive)
ROOT
ATOM      1  C   UNL d   1      -0.933   2.847   1.935  0.00  0.00     0.078 C 
ATOM      2  C1  UNL d   1      -0.564   2.017   0.742  0.00  0.00    -0.077 A 
ATOM      3  C2  UNL d   1      -0.119   0.698   0.891  0.00  0.00    -0.001 A 
ATOM      4  C3  UNL d   1       0.229  -0.060  -0.228  0.00  0.00     0.003 A 
ATOM      5  C4  UNL d   1       0.139   0.493  -1.503  0.00  0.00    -0.005 A 
ATOM      6  C5  UNL d   1      -0.301   1.805  -1.661  0.00  0.00     0.003 A 
ATOM      7  C6  UNL d   1      -0.650   2.565  -0.544  0.00  0.00    -0.001 A 
ENDROOT
TORSDOF 0
ENDMDL
