MODEL 1
REMARK minimizedAffinity -3.95628786
REMARK minimizedRMSD -1
REMARK  0 active torsions:
REMARK  status: ('A' for Active; 'I' for Inactive)
ROOT
ATOM      1  C   UNL d   1      -1.864   2.628   1.293  0.00  0.00     0.078 C 
ATOM      2  C1  UNL d   1      -0.932   1.747   0.516  0.00  0.00    -0.077 A 
ATOM      3  C2  UNL d   1      -0.149   0.780   1.160  0.00  0.00    -0.001 A 
ATOM      4  C3  UNL d   1       0.721  -0.027   0.426  0.00  0.00     0.003 A 
ATOM      5  C4  UNL d   1       0.818   0.124  -0.956  0.00  0.00    -0.005 A 
ATOM      6  C5  UNL d   1       0.044   1.085  -1.605  0.00  0.00     0.003 A 
ATOM      7  C6  UNL d   1      -0.826   1.893  -0.873  0.00  0.00    -0.001 A 
ENDROOT
TORSDOF 0
ENDMDL
