MODEL 1
REMARK minimizedAffinity -2.04743648
REMARK minimizedRMSD -1
REMARK  0 active torsions:
REMARK  status: ('A' for Active; 'I' for Inactive)
ROOT
ATOM      1  C   UNL d   1      -0.750   2.579   2.121  0.00  0.00     0.078 C 
ATOM      2  C1  UNL d   1      -0.466   1.861   0.836  0.00  0.00    -0.077 A 
ATOM      3  C2  UNL d   1       0.011   0.544   0.836  0.00  0.00    -0.001 A 
ATOM      4  C3  UNL d   1       0.280  -0.108  -0.368  0.00  0.00     0.003 A 
ATOM      5  C4  UNL d   1       0.076   0.547  -1.581  0.00  0.00    -0.005 A 
ATOM      6  C5  UNL d   1      -0.396   1.858  -1.590  0.00  0.00     0.003 A 
ATOM      7  C6  UNL d   1      -0.666   2.513  -0.387  0.00  0.00    -0.001 A 
ENDROOT
TORSDOF 0
ENDMDL
