MODEL 1
REMARK minimizedAffinity 18.00877
REMARK minimizedRMSD -1
REMARK  1 active torsions:
REMARK  status: ('A' for Active; 'I' for Inactive)
REMARK    1  A    between atoms: C1_2  and  C2_3 
ROOT
ATOM      1  C2  UNL d   1      -0.888  -0.498  -5.697  0.00  0.00    -0.073 A 
ATOM      2  C3  UNL d   1      -1.482   0.766  -5.781  0.00  0.00    -0.002 A 
ATOM      3  C4  UNL d   1      -0.692   1.907  -5.927  0.00  0.00     0.004 A 
ATOM      4  C5  UNL d   1       0.696   1.796  -5.997  0.00  0.00    -0.004 A 
ATOM      5  C6  UNL d   1       1.308   0.540  -5.926  0.00  0.00    -0.075 A 
ATOM      6  C7  UNL d   1       2.800   0.404  -5.998  0.00  0.00     0.076 C 
ATOM      7  C8  UNL d   1       0.508  -0.601  -5.778  0.00  0.00     0.001 A 
ENDROOT
BRANCH   1   8
ATOM      8  C1  UNL d   1      -1.737  -1.734  -5.547  0.00  0.00     0.053 C 
ATOM      9  C   UNL d   1      -0.921  -2.935  -5.095  0.00  0.00     0.018 C 
ENDBRANCH   1   8
TORSDOF 1
ENDMDL
