MODEL 1
REMARK minimizedAffinity 0.766849875
REMARK minimizedRMSD -1
REMARK  1 active torsions:
REMARK  status: ('A' for Active; 'I' for Inactive)
REMARK    1  A    between atoms: C1_2  and  C2_3 
ROOT
ATOM      1  C2  UNL d   1       0.260  -1.597   4.101  0.00  0.00    -0.073 A 
ATOM      2  C3  UNL d   1       0.670  -0.742   3.071  0.00  0.00    -0.002 A 
ATOM      3  C4  UNL d   1      -0.253  -0.275   2.133  0.00  0.00     0.004 A 
ATOM      4  C5  UNL d   1      -1.593  -0.652   2.219  0.00  0.00    -0.004 A 
ATOM      5  C6  UNL d   1      -2.024  -1.496   3.248  0.00  0.00    -0.075 A 
ATOM      6  C7  UNL d   1      -3.461  -1.913   3.353  0.00  0.00     0.076 C 
ATOM      7  C8  UNL d   1      -1.091  -1.963   4.184  0.00  0.00     0.001 A 
ENDROOT
BRANCH   1   8
ATOM      8  C1  UNL d   1       1.251  -2.098   5.119  0.00  0.00     0.053 C 
ATOM      9  C   UNL d   1       2.123  -0.978   5.665  0.00  0.00     0.018 C 
ENDBRANCH   1   8
TORSDOF 1
ENDMDL
