MODEL 1
REMARK minimizedAffinity 2.90288711
REMARK minimizedRMSD -1
REMARK  1 active torsions:
REMARK  status: ('A' for Active; 'I' for Inactive)
REMARK    1  A    between atoms: C1_2  and  C2_3 
ROOT
ATOM      1  C2  UNL d   1       1.231  -2.002   3.900  0.00  0.00    -0.073 A 
ATOM      2  C3  UNL d   1       1.595  -0.705   3.518  0.00  0.00    -0.002 A 
ATOM      3  C4  UNL d   1       0.723   0.076   2.759  0.00  0.00     0.004 A 
ATOM      4  C5  UNL d   1      -0.521  -0.427   2.378  0.00  0.00    -0.004 A 
ATOM      5  C6  UNL d   1      -0.907  -1.716   2.760  0.00  0.00    -0.075 A 
ATOM      6  C7  UNL d   1      -2.241  -2.273   2.357  0.00  0.00     0.076 C 
ATOM      7  C8  UNL d   1      -0.025  -2.496   3.520  0.00  0.00     0.001 A 
ENDROOT
BRANCH   1   8
ATOM      8  C1  UNL d   1       2.166  -2.847   4.726  0.00  0.00     0.053 C 
ATOM      9  C   UNL d   1       3.057  -2.002   5.622  0.00  0.00     0.018 C 
ENDBRANCH   1   8
TORSDOF 1
ENDMDL
