MODEL 1
REMARK minimizedAffinity 0.0943264142
REMARK minimizedRMSD -1
REMARK  1 active torsions:
REMARK  status: ('A' for Active; 'I' for Inactive)
REMARK    1  A    between atoms: C1_2  and  C2_3 
ROOT
ATOM      1  C2  UNL d   1       1.401   0.098   1.354  0.00  0.00    -0.073 A 
ATOM      2  C3  UNL d   1       0.006   0.055   1.251  0.00  0.00    -0.002 A 
ATOM      3  C4  UNL d   1      -0.751  -0.618   2.211  0.00  0.00     0.004 A 
ATOM      4  C5  UNL d   1      -0.123  -1.247   3.286  0.00  0.00    -0.004 A 
ATOM      5  C6  UNL d   1       1.269  -1.204   3.413  0.00  0.00    -0.075 A 
ATOM      6  C7  UNL d   1       1.960  -1.877   4.562  0.00  0.00     0.076 C 
ATOM      7  C8  UNL d   1       2.022  -0.529   2.443  0.00  0.00     0.001 A 
ENDROOT
BRANCH   1   8
ATOM      8  C1  UNL d   1       2.222   0.829   0.323  0.00  0.00     0.053 C 
ATOM      9  C   UNL d   1       2.592   2.232   0.778  0.00  0.00     0.018 C 
ENDBRANCH   1   8
TORSDOF 1
ENDMDL
