MODEL 1
REMARK minimizedAffinity 2.13462734
REMARK minimizedRMSD -1
REMARK  1 active torsions:
REMARK  status: ('A' for Active; 'I' for Inactive)
REMARK    1  A    between atoms: C1_2  and  C2_3 
ROOT
ATOM      1  C2  UNL d   1       5.641  -1.829  -3.259  0.00  0.00    -0.073 A 
ATOM      2  C3  UNL d   1       6.000  -0.749  -4.073  0.00  0.00    -0.002 A 
ATOM      3  C4  UNL d   1       5.708  -0.768  -5.438  0.00  0.00     0.004 A 
ATOM      4  C5  UNL d   1       5.050  -1.862  -6.000  0.00  0.00    -0.004 A 
ATOM      5  C6  UNL d   1       4.673  -2.945  -5.200  0.00  0.00    -0.075 A 
ATOM      6  C7  UNL d   1       3.966  -4.131  -5.790  0.00  0.00     0.076 C 
ATOM      7  C8  UNL d   1       4.972  -2.920  -3.831  0.00  0.00     0.001 A 
ENDROOT
BRANCH   1   8
ATOM      8  C1  UNL d   1       5.949  -1.810  -1.784  0.00  0.00     0.053 C 
ATOM      9  C   UNL d   1       4.866  -1.103  -0.985  0.00  0.00     0.018 C 
ENDBRANCH   1   8
TORSDOF 1
ENDMDL
