MODEL 1
REMARK minimizedAffinity 6.28626537
REMARK minimizedRMSD -1
REMARK  1 active torsions:
REMARK  status: ('A' for Active; 'I' for Inactive)
REMARK    1  A    between atoms: C1_2  and  C2_3 
ROOT
ATOM      1  C2  UNL d   1       2.608  -1.398   4.285  0.00  0.00    -0.073 A 
ATOM      2  C3  UNL d   1       1.475  -2.066   3.807  0.00  0.00    -0.002 A 
ATOM      3  C4  UNL d   1       0.909  -1.707   2.583  0.00  0.00     0.004 A 
ATOM      4  C5  UNL d   1       1.474  -0.683   1.822  0.00  0.00    -0.004 A 
ATOM      5  C6  UNL d   1       2.613  -0.012   2.278  0.00  0.00    -0.075 A 
ATOM      6  C7  UNL d   1       3.231   1.094   1.473  0.00  0.00     0.076 C 
ATOM      7  C8  UNL d   1       3.173  -0.376   3.509  0.00  0.00     0.001 A 
ENDROOT
BRANCH   1   8
ATOM      8  C1  UNL d   1       3.226  -1.787   5.603  0.00  0.00     0.053 C 
ATOM      9  C   UNL d   1       4.605  -1.174   5.789  0.00  0.00     0.018 C 
ENDBRANCH   1   8
TORSDOF 1
ENDMDL
