MODEL 1
REMARK minimizedAffinity -5.67019796
REMARK minimizedRMSD -1
REMARK  0 active torsions:
REMARK  status: ('A' for Active; 'I' for Inactive)
ROOT
ATOM      1  C1  DEN d   1      -0.186  -3.369  -1.423  0.00  0.00     0.130 A 
ATOM      2  C2  DEN d   1       0.313  -2.637  -2.584  0.00  0.00    -0.031 A 
ATOM      3  C3  DEN d   1       0.526  -1.232  -2.181  0.00  0.00     0.027 A 
ATOM      4  C4  DEN d   1       0.139  -0.128   0.118  0.00  0.00     0.027 A 
ATOM      5  C5  DEN d   1      -0.288  -0.344   1.409  0.00  0.00    -0.003 A 
ATOM      6  C6  DEN d   1      -0.739  -1.565   1.835  0.00  0.00     0.001 A 
ATOM      7  C7  DEN d   1      -0.731  -2.630   0.972  0.00  0.00     0.017 A 
ATOM      8  C8  DEN d   1      -0.309  -2.418  -0.334  0.00  0.00    -0.094 A 
ATOM      9  C9  DEN d   1       0.154  -1.178  -0.741  0.00  0.00    -0.072 A 
ENDROOT
TORSDOF 0
ENDMDL
