MODEL 1
REMARK minimizedAffinity -4.31399345
REMARK minimizedRMSD -1
REMARK  0 active torsions:
REMARK  status: ('A' for Active; 'I' for Inactive)
ROOT
ATOM      1  C1  DEN d   1      -1.243  -0.601   1.612  0.00  0.00     0.130 A 
ATOM      2  C2  DEN d   1      -1.524  -2.028   1.752  0.00  0.00    -0.031 A 
ATOM      3  C3  DEN d   1      -0.912  -2.728   0.604  0.00  0.00     0.027 A 
ATOM      4  C4  DEN d   1       0.439  -1.747  -1.362  0.00  0.00     0.027 A 
ATOM      5  C5  DEN d   1       0.928  -0.587  -1.920  0.00  0.00    -0.003 A 
ATOM      6  C6  DEN d   1       0.700   0.644  -1.362  0.00  0.00     0.001 A 
ATOM      7  C7  DEN d   1       0.002   0.738  -0.187  0.00  0.00     0.017 A 
ATOM      8  C8  DEN d   1      -0.500  -0.427   0.377  0.00  0.00    -0.094 A 
ATOM      9  C9  DEN d   1      -0.249  -1.663  -0.195  0.00  0.00    -0.072 A 
ENDROOT
TORSDOF 0
ENDMDL
