MODEL 1
REMARK minimizedAffinity -4.28519154
REMARK minimizedRMSD -1
REMARK  0 active torsions:
REMARK  status: ('A' for Active; 'I' for Inactive)
ROOT
ATOM      1  C1  DEN d   1      -1.329  -1.938   1.489  0.00  0.00     0.130 A 
ATOM      2  C2  DEN d   1      -1.385  -0.816   2.423  0.00  0.00    -0.031 A 
ATOM      3  C3  DEN d   1      -0.783   0.359   1.761  0.00  0.00     0.027 A 
ATOM      4  C4  DEN d   1       0.219   0.551  -0.608  0.00  0.00     0.027 A 
ATOM      5  C5  DEN d   1       0.501  -0.138  -1.767  0.00  0.00    -0.003 A 
ATOM      6  C6  DEN d   1       0.226  -1.473  -1.908  0.00  0.00     0.001 A 
ATOM      7  C7  DEN d   1      -0.390  -2.150  -0.889  0.00  0.00     0.017 A 
ATOM      8  C8  DEN d   1      -0.670  -1.464   0.285  0.00  0.00    -0.094 A 
ATOM      9  C9  DEN d   1      -0.396  -0.112   0.404  0.00  0.00    -0.072 A 
ENDROOT
TORSDOF 0
ENDMDL
