MODEL 1
REMARK minimizedAffinity -4.88901091
REMARK minimizedRMSD -1
REMARK  0 active torsions:
REMARK  status: ('A' for Active; 'I' for Inactive)
ROOT
ATOM      1  C1  DEN d   1      -0.047   1.478   0.173  0.00  0.00     0.130 A 
ATOM      2  C2  DEN d   1       0.463   1.094  -1.141  0.00  0.00    -0.031 A 
ATOM      3  C3  DEN d   1       0.398  -0.378  -1.243  0.00  0.00     0.027 A 
ATOM      4  C4  DEN d   1      -0.443  -2.090   0.494  0.00  0.00     0.027 A 
ATOM      5  C5  DEN d   1      -0.961  -2.241   1.762  0.00  0.00    -0.003 A 
ATOM      6  C6  DEN d   1      -1.177  -1.174   2.594  0.00  0.00     0.001 A 
ATOM      7  C7  DEN d   1      -0.916   0.096   2.152  0.00  0.00     0.017 A 
ATOM      8  C8  DEN d   1      -0.387   0.255   0.878  0.00  0.00    -0.094 A 
ATOM      9  C9  DEN d   1      -0.187  -0.834   0.047  0.00  0.00    -0.072 A 
ENDROOT
TORSDOF 0
ENDMDL
