MODEL 1
REMARK minimizedAffinity -6.42670536
REMARK minimizedRMSD -1
REMARK  0 active torsions:
REMARK  status: ('A' for Active; 'I' for Inactive)
ROOT
ATOM      1  C1  DEN d   1       0.804  -1.210   1.777  0.00  0.00     0.130 A 
ATOM      2  C2  DEN d   1      -0.602  -1.563   1.601  0.00  0.00    -0.031 A 
ATOM      3  C3  DEN d   1      -1.233  -0.521   0.766  0.00  0.00     0.027 A 
ATOM      4  C4  DEN d   1      -0.174   1.590  -0.270  0.00  0.00     0.027 A 
ATOM      5  C5  DEN d   1       0.988   2.321  -0.388  0.00  0.00    -0.003 A 
ATOM      6  C6  DEN d   1       2.151   1.947   0.231  0.00  0.00     0.001 A 
ATOM      7  C7  DEN d   1       2.191   0.787   0.958  0.00  0.00     0.017 A 
ATOM      8  C8  DEN d   1       1.022   0.049   1.088  0.00  0.00    -0.094 A 
ATOM      9  C9  DEN d   1      -0.141   0.437   0.445  0.00  0.00    -0.072 A 
ENDROOT
TORSDOF 0
ENDMDL
