MODEL 1
REMARK minimizedAffinity -2.50268817
REMARK minimizedRMSD -1
REMARK  0 active torsions:
REMARK  status: ('A' for Active; 'I' for Inactive)
ROOT
ATOM      1  C1  DEN d   1      -0.467  -3.309  -1.721  0.00  0.00     0.130 A 
ATOM      2  C2  DEN d   1       0.077  -2.660  -2.911  0.00  0.00    -0.031 A 
ATOM      3  C3  DEN d   1       0.430  -1.272  -2.553  0.00  0.00     0.027 A 
ATOM      4  C4  DEN d   1       0.193  -0.071  -0.282  0.00  0.00     0.027 A 
ATOM      5  C5  DEN d   1      -0.228  -0.209   1.022  0.00  0.00    -0.003 A 
ATOM      6  C6  DEN d   1      -0.785  -1.370   1.491  0.00  0.00     0.001 A 
ATOM      7  C7  DEN d   1      -0.895  -2.454   0.660  0.00  0.00     0.017 A 
ATOM      8  C8  DEN d   1      -0.479  -2.320  -0.658  0.00  0.00    -0.094 A 
ATOM      9  C9  DEN d   1       0.093  -1.142  -1.109  0.00  0.00    -0.072 A 
ENDROOT
TORSDOF 0
ENDMDL
