MODEL 1
REMARK minimizedAffinity -6.12060499
REMARK minimizedRMSD -1
REMARK  0 active torsions:
REMARK  status: ('A' for Active; 'I' for Inactive)
ROOT
ATOM      1  C1  DEN d   1      -1.324  -1.843   1.203  0.00  0.00     0.130 A 
ATOM      2  C2  DEN d   1      -1.278  -0.384   1.216  0.00  0.00    -0.031 A 
ATOM      3  C3  DEN d   1      -0.476   0.058   0.057  0.00  0.00     0.027 A 
ATOM      4  C4  DEN d   1       0.688  -1.370  -1.749  0.00  0.00     0.027 A 
ATOM      5  C5  DEN d   1       0.940  -2.656  -2.173  0.00  0.00    -0.003 A 
ATOM      6  C6  DEN d   1       0.488  -3.752  -1.488  0.00  0.00     0.001 A 
ATOM      7  C7  DEN d   1      -0.280  -3.583  -0.366  0.00  0.00     0.017 A 
ATOM      8  C8  DEN d   1      -0.532  -2.290   0.072  0.00  0.00    -0.094 A 
ATOM      9  C9  DEN d   1      -0.076  -1.194  -0.641  0.00  0.00    -0.072 A 
ENDROOT
TORSDOF 0
ENDMDL
