MODEL 1
REMARK minimizedAffinity -1.26014566
REMARK minimizedRMSD -1
REMARK  0 active torsions:
REMARK  status: ('A' for Active; 'I' for Inactive)
ROOT
ATOM      1  C1  DEN d   1      -0.412   1.068   0.003  0.00  0.00     0.130 A 
ATOM      2  C2  DEN d   1       0.983   1.494  -0.052  0.00  0.00    -0.031 A 
ATOM      3  C3  DEN d   1       1.832   0.301   0.142  0.00  0.00     0.027 A 
ATOM      4  C4  DEN d   1       1.125  -2.151   0.518  0.00  0.00     0.027 A 
ATOM      5  C5  DEN d   1       0.049  -3.000   0.654  0.00  0.00    -0.003 A 
ATOM      6  C6  DEN d   1      -1.244  -2.552   0.617  0.00  0.00     0.001 A 
ATOM      7  C7  DEN d   1      -1.497  -1.224   0.395  0.00  0.00     0.017 A 
ATOM      8  C8  DEN d   1      -0.417  -0.360   0.264  0.00  0.00    -0.094 A 
ATOM      9  C9  DEN d   1       0.883  -0.835   0.292  0.00  0.00    -0.072 A 
ENDROOT
TORSDOF 0
ENDMDL
