MODEL 1
REMARK minimizedAffinity -2.18084836
REMARK minimizedRMSD -1
REMARK  0 active torsions:
REMARK  status: ('A' for Active; 'I' for Inactive)
ROOT
ATOM      1  C1  DEN d   1       0.648  -0.936  -2.143  0.00  0.00     0.130 A 
ATOM      2  C2  DEN d   1       0.313   0.482  -2.234  0.00  0.00    -0.031 A 
ATOM      3  C3  DEN d   1      -0.211   0.913  -0.923  0.00  0.00     0.027 A 
ATOM      4  C4  DEN d   1      -0.532  -0.469   1.231  0.00  0.00     0.027 A 
ATOM      5  C5  DEN d   1      -0.400  -1.720   1.791  0.00  0.00    -0.003 A 
ATOM      6  C6  DEN d   1       0.054  -2.797   1.076  0.00  0.00     0.001 A 
ATOM      7  C7  DEN d   1       0.436  -2.632  -0.229  0.00  0.00     0.017 A 
ATOM      8  C8  DEN d   1       0.300  -1.375  -0.803  0.00  0.00    -0.094 A 
ATOM      9  C9  DEN d   1      -0.150  -0.297  -0.060  0.00  0.00    -0.072 A 
ENDROOT
TORSDOF 0
ENDMDL
