MODEL 1
REMARK minimizedAffinity -2.40040374
REMARK minimizedRMSD -1
REMARK  0 active torsions:
REMARK  status: ('A' for Active; 'I' for Inactive)
ROOT
ATOM      1  C1  DEN d   1      -0.928   0.167   1.577  0.00  0.00     0.130 A 
ATOM      2  C2  DEN d   1       0.038   1.148   1.088  0.00  0.00    -0.031 A 
ATOM      3  C3  DEN d   1       1.004   0.444   0.221  0.00  0.00     0.027 A 
ATOM      4  C4  DEN d   1       1.095  -2.055  -0.412  0.00  0.00     0.027 A 
ATOM      5  C5  DEN d   1       0.494  -3.281  -0.232  0.00  0.00    -0.003 A 
ATOM      6  C6  DEN d   1      -0.593  -3.449   0.584  0.00  0.00     0.001 A 
ATOM      7  C7  DEN d   1      -1.142  -2.364   1.215  0.00  0.00     0.017 A 
ATOM      8  C8  DEN d   1      -0.537  -1.126   1.045  0.00  0.00    -0.094 A 
ATOM      9  C9  DEN d   1       0.555  -0.975   0.206  0.00  0.00    -0.072 A 
ENDROOT
TORSDOF 0
ENDMDL
