MODEL 1
REMARK minimizedAffinity -3.40410304
REMARK minimizedRMSD -1
REMARK  0 active torsions:
REMARK  status: ('A' for Active; 'I' for Inactive)
ROOT
ATOM      1  C1  DEN d   1      -0.528  -1.257   1.663  0.00  0.00     0.130 A 
ATOM      2  C2  DEN d   1      -0.484  -2.654   1.241  0.00  0.00    -0.031 A 
ATOM      3  C3  DEN d   1      -0.144  -2.686  -0.196  0.00  0.00     0.027 A 
ATOM      4  C4  DEN d   1       0.321  -0.719  -1.798  0.00  0.00     0.027 A 
ATOM      5  C5  DEN d   1       0.390   0.653  -1.900  0.00  0.00    -0.003 A 
ATOM      6  C6  DEN d   1       0.126   1.479  -0.840  0.00  0.00     0.001 A 
ATOM      7  C7  DEN d   1      -0.174   0.938   0.383  0.00  0.00     0.017 A 
ATOM      8  C8  DEN d   1      -0.253  -0.444   0.492  0.00  0.00    -0.094 A 
ATOM      9  C9  DEN d   1       0.029  -1.262  -0.588  0.00  0.00    -0.072 A 
ENDROOT
TORSDOF 0
ENDMDL
