MODEL 1
REMARK minimizedAffinity -5.7474122
REMARK minimizedRMSD -1
REMARK  0 active torsions:
REMARK  status: ('A' for Active; 'I' for Inactive)
ROOT
ATOM      1  C1  DEN d   1       0.630   0.398  -1.994  0.00  0.00     0.130 A 
ATOM      2  C2  DEN d   1       0.291   1.655  -1.332  0.00  0.00    -0.031 A 
ATOM      3  C3  DEN d   1      -0.190   1.339   0.028  0.00  0.00     0.027 A 
ATOM      4  C4  DEN d   1      -0.438  -0.962   1.168  0.00  0.00     0.027 A 
ATOM      5  C5  DEN d   1      -0.286  -2.320   0.999  0.00  0.00    -0.003 A 
ATOM      6  C6  DEN d   1       0.145  -2.866  -0.181  0.00  0.00     0.001 A 
ATOM      7  C7  DEN d   1       0.484  -2.045  -1.224  0.00  0.00     0.017 A 
ATOM      8  C8  DEN d   1       0.327  -0.675  -1.064  0.00  0.00    -0.094 A 
ATOM      9  C9  DEN d   1      -0.099  -0.142   0.141  0.00  0.00    -0.072 A 
ENDROOT
TORSDOF 0
ENDMDL
