MODEL 1
REMARK minimizedAffinity -4.05022955
REMARK minimizedRMSD -1
REMARK  0 active torsions:
REMARK  status: ('A' for Active; 'I' for Inactive)
ROOT
ATOM      1  C1  DEN d   1       2.020   2.195   2.022  0.00  0.00     0.130 A 
ATOM      2  C2  DEN d   1       2.224   3.485   1.370  0.00  0.00    -0.031 A 
ATOM      3  C3  DEN d   1       1.557   3.442   0.053  0.00  0.00     0.027 A 
ATOM      4  C4  DEN d   1       0.231   1.514  -1.031  0.00  0.00     0.027 A 
ATOM      5  C5  DEN d   1      -0.203   0.217  -0.865  0.00  0.00    -0.003 A 
ATOM      6  C6  DEN d   1       0.101  -0.517   0.251  0.00  0.00     0.001 A 
ATOM      7  C7  DEN d   1       0.821   0.056   1.265  0.00  0.00     0.017 A 
ATOM      8  C8  DEN d   1       1.268   1.361   1.102  0.00  0.00    -0.094 A 
ATOM      9  C9  DEN d   1       0.940   2.090  -0.028  0.00  0.00    -0.072 A 
ENDROOT
TORSDOF 0
ENDMDL
