MODEL 1
REMARK minimizedAffinity -2.51409698
REMARK minimizedRMSD -1
REMARK  0 active torsions:
REMARK  status: ('A' for Active; 'I' for Inactive)
ROOT
ATOM      1  C1  DEN d   1      -0.882  -0.791   1.526  0.00  0.00     0.130 A 
ATOM      2  C2  DEN d   1      -0.959  -2.248   1.479  0.00  0.00    -0.031 A 
ATOM      3  C3  DEN d   1      -0.443  -2.691   0.168  0.00  0.00     0.027 A 
ATOM      4  C4  DEN d   1       0.466  -1.269  -1.782  0.00  0.00     0.027 A 
ATOM      5  C5  DEN d   1       0.717   0.015  -2.213  0.00  0.00    -0.003 A 
ATOM      6  C6  DEN d   1       0.424   1.113  -1.448  0.00  0.00     0.001 A 
ATOM      7  C7  DEN d   1      -0.096   0.945  -0.192  0.00  0.00     0.017 A 
ATOM      8  C8  DEN d   1      -0.359  -0.346   0.247  0.00  0.00    -0.094 A 
ATOM      9  C9  DEN d   1      -0.045  -1.443  -0.537  0.00  0.00    -0.072 A 
ENDROOT
TORSDOF 0
ENDMDL
