MODEL 1
REMARK minimizedAffinity -3.94909096
REMARK minimizedRMSD -1
REMARK  0 active torsions:
REMARK  status: ('A' for Active; 'I' for Inactive)
ROOT
ATOM      1  C1  DEN d   1       0.540   0.839  -0.982  0.00  0.00     0.130 A 
ATOM      2  C2  DEN d   1       0.768   1.978  -0.097  0.00  0.00    -0.031 A 
ATOM      3  C3  DEN d   1       0.554   1.527   1.293  0.00  0.00     0.027 A 
ATOM      4  C4  DEN d   1      -0.100  -0.815   2.155  0.00  0.00     0.027 A 
ATOM      5  C5  DEN d   1      -0.413  -2.102   1.780  0.00  0.00    -0.003 A 
ATOM      6  C6  DEN d   1      -0.464  -2.488   0.466  0.00  0.00     0.001 A 
ATOM      7  C7  DEN d   1      -0.152  -1.588  -0.518  0.00  0.00     0.017 A 
ATOM      8  C8  DEN d   1       0.158  -0.286  -0.147  0.00  0.00    -0.094 A 
ATOM      9  C9  DEN d   1       0.215   0.082   1.186  0.00  0.00    -0.072 A 
ENDROOT
TORSDOF 0
ENDMDL
