MODEL 1
REMARK minimizedAffinity -5.01420975
REMARK minimizedRMSD -1
REMARK  0 active torsions:
REMARK  status: ('A' for Active; 'I' for Inactive)
ROOT
ATOM      1  C1  BNZ d   1       1.346   0.026   0.370  0.00  0.00     0.000 A 
ATOM      2  C2  BNZ d   1       2.235   1.069   0.371  0.00  0.00     0.000 A 
ATOM      3  C3  BNZ d   1       3.551   0.866   0.678  0.00  0.00     0.000 A 
ATOM      4  C4  BNZ d   1       3.969  -0.370   1.022  0.00  0.00     0.000 A 
ATOM      5  C5  BNZ d   1       3.084  -1.429   1.034  0.00  0.00     0.000 A 
ATOM      6  C6  BNZ d   1       1.767  -1.228   0.687  0.00  0.00     0.000 A 
ENDROOT
TORSDOF 0
ENDMDL
