MODEL 1
REMARK minimizedAffinity -4.10510159
REMARK minimizedRMSD -1
REMARK  0 active torsions:
REMARK  status: ('A' for Active; 'I' for Inactive)
ROOT
ATOM      1  C1  BNZ d   1      -0.035  -1.280  -0.629  0.00  0.00     0.000 A 
ATOM      2  C2  BNZ d   1       1.080  -1.665   0.066  0.00  0.00     0.000 A 
ATOM      3  C3  BNZ d   1       1.665  -0.825   0.972  0.00  0.00     0.000 A 
ATOM      4  C4  BNZ d   1       1.159   0.412   1.152  0.00  0.00     0.000 A 
ATOM      5  C5  BNZ d   1       0.041   0.819   0.451  0.00  0.00     0.000 A 
ATOM      6  C6  BNZ d   1      -0.568  -0.043  -0.431  0.00  0.00     0.000 A 
ENDROOT
TORSDOF 0
ENDMDL
