MODEL 1
REMARK minimizedAffinity -5.09949732
REMARK minimizedRMSD -1
REMARK  0 active torsions:
REMARK  status: ('A' for Active; 'I' for Inactive)
ROOT
ATOM      1  C1  BNZ d   1       3.469  -0.547   0.593  0.00  0.00     0.000 A 
ATOM      2  C2  BNZ d   1       3.065   0.761   0.626  0.00  0.00     0.000 A 
ATOM      3  C3  BNZ d   1       1.743   1.088   0.516  0.00  0.00     0.000 A 
ATOM      4  C4  BNZ d   1       0.831   0.111   0.332  0.00  0.00     0.000 A 
ATOM      5  C5  BNZ d   1       1.223  -1.212   0.287  0.00  0.00     0.000 A 
ATOM      6  C6  BNZ d   1       2.551  -1.540   0.437  0.00  0.00     0.000 A 
ENDROOT
TORSDOF 0
ENDMDL
