MODEL 1
REMARK minimizedAffinity -2.81592941
REMARK minimizedRMSD -1
REMARK  0 active torsions:
REMARK  status: ('A' for Active; 'I' for Inactive)
ROOT
ATOM      1  C1  BNZ d   1      -1.008   0.507  -0.382  0.00  0.00     0.000 A 
ATOM      2  C2  BNZ d   1      -0.950  -0.841  -0.618  0.00  0.00     0.000 A 
ATOM      3  C3  BNZ d   1       0.216  -1.532  -0.443  0.00  0.00     0.000 A 
ATOM      4  C4  BNZ d   1       1.331  -0.869  -0.073  0.00  0.00     0.000 A 
ATOM      5  C5  BNZ d   1       1.291   0.491   0.159  0.00  0.00     0.000 A 
ATOM      6  C6  BNZ d   1       0.106   1.177   0.020  0.00  0.00     0.000 A 
ENDROOT
TORSDOF 0
ENDMDL
