MODEL 1
REMARK minimizedAffinity -4.4375596
REMARK minimizedRMSD -1
REMARK  0 active torsions:
REMARK  status: ('A' for Active; 'I' for Inactive)
ROOT
ATOM      1  C1  BNZ d   1       2.191  -0.962   0.350  0.00  0.00     0.000 A 
ATOM      2  C2  BNZ d   1       1.587   0.249   0.558  0.00  0.00     0.000 A 
ATOM      3  C3  BNZ d   1       0.268   0.436   0.248  0.00  0.00     0.000 A 
ATOM      4  C4  BNZ d   1      -0.433  -0.574  -0.305  0.00  0.00     0.000 A 
ATOM      5  C5  BNZ d   1       0.165  -1.799  -0.529  0.00  0.00     0.000 A 
ATOM      6  C6  BNZ d   1       1.481  -1.995  -0.180  0.00  0.00     0.000 A 
ENDROOT
TORSDOF 0
ENDMDL
