MODEL 1
REMARK minimizedAffinity -5.15795183
REMARK minimizedRMSD -1
REMARK  0 active torsions:
REMARK  status: ('A' for Active; 'I' for Inactive)
ROOT
ATOM      1  C1  BNZ d   1       1.091   1.234  -0.016  0.00  0.00     0.000 A 
ATOM      2  C2  BNZ d   1       2.442   1.013   0.019  0.00  0.00     0.000 A 
ATOM      3  C3  BNZ d   1       2.945  -0.177   0.464  0.00  0.00     0.000 A 
ATOM      4  C4  BNZ d   1       2.100  -1.128   0.911  0.00  0.00     0.000 A 
ATOM      5  C5  BNZ d   1       0.736  -0.917   0.890  0.00  0.00     0.000 A 
ATOM      6  C6  BNZ d   1       0.232   0.268   0.405  0.00  0.00     0.000 A 
ENDROOT
TORSDOF 0
ENDMDL
