MODEL 1
REMARK minimizedAffinity -2.46371627
REMARK minimizedRMSD -1
REMARK  0 active torsions:
REMARK  status: ('A' for Active; 'I' for Inactive)
ROOT
ATOM      1  C1  BNZ d   1      -0.684   0.407  -0.418  0.00  0.00     0.000 A 
ATOM      2  C2  BNZ d   1       0.066  -0.532   0.240  0.00  0.00     0.000 A 
ATOM      3  C3  BNZ d   1       1.260  -0.195   0.816  0.00  0.00     0.000 A 
ATOM      4  C4  BNZ d   1       1.720   1.067   0.699  0.00  0.00     0.000 A 
ATOM      5  C5  BNZ d   1       0.979   2.022   0.032  0.00  0.00     0.000 A 
ATOM      6  C6  BNZ d   1      -0.240   1.689  -0.513  0.00  0.00     0.000 A 
ENDROOT
TORSDOF 0
ENDMDL
