MODEL 1
REMARK minimizedAffinity -2.83282709
REMARK minimizedRMSD -1
REMARK  0 active torsions:
REMARK  status: ('A' for Active; 'I' for Inactive)
ROOT
ATOM      1  C1  BNZ d   1       0.558   0.116   0.363  0.00  0.00     0.000 A 
ATOM      2  C2  BNZ d   1       1.877   0.395   0.600  0.00  0.00     0.000 A 
ATOM      3  C3  BNZ d   1       2.826  -0.586   0.516  0.00  0.00     0.000 A 
ATOM      4  C4  BNZ d   1       2.450  -1.850   0.236  0.00  0.00     0.000 A 
ATOM      5  C5  BNZ d   1       1.122  -2.149   0.004  0.00  0.00     0.000 A 
ATOM      6  C6  BNZ d   1       0.175  -1.152   0.050  0.00  0.00     0.000 A 
ENDROOT
TORSDOF 0
ENDMDL
