MODEL 1
REMARK minimizedAffinity -0.375290632
REMARK minimizedRMSD -1
REMARK  0 active torsions:
REMARK  status: ('A' for Active; 'I' for Inactive)
ROOT
ATOM      1  N1  IND d   1      -0.554   0.960  -2.490  0.00  0.00    -0.196 N 
ATOM      2  C2  IND d   1       0.236   0.359  -3.430  0.00  0.00     0.054 A 
ATOM      3  C3  IND d   1       1.134  -0.460  -2.836  0.00  0.00    -0.031 A 
ATOM      4  C4  IND d   1       1.419  -1.042  -0.345  0.00  0.00     0.051 A 
ATOM      5  C5  IND d   1       0.954  -0.715   0.898  0.00  0.00    -0.031 A 
ATOM      6  C6  IND d   1      -0.060   0.204   1.079  0.00  0.00     0.015 A 
ATOM      7  C7  IND d   1      -0.657   0.824   0.017  0.00  0.00    -0.016 A 
ATOM      8  C8  IND d   1      -0.182   0.500  -1.246  0.00  0.00    -0.047 A 
ATOM      9  C9  IND d   1       0.875  -0.400  -1.432  0.00  0.00    -0.096 A 
ATOM     10  HN1 IND d   1      -1.178   1.530  -2.649  0.00  0.00     0.298 HD
ENDROOT
TORSDOF 0
ENDMDL
