MODEL 1
REMARK minimizedAffinity -2.15120792
REMARK minimizedRMSD -1
REMARK  0 active torsions:
REMARK  status: ('A' for Active; 'I' for Inactive)
ROOT
ATOM      1  N1  IND d   1       1.259   0.346  -0.737  0.00  0.00    -0.196 N 
ATOM      2  C2  IND d   1       0.652   0.103  -1.937  0.00  0.00     0.054 A 
ATOM      3  C3  IND d   1      -0.692   0.074  -1.787  0.00  0.00    -0.031 A 
ATOM      4  C4  IND d   1      -2.111   0.502   0.318  0.00  0.00     0.051 A 
ATOM      5  C5  IND d   1      -2.005   0.728   1.662  0.00  0.00    -0.031 A 
ATOM      6  C6  IND d   1      -0.780   0.844   2.287  0.00  0.00     0.015 A 
ATOM      7  C7  IND d   1       0.389   0.748   1.586  0.00  0.00    -0.016 A 
ATOM      8  C8  IND d   1       0.285   0.511   0.223  0.00  0.00    -0.047 A 
ATOM      9  C9  IND d   1      -0.955   0.351  -0.410  0.00  0.00    -0.096 A 
ATOM     10  HN1 IND d   1       2.108   0.389  -0.604  0.00  0.00     0.298 HD
ENDROOT
TORSDOF 0
ENDMDL
