MODEL 1
REMARK minimizedAffinity -4.22932577
REMARK minimizedRMSD -1
REMARK  0 active torsions:
REMARK  status: ('A' for Active; 'I' for Inactive)
ROOT
ATOM      1  N1  IND d   1      -1.126   0.365  -1.092  0.00  0.00    -0.196 N 
ATOM      2  C2  IND d   1       0.026   0.141  -1.793  0.00  0.00     0.054 A 
ATOM      3  C3  IND d   1       1.091   0.138  -0.959  0.00  0.00    -0.031 A 
ATOM      4  C4  IND d   1       1.163   0.380   1.603  0.00  0.00     0.051 A 
ATOM      5  C5  IND d   1       0.367   0.640   2.683  0.00  0.00    -0.031 A 
ATOM      6  C6  IND d   1      -0.995   0.822   2.558  0.00  0.00     0.015 A 
ATOM      7  C7  IND d   1      -1.616   0.740   1.344  0.00  0.00    -0.016 A 
ATOM      8  C8  IND d   1      -0.810   0.483   0.244  0.00  0.00    -0.047 A 
ATOM      9  C9  IND d   1       0.578   0.340   0.359  0.00  0.00    -0.096 A 
ATOM     10  HN1 IND d   1      -1.915   0.422  -1.429  0.00  0.00     0.298 HD
ENDROOT
TORSDOF 0
ENDMDL
