MODEL 1
REMARK minimizedAffinity -0.643969059
REMARK minimizedRMSD -1
REMARK  0 active torsions:
REMARK  status: ('A' for Active; 'I' for Inactive)
ROOT
ATOM      1  N1  IND d   1      -0.616  -0.545   0.086  0.00  0.00    -0.196 N 
ATOM      2  C2  IND d   1       0.202   0.174  -0.739  0.00  0.00     0.054 A 
ATOM      3  C3  IND d   1       0.759   1.206  -0.067  0.00  0.00    -0.031 A 
ATOM      4  C4  IND d   1       0.548   1.843   2.418  0.00  0.00     0.051 A 
ATOM      5  C5  IND d   1      -0.117   1.506   3.564  0.00  0.00    -0.031 A 
ATOM      6  C6  IND d   1      -0.998   0.445   3.611  0.00  0.00     0.015 A 
ATOM      7  C7  IND d   1      -1.239  -0.329   2.511  0.00  0.00    -0.016 A 
ATOM      8  C8  IND d   1      -0.571   0.014   1.344  0.00  0.00    -0.047 A 
ATOM      9  C9  IND d   1       0.291   1.116   1.280  0.00  0.00    -0.096 A 
ATOM     10  HN1 IND d   1      -1.081  -1.232  -0.142  0.00  0.00     0.298 HD
ENDROOT
TORSDOF 0
ENDMDL
