MODEL 1
REMARK minimizedAffinity -1.97390473
REMARK minimizedRMSD -1
REMARK  0 active torsions:
REMARK  status: ('A' for Active; 'I' for Inactive)
ROOT
ATOM      1  N1  IND d   1       1.021  -0.387  -1.231  0.00  0.00    -0.196 N 
ATOM      2  C2  IND d   1       0.093  -0.007  -2.161  0.00  0.00     0.054 A 
ATOM      3  C3  IND d   1      -1.067   0.333  -1.556  0.00  0.00    -0.031 A 
ATOM      4  C4  IND d   1      -1.634   0.438   0.953  0.00  0.00     0.051 A 
ATOM      5  C5  IND d   1      -1.120   0.150   2.187  0.00  0.00    -0.031 A 
ATOM      6  C6  IND d   1       0.160  -0.340   2.347  0.00  0.00     0.015 A 
ATOM      7  C7  IND d   1       0.982  -0.549   1.276  0.00  0.00    -0.016 A 
ATOM      8  C8  IND d   1       0.461  -0.264   0.022  0.00  0.00    -0.047 A 
ATOM      9  C9  IND d   1      -0.852   0.193  -0.150  0.00  0.00    -0.096 A 
ATOM     10  HN1 IND d   1       1.819  -0.657  -1.401  0.00  0.00     0.298 HD
ENDROOT
TORSDOF 0
ENDMDL
