MODEL 1
REMARK minimizedAffinity -0.297771662
REMARK minimizedRMSD -1
REMARK  0 active torsions:
REMARK  status: ('A' for Active; 'I' for Inactive)
ROOT
ATOM      1  N1  IND d   1      -0.443   1.790  -4.868  0.00  0.00    -0.196 N 
ATOM      2  C2  IND d   1      -1.594   1.086  -4.650  0.00  0.00     0.054 A 
ATOM      3  C3  IND d   1      -1.403  -0.224  -4.921  0.00  0.00    -0.031 A 
ATOM      4  C4  IND d   1       0.745  -1.450  -5.636  0.00  0.00     0.051 A 
ATOM      5  C5  IND d   1       2.044  -1.225  -5.998  0.00  0.00    -0.031 A 
ATOM      6  C6  IND d   1       2.592   0.041  -6.000  0.00  0.00     0.015 A 
ATOM      7  C7  IND d   1       1.861   1.134  -5.627  0.00  0.00    -0.016 A 
ATOM      8  C8  IND d   1       0.540   0.911  -5.265  0.00  0.00    -0.047 A 
ATOM      9  C9  IND d   1      -0.033  -0.367  -5.302  0.00  0.00    -0.096 A 
ATOM     10  HN1 IND d   1      -0.348   2.640  -4.774  0.00  0.00     0.298 HD
ENDROOT
TORSDOF 0
ENDMDL
