MODEL 1
REMARK minimizedAffinity -3.75174737
REMARK minimizedRMSD -1
REMARK  0 active torsions:
REMARK  status: ('A' for Active; 'I' for Inactive)
ROOT
ATOM      1  N1  IND d   1      -0.214  -0.729  -0.532  0.00  0.00    -0.196 N 
ATOM      2  C2  IND d   1       1.025  -1.170  -0.159  0.00  0.00     0.054 A 
ATOM      3  C3  IND d   1       1.412  -0.569   0.988  0.00  0.00    -0.031 A 
ATOM      4  C4  IND d   1       0.129   1.091   2.479  0.00  0.00     0.051 A 
ATOM      5  C5  IND d   1      -1.026   1.820   2.533  0.00  0.00    -0.031 A 
ATOM      6  C6  IND d   1      -1.990   1.732   1.550  0.00  0.00     0.015 A 
ATOM      7  C7  IND d   1      -1.839   0.901   0.476  0.00  0.00    -0.016 A 
ATOM      8  C8  IND d   1      -0.664   0.165   0.415  0.00  0.00    -0.047 A 
ATOM      9  C9  IND d   1       0.336   0.281   1.388  0.00  0.00    -0.096 A 
ATOM     10  HN1 IND d   1      -0.640  -0.969  -1.239  0.00  0.00     0.298 HD
ENDROOT
TORSDOF 0
ENDMDL
