MODEL 1
REMARK minimizedAffinity -4.13767862
REMARK minimizedRMSD -1
REMARK  0 active torsions:
REMARK  status: ('A' for Active; 'I' for Inactive)
ROOT
ATOM      1  N1  IND d   1       1.332   0.861  -0.292  0.00  0.00    -0.196 N 
ATOM      2  C2  IND d   1       0.957   0.037  -1.317  0.00  0.00     0.054 A 
ATOM      3  C3  IND d   1      -0.236  -0.538  -1.045  0.00  0.00    -0.031 A 
ATOM      4  C4  IND d   1      -1.797  -0.192   0.973  0.00  0.00     0.051 A 
ATOM      5  C5  IND d   1      -1.869   0.437   2.184  0.00  0.00    -0.031 A 
ATOM      6  C6  IND d   1      -0.858   1.259   2.639  0.00  0.00     0.015 A 
ATOM      7  C7  IND d   1       0.262   1.492   1.892  0.00  0.00    -0.016 A 
ATOM      8  C8  IND d   1       0.341   0.849   0.665  0.00  0.00    -0.047 A 
ATOM      9  C9  IND d   1      -0.662  -0.020   0.216  0.00  0.00    -0.096 A 
ATOM     10  HN1 IND d   1       2.063   1.312  -0.253  0.00  0.00     0.298 HD
ENDROOT
TORSDOF 0
ENDMDL
