MODEL 1
REMARK minimizedAffinity -4.40204382
REMARK minimizedRMSD -1
REMARK  0 active torsions:
REMARK  status: ('A' for Active; 'I' for Inactive)
ROOT
ATOM      1  N1  IND d   1       1.651  -1.219   0.785  0.00  0.00    -0.196 N 
ATOM      2  C2  IND d   1       1.514  -1.087  -0.568  0.00  0.00     0.054 A 
ATOM      3  C3  IND d   1       0.346  -0.474  -0.866  0.00  0.00    -0.031 A 
ATOM      4  C4  IND d   1      -1.445   0.487   0.714  0.00  0.00     0.051 A 
ATOM      5  C5  IND d   1      -1.781   0.574   2.036  0.00  0.00    -0.031 A 
ATOM      6  C6  IND d   1      -0.972   0.059   3.029  0.00  0.00     0.015 A 
ATOM      7  C7  IND d   1       0.213  -0.554   2.736  0.00  0.00    -0.016 A 
ATOM      8  C8  IND d   1       0.554  -0.650   1.394  0.00  0.00    -0.047 A 
ATOM      9  C9  IND d   1      -0.283  -0.167   0.380  0.00  0.00    -0.096 A 
ATOM     10  HN1 IND d   1       2.311  -1.595   1.189  0.00  0.00     0.298 HD
ENDROOT
TORSDOF 0
ENDMDL
