MODEL 1
REMARK minimizedAffinity -3.5722599
REMARK minimizedRMSD -1
REMARK  0 active torsions:
REMARK  status: ('A' for Active; 'I' for Inactive)
ROOT
ATOM      1  N1  IND d   1       0.644   1.189  -0.805  0.00  0.00    -0.196 N 
ATOM      2  C2  IND d   1       0.586  -0.092  -1.280  0.00  0.00     0.054 A 
ATOM      3  C3  IND d   1      -0.156  -0.866  -0.456  0.00  0.00    -0.031 A 
ATOM      4  C4  IND d   1      -1.454  -0.216   1.670  0.00  0.00     0.051 A 
ATOM      5  C5  IND d   1      -1.674   0.831   2.519  0.00  0.00    -0.031 A 
ATOM      6  C6  IND d   1      -1.125   2.077   2.298  0.00  0.00     0.015 A 
ATOM      7  C7  IND d   1      -0.340   2.326   1.208  0.00  0.00    -0.016 A 
ATOM      8  C8  IND d   1      -0.108   1.263   0.347  0.00  0.00    -0.047 A 
ATOM      9  C9  IND d   1      -0.628  -0.015   0.589  0.00  0.00    -0.096 A 
ATOM     10  HN1 IND d   1       1.076   1.838  -1.166  0.00  0.00     0.298 HD
ENDROOT
TORSDOF 0
ENDMDL
