MODEL 1
REMARK minimizedAffinity -0.513593495
REMARK minimizedRMSD -1
REMARK  2 active torsions:
REMARK  status: ('A' for Active; 'I' for Inactive)
REMARK    1  A    between atoms: C2'_3  and  C1'_4 
REMARK    2  A    between atoms: C1'_4  and  C1_5 
ROOT
ATOM      1  C1  I4B d   1       2.144  -2.840   2.023  0.00  0.00    -0.075 A 
ATOM      2  C2  I4B d   1       1.743  -1.528   1.996  0.00  0.00     0.003 A 
ATOM      3  C3  I4B d   1       0.936  -1.050   0.935  0.00  0.00     0.002 A 
ATOM      4  C4  I4B d   1       0.598  -1.901  -0.097  0.00  0.00    -0.004 A 
ATOM      5  C5  I4B d   1       0.986  -3.237  -0.057  0.00  0.00     0.002 A 
ATOM      6  C6  I4B d   1       1.754  -3.713   1.015  0.00  0.00     0.003 A 
ENDROOT
BRANCH   1   7
ATOM      7  C1' I4B d   1       3.023  -3.303   3.141  0.00  0.00     0.060 C 
BRANCH   7   8
ATOM      8  C2' I4B d   1       2.234  -3.197   4.430  0.00  0.00    -0.013 C 
ATOM      9  C4' I4B d   1       1.247  -2.060   4.373  0.00  0.00     0.013 C 
ATOM     10  C3' I4B d   1       1.539  -4.506   4.656  0.00  0.00     0.013 C 
ENDBRANCH   7   8
ENDBRANCH   1   7
TORSDOF 2
ENDMDL
