MODEL 1
REMARK minimizedAffinity 7.44539738
REMARK minimizedRMSD -1
REMARK  2 active torsions:
REMARK  status: ('A' for Active; 'I' for Inactive)
REMARK    1  A    between atoms: C2'_3  and  C1'_4 
REMARK    2  A    between atoms: C1'_4  and  C1_5 
ROOT
ATOM      1  C1  I4B d   1       1.865  -1.893   2.676  0.00  0.00    -0.075 A 
ATOM      2  C2  I4B d   1       1.616  -1.358   3.916  0.00  0.00     0.003 A 
ATOM      3  C3  I4B d   1       1.741  -2.160   5.076  0.00  0.00     0.002 A 
ATOM      4  C4  I4B d   1       2.065  -3.495   4.948  0.00  0.00    -0.004 A 
ATOM      5  C5  I4B d   1       2.339  -4.030   3.693  0.00  0.00     0.002 A 
ATOM      6  C6  I4B d   1       2.250  -3.221   2.550  0.00  0.00     0.003 A 
ENDROOT
BRANCH   1   7
ATOM      7  C1' I4B d   1       1.692  -1.027   1.470  0.00  0.00     0.060 C 
BRANCH   7   8
ATOM      8  C2' I4B d   1       0.458  -1.499   0.729  0.00  0.00    -0.013 C 
ATOM      9  C4' I4B d   1      -0.674  -0.516   0.872  0.00  0.00     0.013 C 
ATOM     10  C3' I4B d   1       0.828  -1.692  -0.712  0.00  0.00     0.013 C 
ENDBRANCH   7   8
ENDBRANCH   1   7
TORSDOF 2
ENDMDL
