MODEL 1
REMARK minimizedAffinity 9.94272518
REMARK minimizedRMSD -1
REMARK  2 active torsions:
REMARK  status: ('A' for Active; 'I' for Inactive)
REMARK    1  A    between atoms: C2'_3  and  C1'_4 
REMARK    2  A    between atoms: C1'_4  and  C1_5 
ROOT
ATOM      1  C1  I4B d   1       0.676  -0.670   1.183  0.00  0.00    -0.075 A 
ATOM      2  C2  I4B d   1      -0.672  -0.413   1.228  0.00  0.00     0.003 A 
ATOM      3  C3  I4B d   1      -1.514  -0.838   0.172  0.00  0.00     0.002 A 
ATOM      4  C4  I4B d   1      -0.963  -1.466  -0.926  0.00  0.00    -0.004 A 
ATOM      5  C5  I4B d   1       0.400  -1.745  -0.960  0.00  0.00     0.002 A 
ATOM      6  C6  I4B d   1       1.223  -1.355   0.106  0.00  0.00     0.003 A 
ENDROOT
BRANCH   1   7
ATOM      7  C1' I4B d   1       1.541  -0.178   2.300  0.00  0.00     0.060 C 
BRANCH   7   8
ATOM      8  C2' I4B d   1       2.321  -1.360   2.840  0.00  0.00    -0.013 C 
ATOM      9  C4' I4B d   1       3.803  -1.166   2.655  0.00  0.00     0.013 C 
ATOM     10  C3' I4B d   1       1.972  -1.520   4.290  0.00  0.00     0.013 C 
ENDBRANCH   7   8
ENDBRANCH   1   7
TORSDOF 2
ENDMDL
