MODEL 1
REMARK minimizedAffinity 7.51760578
REMARK minimizedRMSD -1
REMARK  2 active torsions:
REMARK  status: ('A' for Active; 'I' for Inactive)
REMARK    1  A    between atoms: C2'_3  and  C1'_4 
REMARK    2  A    between atoms: C1'_4  and  C1_5 
ROOT
ATOM      1  C1  I4B d   1       2.610  -1.181   2.626  0.00  0.00    -0.075 A 
ATOM      2  C2  I4B d   1       1.994  -0.347   3.526  0.00  0.00     0.003 A 
ATOM      3  C3  I4B d   1       1.982   1.052   3.308  0.00  0.00     0.002 A 
ATOM      4  C4  I4B d   1       2.637   1.575   2.212  0.00  0.00    -0.004 A 
ATOM      5  C5  I4B d   1       3.242   0.726   1.289  0.00  0.00     0.002 A 
ATOM      6  C6  I4B d   1       3.218  -0.662   1.491  0.00  0.00     0.003 A 
ENDROOT
BRANCH   1   7
ATOM      7  C1' I4B d   1       2.632  -2.651   2.904  0.00  0.00     0.060 C 
BRANCH   7   8
ATOM      8  C2' I4B d   1       3.233  -2.857   4.280  0.00  0.00    -0.013 C 
ATOM      9  C4' I4B d   1       2.652  -4.073   4.952  0.00  0.00     0.013 C 
ATOM     10  C3' I4B d   1       4.719  -2.983   4.122  0.00  0.00     0.013 C 
ENDBRANCH   7   8
ENDBRANCH   1   7
TORSDOF 2
ENDMDL
