MODEL 1
REMARK minimizedAffinity 14.846817
REMARK minimizedRMSD -1
REMARK  2 active torsions:
REMARK  status: ('A' for Active; 'I' for Inactive)
REMARK    1  A    between atoms: C2'_3  and  C1'_4 
REMARK    2  A    between atoms: C1'_4  and  C1_5 
ROOT
ATOM      1  C1  I4B d   1       2.379  -2.974   3.747  0.00  0.00    -0.075 A 
ATOM      2  C2  I4B d   1       1.297  -2.323   3.209  0.00  0.00     0.003 A 
ATOM      3  C3  I4B d   1       1.476  -1.125   2.476  0.00  0.00     0.002 A 
ATOM      4  C4  I4B d   1       2.742  -0.590   2.348  0.00  0.00    -0.004 A 
ATOM      5  C5  I4B d   1       3.841  -1.263   2.874  0.00  0.00     0.002 A 
ATOM      6  C6  I4B d   1       3.661  -2.469   3.567  0.00  0.00     0.003 A 
ENDROOT
BRANCH   1   7
ATOM      7  C1' I4B d   1       2.150  -4.219   4.543  0.00  0.00     0.060 C 
BRANCH   7   8
ATOM      8  C2' I4B d   1       0.751  -4.715   4.241  0.00  0.00    -0.013 C 
ATOM      9  C4' I4B d   1       0.775  -5.835   3.235  0.00  0.00     0.013 C 
ATOM     10  C3' I4B d   1       0.128  -5.159   5.531  0.00  0.00     0.013 C 
ENDBRANCH   7   8
ENDBRANCH   1   7
TORSDOF 2
ENDMDL
