MODEL 1
REMARK minimizedAffinity 1.52187455
REMARK minimizedRMSD -1
REMARK  2 active torsions:
REMARK  status: ('A' for Active; 'I' for Inactive)
REMARK    1  A    between atoms: C2'_3  and  C1'_4 
REMARK    2  A    between atoms: C1'_4  and  C1_5 
ROOT
ATOM      1  C1  I4B d   1       2.912  -2.256   3.539  0.00  0.00    -0.075 A 
ATOM      2  C2  I4B d   1       3.381  -3.529   3.750  0.00  0.00     0.003 A 
ATOM      3  C3  I4B d   1       2.920  -4.284   4.856  0.00  0.00     0.002 A 
ATOM      4  C4  I4B d   1       2.035  -3.713   5.747  0.00  0.00    -0.004 A 
ATOM      5  C5  I4B d   1       1.544  -2.431   5.520  0.00  0.00     0.002 A 
ATOM      6  C6  I4B d   1       1.975  -1.702   4.402  0.00  0.00     0.003 A 
ENDROOT
BRANCH   1   7
ATOM      7  C1' I4B d   1       3.445  -1.475   2.381  0.00  0.00     0.060 C 
BRANCH   7   8
ATOM      8  C2' I4B d   1       2.272  -1.073   1.509  0.00  0.00    -0.013 C 
ATOM      9  C4' I4B d   1       1.717  -2.258   0.763  0.00  0.00     0.013 C 
ATOM     10  C3' I4B d   1       1.230  -0.453   2.392  0.00  0.00     0.013 C 
ENDBRANCH   7   8
ENDBRANCH   1   7
TORSDOF 2
ENDMDL
