MODEL 1
REMARK minimizedAffinity 11.9710541
REMARK minimizedRMSD -1
REMARK  2 active torsions:
REMARK  status: ('A' for Active; 'I' for Inactive)
REMARK    1  A    between atoms: C2'_3  and  C1'_4 
REMARK    2  A    between atoms: C1'_4  and  C1_5 
ROOT
ATOM      1  C1  I4B d   1       2.409  -3.058   4.438  0.00  0.00    -0.075 A 
ATOM      2  C2  I4B d   1       3.198  -3.752   5.322  0.00  0.00     0.003 A 
ATOM      3  C3  I4B d   1       2.683  -4.884   5.999  0.00  0.00     0.002 A 
ATOM      4  C4  I4B d   1       1.368  -5.254   5.802  0.00  0.00    -0.004 A 
ATOM      5  C5  I4B d   1       0.578  -4.563   4.889  0.00  0.00     0.002 A 
ATOM      6  C6  I4B d   1       1.105  -3.466   4.193  0.00  0.00     0.003 A 
ENDROOT
BRANCH   1   7
ATOM      7  C1' I4B d   1       2.974  -1.847   3.766  0.00  0.00     0.060 C 
BRANCH   7   8
ATOM      8  C2' I4B d   1       1.853  -0.844   3.590  0.00  0.00    -0.013 C 
ATOM      9  C4' I4B d   1       2.221   0.494   4.176  0.00  0.00     0.013 C 
ATOM     10  C3' I4B d   1       1.557  -0.731   2.124  0.00  0.00     0.013 C 
ENDBRANCH   7   8
ENDBRANCH   1   7
TORSDOF 2
ENDMDL
