MODEL 1
REMARK minimizedAffinity 9.23975372
REMARK minimizedRMSD -1
REMARK  2 active torsions:
REMARK  status: ('A' for Active; 'I' for Inactive)
REMARK    1  A    between atoms: C2'_3  and  C1'_4 
REMARK    2  A    between atoms: C1'_4  and  C1_5 
ROOT
ATOM      1  C1  I4B d   1       0.468  -1.157   1.027  0.00  0.00    -0.075 A 
ATOM      2  C2  I4B d   1      -0.733  -0.822   0.455  0.00  0.00     0.003 A 
ATOM      3  C3  I4B d   1      -1.164  -1.468  -0.729  0.00  0.00     0.002 A 
ATOM      4  C4  I4B d   1      -0.345  -2.402  -1.330  0.00  0.00    -0.004 A 
ATOM      5  C5  I4B d   1       0.862  -2.758  -0.735  0.00  0.00     0.002 A 
ATOM      6  C6  I4B d   1       1.266  -2.141   0.458  0.00  0.00     0.003 A 
ENDROOT
BRANCH   1   7
ATOM      7  C1' I4B d   1       0.907  -0.431   2.259  0.00  0.00     0.060 C 
BRANCH   7   8
ATOM      8  C2' I4B d   1       1.919  -1.300   2.978  0.00  0.00    -0.013 C 
ATOM      9  C4' I4B d   1       3.313  -1.054   2.464  0.00  0.00     0.013 C 
ATOM     10  C3' I4B d   1       1.822  -1.006   4.445  0.00  0.00     0.013 C 
ENDBRANCH   7   8
ENDBRANCH   1   7
TORSDOF 2
ENDMDL
