MODEL 1
REMARK minimizedAffinity 14.2963085
REMARK minimizedRMSD -1
REMARK  3 active torsions:
REMARK  status: ('A' for Active; 'I' for Inactive)
REMARK    1  A    between atoms: C3'_2  and  C2'_3 
REMARK    2  A    between atoms: C2'_3  and  C1'_4 
REMARK    3  A    between atoms: C1'_4  and  C1_5 
ROOT
ATOM      1  C1  N4B d   1       4.115   4.908   4.485  0.00  0.00    -0.075 A 
ATOM      2  C2  N4B d   1       4.137   3.902   3.494  0.00  0.00     0.002 A 
ATOM      3  C3  N4B d   1       5.043   3.973   2.464  0.00  0.00     0.002 A 
ATOM      4  C4  N4B d   1       5.919   5.045   2.394  0.00  0.00    -0.004 A 
ATOM      5  C5  N4B d   1       5.908   5.999   3.369  0.00  0.00     0.002 A 
ATOM      6  C6  N4B d   1       5.006   5.939   4.412  0.00  0.00     0.002 A 
ENDROOT
BRANCH   1   7
ATOM      7  C1' N4B d   1       3.086   4.919   5.583  0.00  0.00     0.057 C 
BRANCH   7   8
ATOM      8  C2' N4B d   1       2.294   3.616   5.540  0.00  0.00     0.009 C 
BRANCH   8   9
ATOM      9  C3' N4B d   1       0.859   3.809   6.000  0.00  0.00     0.004 C 
ATOM     10  C4' N4B d   1       0.002   2.603   5.750  0.00  0.00     0.003 C 
ENDBRANCH   8   9
ENDBRANCH   7   8
ENDBRANCH   1   7
TORSDOF 3
ENDMDL
