MODEL 1
REMARK minimizedAffinity 4.41079044
REMARK minimizedRMSD -1
REMARK  3 active torsions:
REMARK  status: ('A' for Active; 'I' for Inactive)
REMARK    1  A    between atoms: C3'_2  and  C2'_3 
REMARK    2  A    between atoms: C2'_3  and  C1'_4 
REMARK    3  A    between atoms: C1'_4  and  C1_5 
ROOT
ATOM      1  C1  N4B d   1       4.278   3.162   2.633  0.00  0.00    -0.075 A 
ATOM      2  C2  N4B d   1       3.696   3.303   1.353  0.00  0.00     0.002 A 
ATOM      3  C3  N4B d   1       4.040   4.367   0.556  0.00  0.00     0.002 A 
ATOM      4  C4  N4B d   1       4.946   5.308   1.022  0.00  0.00    -0.004 A 
ATOM      5  C5  N4B d   1       5.523   5.151   2.248  0.00  0.00     0.002 A 
ATOM      6  C6  N4B d   1       5.189   4.085   3.059  0.00  0.00     0.002 A 
ENDROOT
BRANCH   1   7
ATOM      7  C1' N4B d   1       3.869   2.063   3.574  0.00  0.00     0.057 C 
BRANCH   7   8
ATOM      8  C2' N4B d   1       2.646   1.347   3.008  0.00  0.00     0.009 C 
BRANCH   8   9
ATOM      9  C3' N4B d   1       2.020   0.403   4.020  0.00  0.00     0.004 C 
ATOM     10  C4' N4B d   1       1.345  -0.772   3.378  0.00  0.00     0.003 C 
ENDBRANCH   8   9
ENDBRANCH   7   8
ENDBRANCH   1   7
TORSDOF 3
ENDMDL
