MODEL 1
REMARK minimizedAffinity 12.8491735
REMARK minimizedRMSD -1
REMARK  3 active torsions:
REMARK  status: ('A' for Active; 'I' for Inactive)
REMARK    1  A    between atoms: C3'_2  and  C2'_3 
REMARK    2  A    between atoms: C2'_3  and  C1'_4 
REMARK    3  A    between atoms: C1'_4  and  C1_5 
ROOT
ATOM      1  C1  N4B d   1      -3.452   5.273  -1.109  0.00  0.00    -0.075 A 
ATOM      2  C2  N4B d   1      -3.778   3.985  -0.631  0.00  0.00     0.002 A 
ATOM      3  C3  N4B d   1      -5.038   3.476  -0.833  0.00  0.00     0.002 A 
ATOM      4  C4  N4B d   1      -5.989   4.241  -1.490  0.00  0.00    -0.004 A 
ATOM      5  C5  N4B d   1      -5.659   5.474  -1.971  0.00  0.00     0.002 A 
ATOM      6  C6  N4B d   1      -4.396   5.997  -1.779  0.00  0.00     0.002 A 
ENDROOT
BRANCH   1   7
ATOM      7  C1' N4B d   1      -2.115   5.907  -0.837  0.00  0.00     0.057 C 
BRANCH   7   8
ATOM      8  C2' N4B d   1      -1.212   4.892  -0.142  0.00  0.00     0.009 C 
BRANCH   8   9
ATOM      9  C3' N4B d   1      -1.171   5.103   1.361  0.00  0.00     0.004 C 
ATOM     10  C4' N4B d   1      -1.523   3.866   2.132  0.00  0.00     0.003 C 
ENDBRANCH   8   9
ENDBRANCH   7   8
ENDBRANCH   1   7
TORSDOF 3
ENDMDL
