MODEL 1
REMARK minimizedAffinity 15.02561
REMARK minimizedRMSD -1
REMARK  3 active torsions:
REMARK  status: ('A' for Active; 'I' for Inactive)
REMARK    1  A    between atoms: C3'_2  and  C2'_3 
REMARK    2  A    between atoms: C2'_3  and  C1'_4 
REMARK    3  A    between atoms: C1'_4  and  C1_5 
ROOT
ATOM      1  C1  N4B d   1       0.610  -0.033   3.192  0.00  0.00    -0.075 A 
ATOM      2  C2  N4B d   1       0.107   1.281   3.303  0.00  0.00     0.002 A 
ATOM      3  C3  N4B d   1      -1.083   1.613   2.703  0.00  0.00     0.002 A 
ATOM      4  C4  N4B d   1      -1.775   0.657   1.976  0.00  0.00    -0.004 A 
ATOM      5  C5  N4B d   1      -1.295  -0.618   1.896  0.00  0.00     0.002 A 
ATOM      6  C6  N4B d   1      -0.102  -0.967   2.497  0.00  0.00     0.002 A 
ENDROOT
BRANCH   1   7
ATOM      7  C1' N4B d   1       1.949  -0.421   3.758  0.00  0.00     0.057 C 
BRANCH   7   8
ATOM      8  C2' N4B d   1       2.173  -1.914   3.536  0.00  0.00     0.009 C 
BRANCH   8   9
ATOM      9  C3' N4B d   1       2.314  -2.669   4.847  0.00  0.00     0.004 C 
ATOM     10  C4' N4B d   1       3.742  -2.961   5.198  0.00  0.00     0.003 C 
ENDBRANCH   8   9
ENDBRANCH   7   8
ENDBRANCH   1   7
TORSDOF 3
ENDMDL
