MODEL 1
REMARK minimizedAffinity -3.61855793
REMARK minimizedRMSD -1
REMARK  0 active torsions:
REMARK  status: ('A' for Active; 'I' for Inactive)
ROOT
ATOM      1  C4' PXY d   1      -1.478  -3.015   0.478  0.00  0.00     0.077 C 
ATOM      2  C1' PXY d   1       0.526   2.310  -0.544  0.00  0.00     0.077 C 
ATOM      3  C1  PXY d   1       0.003   0.910  -0.288  0.00  0.00    -0.082 A 
ATOM      4  C2  PXY d   1      -0.883   0.709   0.674  0.00  0.00     0.003 A 
ATOM      5  C3  PXY d   1      -1.342  -0.556   0.939  0.00  0.00     0.003 A 
ATOM      6  C4  PXY d   1      -0.930  -1.617   0.178  0.00  0.00    -0.082 A 
ATOM      7  C5  PXY d   1      -0.035  -1.417  -0.812  0.00  0.00     0.003 A 
ATOM      8  C6  PXY d   1       0.450  -0.132  -1.039  0.00  0.00     0.003 A 
ENDROOT
TORSDOF 0
ENDMDL
