MODEL 1
REMARK minimizedAffinity -4.2133522
REMARK minimizedRMSD -1
REMARK  0 active torsions:
REMARK  status: ('A' for Active; 'I' for Inactive)
ROOT
ATOM      1  C4' PXY d   1       0.710   2.161   0.067  0.00  0.00     0.077 C 
ATOM      2  C1' PXY d   1      -0.300  -3.531   0.078  0.00  0.00     0.077 C 
ATOM      3  C1  PXY d   1      -0.026  -2.040   0.066  0.00  0.00    -0.082 A 
ATOM      4  C2  PXY d   1      -0.305  -1.314   1.137  0.00  0.00     0.003 A 
ATOM      5  C3  PXY d   1      -0.094   0.040   1.131  0.00  0.00     0.003 A 
ATOM      6  C4  PXY d   1       0.459   0.651   0.038  0.00  0.00    -0.082 A 
ATOM      7  C5  PXY d   1       0.757  -0.084  -1.055  0.00  0.00     0.003 A 
ATOM      8  C6  PXY d   1       0.496  -1.451  -1.044  0.00  0.00     0.003 A 
ENDROOT
TORSDOF 0
ENDMDL
