MODEL 1
REMARK minimizedAffinity -4.90367126
REMARK minimizedRMSD -1
REMARK  0 active torsions:
REMARK  status: ('A' for Active; 'I' for Inactive)
ROOT
ATOM      1  C4' PXY d   1      -0.129   1.876  -0.279  0.00  0.00     0.077 C 
ATOM      2  C1' PXY d   1       0.215  -3.830   0.581  0.00  0.00     0.077 C 
ATOM      3  C1  PXY d   1       0.112  -2.334   0.355  0.00  0.00    -0.082 A 
ATOM      4  C2  PXY d   1       1.122  -1.685  -0.201  0.00  0.00     0.003 A 
ATOM      5  C3  PXY d   1       1.058  -0.328  -0.383  0.00  0.00     0.003 A 
ATOM      6  C4  PXY d   1      -0.073   0.365  -0.041  0.00  0.00    -0.082 A 
ATOM      7  C5  PXY d   1      -1.112  -0.292   0.517  0.00  0.00     0.003 A 
ATOM      8  C6  PXY d   1      -1.011  -1.663   0.732  0.00  0.00     0.003 A 
ENDROOT
TORSDOF 0
ENDMDL
