MODEL 1
REMARK minimizedAffinity -4.78979158
REMARK minimizedRMSD -1
REMARK  0 active torsions:
REMARK  status: ('A' for Active; 'I' for Inactive)
ROOT
ATOM      1  C4' PXY d   1      -0.084   2.081   0.310  0.00  0.00     0.077 C 
ATOM      2  C1' PXY d   1       0.027  -3.671  -0.256  0.00  0.00     0.077 C 
ATOM      3  C1  PXY d   1      -0.015  -2.163  -0.108  0.00  0.00    -0.082 A 
ATOM      4  C2  PXY d   1       1.030  -1.440  -0.475  0.00  0.00     0.003 A 
ATOM      5  C3  PXY d   1       1.022  -0.078  -0.318  0.00  0.00     0.003 A 
ATOM      6  C4  PXY d   1      -0.089   0.556   0.170  0.00  0.00    -0.082 A 
ATOM      7  C5  PXY d   1      -1.165  -0.173   0.536  0.00  0.00     0.003 A 
ATOM      8  C6  PXY d   1      -1.120  -1.558   0.408  0.00  0.00     0.003 A 
ENDROOT
TORSDOF 0
ENDMDL
