MODEL 1
REMARK minimizedAffinity -4.87591696
REMARK minimizedRMSD -1
REMARK  0 active torsions:
REMARK  status: ('A' for Active; 'I' for Inactive)
ROOT
ATOM      1  C4' PXY d   1       0.325   2.448   0.086  0.00  0.00     0.077 C 
ATOM      2  C1' PXY d   1      -0.760  -3.230   0.109  0.00  0.00     0.077 C 
ATOM      3  C1  PXY d   1      -0.468  -1.742   0.092  0.00  0.00    -0.082 A 
ATOM      4  C2  PXY d   1      -0.594  -1.039   1.206  0.00  0.00     0.003 A 
ATOM      5  C3  PXY d   1      -0.365   0.313   1.201  0.00  0.00     0.003 A 
ATOM      6  C4  PXY d   1       0.050   0.942   0.058  0.00  0.00    -0.082 A 
ATOM      7  C5  PXY d   1       0.191   0.229  -1.080  0.00  0.00     0.003 A 
ATOM      8  C6  PXY d   1      -0.086  -1.135  -1.064  0.00  0.00     0.003 A 
ENDROOT
TORSDOF 0
ENDMDL
