MODEL 1
REMARK minimizedAffinity -3.89736342
REMARK minimizedRMSD -1
REMARK  0 active torsions:
REMARK  status: ('A' for Active; 'I' for Inactive)
ROOT
ATOM      1  C4' PXY d   1      -0.009   2.218  -0.142  0.00  0.00     0.077 C 
ATOM      2  C1' PXY d   1      -0.592  -3.491   0.548  0.00  0.00     0.077 C 
ATOM      3  C1  PXY d   1      -0.451  -1.992   0.373  0.00  0.00    -0.082 A 
ATOM      4  C2  PXY d   1       0.342  -1.516  -0.573  0.00  0.00     0.003 A 
ATOM      5  C3  PXY d   1       0.506  -0.163  -0.725  0.00  0.00     0.003 A 
ATOM      6  C4  PXY d   1      -0.190   0.712   0.065  0.00  0.00    -0.082 A 
ATOM      7  C5  PXY d   1      -1.009   0.234   1.026  0.00  0.00     0.003 A 
ATOM      8  C6  PXY d   1      -1.130  -1.143   1.191  0.00  0.00     0.003 A 
ENDROOT
TORSDOF 0
ENDMDL
