MODEL 1
REMARK minimizedAffinity -4.86694813
REMARK minimizedRMSD -1
REMARK  0 active torsions:
REMARK  status: ('A' for Active; 'I' for Inactive)
ROOT
ATOM      1  C4' PXY d   1       0.010  -0.748  -2.640  0.00  0.00     0.077 C 
ATOM      2  C1' PXY d   1      -1.924  -0.287   2.788  0.00  0.00     0.077 C 
ATOM      3  C1  PXY d   1      -1.411  -0.420   1.368  0.00  0.00    -0.082 A 
ATOM      4  C2  PXY d   1      -1.185   0.668   0.650  0.00  0.00     0.003 A 
ATOM      5  C3  PXY d   1      -0.752   0.566  -0.647  0.00  0.00     0.003 A 
ATOM      6  C4  PXY d   1      -0.498  -0.662  -1.198  0.00  0.00    -0.082 A 
ATOM      7  C5  PXY d   1      -0.717  -1.776  -0.468  0.00  0.00     0.003 A 
ATOM      8  C6  PXY d   1      -1.195  -1.652   0.833  0.00  0.00     0.003 A 
ENDROOT
TORSDOF 0
ENDMDL
