MODEL 1
REMARK minimizedAffinity -1.3874681
REMARK minimizedRMSD -1
REMARK  0 active torsions:
REMARK  status: ('A' for Active; 'I' for Inactive)
ROOT
ATOM      1  C4' PXY d   1       0.934   3.069   0.199  0.00  0.00     0.077 C 
ATOM      2  C1' PXY d   1      -1.285  -2.253  -0.211  0.00  0.00     0.077 C 
ATOM      3  C1  PXY d   1      -0.694  -0.861  -0.112  0.00  0.00    -0.082 A 
ATOM      4  C2  PXY d   1      -0.915  -0.132   0.970  0.00  0.00     0.003 A 
ATOM      5  C3  PXY d   1      -0.415   1.141   1.062  0.00  0.00     0.003 A 
ATOM      6  C4  PXY d   1       0.365   1.654   0.060  0.00  0.00    -0.082 A 
ATOM      7  C5  PXY d   1       0.604   0.912  -1.043  0.00  0.00     0.003 A 
ATOM      8  C6  PXY d   1       0.052  -0.362  -1.135  0.00  0.00     0.003 A 
ENDROOT
TORSDOF 0
ENDMDL
