MODEL 1
REMARK minimizedAffinity -4.01708746
REMARK minimizedRMSD -1
REMARK  0 active torsions:
REMARK  status: ('A' for Active; 'I' for Inactive)
ROOT
ATOM      1  C4' PXY d   1       0.172   2.202  -0.125  0.00  0.00     0.077 C 
ATOM      2  C1' PXY d   1      -0.029  -3.570   0.107  0.00  0.00     0.077 C 
ATOM      3  C1  PXY d   1       0.012  -2.056   0.052  0.00  0.00    -0.082 A 
ATOM      4  C2  PXY d   1       0.720  -1.454  -0.890  0.00  0.00     0.003 A 
ATOM      5  C3  PXY d   1       0.795  -0.086  -0.934  0.00  0.00     0.003 A 
ATOM      6  C4  PXY d   1       0.094   0.676  -0.037  0.00  0.00    -0.082 A 
ATOM      7  C5  PXY d   1      -0.640   0.070   0.920  0.00  0.00     0.003 A 
ATOM      8  C6  PXY d   1      -0.669  -1.321   0.973  0.00  0.00     0.003 A 
ENDROOT
TORSDOF 0
ENDMDL
