MODEL 1
REMARK minimizedAffinity -2.37993145
REMARK minimizedRMSD -1
REMARK  0 active torsions:
REMARK  status: ('A' for Active; 'I' for Inactive)
ROOT
ATOM      1  C4' PXY d   1       0.958   2.283  -0.151  0.00  0.00     0.077 C 
ATOM      2  C1' PXY d   1      -1.737  -2.806   0.356  0.00  0.00     0.077 C 
ATOM      3  C1  PXY d   1      -1.020  -1.477   0.217  0.00  0.00    -0.082 A 
ATOM      4  C2  PXY d   1      -1.275  -0.503   1.075  0.00  0.00     0.003 A 
ATOM      5  C3  PXY d   1      -0.660   0.716   0.945  0.00  0.00     0.003 A 
ATOM      6  C4  PXY d   1       0.265   0.922  -0.043  0.00  0.00    -0.082 A 
ATOM      7  C5  PXY d   1       0.539  -0.070  -0.917  0.00  0.00     0.003 A 
ATOM      8  C6  PXY d   1      -0.127  -1.286  -0.792  0.00  0.00     0.003 A 
ENDROOT
TORSDOF 0
ENDMDL
