MODEL 1
REMARK minimizedAffinity -4.44016457
REMARK minimizedRMSD -1
REMARK  0 active torsions:
REMARK  status: ('A' for Active; 'I' for Inactive)
ROOT
ATOM      1  C4' PXY d   1       0.390   2.565  -0.287  0.00  0.00     0.077 C 
ATOM      2  C1' PXY d   1      -0.442  -3.110   0.432  0.00  0.00     0.077 C 
ATOM      3  C1  PXY d   1      -0.235  -1.620   0.250  0.00  0.00    -0.082 A 
ATOM      4  C2  PXY d   1       0.512  -1.180  -0.750  0.00  0.00     0.003 A 
ATOM      5  C3  PXY d   1       0.736   0.163  -0.910  0.00  0.00     0.003 A 
ATOM      6  C4  PXY d   1       0.146   1.069  -0.070  0.00  0.00    -0.082 A 
ATOM      7  C5  PXY d   1      -0.626   0.629   0.946  0.00  0.00     0.003 A 
ATOM      8  C6  PXY d   1      -0.808  -0.741   1.116  0.00  0.00     0.003 A 
ENDROOT
TORSDOF 0
ENDMDL
