MODEL 1
REMARK minimizedAffinity -4.64327049
REMARK minimizedRMSD -1
REMARK  0 active torsions:
REMARK  status: ('A' for Active; 'I' for Inactive)
ROOT
ATOM      1  C4' PXY d   1      -0.253   2.269   0.487  0.00  0.00     0.077 C 
ATOM      2  C1' PXY d   1       0.030  -3.504   0.436  0.00  0.00     0.077 C 
ATOM      3  C1  PXY d   1      -0.051  -1.990   0.460  0.00  0.00    -0.082 A 
ATOM      4  C2  PXY d   1       0.131  -1.308  -0.658  0.00  0.00     0.003 A 
ATOM      5  C3  PXY d   1       0.092   0.063  -0.648  0.00  0.00     0.003 A 
ATOM      6  C4  PXY d   1      -0.189   0.740   0.508  0.00  0.00    -0.082 A 
ATOM      7  C5  PXY d   1      -0.387   0.050   1.652  0.00  0.00     0.003 A 
ATOM      8  C6  PXY d   1      -0.302  -1.339   1.629  0.00  0.00     0.003 A 
ENDROOT
TORSDOF 0
ENDMDL
