MODEL 1
REMARK minimizedAffinity -5.59345484
REMARK minimizedRMSD -1
REMARK  0 active torsions:
REMARK  status: ('A' for Active; 'I' for Inactive)
ROOT
ATOM      1  C4' PXY d   1      -0.451  -2.981   0.404  0.00  0.00     0.077 C 
ATOM      2  C1' PXY d   1       0.864   2.647   0.273  0.00  0.00     0.077 C 
ATOM      3  C1  PXY d   1       0.516   1.172   0.320  0.00  0.00    -0.082 A 
ATOM      4  C2  PXY d   1       1.039   0.348  -0.573  0.00  0.00     0.003 A 
ATOM      5  C3  PXY d   1       0.710  -0.984  -0.565  0.00  0.00     0.003 A 
ATOM      6  C4  PXY d   1      -0.121  -1.486   0.401  0.00  0.00    -0.082 A 
ATOM      7  C5  PXY d   1      -0.650  -0.653   1.322  0.00  0.00     0.003 A 
ATOM      8  C6  PXY d   1      -0.336   0.702   1.271  0.00  0.00     0.003 A 
ENDROOT
TORSDOF 0
ENDMDL
