MODEL 1
REMARK minimizedAffinity -3.55641389
REMARK minimizedRMSD -1
REMARK  0 active torsions:
REMARK  status: ('A' for Active; 'I' for Inactive)
ROOT
ATOM      1  C4' PXY d   1      -0.041   2.002  -0.309  0.00  0.00     0.077 C 
ATOM      2  C1' PXY d   1      -0.084  -3.738   0.371  0.00  0.00     0.077 C 
ATOM      3  C1  PXY d   1      -0.086  -2.232   0.195  0.00  0.00    -0.082 A 
ATOM      4  C2  PXY d   1       0.843  -1.660  -0.554  0.00  0.00     0.003 A 
ATOM      5  C3  PXY d   1       0.875  -0.297  -0.698  0.00  0.00     0.003 A 
ATOM      6  C4  PXY d   1      -0.084   0.485  -0.111  0.00  0.00    -0.082 A 
ATOM      7  C5  PXY d   1      -1.041  -0.092   0.646  0.00  0.00     0.003 A 
ATOM      8  C6  PXY d   1      -1.032  -1.474   0.813  0.00  0.00     0.003 A 
ENDROOT
TORSDOF 0
ENDMDL
