MODEL 1
REMARK minimizedAffinity -2.83209062
REMARK minimizedRMSD -1
REMARK  0 active torsions:
REMARK  status: ('A' for Active; 'I' for Inactive)
ROOT
ATOM      1  C4' PXY d   1       1.680   4.453   1.129  0.00  0.00     0.077 C 
ATOM      2  C1' PXY d   1       0.105  -0.842  -0.575  0.00  0.00     0.077 C 
ATOM      3  C1  PXY d   1       0.530   0.543  -0.129  0.00  0.00    -0.082 A 
ATOM      4  C2  PXY d   1      -0.291   1.275   0.606  0.00  0.00     0.003 A 
ATOM      5  C3  PXY d   1       0.065   2.542   0.991  0.00  0.00     0.003 A 
ATOM      6  C4  PXY d   1       1.296   3.045   0.664  0.00  0.00    -0.082 A 
ATOM      7  C5  PXY d   1       2.143   2.301  -0.077  0.00  0.00     0.003 A 
ATOM      8  C6  PXY d   1       1.747   1.033  -0.492  0.00  0.00     0.003 A 
ENDROOT
TORSDOF 0
ENDMDL
