MODEL 1
REMARK minimizedAffinity -5.50239849
REMARK minimizedRMSD -1
REMARK  0 active torsions:
REMARK  status: ('A' for Active; 'I' for Inactive)
ROOT
ATOM      1  C4' PXY d   1       0.010  -3.783   0.037  0.00  0.00     0.077 C 
ATOM      2  C1' PXY d   1      -0.089   1.997   0.005  0.00  0.00     0.077 C 
ATOM      3  C1  PXY d   1      -0.063   0.482   0.026  0.00  0.00    -0.082 A 
ATOM      4  C2  PXY d   1       0.352  -0.181  -1.042  0.00  0.00     0.003 A 
ATOM      5  C3  PXY d   1       0.353  -1.552  -1.051  0.00  0.00     0.003 A 
ATOM      6  C4  PXY d   1      -0.025  -2.252   0.063  0.00  0.00    -0.082 A 
ATOM      7  C5  PXY d   1      -0.440  -1.584   1.160  0.00  0.00     0.003 A 
ATOM      8  C6  PXY d   1      -0.472  -0.192   1.135  0.00  0.00     0.003 A 
ENDROOT
TORSDOF 0
ENDMDL
