MODEL 1
REMARK minimizedAffinity -4.02031803
REMARK minimizedRMSD -1
REMARK  0 active torsions:
REMARK  status: ('A' for Active; 'I' for Inactive)
ROOT
ATOM      1  C4' PXY d   1      -0.034   1.834   0.033  0.00  0.00     0.077 C 
ATOM      2  C1' PXY d   1       0.106  -3.932   0.412  0.00  0.00     0.077 C 
ATOM      3  C1  PXY d   1       0.057  -2.420   0.316  0.00  0.00    -0.082 A 
ATOM      4  C2  PXY d   1       0.955  -1.782  -0.417  0.00  0.00     0.003 A 
ATOM      5  C3  PXY d   1       0.944  -0.413  -0.489  0.00  0.00     0.003 A 
ATOM      6  C4  PXY d   1      -0.028   0.307   0.152  0.00  0.00    -0.082 A 
ATOM      7  C5  PXY d   1      -0.954  -0.337   0.892  0.00  0.00     0.003 A 
ATOM      8  C6  PXY d   1      -0.901  -1.725   0.987  0.00  0.00     0.003 A 
ENDROOT
TORSDOF 0
ENDMDL
