MODEL 1
REMARK minimizedAffinity -2.30977178
REMARK minimizedRMSD -1
REMARK  0 active torsions:
REMARK  status: ('A' for Active; 'I' for Inactive)
ROOT
ATOM      1  C4' PXY d   1      -0.446   2.149  -0.152  0.00  0.00     0.077 C 
ATOM      2  C1' PXY d   1      -0.070  -3.614   0.102  0.00  0.00     0.077 C 
ATOM      3  C1  PXY d   1      -0.157  -2.102   0.029  0.00  0.00    -0.082 A 
ATOM      4  C2  PXY d   1      -0.934  -1.450   0.879  0.00  0.00     0.003 A 
ATOM      5  C3  PXY d   1      -1.049  -0.086   0.807  0.00  0.00     0.003 A 
ATOM      6  C4  PXY d   1      -0.320   0.624  -0.110  0.00  0.00    -0.082 A 
ATOM      7  C5  PXY d   1       0.483  -0.033  -0.973  0.00  0.00     0.003 A 
ATOM      8  C6  PXY d   1       0.554  -1.422  -0.910  0.00  0.00     0.003 A 
ENDROOT
TORSDOF 0
ENDMDL
