MODEL 1
REMARK minimizedAffinity -5.79442739
REMARK minimizedRMSD -1
REMARK  0 active torsions:
REMARK  status: ('A' for Active; 'I' for Inactive)
ROOT
ATOM      1  C4' PXY d   1      -1.911  -0.436   2.265  0.00  0.00     0.077 C 
ATOM      2  C1' PXY d   1       1.022  -2.006  -2.462  0.00  0.00     0.077 C 
ATOM      3  C1  PXY d   1       0.246  -1.605  -1.223  0.00  0.00    -0.082 A 
ATOM      4  C2  PXY d   1       0.159  -0.328  -0.890  0.00  0.00     0.003 A 
ATOM      5  C3  PXY d   1      -0.512   0.049   0.244  0.00  0.00     0.003 A 
ATOM      6  C4  PXY d   1      -1.146  -0.886   1.018  0.00  0.00    -0.082 A 
ATOM      7  C5  PXY d   1      -1.071  -2.191   0.679  0.00  0.00     0.003 A 
ATOM      8  C6  PXY d   1      -0.350  -2.557  -0.454  0.00  0.00     0.003 A 
ENDROOT
TORSDOF 0
ENDMDL
