MODEL 1
REMARK minimizedAffinity -3.13337016
REMARK minimizedRMSD -1
REMARK  0 active torsions:
REMARK  status: ('A' for Active; 'I' for Inactive)
ROOT
ATOM      1  C4' PXY d   1       0.260  -2.090  -3.168  0.00  0.00     0.077 C 
ATOM      2  C1' PXY d   1      -1.209  -0.941   2.304  0.00  0.00     0.077 C 
ATOM      3  C1  PXY d   1      -0.821  -1.254   0.872  0.00  0.00    -0.082 A 
ATOM      4  C2  PXY d   1      -0.440  -0.275   0.068  0.00  0.00     0.003 A 
ATOM      5  C3  PXY d   1      -0.117  -0.536  -1.239  0.00  0.00     0.003 A 
ATOM      6  C4  PXY d   1      -0.131  -1.821  -1.712  0.00  0.00    -0.082 A 
ATOM      7  C5  PXY d   1      -0.508  -2.827  -0.895  0.00  0.00     0.003 A 
ATOM      8  C6  PXY d   1      -0.873  -2.535   0.416  0.00  0.00     0.003 A 
ENDROOT
TORSDOF 0
ENDMDL
