MODEL 1
REMARK minimizedAffinity -4.79371119
REMARK minimizedRMSD -1
REMARK  1 active torsions:
REMARK  status: ('A' for Active; 'I' for Inactive)
REMARK    1  A    between atoms: C1_2  and  C2_3 
ROOT
ATOM      1  C2  UNL d   1       0.223   0.271  -0.892  0.00  0.00    -0.081 A 
ATOM      2  C3  UNL d   1       0.734   0.126   0.404  0.00  0.00     0.006 A 
ATOM      3  C4  UNL d   1      -0.081   0.353   1.516  0.00  0.00     0.002 A 
ATOM      4  C5  UNL d   1      -1.420   0.721   1.351  0.00  0.00    -0.080 A 
ATOM      5  C6  UNL d   1      -2.314   0.938   2.536  0.00  0.00     0.076 C 
ATOM      6  C7  UNL d   1      -1.926   0.883   0.057  0.00  0.00     0.002 A 
ATOM      7  C8  UNL d   1      -1.112   0.657  -1.056  0.00  0.00     0.006 A 
ENDROOT
BRANCH   1   8
ATOM      8  C1  UNL d   1       1.081  -0.036  -2.093  0.00  0.00     0.054 C 
ATOM      9  C   UNL d   1       0.648  -1.331  -2.765  0.00  0.00     0.018 C 
ENDBRANCH   1   8
TORSDOF 1
ENDMDL
