MODEL 1
REMARK minimizedAffinity -1.43152654
REMARK minimizedRMSD -1
REMARK  1 active torsions:
REMARK  status: ('A' for Active; 'I' for Inactive)
REMARK    1  A    between atoms: C1_2  and  C2_3 
ROOT
ATOM      1  C2  UNL d   1       0.773   0.093  -1.611  0.00  0.00    -0.081 A 
ATOM      2  C3  UNL d   1       1.744  -0.016  -0.608  0.00  0.00     0.006 A 
ATOM      3  C4  UNL d   1       1.379   0.039   0.739  0.00  0.00     0.002 A 
ATOM      4  C5  UNL d   1       0.039   0.196   1.106  0.00  0.00    -0.080 A 
ATOM      5  C6  UNL d   1      -0.370   0.226   2.549  0.00  0.00     0.076 C 
ATOM      6  C7  UNL d   1      -0.929   0.322   0.104  0.00  0.00     0.002 A 
ATOM      7  C8  UNL d   1      -0.566   0.268  -1.243  0.00  0.00     0.006 A 
ENDROOT
BRANCH   1   8
ATOM      8  C1  UNL d   1       1.155  -0.031  -3.064  0.00  0.00     0.054 C 
ATOM      9  C   UNL d   1       1.126  -1.482  -3.522  0.00  0.00     0.018 C 
ENDBRANCH   1   8
TORSDOF 1
ENDMDL
