MODEL 1
REMARK minimizedAffinity -1.59231997
REMARK minimizedRMSD -1
REMARK  1 active torsions:
REMARK  status: ('A' for Active; 'I' for Inactive)
REMARK    1  A    between atoms: C1_2  and  C2_3 
ROOT
ATOM      1  C2  UNL d   1      -1.897   0.710   1.722  0.00  0.00    -0.081 A 
ATOM      2  C3  UNL d   1      -1.089   0.648   2.863  0.00  0.00     0.006 A 
ATOM      3  C4  UNL d   1       0.267   0.334   2.755  0.00  0.00     0.002 A 
ATOM      4  C5  UNL d   1       0.840   0.084   1.503  0.00  0.00    -0.080 A 
ATOM      5  C6  UNL d   1       2.302  -0.224   1.369  0.00  0.00     0.076 C 
ATOM      6  C7  UNL d   1       0.029   0.129   0.364  0.00  0.00     0.002 A 
ATOM      7  C8  UNL d   1      -1.328   0.442   0.472  0.00  0.00     0.006 A 
ENDROOT
BRANCH   1   8
ATOM      8  C1  UNL d   1      -3.346   1.111   1.829  0.00  0.00     0.054 C 
ATOM      9  C   UNL d   1      -3.520   2.317   2.742  0.00  0.00     0.018 C 
ENDBRANCH   1   8
TORSDOF 1
ENDMDL
