MODEL 1
REMARK minimizedAffinity 0.953118622
REMARK minimizedRMSD -1
REMARK  1 active torsions:
REMARK  status: ('A' for Active; 'I' for Inactive)
REMARK    1  A    between atoms: C1_2  and  C2_3 
ROOT
ATOM      1  C2  UNL d   1       0.485   0.211  -1.516  0.00  0.00    -0.081 A 
ATOM      2  C3  UNL d   1       1.653   0.315  -0.751  0.00  0.00     0.006 A 
ATOM      3  C4  UNL d   1       1.580   0.513   0.630  0.00  0.00     0.002 A 
ATOM      4  C5  UNL d   1       0.339   0.601   1.270  0.00  0.00    -0.080 A 
ATOM      5  C6  UNL d   1       0.247   0.783   2.756  0.00  0.00     0.076 C 
ATOM      6  C7  UNL d   1      -0.828   0.515   0.504  0.00  0.00     0.002 A 
ATOM      7  C8  UNL d   1      -0.756   0.318  -0.877  0.00  0.00     0.006 A 
ENDROOT
BRANCH   1   8
ATOM      8  C1  UNL d   1       0.559  -0.067  -2.995  0.00  0.00     0.054 C 
ATOM      9  C   UNL d   1       1.817  -0.848  -3.349  0.00  0.00     0.018 C 
ENDBRANCH   1   8
TORSDOF 1
ENDMDL
