MODEL 1
REMARK minimizedAffinity -0.285829663
REMARK minimizedRMSD -1
REMARK  1 active torsions:
REMARK  status: ('A' for Active; 'I' for Inactive)
REMARK    1  A    between atoms: C1_2  and  C2_3 
ROOT
ATOM      1  C2  UNL d   1       0.341   0.284   1.340  0.00  0.00    -0.081 A 
ATOM      2  C3  UNL d   1       1.520   0.655   0.683  0.00  0.00     0.006 A 
ATOM      3  C4  UNL d   1       1.632   0.518  -0.702  0.00  0.00     0.002 A 
ATOM      4  C5  UNL d   1       0.565   0.015  -1.454  0.00  0.00    -0.080 A 
ATOM      5  C6  UNL d   1       0.661  -0.109  -2.946  0.00  0.00     0.076 C 
ATOM      6  C7  UNL d   1      -0.607  -0.372  -0.796  0.00  0.00     0.002 A 
ATOM      7  C8  UNL d   1      -0.720  -0.235   0.590  0.00  0.00     0.006 A 
ENDROOT
BRANCH   1   8
ATOM      8  C1  UNL d   1       0.194   0.492   2.826  0.00  0.00     0.054 C 
ATOM      9  C   UNL d   1       0.421   1.947   3.207  0.00  0.00     0.018 C 
ENDBRANCH   1   8
TORSDOF 1
ENDMDL
