MODEL 1
REMARK minimizedAffinity -1.16341472
REMARK minimizedRMSD -1
REMARK  1 active torsions:
REMARK  status: ('A' for Active; 'I' for Inactive)
REMARK    1  A    between atoms: C1_2  and  C2_3 
ROOT
ATOM      1  C2  UNL d   1       0.974  -0.890  -2.156  0.00  0.00    -0.081 A 
ATOM      2  C3  UNL d   1       0.705  -1.744  -1.080  0.00  0.00     0.006 A 
ATOM      3  C4  UNL d   1       0.363  -1.223   0.170  0.00  0.00     0.002 A 
ATOM      4  C5  UNL d   1       0.277   0.160   0.362  0.00  0.00    -0.080 A 
ATOM      5  C6  UNL d   1      -0.119   0.733   1.691  0.00  0.00     0.076 C 
ATOM      6  C7  UNL d   1       0.562   1.014  -0.708  0.00  0.00     0.002 A 
ATOM      7  C8  UNL d   1       0.905   0.493  -1.958  0.00  0.00     0.006 A 
ENDROOT
BRANCH   1   8
ATOM      8  C1  UNL d   1       1.279  -1.451  -3.522  0.00  0.00     0.054 C 
ATOM      9  C   UNL d   1       1.721  -2.905  -3.437  0.00  0.00     0.018 C 
ENDBRANCH   1   8
TORSDOF 1
ENDMDL
