MODEL 1
REMARK minimizedAffinity -1.62181485
REMARK minimizedRMSD -1
REMARK  1 active torsions:
REMARK  status: ('A' for Active; 'I' for Inactive)
REMARK    1  A    between atoms: C1_2  and  C2_3 
ROOT
ATOM      1  C2  UNL d   1       0.230   0.172  -1.496  0.00  0.00    -0.081 A 
ATOM      2  C3  UNL d   1       1.481   0.175  -0.865  0.00  0.00     0.006 A 
ATOM      3  C4  UNL d   1       1.571   0.204   0.528  0.00  0.00     0.002 A 
ATOM      4  C5  UNL d   1       0.414   0.223   1.314  0.00  0.00    -0.080 A 
ATOM      5  C6  UNL d   1       0.496   0.223   2.812  0.00  0.00     0.076 C 
ATOM      6  C7  UNL d   1      -0.835   0.238   0.684  0.00  0.00     0.002 A 
ATOM      7  C8  UNL d   1      -0.926   0.209  -0.709  0.00  0.00     0.006 A 
ENDROOT
BRANCH   1   8
ATOM      8  C1  UNL d   1       0.129   0.076  -2.997  0.00  0.00     0.054 C 
ATOM      9  C   UNL d   1       1.087  -0.970  -3.550  0.00  0.00     0.018 C 
ENDBRANCH   1   8
TORSDOF 1
ENDMDL
