MODEL 1
REMARK minimizedAffinity -2.72894979
REMARK minimizedRMSD -1
REMARK  1 active torsions:
REMARK  status: ('A' for Active; 'I' for Inactive)
REMARK    1  A    between atoms: C1_2  and  C2_3 
ROOT
ATOM      1  C2  UNL d   1       0.612  -0.177  -1.238  0.00  0.00    -0.081 A 
ATOM      2  C3  UNL d   1       1.595  -0.042  -0.250  0.00  0.00     0.006 A 
ATOM      3  C4  UNL d   1       1.234   0.126   1.089  0.00  0.00     0.002 A 
ATOM      4  C5  UNL d   1      -0.114   0.155   1.463  0.00  0.00    -0.080 A 
ATOM      5  C6  UNL d   1      -0.514   0.305   2.900  0.00  0.00     0.076 C 
ATOM      6  C7  UNL d   1      -1.096   0.038   0.473  0.00  0.00     0.002 A 
ATOM      7  C8  UNL d   1      -0.736  -0.130  -0.866  0.00  0.00     0.006 A 
ENDROOT
BRANCH   1   8
ATOM      8  C1  UNL d   1       0.998  -0.424  -2.674  0.00  0.00     0.054 C 
ATOM      9  C   UNL d   1       1.888  -1.652  -2.805  0.00  0.00     0.018 C 
ENDBRANCH   1   8
TORSDOF 1
ENDMDL
