MODEL 1
REMARK minimizedAffinity -4.05407333
REMARK minimizedRMSD -1
REMARK  1 active torsions:
REMARK  status: ('A' for Active; 'I' for Inactive)
REMARK    1  A    between atoms: C1_2  and  C2_3 
ROOT
ATOM      1  C2  UNL d   1      -0.017   0.436  -0.476  0.00  0.00    -0.081 A 
ATOM      2  C3  UNL d   1      -1.339   0.647  -0.887  0.00  0.00     0.006 A 
ATOM      3  C4  UNL d   1      -2.360   0.791   0.056  0.00  0.00     0.002 A 
ATOM      4  C5  UNL d   1      -2.075   0.735   1.424  0.00  0.00    -0.080 A 
ATOM      5  C6  UNL d   1      -3.156   0.918   2.447  0.00  0.00     0.076 C 
ATOM      6  C7  UNL d   1      -0.757   0.507   1.835  0.00  0.00     0.002 A 
ATOM      7  C8  UNL d   1       0.264   0.362   0.893  0.00  0.00     0.006 A 
ENDROOT
BRANCH   1   8
ATOM      8  C1  UNL d   1       1.095   0.346  -1.489  0.00  0.00     0.054 C 
ATOM      9  C   UNL d   1       0.775  -0.674  -2.573  0.00  0.00     0.018 C 
ENDBRANCH   1   8
TORSDOF 1
ENDMDL
