MODEL 1
REMARK minimizedAffinity 7.56755543
REMARK minimizedRMSD -1
REMARK  0 active torsions:
REMARK  status: ('A' for Active; 'I' for Inactive)
ROOT
ATOM      1  O1  BZF d   1       1.689   2.185   2.452  0.00  0.00    -0.204 OA
ATOM      2  C2  BZF d   1       2.471   1.080   2.174  0.00  0.00     0.174 A 
ATOM      3  C3  BZF d   1       2.092   0.505   1.015  0.00  0.00    -0.012 A 
ATOM      4  C3A BZF d   1       1.065   1.354   0.492  0.00  0.00    -0.107 A 
ATOM      5  C4  BZF d   1       0.306   1.320  -0.643  0.00  0.00     0.055 A 
ATOM      6  C5  BZF d   1      -0.660   2.259  -0.819  0.00  0.00    -0.016 A 
ATOM      7  C6  BZF d   1      -0.898   3.242   0.119  0.00  0.00     0.022 A 
ATOM      8  C7  BZF d   1      -0.168   3.319   1.258  0.00  0.00     0.029 A 
ATOM      9  C7A BZF d   1       0.832   2.391   1.424  0.00  0.00     0.058 A 
ENDROOT
TORSDOF 0
ENDMDL
