MODEL 1
REMARK minimizedAffinity 8.17274189
REMARK minimizedRMSD -1
REMARK  0 active torsions:
REMARK  status: ('A' for Active; 'I' for Inactive)
ROOT
ATOM      1  O1  BZF d   1      -2.075   1.604   0.770  0.00  0.00    -0.204 OA
ATOM      2  C2  BZF d   1      -1.929   2.295   1.958  0.00  0.00     0.174 A 
ATOM      3  C3  BZF d   1      -3.114   2.409   2.593  0.00  0.00    -0.012 A 
ATOM      4  C3A BZF d   1      -4.042   1.669   1.794  0.00  0.00    -0.107 A 
ATOM      5  C4  BZF d   1      -5.375   1.399   1.912  0.00  0.00     0.055 A 
ATOM      6  C5  BZF d   1      -6.000   0.708   0.922  0.00  0.00    -0.016 A 
ATOM      7  C6  BZF d   1      -5.324   0.278  -0.200  0.00  0.00     0.022 A 
ATOM      8  C7  BZF d   1      -3.999   0.518  -0.360  0.00  0.00     0.029 A 
ATOM      9  C7A BZF d   1      -3.358   1.187   0.654  0.00  0.00     0.058 A 
ENDROOT
TORSDOF 0
ENDMDL
