MODEL 1
REMARK minimizedAffinity 1.63031542
REMARK minimizedRMSD -1
REMARK  0 active torsions:
REMARK  status: ('A' for Active; 'I' for Inactive)
ROOT
ATOM      1  O1  BZF d   1      -1.542   0.929  -1.261  0.00  0.00    -0.204 OA
ATOM      2  C2  BZF d   1      -0.622   1.686  -0.563  0.00  0.00     0.174 A 
ATOM      3  C3  BZF d   1      -1.163   2.168   0.574  0.00  0.00    -0.012 A 
ATOM      4  C3A BZF d   1      -2.477   1.606   0.633  0.00  0.00    -0.107 A 
ATOM      5  C4  BZF d   1      -3.499   1.700   1.535  0.00  0.00     0.055 A 
ATOM      6  C5  BZF d   1      -4.680   1.086   1.260  0.00  0.00    -0.016 A 
ATOM      7  C6  BZF d   1      -4.876   0.376   0.094  0.00  0.00     0.022 A 
ATOM      8  C7  BZF d   1      -3.890   0.251  -0.828  0.00  0.00     0.029 A 
ATOM      9  C7A BZF d   1      -2.685   0.843  -0.539  0.00  0.00     0.058 A 
ENDROOT
TORSDOF 0
ENDMDL
