MODEL 1
REMARK minimizedAffinity 6.33537531
REMARK minimizedRMSD -1
REMARK  0 active torsions:
REMARK  status: ('A' for Active; 'I' for Inactive)
ROOT
ATOM      1  O1  BZF d   1       1.144   3.236   0.071  0.00  0.00    -0.204 OA
ATOM      2  C2  BZF d   1       2.057   2.202  -0.001  0.00  0.00     0.174 A 
ATOM      3  C3  BZF d   1       1.833   1.297   0.974  0.00  0.00    -0.012 A 
ATOM      4  C3A BZF d   1       0.653   1.751   1.644  0.00  0.00    -0.107 A 
ATOM      5  C4  BZF d   1      -0.077   1.266   2.692  0.00  0.00     0.055 A 
ATOM      6  C5  BZF d   1      -1.134   1.986   3.149  0.00  0.00    -0.016 A 
ATOM      7  C6  BZF d   1      -1.486   3.196   2.588  0.00  0.00     0.022 A 
ATOM      8  C7  BZF d   1      -0.795   3.716   1.545  0.00  0.00     0.029 A 
ATOM      9  C7A BZF d   1       0.254   2.974   1.058  0.00  0.00     0.058 A 
ENDROOT
TORSDOF 0
ENDMDL
