MODEL 1
REMARK minimizedAffinity 8.02372837
REMARK minimizedRMSD -1
REMARK  0 active torsions:
REMARK  status: ('A' for Active; 'I' for Inactive)
ROOT
ATOM      1  O1  BZF d   1      -4.129   0.064  -0.035  0.00  0.00    -0.204 OA
ATOM      2  C2  BZF d   1      -5.509   0.004   0.003  0.00  0.00     0.174 A 
ATOM      3  C3  BZF d   1      -6.000   0.859   0.923  0.00  0.00    -0.012 A 
ATOM      4  C3A BZF d   1      -4.860   1.561   1.430  0.00  0.00    -0.107 A 
ATOM      5  C4  BZF d   1      -4.703   2.551   2.358  0.00  0.00     0.055 A 
ATOM      6  C5  BZF d   1      -3.449   2.965   2.676  0.00  0.00    -0.016 A 
ATOM      7  C6  BZF d   1      -2.330   2.408   2.091  0.00  0.00     0.022 A 
ATOM      8  C7  BZF d   1      -2.436   1.427   1.162  0.00  0.00     0.029 A 
ATOM      9  C7A BZF d   1      -3.704   1.029   0.814  0.00  0.00     0.058 A 
ENDROOT
TORSDOF 0
ENDMDL
