MODEL 1
REMARK minimizedAffinity 5.5019002
REMARK minimizedRMSD -1
REMARK  0 active torsions:
REMARK  status: ('A' for Active; 'I' for Inactive)
ROOT
ATOM      1  O1  BZF d   1       0.915   0.880  -0.758  0.00  0.00    -0.204 OA
ATOM      2  C2  BZF d   1       1.151   2.114  -0.183  0.00  0.00     0.174 A 
ATOM      3  C3  BZF d   1       2.175   2.046   0.693  0.00  0.00    -0.012 A 
ATOM      4  C3A BZF d   1       2.665   0.705   0.594  0.00  0.00    -0.107 A 
ATOM      5  C4  BZF d   1       3.684   0.031   1.205  0.00  0.00     0.055 A 
ATOM      6  C5  BZF d   1       3.853  -1.291   0.940  0.00  0.00    -0.016 A 
ATOM      7  C6  BZF d   1       3.020  -1.971   0.076  0.00  0.00     0.022 A 
ATOM      8  C7  BZF d   1       1.999  -1.344  -0.557  0.00  0.00     0.029 A 
ATOM      9  C7A BZF d   1       1.846   0.000  -0.317  0.00  0.00     0.058 A 
ENDROOT
TORSDOF 0
ENDMDL
