MODEL 1
REMARK minimizedAffinity 7.96536589
REMARK minimizedRMSD -1
REMARK  0 active torsions:
REMARK  status: ('A' for Active; 'I' for Inactive)
ROOT
ATOM      1  O1  BZF d   1      -5.009   2.522  -5.589  0.00  0.00    -0.204 OA
ATOM      2  C2  BZF d   1      -4.677   3.571  -4.754  0.00  0.00     0.174 A 
ATOM      3  C3  BZF d   1      -4.251   3.115  -3.559  0.00  0.00    -0.012 A 
ATOM      4  C3A BZF d   1      -4.233   1.689  -3.685  0.00  0.00    -0.107 A 
ATOM      5  C4  BZF d   1      -3.886   0.676  -2.837  0.00  0.00     0.055 A 
ATOM      6  C5  BZF d   1      -4.054  -0.610  -3.242  0.00  0.00    -0.016 A 
ATOM      7  C6  BZF d   1      -4.570  -0.919  -4.484  0.00  0.00     0.022 A 
ATOM      8  C7  BZF d   1      -4.923   0.052  -5.361  0.00  0.00     0.029 A 
ATOM      9  C7A BZF d   1      -4.724   1.353  -4.967  0.00  0.00     0.058 A 
ENDROOT
TORSDOF 0
ENDMDL
