MODEL 1
REMARK minimizedAffinity 3.66939712
REMARK minimizedRMSD -1
REMARK  0 active torsions:
REMARK  status: ('A' for Active; 'I' for Inactive)
ROOT
ATOM      1  O1  BZF d   1       2.162  -1.209  -2.552  0.00  0.00    -0.204 OA
ATOM      2  C2  BZF d   1       1.006  -1.072  -3.296  0.00  0.00     0.174 A 
ATOM      3  C3  BZF d   1      -0.015  -1.738  -2.719  0.00  0.00    -0.012 A 
ATOM      4  C3A BZF d   1       0.515  -2.251  -1.493  0.00  0.00    -0.107 A 
ATOM      5  C4  BZF d   1      -0.019  -2.987  -0.474  0.00  0.00     0.055 A 
ATOM      6  C5  BZF d   1       0.787  -3.386   0.545  0.00  0.00    -0.016 A 
ATOM      7  C6  BZF d   1       2.130  -3.074   0.574  0.00  0.00     0.022 A 
ATOM      8  C7  BZF d   1       2.704  -2.342  -0.412  0.00  0.00     0.029 A 
ATOM      9  C7A BZF d   1       1.886  -1.909  -1.426  0.00  0.00     0.058 A 
ENDROOT
TORSDOF 0
ENDMDL
