MODEL 1
REMARK minimizedAffinity 15.9049597
REMARK minimizedRMSD -1
REMARK  0 active torsions:
REMARK  status: ('A' for Active; 'I' for Inactive)
ROOT
ATOM      1  O1  BZF d   1       0.041   3.392   0.347  0.00  0.00    -0.204 OA
ATOM      2  C2  BZF d   1       1.328   2.923   0.163  0.00  0.00     0.174 A 
ATOM      3  C3  BZF d   1       1.653   2.030   1.119  0.00  0.00    -0.012 A 
ATOM      4  C3A BZF d   1       0.466   1.865   1.900  0.00  0.00    -0.107 A 
ATOM      5  C4  BZF d   1       0.155   1.097   2.985  0.00  0.00     0.055 A 
ATOM      6  C5  BZF d   1      -1.072   1.224   3.555  0.00  0.00    -0.016 A 
ATOM      7  C6  BZF d   1      -2.010   2.112   3.069  0.00  0.00     0.022 A 
ATOM      8  C7  BZF d   1      -1.749   2.892   1.992  0.00  0.00     0.029 A 
ATOM      9  C7A BZF d   1      -0.522   2.742   1.394  0.00  0.00     0.058 A 
ENDROOT
TORSDOF 0
ENDMDL
