MODEL 1
REMARK minimizedAffinity 5.50461197
REMARK minimizedRMSD -1
REMARK  3 active torsions:
REMARK  status: ('A' for Active; 'I' for Inactive)
REMARK    1  A    between atoms: C3'_2  and  C2'_3 
REMARK    2  A    between atoms: C2'_3  and  C1'_4 
REMARK    3  A    between atoms: C1'_4  and  C1_5 
ROOT
ATOM      1  C1  N4B d   1       3.063  -3.834   1.272  0.00  0.00    -0.075 A 
ATOM      2  C2  N4B d   1       1.727  -3.432   1.056  0.00  0.00     0.002 A 
ATOM      3  C3  N4B d   1       1.134  -2.533   1.909  0.00  0.00     0.002 A 
ATOM      4  C4  N4B d   1       1.849  -2.041   2.990  0.00  0.00    -0.004 A 
ATOM      5  C5  N4B d   1       3.147  -2.415   3.177  0.00  0.00     0.002 A 
ATOM      6  C6  N4B d   1       3.757  -3.314   2.325  0.00  0.00     0.002 A 
ENDROOT
BRANCH   1   7
ATOM      7  C1' N4B d   1       3.726  -4.879   0.416  0.00  0.00     0.057 C 
BRANCH   7   8
ATOM      8  C2' N4B d   1       5.231  -4.631   0.398  0.00  0.00     0.009 C 
BRANCH   8   9
ATOM      9  C3' N4B d   1       6.000  -5.836  -0.115  0.00  0.00     0.004 C 
ATOM     10  C4' N4B d   1       6.000  -5.931  -1.612  0.00  0.00     0.003 C 
ENDBRANCH   8   9
ENDBRANCH   7   8
ENDBRANCH   1   7
TORSDOF 3
ENDMDL
