MODEL 1
REMARK minimizedAffinity 12.4044361
REMARK minimizedRMSD -1
REMARK  3 active torsions:
REMARK  status: ('A' for Active; 'I' for Inactive)
REMARK    1  A    between atoms: C3'_2  and  C2'_3 
REMARK    2  A    between atoms: C2'_3  and  C1'_4 
REMARK    3  A    between atoms: C1'_4  and  C1_5 
ROOT
ATOM      1  C1  N4B d   1      -4.483  -1.149  -4.119  0.00  0.00    -0.075 A 
ATOM      2  C2  N4B d   1      -4.508   0.263  -4.125  0.00  0.00     0.002 A 
ATOM      3  C3  N4B d   1      -3.790   0.958  -5.068  0.00  0.00     0.002 A 
ATOM      4  C4  N4B d   1      -3.029   0.266  -5.997  0.00  0.00    -0.004 A 
ATOM      5  C5  N4B d   1      -3.030  -1.099  -6.000  0.00  0.00     0.002 A 
ATOM      6  C6  N4B d   1      -3.750  -1.810  -5.061  0.00  0.00     0.002 A 
ENDROOT
BRANCH   1   7
ATOM      7  C1' N4B d   1      -5.183  -1.950  -3.055  0.00  0.00     0.057 C 
BRANCH   7   8
ATOM      8  C2' N4B d   1      -4.145  -2.527  -2.098  0.00  0.00     0.009 C 
BRANCH   8   9
ATOM      9  C3' N4B d   1      -3.006  -1.554  -1.842  0.00  0.00     0.004 C 
ATOM     10  C4' N4B d   1      -3.382  -0.455  -0.894  0.00  0.00     0.003 C 
ENDBRANCH   8   9
ENDBRANCH   7   8
ENDBRANCH   1   7
TORSDOF 3
ENDMDL
