MODEL 1
REMARK minimizedAffinity 7.59971714
REMARK minimizedRMSD -1
REMARK  1 active torsions:
REMARK  status: ('A' for Active; 'I' for Inactive)
REMARK    1  A    between atoms: C1_2  and  C2_3 
ROOT
ATOM      1  C2  UNL d   1       1.192  -0.928   0.032  0.00  0.00    -0.076 A 
ATOM      2  C3  UNL d   1       2.219  -1.728  -0.499  0.00  0.00     0.004 A 
ATOM      3  C4  UNL d   1       3.458  -1.181  -0.827  0.00  0.00    -0.003 A 
ATOM      4  C5  UNL d   1       3.691   0.176  -0.628  0.00  0.00     0.000 A 
ATOM      5  C6  UNL d   1       2.690   0.981  -0.086  0.00  0.00     0.000 A 
ATOM      6  C7  UNL d   1       1.441   0.442   0.265  0.00  0.00    -0.073 A 
ATOM      7  C8  UNL d   1       0.395   1.358   0.841  0.00  0.00     0.078 C 
ENDROOT
BRANCH   1   8
ATOM      8  C1  UNL d   1      -0.140  -1.571   0.344  0.00  0.00     0.053 C 
ATOM      9  C   UNL d   1      -1.082  -1.568  -0.851  0.00  0.00     0.018 C 
ENDBRANCH   1   8
TORSDOF 1
ENDMDL
