MODEL 1
REMARK minimizedAffinity 3.01888824
REMARK minimizedRMSD -1
REMARK  1 active torsions:
REMARK  status: ('A' for Active; 'I' for Inactive)
REMARK    1  A    between atoms: C1_2  and  C2_3 
ROOT
ATOM      1  C2  UNL d   1       2.820   2.389   1.127  0.00  0.00    -0.076 A 
ATOM      2  C3  UNL d   1       1.655   1.816   0.586  0.00  0.00     0.004 A 
ATOM      3  C4  UNL d   1       0.542   1.563   1.386  0.00  0.00    -0.003 A 
ATOM      4  C5  UNL d   1       0.575   1.879   2.740  0.00  0.00     0.000 A 
ATOM      5  C6  UNL d   1       1.715   2.465   3.289  0.00  0.00     0.000 A 
ATOM      6  C7  UNL d   1       2.840   2.741   2.493  0.00  0.00    -0.073 A 
ATOM      7  C8  UNL d   1       4.045   3.368   3.140  0.00  0.00     0.078 C 
ENDROOT
BRANCH   1   8
ATOM      8  C1  UNL d   1       4.005   2.616   0.216  0.00  0.00     0.053 C 
ATOM      9  C   UNL d   1       4.354   1.383  -0.604  0.00  0.00     0.018 C 
ENDBRANCH   1   8
TORSDOF 1
ENDMDL
