MODEL 1
REMARK minimizedAffinity 16.1489201
REMARK minimizedRMSD -1
REMARK  1 active torsions:
REMARK  status: ('A' for Active; 'I' for Inactive)
REMARK    1  A    between atoms: C1_2  and  C2_3 
ROOT
ATOM      1  C2  UNL d   1      -2.412  -5.264  -2.580  0.00  0.00    -0.076 A 
ATOM      2  C3  UNL d   1      -2.106  -6.000  -3.738  0.00  0.00     0.004 A 
ATOM      3  C4  UNL d   1      -2.964  -6.000  -4.836  0.00  0.00    -0.003 A 
ATOM      4  C5  UNL d   1      -4.142  -5.263  -4.795  0.00  0.00     0.000 A 
ATOM      5  C6  UNL d   1      -4.453  -4.513  -3.661  0.00  0.00     0.000 A 
ATOM      6  C7  UNL d   1      -3.591  -4.489  -2.552  0.00  0.00    -0.073 A 
ATOM      7  C8  UNL d   1      -3.980  -3.667  -1.353  0.00  0.00     0.078 C 
ENDROOT
BRANCH   1   8
ATOM      8  C1  UNL d   1      -1.457  -5.324  -1.410  0.00  0.00     0.053 C 
ATOM      9  C   UNL d   1      -0.524  -4.124  -1.357  0.00  0.00     0.018 C 
ENDBRANCH   1   8
TORSDOF 1
ENDMDL
