MODEL 1
REMARK minimizedAffinity 8.97508907
REMARK minimizedRMSD -1
REMARK  1 active torsions:
REMARK  status: ('A' for Active; 'I' for Inactive)
REMARK    1  A    between atoms: C1_2  and  C2_3 
ROOT
ATOM      1  C2  UNL d   1      -0.524  -1.576  -1.295  0.00  0.00    -0.076 A 
ATOM      2  C3  UNL d   1      -1.379  -0.472  -1.456  0.00  0.00     0.004 A 
ATOM      3  C4  UNL d   1      -1.037   0.781  -0.950  0.00  0.00    -0.003 A 
ATOM      4  C5  UNL d   1       0.166   0.950  -0.274  0.00  0.00     0.000 A 
ATOM      5  C6  UNL d   1       1.035  -0.130  -0.120  0.00  0.00     0.000 A 
ATOM      6  C7  UNL d   1       0.712  -1.396  -0.638  0.00  0.00    -0.073 A 
ATOM      7  C8  UNL d   1       1.683  -2.527  -0.438  0.00  0.00     0.078 C 
ENDROOT
BRANCH   1   8
ATOM      8  C1  UNL d   1      -0.961  -2.916  -1.842  0.00  0.00     0.053 C 
ATOM      9  C   UNL d   1      -1.368  -2.843  -3.305  0.00  0.00     0.018 C 
ENDBRANCH   1   8
TORSDOF 1
ENDMDL
