MODEL 1
REMARK minimizedAffinity 1.46524322
REMARK minimizedRMSD -1
REMARK  1 active torsions:
REMARK  status: ('A' for Active; 'I' for Inactive)
REMARK    1  A    between atoms: C1_2  and  C2_3 
ROOT
ATOM      1  C2  UNL d   1       1.715  -1.448  -0.387  0.00  0.00    -0.076 A 
ATOM      2  C3  UNL d   1       1.456  -2.736  -0.886  0.00  0.00     0.004 A 
ATOM      3  C4  UNL d   1       0.166  -3.119  -1.247  0.00  0.00    -0.003 A 
ATOM      4  C5  UNL d   1      -0.887  -2.220  -1.115  0.00  0.00     0.000 A 
ATOM      5  C6  UNL d   1      -0.645  -0.932  -0.638  0.00  0.00     0.000 A 
ATOM      6  C7  UNL d   1       0.653  -0.524  -0.285  0.00  0.00    -0.073 A 
ATOM      7  C8  UNL d   1       0.855   0.874   0.229  0.00  0.00     0.078 C 
ENDROOT
BRANCH   1   8
ATOM      8  C1  UNL d   1       3.131  -1.097   0.014  0.00  0.00     0.053 C 
ATOM      9  C   UNL d   1       3.777  -0.104  -0.939  0.00  0.00     0.018 C 
ENDBRANCH   1   8
TORSDOF 1
ENDMDL
