MODEL 1
REMARK minimizedAffinity 12.1094275
REMARK minimizedRMSD -1
REMARK  0 active torsions:
REMARK  status: ('A' for Active; 'I' for Inactive)
ROOT
ATOM      1  C   UNL d   1      -1.002  -1.806  -1.147  0.00  0.00     0.020 A 
ATOM      2  C1  UNL d   1      -1.887  -0.990  -0.444  0.00  0.00     0.020 A 
ATOM      3  C2  UNL d   1      -2.336  -1.374   0.822  0.00  0.00     0.034 A 
ATOM      4  C3  UNL d   1      -1.900  -2.578   1.388  0.00  0.00     0.017 A 
ATOM      5  C4  UNL d   1      -1.011  -3.396   0.681  0.00  0.00     0.017 A 
ATOM      6  C5  UNL d   1      -0.565  -3.006  -0.586  0.00  0.00     0.034 A 
ATOM      7 Cl   UNL d   1      -0.429  -4.895   1.314  0.00  0.00    -0.070 Cl
ATOM      8 Cl1  UNL d   1      -2.495  -2.990   2.957  0.00  0.00    -0.070 Cl
ENDROOT
TORSDOF 0
ENDMDL
