MODEL 1
REMARK minimizedAffinity 11.7530403
REMARK minimizedRMSD -1
REMARK  0 active torsions:
REMARK  status: ('A' for Active; 'I' for Inactive)
ROOT
ATOM      1  C   UNL d   1       0.642   3.372  -4.331  0.00  0.00     0.020 A 
ATOM      2  C1  UNL d   1       0.206   3.962  -5.517  0.00  0.00     0.020 A 
ATOM      3  C2  UNL d   1      -1.077   3.696  -5.998  0.00  0.00     0.034 A 
ATOM      4  C3  UNL d   1      -1.930   2.838  -5.293  0.00  0.00     0.017 A 
ATOM      5  C4  UNL d   1      -1.491   2.246  -4.103  0.00  0.00     0.017 A 
ATOM      6  C5  UNL d   1      -0.205   2.516  -3.626  0.00  0.00     0.034 A 
ATOM      7 Cl   UNL d   1      -2.486   1.177  -3.178  0.00  0.00    -0.070 Cl
ATOM      8 Cl1  UNL d   1      -3.504   2.554  -5.947  0.00  0.00    -0.070 Cl
ENDROOT
TORSDOF 0
ENDMDL
