MODEL 1
REMARK minimizedAffinity 5.93918324
REMARK minimizedRMSD -1
REMARK  0 active torsions:
REMARK  status: ('A' for Active; 'I' for Inactive)
ROOT
ATOM      1  C   UNL d   1      -0.547  -5.831   1.495  0.00  0.00     0.020 A 
ATOM      2  C1  UNL d   1      -0.165  -5.557   0.182  0.00  0.00     0.020 A 
ATOM      3  C2  UNL d   1      -0.442  -4.309  -0.380  0.00  0.00     0.034 A 
ATOM      4  C3  UNL d   1      -1.104  -3.330   0.371  0.00  0.00     0.017 A 
ATOM      5  C4  UNL d   1      -1.487  -3.606   1.689  0.00  0.00     0.017 A 
ATOM      6  C5  UNL d   1      -1.207  -4.858   2.246  0.00  0.00     0.034 A 
ATOM      7 Cl   UNL d   1      -2.306  -2.449   2.677  0.00  0.00    -0.070 Cl
ATOM      8 Cl1  UNL d   1      -1.414  -1.809  -0.387  0.00  0.00    -0.070 Cl
ENDROOT
TORSDOF 0
ENDMDL
