MODEL 1
REMARK minimizedAffinity 14.7344942
REMARK minimizedRMSD -1
REMARK  0 active torsions:
REMARK  status: ('A' for Active; 'I' for Inactive)
ROOT
ATOM      1  C   UNL d   1      -1.758  -1.462  -0.202  0.00  0.00     0.020 A 
ATOM      2  C1  UNL d   1      -0.894  -2.332  -0.866  0.00  0.00     0.020 A 
ATOM      3  C2  UNL d   1      -0.413  -3.470  -0.215  0.00  0.00     0.034 A 
ATOM      4  C3  UNL d   1      -0.796  -3.741   1.103  0.00  0.00     0.017 A 
ATOM      5  C4  UNL d   1      -1.663  -2.867   1.769  0.00  0.00     0.017 A 
ATOM      6  C5  UNL d   1      -2.141  -1.729   1.112  0.00  0.00     0.034 A 
ATOM      7 Cl   UNL d   1      -2.180  -3.135   3.396  0.00  0.00    -0.070 Cl
ATOM      8 Cl1  UNL d   1      -0.164  -5.167   1.847  0.00  0.00    -0.070 Cl
ENDROOT
TORSDOF 0
ENDMDL
