MODEL 1
REMARK minimizedAffinity 15.4531116
REMARK minimizedRMSD -1
REMARK  0 active torsions:
REMARK  status: ('A' for Active; 'I' for Inactive)
ROOT
ATOM      1  C   UNL d   1       2.502   2.227  -1.503  0.00  0.00     0.020 A 
ATOM      2  C1  UNL d   1       2.833   0.883  -1.669  0.00  0.00     0.020 A 
ATOM      3  C2  UNL d   1       2.264   0.148  -2.711  0.00  0.00     0.034 A 
ATOM      4  C3  UNL d   1       1.361   0.757  -3.591  0.00  0.00     0.017 A 
ATOM      5  C4  UNL d   1       1.030   2.106  -3.423  0.00  0.00     0.017 A 
ATOM      6  C5  UNL d   1       1.603   2.838  -2.378  0.00  0.00     0.034 A 
ATOM      7 Cl   UNL d   1      -0.076   2.926  -4.468  0.00  0.00    -0.070 Cl
ATOM      8 Cl1  UNL d   1       0.695  -0.212  -4.857  0.00  0.00    -0.070 Cl
ENDROOT
TORSDOF 0
ENDMDL
