MODEL 1
REMARK minimizedAffinity 19.3260498
REMARK minimizedRMSD -1
REMARK  0 active torsions:
REMARK  status: ('A' for Active; 'I' for Inactive)
ROOT
ATOM      1  C   UNL d   1      -0.323   3.196  -5.043  0.00  0.00     0.020 A 
ATOM      2  C1  UNL d   1      -1.625   3.665  -4.870  0.00  0.00     0.020 A 
ATOM      3  C2  UNL d   1      -2.559   2.894  -4.175  0.00  0.00     0.034 A 
ATOM      4  C3  UNL d   1      -2.193   1.649  -3.651  0.00  0.00     0.017 A 
ATOM      5  C4  UNL d   1      -0.886   1.178  -3.826  0.00  0.00     0.017 A 
ATOM      6  C5  UNL d   1       0.045   1.954  -4.523  0.00  0.00     0.034 A 
ATOM      7 Cl   UNL d   1      -0.361  -0.349  -3.209  0.00  0.00    -0.070 Cl
ATOM      8 Cl1  UNL d   1      -3.399   0.748  -2.803  0.00  0.00    -0.070 Cl
ENDROOT
TORSDOF 0
ENDMDL
