MODEL 1
REMARK minimizedAffinity 12.147562
REMARK minimizedRMSD -1
REMARK  0 active torsions:
REMARK  status: ('A' for Active; 'I' for Inactive)
ROOT
ATOM      1  C   UNL d   1       5.508   4.874  -0.021  0.00  0.00     0.020 A 
ATOM      2  C1  UNL d   1       4.348   4.431   0.613  0.00  0.00     0.020 A 
ATOM      3  C2  UNL d   1       3.679   3.302   0.136  0.00  0.00     0.034 A 
ATOM      4  C3  UNL d   1       4.169   2.612  -0.979  0.00  0.00     0.017 A 
ATOM      5  C4  UNL d   1       5.334   3.057  -1.614  0.00  0.00     0.017 A 
ATOM      6  C5  UNL d   1       6.000   4.188  -1.132  0.00  0.00     0.034 A 
ATOM      7 Cl   UNL d   1       6.000   2.258  -2.995  0.00  0.00    -0.070 Cl
ATOM      8 Cl1  UNL d   1       3.291   1.224  -1.515  0.00  0.00    -0.070 Cl
ENDROOT
TORSDOF 0
ENDMDL
