MODEL 1
REMARK minimizedAffinity 16.0255699
REMARK minimizedRMSD -1
REMARK  0 active torsions:
REMARK  status: ('A' for Active; 'I' for Inactive)
ROOT
ATOM      1  C   UNL d   1       1.543   3.192  -5.879  0.00  0.00     0.020 A 
ATOM      2  C1  UNL d   1       0.540   4.154  -5.999  0.00  0.00     0.020 A 
ATOM      3  C2  UNL d   1      -0.690   3.963  -5.367  0.00  0.00     0.034 A 
ATOM      4  C3  UNL d   1      -0.921   2.808  -4.611  0.00  0.00     0.017 A 
ATOM      5  C4  UNL d   1       0.085   1.843  -4.491  0.00  0.00     0.017 A 
ATOM      6  C5  UNL d   1       1.316   2.039  -5.126  0.00  0.00     0.034 A 
ATOM      7 Cl   UNL d   1      -0.126   0.392  -3.576  0.00  0.00    -0.070 Cl
ATOM      8 Cl1  UNL d   1      -2.466   2.637  -3.856  0.00  0.00    -0.070 Cl
ENDROOT
TORSDOF 0
ENDMDL
