MODEL 1
REMARK minimizedAffinity 13.437562
REMARK minimizedRMSD -1
REMARK  0 active torsions:
REMARK  status: ('A' for Active; 'I' for Inactive)
ROOT
ATOM      1  C   UNL d   1      -0.858   3.602  -4.505  0.00  0.00     0.020 A 
ATOM      2  C1  UNL d   1      -2.226   3.659  -4.243  0.00  0.00     0.020 A 
ATOM      3  C2  UNL d   1      -2.891   2.533  -3.755  0.00  0.00     0.034 A 
ATOM      4  C3  UNL d   1      -2.188   1.344  -3.527  0.00  0.00     0.017 A 
ATOM      5  C4  UNL d   1      -0.815   1.288  -3.789  0.00  0.00     0.017 A 
ATOM      6  C5  UNL d   1      -0.154   2.419  -4.278  0.00  0.00     0.034 A 
ATOM      7 Cl   UNL d   1       0.120  -0.143  -3.533  0.00  0.00    -0.070 Cl
ATOM      8 Cl1  UNL d   1      -3.075  -0.010  -2.922  0.00  0.00    -0.070 Cl
ENDROOT
TORSDOF 0
ENDMDL
