MODEL 1
REMARK minimizedAffinity 14.6824036
REMARK minimizedRMSD -1
REMARK  0 active torsions:
REMARK  status: ('A' for Active; 'I' for Inactive)
ROOT
ATOM      1  C   UNL d   1      -4.049   3.601   5.935  0.00  0.00     0.020 A 
ATOM      2  C1  UNL d   1      -5.432   3.442   5.999  0.00  0.00     0.020 A 
ATOM      3  C2  UNL d   1      -5.993   2.166   5.923  0.00  0.00     0.034 A 
ATOM      4  C3  UNL d   1      -5.169   1.043   5.784  0.00  0.00     0.017 A 
ATOM      5  C4  UNL d   1      -3.780   1.203   5.721  0.00  0.00     0.017 A 
ATOM      6  C5  UNL d   1      -3.224   2.484   5.797  0.00  0.00     0.034 A 
ATOM      7 Cl   UNL d   1      -2.699  -0.135   5.549  0.00  0.00    -0.070 Cl
ATOM      8 Cl1  UNL d   1      -5.930  -0.506   5.697  0.00  0.00    -0.070 Cl
ENDROOT
TORSDOF 0
ENDMDL
