MODEL 1
REMARK minimizedAffinity 19.2248325
REMARK minimizedRMSD -1
REMARK  0 active torsions:
REMARK  status: ('A' for Active; 'I' for Inactive)
ROOT
ATOM      1  C   UNL d   1       5.621   5.998  -0.702  0.00  0.00     0.020 A 
ATOM      2  C1  UNL d   1       4.651   5.889   0.293  0.00  0.00     0.020 A 
ATOM      3  C2  UNL d   1       4.058   4.652   0.558  0.00  0.00     0.034 A 
ATOM      4  C3  UNL d   1       4.436   3.520  -0.174  0.00  0.00     0.017 A 
ATOM      5  C4  UNL d   1       5.410   3.631  -1.172  0.00  0.00     0.017 A 
ATOM      6  C5  UNL d   1       6.000   4.871  -1.433  0.00  0.00     0.034 A 
ATOM      7 Cl   UNL d   1       5.927   2.278  -2.116  0.00  0.00    -0.070 Cl
ATOM      8 Cl1  UNL d   1       3.662   2.023   0.207  0.00  0.00    -0.070 Cl
ENDROOT
TORSDOF 0
ENDMDL
