MODEL 1
REMARK minimizedAffinity 22.3691006
REMARK minimizedRMSD -1
REMARK  0 active torsions:
REMARK  status: ('A' for Active; 'I' for Inactive)
ROOT
ATOM      1  C   UNL d   1       5.472   2.649  -1.985  0.00  0.00     0.020 A 
ATOM      2  C1  UNL d   1       5.998   3.936  -2.089  0.00  0.00     0.020 A 
ATOM      3  C2  UNL d   1       5.701   4.893  -1.117  0.00  0.00     0.034 A 
ATOM      4  C3  UNL d   1       4.875   4.565  -0.036  0.00  0.00     0.017 A 
ATOM      5  C4  UNL d   1       4.347   3.273   0.068  0.00  0.00     0.017 A 
ATOM      6  C5  UNL d   1       4.648   2.318  -0.908  0.00  0.00     0.034 A 
ATOM      7 Cl   UNL d   1       3.320   2.794   1.373  0.00  0.00    -0.070 Cl
ATOM      8 Cl1  UNL d   1       4.550   5.798   1.130  0.00  0.00    -0.070 Cl
ENDROOT
TORSDOF 0
ENDMDL
