MODEL 1
REMARK minimizedAffinity 5.74113607
REMARK minimizedRMSD -1
REMARK  0 active torsions:
REMARK  status: ('A' for Active; 'I' for Inactive)
ROOT
ATOM      1  C   UNL d   1      -0.609  -4.891   0.146  0.00  0.00     0.020 A 
ATOM      2  C1  UNL d   1      -0.623  -5.369   1.456  0.00  0.00     0.020 A 
ATOM      3  C2  UNL d   1      -1.192  -4.601   2.474  0.00  0.00     0.034 A 
ATOM      4  C3  UNL d   1      -1.750  -3.350   2.184  0.00  0.00     0.017 A 
ATOM      5  C4  UNL d   1      -1.735  -2.871   0.869  0.00  0.00     0.017 A 
ATOM      6  C5  UNL d   1      -1.164  -3.644  -0.146  0.00  0.00     0.034 A 
ATOM      7 Cl   UNL d   1      -2.403  -1.338   0.434  0.00  0.00    -0.070 Cl
ATOM      8 Cl1  UNL d   1      -2.437  -2.454   3.491  0.00  0.00    -0.070 Cl
ENDROOT
TORSDOF 0
ENDMDL
