MODEL 1
REMARK minimizedAffinity 16.1621056
REMARK minimizedRMSD -1
REMARK  0 active torsions:
REMARK  status: ('A' for Active; 'I' for Inactive)
ROOT
ATOM      1  C   UNL d   1       4.316   5.014   0.919  0.00  0.00     0.020 A 
ATOM      2  C1  UNL d   1       5.431   5.426   0.191  0.00  0.00     0.020 A 
ATOM      3  C2  UNL d   1       5.935   4.619  -0.831  0.00  0.00     0.034 A 
ATOM      4  C3  UNL d   1       5.323   3.396  -1.128  0.00  0.00     0.017 A 
ATOM      5  C4  UNL d   1       4.203   2.983  -0.397  0.00  0.00     0.017 A 
ATOM      6  C5  UNL d   1       3.703   3.795   0.625  0.00  0.00     0.034 A 
ATOM      7 Cl   UNL d   1       3.394   1.487  -0.706  0.00  0.00    -0.070 Cl
ATOM      8 Cl1  UNL d   1       5.999   2.448  -2.406  0.00  0.00    -0.070 Cl
ENDROOT
TORSDOF 0
ENDMDL
