MODEL 1
REMARK minimizedAffinity 8.94545078
REMARK minimizedRMSD -1
REMARK  0 active torsions:
REMARK  status: ('A' for Active; 'I' for Inactive)
ROOT
ATOM      1  C   UNL d   1      -0.845   2.691  -4.351  0.00  0.00     0.020 A 
ATOM      2  C1  UNL d   1       0.466   3.166  -4.354  0.00  0.00     0.020 A 
ATOM      3  C2  UNL d   1       1.521   2.305  -4.044  0.00  0.00     0.034 A 
ATOM      4  C3  UNL d   1       1.268   0.965  -3.730  0.00  0.00     0.017 A 
ATOM      5  C4  UNL d   1      -0.049   0.489  -3.727  0.00  0.00     0.017 A 
ATOM      6  C5  UNL d   1      -1.101   1.355  -4.038  0.00  0.00     0.034 A 
ATOM      7 Cl   UNL d   1      -0.440  -1.152  -3.350  0.00  0.00    -0.070 Cl
ATOM      8 Cl1  UNL d   1       2.621  -0.043  -3.358  0.00  0.00    -0.070 Cl
ENDROOT
TORSDOF 0
ENDMDL
