MODEL 1
REMARK minimizedAffinity 19.5410252
REMARK minimizedRMSD -1
REMARK  0 active torsions:
REMARK  status: ('A' for Active; 'I' for Inactive)
ROOT
ATOM      1  C   UNL d   1       0.286  -1.131   5.986  0.00  0.00     0.020 A 
ATOM      2  C1  UNL d   1       0.227  -2.295   5.220  0.00  0.00     0.020 A 
ATOM      3  C2  UNL d   1      -0.915  -2.577   4.466  0.00  0.00     0.034 A 
ATOM      4  C3  UNL d   1      -2.001  -1.695   4.477  0.00  0.00     0.017 A 
ATOM      5  C4  UNL d   1      -1.941  -0.527   5.247  0.00  0.00     0.017 A 
ATOM      6  C5  UNL d   1      -0.795  -0.250   6.000  0.00  0.00     0.034 A 
ATOM      7 Cl   UNL d   1      -3.241   0.609   5.311  0.00  0.00    -0.070 Cl
ATOM      8 Cl1  UNL d   1      -3.380  -2.107   3.521  0.00  0.00    -0.070 Cl
ENDROOT
TORSDOF 0
ENDMDL
