MODEL 1
REMARK minimizedAffinity 12.6672897
REMARK minimizedRMSD -1
REMARK  0 active torsions:
REMARK  status: ('A' for Active; 'I' for Inactive)
ROOT
ATOM      1  C   UNL d   1      -4.888   2.575   5.999  0.00  0.00     0.020 A 
ATOM      2  C1  UNL d   1      -3.493   2.586   5.999  0.00  0.00     0.020 A 
ATOM      3  C2  UNL d   1      -2.785   1.383   5.957  0.00  0.00     0.034 A 
ATOM      4  C3  UNL d   1      -3.471   0.164   5.914  0.00  0.00     0.017 A 
ATOM      5  C4  UNL d   1      -4.871   0.154   5.913  0.00  0.00     0.017 A 
ATOM      6  C5  UNL d   1      -5.575   1.361   5.956  0.00  0.00     0.034 A 
ATOM      7 Cl   UNL d   1      -5.787  -1.311   5.862  0.00  0.00    -0.070 Cl
ATOM      8 Cl1  UNL d   1      -2.532  -1.285   5.863  0.00  0.00    -0.070 Cl
ENDROOT
TORSDOF 0
ENDMDL
