MODEL 1
REMARK minimizedAffinity 21.1473293
REMARK minimizedRMSD -1
REMARK  0 active torsions:
REMARK  status: ('A' for Active; 'I' for Inactive)
ROOT
ATOM      1  C   UNL d   1      -2.301  -1.197  -0.360  0.00  0.00     0.020 A 
ATOM      2  C1  UNL d   1      -1.247  -1.870  -0.976  0.00  0.00     0.020 A 
ATOM      3  C2  UNL d   1      -0.625  -2.938  -0.326  0.00  0.00     0.034 A 
ATOM      4  C3  UNL d   1      -1.057  -3.337   0.944  0.00  0.00     0.017 A 
ATOM      5  C4  UNL d   1      -2.116  -2.661   1.562  0.00  0.00     0.017 A 
ATOM      6  C5  UNL d   1      -2.735  -1.592   0.906  0.00  0.00     0.034 A 
ATOM      7 Cl   UNL d   1      -2.705  -3.095   3.128  0.00  0.00    -0.070 Cl
ATOM      8 Cl1  UNL d   1      -0.243  -4.666   1.690  0.00  0.00    -0.070 Cl
ENDROOT
TORSDOF 0
ENDMDL
