MODEL 1
REMARK minimizedAffinity 11.7715368
REMARK minimizedRMSD -1
REMARK  0 active torsions:
REMARK  status: ('A' for Active; 'I' for Inactive)
ROOT
ATOM      1  C   UNL d   1      -0.344  -5.192   0.448  0.00  0.00     0.020 A 
ATOM      2  C1  UNL d   1      -0.323  -5.548   1.796  0.00  0.00     0.020 A 
ATOM      3  C2  UNL d   1      -0.910  -4.712   2.748  0.00  0.00     0.034 A 
ATOM      4  C3  UNL d   1      -1.520  -3.516   2.354  0.00  0.00     0.017 A 
ATOM      5  C4  UNL d   1      -1.541  -3.159   1.001  0.00  0.00     0.017 A 
ATOM      6  C5  UNL d   1      -0.952  -4.000   0.051  0.00  0.00     0.034 A 
ATOM      7 Cl   UNL d   1      -2.275  -1.699   0.438  0.00  0.00    -0.070 Cl
ATOM      8 Cl1  UNL d   1      -2.227  -2.531   3.585  0.00  0.00    -0.070 Cl
ENDROOT
TORSDOF 0
ENDMDL
