MODEL 1
REMARK minimizedAffinity 19.0097828
REMARK minimizedRMSD -1
REMARK  0 active torsions:
REMARK  status: ('A' for Active; 'I' for Inactive)
ROOT
ATOM      1  C   UNL d   1       4.655   5.818   0.735  0.00  0.00     0.020 A 
ATOM      2  C1  UNL d   1       5.570   5.969  -0.306  0.00  0.00     0.020 A 
ATOM      3  C2  UNL d   1       5.972   4.858  -1.049  0.00  0.00     0.034 A 
ATOM      4  C3  UNL d   1       5.459   3.590  -0.753  0.00  0.00     0.017 A 
ATOM      5  C4  UNL d   1       4.540   3.439   0.292  0.00  0.00     0.017 A 
ATOM      6  C5  UNL d   1       4.141   4.555   1.033  0.00  0.00     0.034 A 
ATOM      7 Cl   UNL d   1       3.863   1.906   0.717  0.00  0.00    -0.070 Cl
ATOM      8 Cl1  UNL d   1       6.000   2.259  -1.713  0.00  0.00    -0.070 Cl
ENDROOT
TORSDOF 0
ENDMDL
