MODEL 1
REMARK minimizedAffinity -1.73596573
REMARK minimizedRMSD -1
REMARK  0 active torsions:
REMARK  status: ('A' for Active; 'I' for Inactive)
ROOT
ATOM      1  C   UNL d   1      -0.537  -0.579   1.116  0.00  0.00     0.023 A 
ATOM      2  C1  UNL d   1      -0.047   0.683   1.452  0.00  0.00     0.003 A 
ATOM      3  C2  UNL d   1       0.019   1.688   0.484  0.00  0.00     0.048 A 
ATOM      4  C3  UNL d   1      -0.409   1.424  -0.817  0.00  0.00     0.023 A 
ATOM      5  C4  UNL d   1      -0.901   0.163  -1.157  0.00  0.00     0.048 A 
ATOM      6  C5  UNL d   1      -0.964  -0.838  -0.186  0.00  0.00     0.003 A 
ATOM      7  I   UNL d   1      -0.312   2.918  -2.259  0.00  0.00    -0.146 I 
ENDROOT
TORSDOF 0
ENDMDL
