MODEL 1
REMARK minimizedAffinity -3.11988497
REMARK minimizedRMSD -1
REMARK  0 active torsions:
REMARK  status: ('A' for Active; 'I' for Inactive)
ROOT
ATOM      1  C   UNL d   1      -1.646   0.073   1.372  0.00  0.00     0.023 A 
ATOM      2  C1  UNL d   1      -0.612  -0.330   2.218  0.00  0.00     0.003 A 
ATOM      3  C2  UNL d   1       0.606  -0.753   1.682  0.00  0.00     0.048 A 
ATOM      4  C3  UNL d   1       0.784  -0.769   0.299  0.00  0.00     0.023 A 
ATOM      5  C4  UNL d   1      -0.247  -0.366  -0.551  0.00  0.00     0.048 A 
ATOM      6  C5  UNL d   1      -1.463   0.055  -0.011  0.00  0.00     0.003 A 
ATOM      7  I   UNL d   1       2.596  -1.398  -0.501  0.00  0.00    -0.146 I 
ENDROOT
TORSDOF 0
ENDMDL
