MODEL 1
REMARK minimizedAffinity -3.99959064
REMARK minimizedRMSD -1
REMARK  0 active torsions:
REMARK  status: ('A' for Active; 'I' for Inactive)
ROOT
ATOM      1  C   UNL d   1       2.408  -1.794   2.424  0.00  0.00     0.023 A 
ATOM      2  C1  UNL d   1       2.801  -1.918   1.091  0.00  0.00     0.003 A 
ATOM      3  C2  UNL d   1       2.081  -1.267   0.086  0.00  0.00     0.048 A 
ATOM      4  C3  UNL d   1       0.972  -0.492   0.422  0.00  0.00     0.023 A 
ATOM      5  C4  UNL d   1       0.576  -0.364   1.754  0.00  0.00     0.048 A 
ATOM      6  C5  UNL d   1       1.298  -1.018   2.755  0.00  0.00     0.003 A 
ATOM      7  I   UNL d   1      -0.100   0.478  -1.071  0.00  0.00    -0.146 I 
ENDROOT
TORSDOF 0
ENDMDL
