MODEL 1
REMARK minimizedAffinity -2.24433422
REMARK minimizedRMSD -1
REMARK  0 active torsions:
REMARK  status: ('A' for Active; 'I' for Inactive)
ROOT
ATOM      1  C   UNL d   1       1.130  -0.741   2.723  0.00  0.00     0.023 A 
ATOM      2  C1  UNL d   1       1.817  -1.118   1.569  0.00  0.00     0.003 A 
ATOM      3  C2  UNL d   1       1.315  -0.774   0.312  0.00  0.00     0.048 A 
ATOM      4  C3  UNL d   1       0.126  -0.052   0.217  0.00  0.00     0.023 A 
ATOM      5  C4  UNL d   1      -0.564   0.329   1.369  0.00  0.00     0.048 A 
ATOM      6  C5  UNL d   1      -0.059  -0.019   2.623  0.00  0.00     0.003 A 
ATOM      7  I   UNL d   1      -0.623   0.463  -1.653  0.00  0.00    -0.146 I 
ENDROOT
TORSDOF 0
ENDMDL
