MODEL 1
REMARK minimizedAffinity -1.70062292
REMARK minimizedRMSD -1
REMARK  0 active torsions:
REMARK  status: ('A' for Active; 'I' for Inactive)
ROOT
ATOM      1  C   UNL d   1       1.790  -1.697   3.074  0.00  0.00     0.023 A 
ATOM      2  C1  UNL d   1       2.377  -1.948   1.834  0.00  0.00     0.003 A 
ATOM      3  C2  UNL d   1       1.848  -1.367   0.679  0.00  0.00     0.048 A 
ATOM      4  C3  UNL d   1       0.733  -0.535   0.773  0.00  0.00     0.023 A 
ATOM      5  C4  UNL d   1       0.143  -0.280   2.012  0.00  0.00     0.048 A 
ATOM      6  C5  UNL d   1       0.675  -0.864   3.163  0.00  0.00     0.003 A 
ATOM      7  I   UNL d   1      -0.056   0.331  -0.944  0.00  0.00    -0.146 I 
ENDROOT
TORSDOF 0
ENDMDL
