MODEL 1
REMARK minimizedAffinity -2.87978935
REMARK minimizedRMSD -1
REMARK  0 active torsions:
REMARK  status: ('A' for Active; 'I' for Inactive)
ROOT
ATOM      1  C   UNL d   1       3.942  -0.782   2.490  0.00  0.00     0.023 A 
ATOM      2  C1  UNL d   1       2.949  -1.515   3.141  0.00  0.00     0.003 A 
ATOM      3  C2  UNL d   1       1.654  -1.556   2.619  0.00  0.00     0.048 A 
ATOM      4  C3  UNL d   1       1.360  -0.864   1.445  0.00  0.00     0.023 A 
ATOM      5  C4  UNL d   1       2.350  -0.131   0.789  0.00  0.00     0.048 A 
ATOM      6  C5  UNL d   1       3.643  -0.091   1.316  0.00  0.00     0.003 A 
ATOM      7  I   UNL d   1      -0.566  -0.925   0.666  0.00  0.00    -0.146 I 
ENDROOT
TORSDOF 0
ENDMDL
