MODEL 1
REMARK minimizedAffinity -2.04550862
REMARK minimizedRMSD -1
REMARK  1 active torsions:
REMARK  status: ('A' for Active; 'I' for Inactive)
REMARK    1  A    between atoms: C1_2  and  C2_3 
ROOT
ATOM      1  C2  UNL d   1       2.113   5.981  -4.634  0.00  0.00    -0.073 A 
ATOM      2  C3  UNL d   1       1.501   5.978  -5.892  0.00  0.00    -0.002 A 
ATOM      3  C4  UNL d   1       0.110   5.973  -6.000  0.00  0.00     0.004 A 
ATOM      4  C5  UNL d   1      -0.683   5.979  -4.852  0.00  0.00    -0.004 A 
ATOM      5  C6  UNL d   1      -0.090   5.995  -3.585  0.00  0.00    -0.075 A 
ATOM      6  C7  UNL d   1      -0.928   5.999  -2.341  0.00  0.00     0.076 C 
ATOM      7  C8  UNL d   1       1.308   5.997  -3.486  0.00  0.00     0.001 A 
ENDROOT
BRANCH   1   8
ATOM      8  C1  UNL d   1       3.615   5.993  -4.513  0.00  0.00     0.053 C 
ATOM      9  C   UNL d   1       4.295   5.625  -5.823  0.00  0.00     0.018 C 
ENDBRANCH   1   8
TORSDOF 1
ENDMDL
