MODEL 1
REMARK minimizedAffinity 0.708382487
REMARK minimizedRMSD -1
REMARK  1 active torsions:
REMARK  status: ('A' for Active; 'I' for Inactive)
REMARK    1  A    between atoms: C1_2  and  C2_3 
ROOT
ATOM      1  C2  UNL d   1       2.180   5.987  -4.424  0.00  0.00    -0.073 A 
ATOM      2  C3  UNL d   1       1.702   5.988  -5.740  0.00  0.00    -0.002 A 
ATOM      3  C4  UNL d   1       0.330   5.982  -5.992  0.00  0.00     0.004 A 
ATOM      4  C5  UNL d   1      -0.578   5.983  -4.933  0.00  0.00    -0.004 A 
ATOM      5  C6  UNL d   1      -0.121   5.995  -3.611  0.00  0.00    -0.075 A 
ATOM      6  C7  UNL d   1      -1.084   5.994  -2.461  0.00  0.00     0.076 C 
ATOM      7  C8  UNL d   1       1.259   5.998  -3.367  0.00  0.00     0.001 A 
ENDROOT
BRANCH   1   8
ATOM      8  C1  UNL d   1       3.661   6.000  -4.148  0.00  0.00     0.053 C 
ATOM      9  C   UNL d   1       4.480   5.967  -5.428  0.00  0.00     0.018 C 
ENDBRANCH   1   8
TORSDOF 1
ENDMDL
