MODEL 1
REMARK minimizedAffinity 9.9156332
REMARK minimizedRMSD -1
REMARK  1 active torsions:
REMARK  status: ('A' for Active; 'I' for Inactive)
REMARK    1  A    between atoms: C1_2  and  C2_3 
ROOT
ATOM      1  C2  UNL d   1       1.083   0.909   1.244  0.00  0.00    -0.073 A 
ATOM      2  C3  UNL d   1       0.945   2.004   0.384  0.00  0.00    -0.002 A 
ATOM      3  C4  UNL d   1       2.049   2.796   0.067  0.00  0.00     0.004 A 
ATOM      4  C5  UNL d   1       3.303   2.498   0.601  0.00  0.00    -0.004 A 
ATOM      5  C6  UNL d   1       3.464   1.401   1.453  0.00  0.00    -0.075 A 
ATOM      6  C7  UNL d   1       4.805   1.068   2.038  0.00  0.00     0.076 C 
ATOM      7  C8  UNL d   1       2.349   0.611   1.768  0.00  0.00     0.001 A 
ENDROOT
BRANCH   1   8
ATOM      8  C1  UNL d   1      -0.105   0.047   1.583  0.00  0.00     0.053 C 
ATOM      9  C   UNL d   1      -0.713   0.417   2.927  0.00  0.00     0.018 C 
ENDBRANCH   1   8
TORSDOF 1
ENDMDL
