MODEL 1
REMARK minimizedAffinity -2.35671639
REMARK minimizedRMSD -1
REMARK  1 active torsions:
REMARK  status: ('A' for Active; 'I' for Inactive)
REMARK    1  A    between atoms: C1_2  and  C2_3 
ROOT
ATOM      1  C2  UNL d   1       3.516   5.239  -4.312  0.00  0.00    -0.073 A 
ATOM      2  C3  UNL d   1       4.681   6.000  -4.166  0.00  0.00    -0.002 A 
ATOM      3  C4  UNL d   1       5.916   5.372  -3.995  0.00  0.00     0.004 A 
ATOM      4  C5  UNL d   1       5.999   3.980  -3.975  0.00  0.00    -0.004 A 
ATOM      5  C6  UNL d   1       4.848   3.202  -4.131  0.00  0.00    -0.075 A 
ATOM      6  C7  UNL d   1       4.920   1.704  -4.110  0.00  0.00     0.076 C 
ATOM      7  C8  UNL d   1       3.611   3.840  -4.300  0.00  0.00     0.001 A 
ENDROOT
BRANCH   1   8
ATOM      8  C1  UNL d   1       2.181   5.911  -4.503  0.00  0.00     0.053 C 
ATOM      9  C   UNL d   1       1.698   5.821  -5.942  0.00  0.00     0.018 C 
ENDBRANCH   1   8
TORSDOF 1
ENDMDL
