MODEL 1
REMARK minimizedAffinity 9.34096909
REMARK minimizedRMSD -1
REMARK  1 active torsions:
REMARK  status: ('A' for Active; 'I' for Inactive)
REMARK    1  A    between atoms: C1_2  and  C2_3 
ROOT
ATOM      1  C2  UNL d   1       1.159  -0.139  -2.143  0.00  0.00    -0.073 A 
ATOM      2  C3  UNL d   1       1.230   1.249  -2.311  0.00  0.00    -0.002 A 
ATOM      3  C4  UNL d   1       0.828   2.104  -1.285  0.00  0.00     0.004 A 
ATOM      4  C5  UNL d   1       0.357   1.583  -0.080  0.00  0.00    -0.004 A 
ATOM      5  C6  UNL d   1       0.290   0.199   0.112  0.00  0.00    -0.075 A 
ATOM      6  C7  UNL d   1      -0.216  -0.377   1.401  0.00  0.00     0.076 C 
ATOM      7  C8  UNL d   1       0.693  -0.654  -0.925  0.00  0.00     0.001 A 
ENDROOT
BRANCH   1   8
ATOM      8  C1  UNL d   1       1.598  -1.067  -3.246  0.00  0.00     0.053 C 
ATOM      9  C   UNL d   1       0.841  -0.813  -4.540  0.00  0.00     0.018 C 
ENDBRANCH   1   8
TORSDOF 1
ENDMDL
