MODEL 1
REMARK minimizedAffinity 4.37105322
REMARK minimizedRMSD -1
REMARK  1 active torsions:
REMARK  status: ('A' for Active; 'I' for Inactive)
REMARK    1  A    between atoms: C1_2  and  C2_3 
ROOT
ATOM      1  C2  UNL d   1       2.489   5.374  -5.424  0.00  0.00    -0.073 A 
ATOM      2  C3  UNL d   1       3.635   6.000  -5.926  0.00  0.00    -0.002 A 
ATOM      3  C4  UNL d   1       4.892   5.696  -5.400  0.00  0.00     0.004 A 
ATOM      4  C5  UNL d   1       5.016   4.759  -4.374  0.00  0.00    -0.004 A 
ATOM      5  C6  UNL d   1       3.883   4.114  -3.867  0.00  0.00    -0.075 A 
ATOM      6  C7  UNL d   1       3.999   3.106  -2.762  0.00  0.00     0.076 C 
ATOM      7  C8  UNL d   1       2.624   4.427  -4.398  0.00  0.00     0.001 A 
ENDROOT
BRANCH   1   8
ATOM      8  C1  UNL d   1       1.130   5.694  -5.992  0.00  0.00     0.053 C 
ATOM      9  C   UNL d   1       0.095   5.920  -4.902  0.00  0.00     0.018 C 
ENDBRANCH   1   8
TORSDOF 1
ENDMDL
