MODEL 1
REMARK minimizedAffinity -1.67748725
REMARK minimizedRMSD -1
REMARK  1 active torsions:
REMARK  status: ('A' for Active; 'I' for Inactive)
REMARK    1  A    between atoms: C1_2  and  C2_3 
ROOT
ATOM      1  C2  UNL d   1       2.731   5.989  -4.581  0.00  0.00    -0.073 A 
ATOM      2  C3  UNL d   1       2.153   6.000  -5.856  0.00  0.00    -0.002 A 
ATOM      3  C4  UNL d   1       0.765   5.997  -6.000  0.00  0.00     0.004 A 
ATOM      4  C5  UNL d   1      -0.058   5.992  -4.873  0.00  0.00    -0.004 A 
ATOM      5  C6  UNL d   1       0.501   5.993  -3.591  0.00  0.00    -0.075 A 
ATOM      6  C7  UNL d   1      -0.370   5.985  -2.369  0.00  0.00     0.076 C 
ATOM      7  C8  UNL d   1       1.896   5.993  -3.455  0.00  0.00     0.001 A 
ENDROOT
BRANCH   1   8
ATOM      8  C1  UNL d   1       4.230   5.998  -4.421  0.00  0.00     0.053 C 
ATOM      9  C   UNL d   1       4.947   5.903  -5.758  0.00  0.00     0.018 C 
ENDBRANCH   1   8
TORSDOF 1
ENDMDL
