MODEL 1
REMARK minimizedAffinity 5.97991085
REMARK minimizedRMSD -1
REMARK  1 active torsions:
REMARK  status: ('A' for Active; 'I' for Inactive)
REMARK    1  A    between atoms: C1_2  and  C2_3 
ROOT
ATOM      1  C2  UNL d   1       0.754   1.505   0.919  0.00  0.00    -0.073 A 
ATOM      2  C3  UNL d   1       0.748   0.380   0.087  0.00  0.00    -0.002 A 
ATOM      3  C4  UNL d   1       0.011  -0.752   0.436  0.00  0.00     0.004 A 
ATOM      4  C5  UNL d   1      -0.734  -0.768   1.615  0.00  0.00    -0.004 A 
ATOM      5  C6  UNL d   1      -0.750   0.350   2.454  0.00  0.00    -0.075 A 
ATOM      6  C7  UNL d   1      -1.544   0.348   3.728  0.00  0.00     0.076 C 
ATOM      7  C8  UNL d   1      -0.005   1.482   2.098  0.00  0.00     0.001 A 
ENDROOT
BRANCH   1   8
ATOM      8  C1  UNL d   1       1.544   2.732   0.543  0.00  0.00     0.053 C 
ATOM      9  C   UNL d   1       0.918   3.477  -0.625  0.00  0.00     0.018 C 
ENDBRANCH   1   8
TORSDOF 1
ENDMDL
