MODEL 1
REMARK minimizedAffinity -1.43857193
REMARK minimizedRMSD -1
REMARK  1 active torsions:
REMARK  status: ('A' for Active; 'I' for Inactive)
REMARK    1  A    between atoms: C1_2  and  C2_3 
ROOT
ATOM      1  C2  UNL d   1      -1.566   5.198  -2.218  0.00  0.00    -0.073 A 
ATOM      2  C3  UNL d   1      -2.904   5.597  -2.122  0.00  0.00    -0.002 A 
ATOM      3  C4  UNL d   1      -3.603   5.999  -3.261  0.00  0.00     0.004 A 
ATOM      4  C5  UNL d   1      -2.974   6.000  -4.507  0.00  0.00    -0.004 A 
ATOM      5  C6  UNL d   1      -1.641   5.593  -4.625  0.00  0.00    -0.075 A 
ATOM      6  C7  UNL d   1      -0.951   5.590  -5.957  0.00  0.00     0.076 C 
ATOM      7  C8  UNL d   1      -0.945   5.193  -3.476  0.00  0.00     0.001 A 
ENDROOT
BRANCH   1   8
ATOM      8  C1  UNL d   1      -0.809   4.756  -0.992  0.00  0.00     0.053 C 
ATOM      9  C   UNL d   1       0.222   3.685  -1.313  0.00  0.00     0.018 C 
ENDBRANCH   1   8
TORSDOF 1
ENDMDL
