MODEL 1
REMARK minimizedAffinity -0.590538204
REMARK minimizedRMSD -1
REMARK  1 active torsions:
REMARK  status: ('A' for Active; 'I' for Inactive)
REMARK    1  A    between atoms: C1_2  and  C2_3 
ROOT
ATOM      1  C2  UNL d   1      -0.558   5.906  -4.642  0.00  0.00    -0.073 A 
ATOM      2  C3  UNL d   1      -0.134   5.712  -3.323  0.00  0.00    -0.002 A 
ATOM      3  C4  UNL d   1      -1.066   5.621  -2.288  0.00  0.00     0.004 A 
ATOM      4  C5  UNL d   1      -2.430   5.714  -2.563  0.00  0.00    -0.004 A 
ATOM      5  C6  UNL d   1      -2.875   5.895  -3.876  0.00  0.00    -0.075 A 
ATOM      6  C7  UNL d   1      -4.339   6.000  -4.188  0.00  0.00     0.076 C 
ATOM      7  C8  UNL d   1      -1.932   5.989  -4.909  0.00  0.00     0.001 A 
ENDROOT
BRANCH   1   8
ATOM      8  C1  UNL d   1       0.444   5.999  -5.763  0.00  0.00     0.053 C 
ATOM      9  C   UNL d   1       1.872   5.834  -5.266  0.00  0.00     0.018 C 
ENDBRANCH   1   8
TORSDOF 1
ENDMDL
