MODEL 1
REMARK minimizedAffinity -1.5939604
REMARK minimizedRMSD -1
REMARK  0 active torsions:
REMARK  status: ('A' for Active; 'I' for Inactive)
ROOT
ATOM      1  C   UNL d   1      -0.983   2.468   0.892  0.00  0.00     0.124 A 
ATOM      2  C1  UNL d   1      -0.001   2.462  -0.090  0.00  0.00     0.062 A 
ATOM      3  C2  UNL d   1       0.467   1.257  -0.604  0.00  0.00     0.162 A 
ATOM      4  C3  UNL d   1      -0.047   0.046  -0.139  0.00  0.00    -0.034 A 
ATOM      5  C4  UNL d   1      -1.033   0.060   0.849  0.00  0.00     0.162 A 
ATOM      6  C5  UNL d   1      -1.498   1.268   1.360  0.00  0.00     0.062 A 
ATOM      7  F   UNL d   1      -2.446   1.272   2.308  0.00  0.00    -0.097 F 
ATOM      8  F1  UNL d   1      -1.549  -1.085   1.319  0.00  0.00    -0.096 F 
ATOM      9  I   UNL d   1       0.651  -1.759  -0.905  0.00  0.00    -0.060 I 
ATOM     10  F2  UNL d   1       1.417   1.281  -1.551  0.00  0.00    -0.096 F 
ATOM     11  F3  UNL d   1       0.499   3.621  -0.543  0.00  0.00    -0.097 F 
ATOM     12  F4  UNL d   1      -1.431   3.630   1.385  0.00  0.00    -0.092 F 
ENDROOT
TORSDOF 0
ENDMDL
