MODEL 1
REMARK minimizedAffinity -1.40340185
REMARK minimizedRMSD -1
REMARK  0 active torsions:
REMARK  status: ('A' for Active; 'I' for Inactive)
ROOT
ATOM      1  C   UNL d   1      -0.600   1.511   0.837  0.00  0.00     0.124 A 
ATOM      2  C1  UNL d   1      -0.698   0.375   1.627  0.00  0.00     0.062 A 
ATOM      3  C2  UNL d   1      -0.030  -0.791   1.263  0.00  0.00     0.162 A 
ATOM      4  C3  UNL d   1       0.744  -0.825   0.104  0.00  0.00    -0.034 A 
ATOM      5  C4  UNL d   1       0.838   0.322  -0.687  0.00  0.00     0.162 A 
ATOM      6  C5  UNL d   1       0.168   1.484  -0.319  0.00  0.00     0.062 A 
ATOM      7  F   UNL d   1       0.264   2.581  -1.084  0.00  0.00    -0.097 F 
ATOM      8  F1  UNL d   1       1.573   0.323  -1.808  0.00  0.00    -0.096 F 
ATOM      9  I   UNL d   1       1.746  -2.566  -0.444  0.00  0.00    -0.060 I 
ATOM     10  F2  UNL d   1      -0.143  -1.874   2.046  0.00  0.00    -0.096 F 
ATOM     11  F3  UNL d   1      -1.440   0.398   2.744  0.00  0.00    -0.097 F 
ATOM     12  F4  UNL d   1      -1.245   2.631   1.189  0.00  0.00    -0.092 F 
ENDROOT
TORSDOF 0
ENDMDL
