MODEL 1
REMARK minimizedAffinity -0.851077318
REMARK minimizedRMSD -1
REMARK  0 active torsions:
REMARK  status: ('A' for Active; 'I' for Inactive)
ROOT
ATOM      1  C   UNL d   1      -0.615   2.289   0.743  0.00  0.00     0.124 A 
ATOM      2  C1  UNL d   1       0.317   2.293  -0.285  0.00  0.00     0.062 A 
ATOM      3  C2  UNL d   1       0.873   1.097  -0.732  0.00  0.00     0.162 A 
ATOM      4  C3  UNL d   1       0.496  -0.114  -0.151  0.00  0.00    -0.034 A 
ATOM      5  C4  UNL d   1      -0.442  -0.110   0.883  0.00  0.00     0.162 A 
ATOM      6  C5  UNL d   1      -0.994   1.088   1.326  0.00  0.00     0.062 A 
ATOM      7  F   UNL d   1      -1.894   1.082   2.319  0.00  0.00    -0.097 F 
ATOM      8  F1  UNL d   1      -0.826  -1.256   1.464  0.00  0.00    -0.096 F 
ATOM      9  I   UNL d   1       1.324  -1.904  -0.816  0.00  0.00    -0.060 I 
ATOM     10  F2  UNL d   1       1.771   1.131  -1.727  0.00  0.00    -0.096 F 
ATOM     11  F3  UNL d   1       0.686   3.452  -0.850  0.00  0.00    -0.097 F 
ATOM     12  F4  UNL d   1      -1.147   3.441   1.171  0.00  0.00    -0.092 F 
ENDROOT
TORSDOF 0
ENDMDL
