MODEL 1
REMARK minimizedAffinity -2.92625999
REMARK minimizedRMSD -1
REMARK  0 active torsions:
REMARK  status: ('A' for Active; 'I' for Inactive)
ROOT
ATOM      1  C   UNL d   1      -1.101   1.540   0.458  0.00  0.00     0.124 A 
ATOM      2  C1  UNL d   1      -0.075   1.599  -0.476  0.00  0.00     0.062 A 
ATOM      3  C2  UNL d   1       0.574   0.434  -0.877  0.00  0.00     0.162 A 
ATOM      4  C3  UNL d   1       0.198  -0.799  -0.345  0.00  0.00    -0.034 A 
ATOM      5  C4  UNL d   1      -0.834  -0.850   0.594  0.00  0.00     0.162 A 
ATOM      6  C5  UNL d   1      -1.479   0.316   0.992  0.00  0.00     0.062 A 
ATOM      7  F   UNL d   1      -2.469   0.258   1.894  0.00  0.00    -0.097 F 
ATOM      8  F1  UNL d   1      -1.220  -2.020   1.125  0.00  0.00    -0.096 F 
ATOM      9  I   UNL d   1       1.166  -2.543  -0.942  0.00  0.00    -0.060 I 
ATOM     10  F2  UNL d   1       1.561   0.521  -1.780  0.00  0.00    -0.096 F 
ATOM     11  F3  UNL d   1       0.293   2.780  -0.992  0.00  0.00    -0.097 F 
ATOM     12  F4  UNL d   1      -1.722   2.662   0.843  0.00  0.00    -0.092 F 
ENDROOT
TORSDOF 0
ENDMDL
