MODEL 1
REMARK minimizedAffinity -1.58888793
REMARK minimizedRMSD -1
REMARK  0 active torsions:
REMARK  status: ('A' for Active; 'I' for Inactive)
ROOT
ATOM      1  C   UNL d   1      -1.114   1.840   0.084  0.00  0.00     0.124 A 
ATOM      2  C1  UNL d   1      -0.071   1.799  -0.830  0.00  0.00     0.062 A 
ATOM      3  C2  UNL d   1       0.614   0.609  -1.057  0.00  0.00     0.162 A 
ATOM      4  C3  UNL d   1       0.258  -0.551  -0.369  0.00  0.00    -0.034 A 
ATOM      5  C4  UNL d   1      -0.793  -0.501   0.550  0.00  0.00     0.162 A 
ATOM      6  C5  UNL d   1      -1.474   0.690   0.773  0.00  0.00     0.062 A 
ATOM      7  F   UNL d   1      -2.482   0.728   1.656  0.00  0.00    -0.097 F 
ATOM      8  F1  UNL d   1      -1.162  -1.598   1.228  0.00  0.00    -0.096 F 
ATOM      9  I   UNL d   1       1.280  -2.332  -0.705  0.00  0.00    -0.060 I 
ATOM     10  F2  UNL d   1       1.619   0.598  -1.946  0.00  0.00    -0.096 F 
ATOM     11  F3  UNL d   1       0.279   2.909  -1.496  0.00  0.00    -0.097 F 
ATOM     12  F4  UNL d   1      -1.771   2.987   0.301  0.00  0.00    -0.092 F 
ENDROOT
TORSDOF 0
ENDMDL
