MODEL 1
REMARK minimizedAffinity -1.38694477
REMARK minimizedRMSD -1
REMARK  0 active torsions:
REMARK  status: ('A' for Active; 'I' for Inactive)
ROOT
ATOM      1  C   UNL d   1       0.938  -0.629  -0.051  0.00  0.00     0.124 A 
ATOM      2  C1  UNL d   1       0.257  -0.769   1.151  0.00  0.00     0.062 A 
ATOM      3  C2  UNL d   1      -0.712   0.160   1.518  0.00  0.00     0.162 A 
ATOM      4  C3  UNL d   1      -1.007   1.237   0.683  0.00  0.00    -0.034 A 
ATOM      5  C4  UNL d   1      -0.318   1.372  -0.524  0.00  0.00     0.162 A 
ATOM      6  C5  UNL d   1       0.650   0.441  -0.887  0.00  0.00     0.062 A 
ATOM      7  F   UNL d   1       1.306   0.578  -2.048  0.00  0.00    -0.097 F 
ATOM      8  F1  UNL d   1      -0.577   2.396  -1.351  0.00  0.00    -0.096 F 
ATOM      9  I   UNL d   1      -2.456   2.628   1.229  0.00  0.00    -0.060 I 
ATOM     10  F2  UNL d   1      -1.354  -0.000   2.685  0.00  0.00    -0.096 F 
ATOM     11  F3  UNL d   1       0.534  -1.801   1.960  0.00  0.00    -0.097 F 
ATOM     12  F4  UNL d   1       1.870  -1.524  -0.402  0.00  0.00    -0.092 F 
ENDROOT
TORSDOF 0
ENDMDL
