MODEL 1
REMARK minimizedAffinity -1.14890242
REMARK minimizedRMSD -1
REMARK  0 active torsions:
REMARK  status: ('A' for Active; 'I' for Inactive)
ROOT
ATOM      1  C   UNL d   1      -1.615   2.037   0.698  0.00  0.00     0.124 A 
ATOM      2  C1  UNL d   1      -0.907   2.150  -0.490  0.00  0.00     0.062 A 
ATOM      3  C2  UNL d   1      -0.168   1.072  -0.970  0.00  0.00     0.162 A 
ATOM      4  C3  UNL d   1      -0.133  -0.128  -0.261  0.00  0.00    -0.034 A 
ATOM      5  C4  UNL d   1      -0.847  -0.234   0.934  0.00  0.00     0.162 A 
ATOM      6  C5  UNL d   1      -1.585   0.845   1.409  0.00  0.00     0.062 A 
ATOM      7  F   UNL d   1      -2.268   0.734   2.557  0.00  0.00    -0.097 F 
ATOM      8  F1  UNL d   1      -0.835  -1.374   1.640  0.00  0.00    -0.096 F 
ATOM      9  I   UNL d   1       0.972  -1.742  -0.975  0.00  0.00    -0.060 I 
ATOM     10  F2  UNL d   1       0.507   1.210  -2.121  0.00  0.00    -0.096 F 
ATOM     11  F3  UNL d   1      -0.935   3.300  -1.179  0.00  0.00    -0.097 F 
ATOM     12  F4  UNL d   1      -2.325   3.075   1.157  0.00  0.00    -0.092 F 
ENDROOT
TORSDOF 0
ENDMDL
