MODEL 1
REMARK minimizedAffinity -4.68324614
REMARK minimizedRMSD -1
REMARK  0 active torsions:
REMARK  status: ('A' for Active; 'I' for Inactive)
ROOT
ATOM      1  C   UNL d   1      -1.252   2.026   0.888  0.00  0.00     0.124 A 
ATOM      2  C1  UNL d   1      -0.633   1.993  -0.354  0.00  0.00     0.062 A 
ATOM      3  C2  UNL d   1      -0.014   0.827  -0.797  0.00  0.00     0.162 A 
ATOM      4  C3  UNL d   1      -0.012  -0.316   0.003  0.00  0.00    -0.034 A 
ATOM      5  C4  UNL d   1      -0.636  -0.275   1.251  0.00  0.00     0.162 A 
ATOM      6  C5  UNL d   1      -1.253   0.893   1.689  0.00  0.00     0.062 A 
ATOM      7  F   UNL d   1      -1.851   0.923   2.889  0.00  0.00    -0.097 F 
ATOM      8  F1  UNL d   1      -0.652  -1.356   2.045  0.00  0.00    -0.096 F 
ATOM      9  I   UNL d   1       0.913  -2.060  -0.656  0.00  0.00    -0.060 I 
ATOM     10  F2  UNL d   1       0.577   0.824  -2.001  0.00  0.00    -0.096 F 
ATOM     11  F3  UNL d   1      -0.629   3.087  -1.129  0.00  0.00    -0.097 F 
ATOM     12  F4  UNL d   1      -1.846   3.149   1.312  0.00  0.00    -0.092 F 
ENDROOT
TORSDOF 0
ENDMDL
