MODEL 1
REMARK minimizedAffinity -1.27902186
REMARK minimizedRMSD -1
REMARK  0 active torsions:
REMARK  status: ('A' for Active; 'I' for Inactive)
ROOT
ATOM      1  C   UNL d   1       0.907  -2.281  -2.635  0.00  0.00     0.124 A 
ATOM      2  C1  UNL d   1      -0.334  -2.580  -2.090  0.00  0.00     0.062 A 
ATOM      3  C2  UNL d   1      -0.807  -1.866  -0.993  0.00  0.00     0.162 A 
ATOM      4  C3  UNL d   1      -0.039  -0.844  -0.434  0.00  0.00    -0.034 A 
ATOM      5  C4  UNL d   1       1.208  -0.550  -0.987  0.00  0.00     0.162 A 
ATOM      6  C5  UNL d   1       1.677  -1.267  -2.083  0.00  0.00     0.062 A 
ATOM      7  F   UNL d   1       2.876  -0.977  -2.609  0.00  0.00    -0.097 F 
ATOM      8  F1  UNL d   1       1.972   0.426  -0.474  0.00  0.00    -0.096 F 
ATOM      9  I   UNL d   1      -0.743   0.226   1.206  0.00  0.00    -0.060 I 
ATOM     10  F2  UNL d   1      -2.010  -2.177  -0.487  0.00  0.00    -0.096 F 
ATOM     11  F3  UNL d   1      -1.079  -3.561  -2.621  0.00  0.00    -0.097 F 
ATOM     12  F4  UNL d   1       1.361  -2.971  -3.690  0.00  0.00    -0.092 F 
ENDROOT
TORSDOF 0
ENDMDL
