MODEL 1
REMARK minimizedAffinity 0.128660038
REMARK minimizedRMSD -1
REMARK  0 active torsions:
REMARK  status: ('A' for Active; 'I' for Inactive)
ROOT
ATOM      1  C   UNL d   1      -0.881   2.060  -0.043  0.00  0.00     0.124 A 
ATOM      2  C1  UNL d   1      -1.089   2.252   1.316  0.00  0.00     0.062 A 
ATOM      3  C2  UNL d   1      -0.656   1.297   2.232  0.00  0.00     0.162 A 
ATOM      4  C3  UNL d   1      -0.010   0.142   1.792  0.00  0.00    -0.034 A 
ATOM      5  C4  UNL d   1       0.194  -0.044   0.424  0.00  0.00     0.162 A 
ATOM      6  C5  UNL d   1      -0.240   0.913  -0.488  0.00  0.00     0.062 A 
ATOM      7  F   UNL d   1      -0.039   0.725  -1.800  0.00  0.00    -0.097 F 
ATOM      8  F1  UNL d   1       0.812  -1.144  -0.034  0.00  0.00    -0.096 F 
ATOM      9  I   UNL d   1       0.638  -1.288   3.158  0.00  0.00    -0.060 I 
ATOM     10  F2  UNL d   1      -0.870   1.509   3.539  0.00  0.00    -0.096 F 
ATOM     11  F3  UNL d   1      -1.709   3.359   1.748  0.00  0.00    -0.097 F 
ATOM     12  F4  UNL d   1      -1.299   2.980  -0.922  0.00  0.00    -0.092 F 
ENDROOT
TORSDOF 0
ENDMDL
