MODEL 1
REMARK minimizedAffinity -0.134033605
REMARK minimizedRMSD -1
REMARK  0 active torsions:
REMARK  status: ('A' for Active; 'I' for Inactive)
ROOT
ATOM      1  C   UNL d   1      -0.614   0.618   1.805  0.00  0.00     0.124 A 
ATOM      2  C1  UNL d   1       0.324  -0.405   1.846  0.00  0.00     0.062 A 
ATOM      3  C2  UNL d   1       0.682  -1.073   0.679  0.00  0.00     0.162 A 
ATOM      4  C3  UNL d   1       0.103  -0.720  -0.540  0.00  0.00    -0.034 A 
ATOM      5  C4  UNL d   1      -0.839   0.309  -0.573  0.00  0.00     0.162 A 
ATOM      6  C5  UNL d   1      -1.194   0.974   0.596  0.00  0.00     0.062 A 
ATOM      7  F   UNL d   1      -2.100   1.962   0.555  0.00  0.00    -0.097 F 
ATOM      8  F1  UNL d   1      -1.415   0.675  -1.728  0.00  0.00    -0.096 F 
ATOM      9  I   UNL d   1       0.637  -1.716  -2.288  0.00  0.00    -0.060 I 
ATOM     10  F2  UNL d   1       1.590  -2.058   0.748  0.00  0.00    -0.096 F 
ATOM     11  F3  UNL d   1       0.885  -0.752   3.013  0.00  0.00    -0.097 F 
ATOM     12  F4  UNL d   1      -0.958   1.258   2.930  0.00  0.00    -0.092 F 
ENDROOT
TORSDOF 0
ENDMDL
