MODEL 1
REMARK minimizedAffinity -0.770900309
REMARK minimizedRMSD -1
REMARK  0 active torsions:
REMARK  status: ('A' for Active; 'I' for Inactive)
ROOT
ATOM      1  C   UNL d   1      -0.769   3.097   0.540  0.00  0.00     0.124 A 
ATOM      2  C1  UNL d   1      -1.162   1.885   1.090  0.00  0.00     0.062 A 
ATOM      3  C2  UNL d   1      -0.573   0.698   0.664  0.00  0.00     0.162 A 
ATOM      4  C3  UNL d   1       0.418   0.718  -0.318  0.00  0.00    -0.034 A 
ATOM      5  C4  UNL d   1       0.808   1.940  -0.868  0.00  0.00     0.162 A 
ATOM      6  C5  UNL d   1       0.215   3.124  -0.438  0.00  0.00     0.062 A 
ATOM      7  F   UNL d   1       0.597   4.293  -0.971  0.00  0.00    -0.097 F 
ATOM      8  F1  UNL d   1       1.757   1.995  -1.814  0.00  0.00    -0.096 F 
ATOM      9  I   UNL d   1       1.301  -1.055  -0.958  0.00  0.00    -0.060 I 
ATOM     10  F2  UNL d   1      -0.973  -0.458   1.213  0.00  0.00    -0.096 F 
ATOM     11  F3  UNL d   1      -2.113   1.857   2.035  0.00  0.00    -0.097 F 
ATOM     12  F4  UNL d   1      -1.338   4.237   0.951  0.00  0.00    -0.092 F 
ENDROOT
TORSDOF 0
ENDMDL
