MODEL 1
REMARK minimizedAffinity -3.94493461
REMARK minimizedRMSD -1
REMARK  0 active torsions:
REMARK  status: ('A' for Active; 'I' for Inactive)
ROOT
ATOM      1  C   UNL d   1      -0.326   3.186  -0.548  0.00  0.00     0.124 A 
ATOM      2  C1  UNL d   1      -1.127   2.928   0.556  0.00  0.00     0.062 A 
ATOM      3  C2  UNL d   1      -0.963   1.750   1.279  0.00  0.00     0.162 A 
ATOM      4  C3  UNL d   1       0.006   0.821   0.902  0.00  0.00    -0.034 A 
ATOM      5  C4  UNL d   1       0.807   1.087  -0.210  0.00  0.00     0.162 A 
ATOM      6  C5  UNL d   1       0.640   2.265  -0.930  0.00  0.00     0.062 A 
ATOM      7  F   UNL d   1       1.414   2.513  -1.996  0.00  0.00    -0.097 F 
ATOM      8  F1  UNL d   1       1.748   0.215  -0.601  0.00  0.00    -0.096 F 
ATOM      9  I   UNL d   1       0.253  -0.941   1.981  0.00  0.00    -0.060 I 
ATOM     10  F2  UNL d   1      -1.751   1.527   2.342  0.00  0.00    -0.096 F 
ATOM     11  F3  UNL d   1      -2.061   3.816   0.927  0.00  0.00    -0.097 F 
ATOM     12  F4  UNL d   1      -0.486   4.320  -1.243  0.00  0.00    -0.092 F 
ENDROOT
TORSDOF 0
ENDMDL
