MODEL 1
REMARK minimizedAffinity 1.07036746
REMARK minimizedRMSD -1
REMARK  0 active torsions:
REMARK  status: ('A' for Active; 'I' for Inactive)
ROOT
ATOM      1  C   UNL d   1      -0.618   2.884   0.901  0.00  0.00     0.124 A 
ATOM      2  C1  UNL d   1       0.197   2.940  -0.221  0.00  0.00     0.062 A 
ATOM      3  C2  UNL d   1       0.690   1.769  -0.788  0.00  0.00     0.162 A 
ATOM      4  C3  UNL d   1       0.369   0.529  -0.234  0.00  0.00    -0.034 A 
ATOM      5  C4  UNL d   1      -0.450   0.481   0.895  0.00  0.00     0.162 A 
ATOM      6  C5  UNL d   1      -0.941   1.654   1.458  0.00  0.00     0.062 A 
ATOM      7  F   UNL d   1      -1.728   1.598   2.543  0.00  0.00    -0.097 F 
ATOM      8  F1  UNL d   1      -0.779  -0.694   1.454  0.00  0.00    -0.096 F 
ATOM      9  I   UNL d   1       1.104  -1.225  -1.078  0.00  0.00    -0.060 I 
ATOM     10  F2  UNL d   1       1.475   1.853  -1.873  0.00  0.00    -0.096 F 
ATOM     11  F3  UNL d   1       0.511   4.127  -0.761  0.00  0.00    -0.097 F 
ATOM     12  F4  UNL d   1      -1.090   4.013   1.445  0.00  0.00    -0.092 F 
ENDROOT
TORSDOF 0
ENDMDL
