MODEL 1
REMARK minimizedAffinity 2.41705227
REMARK minimizedRMSD -1
REMARK  0 active torsions:
REMARK  status: ('A' for Active; 'I' for Inactive)
ROOT
ATOM      1  C   UNL d   1      -0.478   1.634   1.332  0.00  0.00     0.124 A 
ATOM      2  C1  UNL d   1      -0.688   0.456   2.035  0.00  0.00     0.062 A 
ATOM      3  C2  UNL d   1      -0.232  -0.755   1.524  0.00  0.00     0.162 A 
ATOM      4  C3  UNL d   1       0.440  -0.795   0.302  0.00  0.00    -0.034 A 
ATOM      5  C4  UNL d   1       0.647   0.394  -0.400  0.00  0.00     0.162 A 
ATOM      6  C5  UNL d   1       0.190   1.602   0.116  0.00  0.00     0.062 A 
ATOM      7  F   UNL d   1       0.394   2.739  -0.565  0.00  0.00    -0.097 F 
ATOM      8  F1  UNL d   1       1.290   0.391  -1.577  0.00  0.00    -0.096 F 
ATOM      9  I   UNL d   1       1.123  -2.605  -0.466  0.00  0.00    -0.060 I 
ATOM     10  F2  UNL d   1      -0.449  -1.878   2.225  0.00  0.00    -0.096 F 
ATOM     11  F3  UNL d   1      -1.333   0.484   3.210  0.00  0.00    -0.097 F 
ATOM     12  F4  UNL d   1      -0.918   2.798   1.826  0.00  0.00    -0.092 F 
ENDROOT
TORSDOF 0
ENDMDL
