MODEL 1
REMARK minimizedAffinity -0.614861965
REMARK minimizedRMSD -1
REMARK  0 active torsions:
REMARK  status: ('A' for Active; 'I' for Inactive)
ROOT
ATOM      1  C2' OXE d   1      -3.432  -3.703  -2.325  0.00  0.00     0.078 C 
ATOM      2  C1' OXE d   1      -5.998  -2.783  -2.997  0.00  0.00     0.078 C 
ATOM      3  C1  OXE d   1      -5.328  -3.751  -3.940  0.00  0.00    -0.078 A 
ATOM      4  C2  OXE d   1      -4.054  -4.159  -3.627  0.00  0.00    -0.078 A 
ATOM      5  C3  OXE d   1      -3.412  -5.094  -4.435  0.00  0.00     0.003 A 
ATOM      6  C4  OXE d   1      -3.990  -5.503  -5.643  0.00  0.00    -0.002 A 
ATOM      7  C5  OXE d   1      -5.271  -5.069  -6.000  0.00  0.00    -0.002 A 
ATOM      8  C6  OXE d   1      -5.970  -4.227  -5.141  0.00  0.00     0.003 A 
ENDROOT
TORSDOF 0
ENDMDL
