MODEL 1
REMARK minimizedAffinity -3.04101896
REMARK minimizedRMSD -1
REMARK  0 active torsions:
REMARK  status: ('A' for Active; 'I' for Inactive)
ROOT
ATOM      1  C2' OXE d   1      -4.899  -2.659  -4.345  0.00  0.00     0.078 C 
ATOM      2  C1' OXE d   1      -5.998  -4.644  -5.999  0.00  0.00     0.078 C 
ATOM      3  C1  OXE d   1      -4.554  -4.791  -5.586  0.00  0.00    -0.078 A 
ATOM      4  C2  OXE d   1      -4.012  -3.791  -4.816  0.00  0.00    -0.078 A 
ATOM      5  C3  OXE d   1      -2.701  -3.905  -4.362  0.00  0.00     0.003 A 
ATOM      6  C4  OXE d   1      -1.884  -4.950  -4.810  0.00  0.00    -0.002 A 
ATOM      7  C5  OXE d   1      -2.405  -5.958  -5.628  0.00  0.00    -0.002 A 
ATOM      8  C6  OXE d   1      -3.747  -5.916  -5.990  0.00  0.00     0.003 A 
ENDROOT
TORSDOF 0
ENDMDL
