MODEL 1
REMARK minimizedAffinity -2.93222427
REMARK minimizedRMSD -1
REMARK  0 active torsions:
REMARK  status: ('A' for Active; 'I' for Inactive)
ROOT
ATOM      1  C2' OXE d   1      -5.991  -1.538  -4.119  0.00  0.00     0.078 C 
ATOM      2  C1' OXE d   1      -4.146  -0.561  -5.995  0.00  0.00     0.078 C 
ATOM      3  C1  OXE d   1      -3.973  -1.979  -5.512  0.00  0.00    -0.078 A 
ATOM      4  C2  OXE d   1      -4.853  -2.434  -4.559  0.00  0.00    -0.078 A 
ATOM      5  C3  OXE d   1      -4.772  -3.752  -4.120  0.00  0.00     0.003 A 
ATOM      6  C4  OXE d   1      -3.711  -4.571  -4.525  0.00  0.00    -0.002 A 
ATOM      7  C5  OXE d   1      -2.781  -4.114  -5.465  0.00  0.00    -0.002 A 
ATOM      8  C6  OXE d   1      -2.922  -2.838  -5.999  0.00  0.00     0.003 A 
ENDROOT
TORSDOF 0
ENDMDL
