MODEL 1
REMARK minimizedAffinity 1.83821285
REMARK minimizedRMSD -1
REMARK  0 active torsions:
REMARK  status: ('A' for Active; 'I' for Inactive)
ROOT
ATOM      1  C2' OXE d   1       0.428   0.166   0.680  0.00  0.00     0.078 C 
ATOM      2  C1' OXE d   1       0.314  -2.403   1.805  0.00  0.00     0.078 C 
ATOM      3  C1  OXE d   1      -0.878  -1.929   1.011  0.00  0.00    -0.078 A 
ATOM      4  C2  OXE d   1      -0.833  -0.653   0.504  0.00  0.00    -0.078 A 
ATOM      5  C3  OXE d   1      -1.882  -0.186  -0.282  0.00  0.00     0.003 A 
ATOM      6  C4  OXE d   1      -3.049  -0.946  -0.432  0.00  0.00    -0.002 A 
ATOM      7  C5  OXE d   1      -3.132  -2.233   0.111  0.00  0.00    -0.002 A 
ATOM      8  C6  OXE d   1      -2.041  -2.755   0.797  0.00  0.00     0.003 A 
ENDROOT
TORSDOF 0
ENDMDL
