MODEL 1
REMARK minimizedAffinity -1.16703928
REMARK minimizedRMSD -1
REMARK  0 active torsions:
REMARK  status: ('A' for Active; 'I' for Inactive)
ROOT
ATOM      1  C2' OXE d   1      -5.995  -2.964  -3.193  0.00  0.00     0.078 C 
ATOM      2  C1' OXE d   1      -5.985  -2.977  -6.000  0.00  0.00     0.078 C 
ATOM      3  C1  OXE d   1      -4.810  -3.599  -5.289  0.00  0.00    -0.078 A 
ATOM      4  C2  OXE d   1      -4.800  -3.547  -3.916  0.00  0.00    -0.078 A 
ATOM      5  C3  OXE d   1      -3.766  -4.154  -3.210  0.00  0.00     0.003 A 
ATOM      6  C4  OXE d   1      -2.660  -4.682  -3.887  0.00  0.00    -0.002 A 
ATOM      7  C5  OXE d   1      -2.631  -4.710  -5.285  0.00  0.00    -0.002 A 
ATOM      8  C6  OXE d   1      -3.715  -4.212  -6.000  0.00  0.00     0.003 A 
ENDROOT
TORSDOF 0
ENDMDL
