MODEL 1
REMARK minimizedAffinity 1.27887702
REMARK minimizedRMSD -1
REMARK  0 active torsions:
REMARK  status: ('A' for Active; 'I' for Inactive)
ROOT
ATOM      1  C2' OXE d   1      -1.757  -4.443  -4.740  0.00  0.00     0.078 C 
ATOM      2  C1' OXE d   1      -3.011  -3.328  -2.490  0.00  0.00     0.078 C 
ATOM      3  C1  OXE d   1      -3.864  -3.616  -3.700  0.00  0.00    -0.078 A 
ATOM      4  C2  OXE d   1      -3.234  -4.118  -4.813  0.00  0.00    -0.078 A 
ATOM      5  C3  OXE d   1      -3.983  -4.453  -5.937  0.00  0.00     0.003 A 
ATOM      6  C4  OXE d   1      -5.346  -4.140  -6.000  0.00  0.00    -0.002 A 
ATOM      7  C5  OXE d   1      -6.000  -3.591  -4.892  0.00  0.00    -0.002 A 
ATOM      8  C6  OXE d   1      -5.284  -3.363  -3.722  0.00  0.00     0.003 A 
ENDROOT
TORSDOF 0
ENDMDL
