MODEL 1
REMARK minimizedAffinity -0.831802487
REMARK minimizedRMSD -1
REMARK  0 active torsions:
REMARK  status: ('A' for Active; 'I' for Inactive)
ROOT
ATOM      1  C2' OXE d   1      -5.627  -3.169  -5.520  0.00  0.00     0.078 C 
ATOM      2  C1' OXE d   1      -5.683  -5.935  -5.996  0.00  0.00     0.078 C 
ATOM      3  C1  OXE d   1      -4.335  -5.266  -5.890  0.00  0.00    -0.078 A 
ATOM      4  C2  OXE d   1      -4.318  -3.904  -5.704  0.00  0.00    -0.078 A 
ATOM      5  C3  OXE d   1      -3.102  -3.246  -5.544  0.00  0.00     0.003 A 
ATOM      6  C4  OXE d   1      -1.895  -3.932  -5.726  0.00  0.00    -0.002 A 
ATOM      7  C5  OXE d   1      -1.890  -5.312  -5.956  0.00  0.00    -0.002 A 
ATOM      8  C6  OXE d   1      -3.098  -5.999  -5.999  0.00  0.00     0.003 A 
ENDROOT
TORSDOF 0
ENDMDL
