MODEL 1
REMARK minimizedAffinity -2.30643201
REMARK minimizedRMSD -1
REMARK  0 active torsions:
REMARK  status: ('A' for Active; 'I' for Inactive)
ROOT
ATOM      1  C2' OXE d   1      -5.999  -2.748  -5.785  0.00  0.00     0.078 C 
ATOM      2  C1' OXE d   1      -5.647  -2.698  -3.000  0.00  0.00     0.078 C 
ATOM      3  C1  OXE d   1      -4.618  -3.428  -3.827  0.00  0.00    -0.078 A 
ATOM      4  C2  OXE d   1      -4.823  -3.487  -5.184  0.00  0.00    -0.078 A 
ATOM      5  C3  OXE d   1      -3.876  -4.102  -5.998  0.00  0.00     0.003 A 
ATOM      6  C4  OXE d   1      -2.797  -4.792  -5.434  0.00  0.00    -0.002 A 
ATOM      7  C5  OXE d   1      -2.590  -4.778  -4.050  0.00  0.00    -0.002 A 
ATOM      8  C6  OXE d   1      -3.466  -4.066  -3.238  0.00  0.00     0.003 A 
ENDROOT
TORSDOF 0
ENDMDL
