MODEL 1
REMARK minimizedAffinity -1.66725063
REMARK minimizedRMSD -1
REMARK  0 active torsions:
REMARK  status: ('A' for Active; 'I' for Inactive)
ROOT
ATOM      1  C2' OXE d   1      -5.939  -5.461  -5.670  0.00  0.00     0.078 C 
ATOM      2  C1' OXE d   1      -5.207  -3.250  -4.104  0.00  0.00     0.078 C 
ATOM      3  C1  OXE d   1      -4.103  -4.103  -4.677  0.00  0.00    -0.078 A 
ATOM      4  C2  OXE d   1      -4.471  -5.210  -5.403  0.00  0.00    -0.078 A 
ATOM      5  C3  OXE d   1      -3.493  -5.999  -6.000  0.00  0.00     0.003 A 
ATOM      6  C4  OXE d   1      -2.137  -5.765  -5.739  0.00  0.00    -0.002 A 
ATOM      7  C5  OXE d   1      -1.741  -4.667  -4.969  0.00  0.00    -0.002 A 
ATOM      8  C6  OXE d   1      -2.708  -3.803  -4.467  0.00  0.00     0.003 A 
ENDROOT
TORSDOF 0
ENDMDL
