MODEL 1
REMARK minimizedAffinity -1.56611931
REMARK minimizedRMSD -1
REMARK  0 active torsions:
REMARK  status: ('A' for Active; 'I' for Inactive)
ROOT
ATOM      1  C2' OXE d   1      -1.718  -5.511  -4.894  0.00  0.00     0.078 C 
ATOM      2  C1' OXE d   1      -2.619  -4.134  -2.620  0.00  0.00     0.078 C 
ATOM      3  C1  OXE d   1      -3.570  -4.271  -3.783  0.00  0.00    -0.078 A 
ATOM      4  C2  OXE d   1      -3.105  -4.905  -4.909  0.00  0.00    -0.078 A 
ATOM      5  C3  OXE d   1      -3.959  -5.106  -5.990  0.00  0.00     0.003 A 
ATOM      6  C4  OXE d   1      -5.236  -4.534  -6.000  0.00  0.00    -0.002 A 
ATOM      7  C5  OXE d   1      -5.716  -3.849  -4.878  0.00  0.00    -0.002 A 
ATOM      8  C6  OXE d   1      -4.913  -3.746  -3.748  0.00  0.00     0.003 A 
ENDROOT
TORSDOF 0
ENDMDL
