MODEL 1
REMARK minimizedAffinity 2.63648009
REMARK minimizedRMSD -1
REMARK  0 active torsions:
REMARK  status: ('A' for Active; 'I' for Inactive)
ROOT
ATOM      1  C2' OXE d   1      -0.583   2.410  -1.597  0.00  0.00     0.078 C 
ATOM      2  C1' OXE d   1      -0.892   3.232  -4.264  0.00  0.00     0.078 C 
ATOM      3  C1  OXE d   1       0.377   2.506  -3.894  0.00  0.00    -0.078 A 
ATOM      4  C2  OXE d   1       0.541   2.149  -2.577  0.00  0.00    -0.078 A 
ATOM      5  C3  OXE d   1       1.668   1.429  -2.193  0.00  0.00     0.003 A 
ATOM      6  C4  OXE d   1       2.708   1.201  -3.103  0.00  0.00    -0.002 A 
ATOM      7  C5  OXE d   1       2.579   1.591  -4.440  0.00  0.00    -0.002 A 
ATOM      8  C6  OXE d   1       1.405   2.206  -4.861  0.00  0.00     0.003 A 
ENDROOT
TORSDOF 0
ENDMDL
