MODEL 1
REMARK minimizedAffinity -2.70901299
REMARK minimizedRMSD -1
REMARK  0 active torsions:
REMARK  status: ('A' for Active; 'I' for Inactive)
ROOT
ATOM      1  C2' OXE d   1      -5.825  -3.578  -3.375  0.00  0.00     0.078 C 
ATOM      2  C1' OXE d   1      -5.999  -4.556  -6.000  0.00  0.00     0.078 C 
ATOM      3  C1  OXE d   1      -4.671  -4.670  -5.293  0.00  0.00    -0.078 A 
ATOM      4  C2  OXE d   1      -4.583  -4.147  -4.026  0.00  0.00    -0.078 A 
ATOM      5  C3  OXE d   1      -3.397  -4.274  -3.308  0.00  0.00     0.003 A 
ATOM      6  C4  OXE d   1      -2.250  -4.793  -3.921  0.00  0.00    -0.002 A 
ATOM      7  C5  OXE d   1      -2.308  -5.296  -5.225  0.00  0.00    -0.002 A 
ATOM      8  C6  OXE d   1      -3.519  -5.281  -5.908  0.00  0.00     0.003 A 
ENDROOT
TORSDOF 0
ENDMDL
