MODEL 1
REMARK minimizedAffinity 3.80954099
REMARK minimizedRMSD -1
REMARK  0 active torsions:
REMARK  status: ('A' for Active; 'I' for Inactive)
ROOT
ATOM      1  C2' OXE d   1      -4.452  -2.984  -4.789  0.00  0.00     0.078 C 
ATOM      2  C1' OXE d   1      -3.374  -3.846  -2.344  0.00  0.00     0.078 C 
ATOM      3  C1  OXE d   1      -2.823  -4.454  -3.609  0.00  0.00    -0.078 A 
ATOM      4  C2  OXE d   1      -3.389  -4.061  -4.798  0.00  0.00    -0.078 A 
ATOM      5  C3  OXE d   1      -2.881  -4.551  -5.998  0.00  0.00     0.003 A 
ATOM      6  C4  OXE d   1      -1.904  -5.554  -5.998  0.00  0.00    -0.002 A 
ATOM      7  C5  OXE d   1      -1.342  -5.998  -4.796  0.00  0.00    -0.002 A 
ATOM      8  C6  OXE d   1      -1.760  -5.428  -3.598  0.00  0.00     0.003 A 
ENDROOT
TORSDOF 0
ENDMDL
