MODEL 1
REMARK minimizedAffinity 8.33883381
REMARK minimizedRMSD -1
REMARK  0 active torsions:
REMARK  status: ('A' for Active; 'I' for Inactive)
ROOT
ATOM      1  C2' OXE d   1      -5.999  -3.818  -3.186  0.00  0.00     0.078 C 
ATOM      2  C1' OXE d   1      -5.991  -3.741  -5.992  0.00  0.00     0.078 C 
ATOM      3  C1  OXE d   1      -4.662  -3.665  -5.282  0.00  0.00    -0.078 A 
ATOM      4  C2  OXE d   1      -4.679  -3.656  -3.908  0.00  0.00    -0.078 A 
ATOM      5  C3  OXE d   1      -3.478  -3.642  -3.204  0.00  0.00     0.003 A 
ATOM      6  C4  OXE d   1      -2.263  -3.481  -3.880  0.00  0.00    -0.002 A 
ATOM      7  C5  OXE d   1      -2.226  -3.448  -5.278  0.00  0.00    -0.002 A 
ATOM      8  C6  OXE d   1      -3.411  -3.581  -5.994  0.00  0.00     0.003 A 
ENDROOT
TORSDOF 0
ENDMDL
