MODEL 1
REMARK minimizedAffinity 0.478222519
REMARK minimizedRMSD -1
REMARK  0 active torsions:
REMARK  status: ('A' for Active; 'I' for Inactive)
ROOT
ATOM      1  C2' OXE d   1      -3.878  -4.903  -5.667  0.00  0.00     0.078 C 
ATOM      2  C1' OXE d   1      -1.316  -6.000  -5.999  0.00  0.00     0.078 C 
ATOM      3  C1  OXE d   1      -1.776  -5.699  -4.594  0.00  0.00    -0.078 A 
ATOM      4  C2  OXE d   1      -3.012  -5.119  -4.444  0.00  0.00    -0.078 A 
ATOM      5  C3  OXE d   1      -3.507  -4.871  -3.167  0.00  0.00     0.003 A 
ATOM      6  C4  OXE d   1      -2.696  -5.065  -2.043  0.00  0.00    -0.002 A 
ATOM      7  C5  OXE d   1      -1.418  -5.618  -2.176  0.00  0.00    -0.002 A 
ATOM      8  C6  OXE d   1      -0.960  -5.979  -3.438  0.00  0.00     0.003 A 
ENDROOT
TORSDOF 0
ENDMDL
