MODEL 1
REMARK minimizedAffinity -1.00868678
REMARK minimizedRMSD -1
REMARK  0 active torsions:
REMARK  status: ('A' for Active; 'I' for Inactive)
ROOT
ATOM      1  C2' OXE d   1      -5.385  -3.119  -4.313  0.00  0.00     0.078 C 
ATOM      2  C1' OXE d   1      -5.984  -5.281  -6.000  0.00  0.00     0.078 C 
ATOM      3  C1  OXE d   1      -4.549  -5.097  -5.576  0.00  0.00    -0.078 A 
ATOM      4  C2  OXE d   1      -4.257  -4.009  -4.788  0.00  0.00    -0.078 A 
ATOM      5  C3  OXE d   1      -2.958  -3.823  -4.324  0.00  0.00     0.003 A 
ATOM      6  C4  OXE d   1      -1.919  -4.645  -4.777  0.00  0.00    -0.002 A 
ATOM      7  C5  OXE d   1      -2.188  -5.735  -5.611  0.00  0.00    -0.002 A 
ATOM      8  C6  OXE d   1      -3.501  -5.999  -5.985  0.00  0.00     0.003 A 
ENDROOT
TORSDOF 0
ENDMDL
