MODEL 1
REMARK minimizedAffinity -1.46159911
REMARK minimizedRMSD -1
REMARK  0 active torsions:
REMARK  status: ('A' for Active; 'I' for Inactive)
ROOT
ATOM      1  C2' OXE d   1      -5.443  -3.405  -3.745  0.00  0.00     0.078 C 
ATOM      2  C1' OXE d   1      -5.997  -4.982  -6.000  0.00  0.00     0.078 C 
ATOM      3  C1  OXE d   1      -4.625  -5.094  -5.383  0.00  0.00    -0.078 A 
ATOM      4  C2  OXE d   1      -4.347  -4.284  -4.308  0.00  0.00    -0.078 A 
ATOM      5  C3  OXE d   1      -3.116  -4.387  -3.667  0.00  0.00     0.003 A 
ATOM      6  C4  OXE d   1      -2.105  -5.195  -4.201  0.00  0.00    -0.002 A 
ATOM      7  C5  OXE d   1      -2.354  -5.998  -5.319  0.00  0.00    -0.002 A 
ATOM      8  C6  OXE d   1      -3.619  -5.991  -5.895  0.00  0.00     0.003 A 
ENDROOT
TORSDOF 0
ENDMDL
