MODEL 1
REMARK minimizedAffinity -0.182905287
REMARK minimizedRMSD -1
REMARK  0 active torsions:
REMARK  status: ('A' for Active; 'I' for Inactive)
ROOT
ATOM      1  C2' OXE d   1      -5.298  -3.175  -3.893  0.00  0.00     0.078 C 
ATOM      2  C1' OXE d   1      -5.999  -4.892  -6.000  0.00  0.00     0.078 C 
ATOM      3  C1  OXE d   1      -4.609  -5.012  -5.427  0.00  0.00    -0.078 A 
ATOM      4  C2  OXE d   1      -4.259  -4.136  -4.428  0.00  0.00    -0.078 A 
ATOM      5  C3  OXE d   1      -3.008  -4.240  -3.827  0.00  0.00     0.003 A 
ATOM      6  C4  OXE d   1      -2.049  -5.126  -4.334  0.00  0.00    -0.002 A 
ATOM      7  C5  OXE d   1      -2.372  -6.000  -5.378  0.00  0.00    -0.002 A 
ATOM      8  C6  OXE d   1      -3.658  -5.985  -5.906  0.00  0.00     0.003 A 
ENDROOT
TORSDOF 0
ENDMDL
