MODEL 1
REMARK minimizedAffinity -2.06488514
REMARK minimizedRMSD -1
REMARK  0 active torsions:
REMARK  status: ('A' for Active; 'I' for Inactive)
ROOT
ATOM      1  C2' OXE d   1      -5.348  -3.644  -3.607  0.00  0.00     0.078 C 
ATOM      2  C1' OXE d   1      -5.872  -5.014  -6.000  0.00  0.00     0.078 C 
ATOM      3  C1  OXE d   1      -4.495  -5.150  -5.399  0.00  0.00    -0.078 A 
ATOM      4  C2  OXE d   1      -4.233  -4.439  -4.252  0.00  0.00    -0.078 A 
ATOM      5  C3  OXE d   1      -2.997  -4.571  -3.627  0.00  0.00     0.003 A 
ATOM      6  C4  OXE d   1      -1.968  -5.300  -4.236  0.00  0.00    -0.002 A 
ATOM      7  C5  OXE d   1      -2.202  -6.000  -5.424  0.00  0.00    -0.002 A 
ATOM      8  C6  OXE d   1      -3.470  -5.970  -5.995  0.00  0.00     0.003 A 
ENDROOT
TORSDOF 0
ENDMDL
