MODEL 1
REMARK minimizedAffinity -1.09805691
REMARK minimizedRMSD -1
REMARK  0 active torsions:
REMARK  status: ('A' for Active; 'I' for Inactive)
ROOT
ATOM      1  C2' OXE d   1      -2.687  -3.876  -3.245  0.00  0.00     0.078 C 
ATOM      2  C1' OXE d   1      -1.991  -5.998  -4.946  0.00  0.00     0.078 C 
ATOM      3  C1  OXE d   1      -3.390  -5.443  -5.049  0.00  0.00    -0.078 A 
ATOM      4  C2  OXE d   1      -3.737  -4.436  -4.181  0.00  0.00    -0.078 A 
ATOM      5  C3  OXE d   1      -4.997  -3.852  -4.270  0.00  0.00     0.003 A 
ATOM      6  C4  OXE d   1      -5.965  -4.383  -5.131  0.00  0.00    -0.002 A 
ATOM      7  C5  OXE d   1      -5.645  -5.435  -5.997  0.00  0.00    -0.002 A 
ATOM      8  C6  OXE d   1      -4.352  -5.947  -5.998  0.00  0.00     0.003 A 
ENDROOT
TORSDOF 0
ENDMDL
