MODEL 1
REMARK minimizedAffinity -5.05193233
REMARK minimizedRMSD -1
REMARK  0 active torsions:
REMARK  status: ('A' for Active; 'I' for Inactive)
ROOT
ATOM      1  N1  IND d   1       0.337   0.389   0.230  0.00  0.00    -0.196 N 
ATOM      2  C2  IND d   1      -0.858  -0.072   0.706  0.00  0.00     0.054 A 
ATOM      3  C3  IND d   1      -1.618  -0.543  -0.309  0.00  0.00    -0.031 A 
ATOM      4  C4  IND d   1      -1.057  -0.749  -2.813  0.00  0.00     0.051 A 
ATOM      5  C5  IND d   1      -0.098  -0.427  -3.732  0.00  0.00    -0.031 A 
ATOM      6  C6  IND d   1       1.081   0.193  -3.369  0.00  0.00     0.015 A 
ATOM      7  C7  IND d   1       1.350   0.506  -2.067  0.00  0.00    -0.016 A 
ATOM      8  C8  IND d   1       0.375   0.187  -1.132  0.00  0.00    -0.047 A 
ATOM      9  C9  IND d   1      -0.841  -0.404  -1.499  0.00  0.00    -0.096 A 
ATOM     10  HN1 IND d   1       0.961   0.745   0.703  0.00  0.00     0.298 HD
ENDROOT
TORSDOF 0
ENDMDL
