MODEL 1
REMARK minimizedAffinity -4.72221327
REMARK minimizedRMSD -1
REMARK  0 active torsions:
REMARK  status: ('A' for Active; 'I' for Inactive)
ROOT
ATOM      1  N1  IND d   1       1.524  -1.177   0.143  0.00  0.00    -0.196 N 
ATOM      2  C2  IND d   1       0.978  -1.103  -1.109  0.00  0.00     0.054 A 
ATOM      3  C3  IND d   1      -0.178  -0.403  -1.077  0.00  0.00    -0.031 A 
ATOM      4  C4  IND d   1      -1.309   0.798   0.899  0.00  0.00     0.051 A 
ATOM      5  C5  IND d   1      -1.205   0.984   2.249  0.00  0.00    -0.031 A 
ATOM      6  C6  IND d   1      -0.163   0.450   2.980  0.00  0.00     0.015 A 
ATOM      7  C7  IND d   1       0.823  -0.283   2.384  0.00  0.00    -0.016 A 
ATOM      8  C8  IND d   1       0.717  -0.479   1.014  0.00  0.00    -0.047 A 
ATOM      9  C9  IND d   1      -0.360   0.024   0.274  0.00  0.00    -0.096 A 
ATOM     10  HN1 IND d   1       2.249  -1.590   0.350  0.00  0.00     0.298 HD
ENDROOT
TORSDOF 0
ENDMDL
