MODEL 1
REMARK minimizedAffinity -5.8839817
REMARK minimizedRMSD -1
REMARK  0 active torsions:
REMARK  status: ('A' for Active; 'I' for Inactive)
ROOT
ATOM      1  N1  IND d   1       0.818  -0.517   0.273  0.00  0.00    -0.196 N 
ATOM      2  C2  IND d   1      -0.333  -0.221  -0.402  0.00  0.00     0.054 A 
ATOM      3  C3  IND d   1      -1.189   0.450   0.401  0.00  0.00    -0.031 A 
ATOM      4  C4  IND d   1      -0.866   1.258   2.824  0.00  0.00     0.051 A 
ATOM      5  C5  IND d   1       0.007   1.194   3.873  0.00  0.00    -0.031 A 
ATOM      6  C6  IND d   1       1.221   0.546   3.773  0.00  0.00     0.015 A 
ATOM      7  C7  IND d   1       1.614  -0.056   2.611  0.00  0.00    -0.016 A 
ATOM      8  C8  IND d   1       0.726   0.001   1.546  0.00  0.00    -0.047 A 
ATOM      9  C9  IND d   1      -0.525   0.621   1.654  0.00  0.00    -0.096 A 
ATOM     10  HN1 IND d   1       1.487  -0.954  -0.045  0.00  0.00     0.298 HD
ENDROOT
TORSDOF 0
ENDMDL
