MODEL 1
REMARK minimizedAffinity -1.75287652
REMARK minimizedRMSD -1
REMARK  0 active torsions:
REMARK  status: ('A' for Active; 'I' for Inactive)
ROOT
ATOM      1  N1  IND d   1       0.655   0.409  -0.776  0.00  0.00    -0.196 N 
ATOM      2  C2  IND d   1       0.123  -0.827  -1.018  0.00  0.00     0.054 A 
ATOM      3  C3  IND d   1      -0.632  -1.228   0.030  0.00  0.00    -0.031 A 
ATOM      4  C4  IND d   1      -1.216   0.028   2.200  0.00  0.00     0.051 A 
ATOM      5  C5  IND d   1      -0.937   1.174   2.889  0.00  0.00    -0.031 A 
ATOM      6  C6  IND d   1      -0.098   2.145   2.381  0.00  0.00     0.015 A 
ATOM      7  C7  IND d   1       0.486   2.010   1.154  0.00  0.00    -0.016 A 
ATOM      8  C8  IND d   1       0.211   0.844   0.454  0.00  0.00    -0.047 A 
ATOM      9  C9  IND d   1      -0.606  -0.164   0.983  0.00  0.00    -0.096 A 
ATOM     10  HN1 IND d   1       1.178   0.842  -1.303  0.00  0.00     0.298 HD
ENDROOT
TORSDOF 0
ENDMDL
