MODEL 1
REMARK minimizedAffinity 2.5966115
REMARK minimizedRMSD -1
REMARK  0 active torsions:
REMARK  status: ('A' for Active; 'I' for Inactive)
ROOT
ATOM      1  N1  IND d   1       1.502  -0.439   1.976  0.00  0.00    -0.196 N 
ATOM      2  C2  IND d   1       2.130  -0.310   0.769  0.00  0.00     0.054 A 
ATOM      3  C3  IND d   1       1.235  -0.003  -0.197  0.00  0.00    -0.031 A 
ATOM      4  C4  IND d   1      -1.294   0.438  -0.002  0.00  0.00     0.051 A 
ATOM      5  C5  IND d   1      -2.327   0.404   0.892  0.00  0.00    -0.031 A 
ATOM      6  C6  IND d   1      -2.133   0.083   2.220  0.00  0.00     0.015 A 
ATOM      7  C7  IND d   1      -0.890  -0.206   2.708  0.00  0.00    -0.016 A 
ATOM      8  C8  IND d   1       0.161  -0.179   1.802  0.00  0.00    -0.047 A 
ATOM      9  C9  IND d   1      -0.037   0.104   0.445  0.00  0.00    -0.096 A 
ATOM     10  HN1 IND d   1       1.882  -0.647   2.719  0.00  0.00     0.298 HD
ENDROOT
TORSDOF 0
ENDMDL
