MODEL 1
REMARK minimizedAffinity 3.7944665
REMARK minimizedRMSD -1
REMARK  0 active torsions:
REMARK  status: ('A' for Active; 'I' for Inactive)
ROOT
ATOM      1  C   UNL d   1      -6.000   5.743   3.832  0.00  0.00     0.020 A 
ATOM      2  C1  UNL d   1      -5.987   5.174   2.559  0.00  0.00     0.020 A 
ATOM      3  C2  UNL d   1      -5.290   3.985   2.332  0.00  0.00     0.034 A 
ATOM      4  C3  UNL d   1      -4.603   3.361   3.380  0.00  0.00     0.017 A 
ATOM      5  C4  UNL d   1      -4.617   3.933   4.657  0.00  0.00     0.017 A 
ATOM      6  C5  UNL d   1      -5.316   5.123   4.879  0.00  0.00     0.034 A 
ATOM      7 Cl   UNL d   1      -3.793   3.221   6.000  0.00  0.00    -0.070 Cl
ATOM      8 Cl1  UNL d   1      -3.763   1.893   3.028  0.00  0.00    -0.070 Cl
ENDROOT
TORSDOF 0
ENDMDL
