MODEL 1
REMARK minimizedAffinity 6.80221367
REMARK minimizedRMSD -1
REMARK  0 active torsions:
REMARK  status: ('A' for Active; 'I' for Inactive)
ROOT
ATOM      1  C   UNL d   1      -4.852   5.071   5.456  0.00  0.00     0.020 A 
ATOM      2  C1  UNL d   1      -5.660   6.000   4.802  0.00  0.00     0.020 A 
ATOM      3  C2  UNL d   1      -5.998   5.809   3.461  0.00  0.00     0.034 A 
ATOM      4  C3  UNL d   1      -5.528   4.686   2.770  0.00  0.00     0.017 A 
ATOM      5  C4  UNL d   1      -4.717   3.754   3.427  0.00  0.00     0.017 A 
ATOM      6  C5  UNL d   1      -4.381   3.951   4.770  0.00  0.00     0.034 A 
ATOM      7 Cl   UNL d   1      -4.099   2.345   2.641  0.00  0.00    -0.070 Cl
ATOM      8 Cl1  UNL d   1      -5.986   4.513   1.113  0.00  0.00    -0.070 Cl
ENDROOT
TORSDOF 0
ENDMDL
