MODEL 1
REMARK minimizedAffinity 10.0855036
REMARK minimizedRMSD -1
REMARK  0 active torsions:
REMARK  status: ('A' for Active; 'I' for Inactive)
ROOT
ATOM      1  C   UNL d   1       5.998   3.397   0.616  0.00  0.00     0.020 A 
ATOM      2  C1  UNL d   1       6.000   2.807   1.879  0.00  0.00     0.020 A 
ATOM      3  C2  UNL d   1       6.000   1.416   2.000  0.00  0.00     0.034 A 
ATOM      4  C3  UNL d   1       5.999   0.610   0.855  0.00  0.00     0.017 A 
ATOM      5  C4  UNL d   1       5.998   1.203  -0.412  0.00  0.00     0.017 A 
ATOM      6  C5  UNL d   1       5.997   2.597  -0.527  0.00  0.00     0.034 A 
ATOM      7 Cl   UNL d   1       5.996   0.275  -1.870  0.00  0.00    -0.070 Cl
ATOM      8 Cl1  UNL d   1       6.000  -1.103   1.079  0.00  0.00    -0.070 Cl
ENDROOT
TORSDOF 0
ENDMDL
