MODEL 1
REMARK minimizedAffinity 2.07692194
REMARK minimizedRMSD -1
REMARK  0 active torsions:
REMARK  status: ('A' for Active; 'I' for Inactive)
ROOT
ATOM      1  C   UNL d   1      -5.443  -5.485  -1.835  0.00  0.00     0.020 A 
ATOM      2  C1  UNL d   1      -4.148  -6.000  -1.876  0.00  0.00     0.020 A 
ATOM      3  C2  UNL d   1      -3.403  -5.922  -3.055  0.00  0.00     0.034 A 
ATOM      4  C3  UNL d   1      -3.953  -5.329  -4.197  0.00  0.00     0.017 A 
ATOM      5  C4  UNL d   1      -5.253  -4.812  -4.155  0.00  0.00     0.017 A 
ATOM      6  C5  UNL d   1      -5.994  -4.893  -2.972  0.00  0.00     0.034 A 
ATOM      7 Cl   UNL d   1      -5.999  -4.066  -5.523  0.00  0.00    -0.070 Cl
ATOM      8 Cl1  UNL d   1      -2.975  -5.267  -5.620  0.00  0.00    -0.070 Cl
ENDROOT
TORSDOF 0
ENDMDL
