MODEL 1
REMARK minimizedAffinity 9.06351566
REMARK minimizedRMSD -1
REMARK  0 active torsions:
REMARK  status: ('A' for Active; 'I' for Inactive)
ROOT
ATOM      1  C   UNL d   1       5.998   2.893   0.400  0.00  0.00     0.020 A 
ATOM      2  C1  UNL d   1       5.997   2.138  -0.772  0.00  0.00     0.020 A 
ATOM      3  C2  UNL d   1       5.993   0.743  -0.703  0.00  0.00     0.034 A 
ATOM      4  C3  UNL d   1       5.991   0.099   0.540  0.00  0.00     0.017 A 
ATOM      5  C4  UNL d   1       5.992   0.858   1.715  0.00  0.00     0.017 A 
ATOM      6  C5  UNL d   1       5.996   2.254   1.641  0.00  0.00     0.034 A 
ATOM      7 Cl   UNL d   1       5.990   0.135   3.285  0.00  0.00    -0.070 Cl
ATOM      8 Cl1  UNL d   1       5.986  -1.629   0.549  0.00  0.00    -0.070 Cl
ENDROOT
TORSDOF 0
ENDMDL
