MODEL 1
REMARK minimizedAffinity 3.18900466
REMARK minimizedRMSD -1
REMARK  0 active torsions:
REMARK  status: ('A' for Active; 'I' for Inactive)
ROOT
ATOM      1  C   UNL d   1      -1.200  -3.613   1.477  0.00  0.00     0.020 A 
ATOM      2  C1  UNL d   1      -0.239  -2.650   1.175  0.00  0.00     0.020 A 
ATOM      3  C2  UNL d   1      -0.340  -1.907  -0.003  0.00  0.00     0.034 A 
ATOM      4  C3  UNL d   1      -1.405  -2.128  -0.885  0.00  0.00     0.017 A 
ATOM      5  C4  UNL d   1      -2.369  -3.095  -0.581  0.00  0.00     0.017 A 
ATOM      6  C5  UNL d   1      -2.263  -3.836   0.600  0.00  0.00     0.034 A 
ATOM      7 Cl   UNL d   1      -3.711  -3.424  -1.620  0.00  0.00    -0.070 Cl
ATOM      8 Cl1  UNL d   1      -1.467  -1.173  -2.324  0.00  0.00    -0.070 Cl
ENDROOT
TORSDOF 0
ENDMDL
