MODEL 1
REMARK minimizedAffinity -0.61346972
REMARK minimizedRMSD -1
REMARK  0 active torsions:
REMARK  status: ('A' for Active; 'I' for Inactive)
ROOT
ATOM      1  C   UNL d   1      -5.010  -5.771  -2.325  0.00  0.00     0.020 A 
ATOM      2  C1  UNL d   1      -3.643  -6.000  -2.482  0.00  0.00     0.020 A 
ATOM      3  C2  UNL d   1      -2.983  -5.532  -3.620  0.00  0.00     0.034 A 
ATOM      4  C3  UNL d   1      -3.689  -4.834  -4.606  0.00  0.00     0.017 A 
ATOM      5  C4  UNL d   1      -5.060  -4.604  -4.448  0.00  0.00     0.017 A 
ATOM      6  C5  UNL d   1      -5.717  -5.074  -3.306  0.00  0.00     0.034 A 
ATOM      7 Cl   UNL d   1      -5.999  -3.750  -5.621  0.00  0.00    -0.070 Cl
ATOM      8 Cl1  UNL d   1      -2.808  -4.284  -5.987  0.00  0.00    -0.070 Cl
ENDROOT
TORSDOF 0
ENDMDL
