MODEL 1
REMARK minimizedAffinity 8.50057983
REMARK minimizedRMSD -1
REMARK  0 active torsions:
REMARK  status: ('A' for Active; 'I' for Inactive)
ROOT
ATOM      1  C   UNL d   1       6.000   0.386  -0.064  0.00  0.00     0.020 A 
ATOM      2  C1  UNL d   1       6.000  -0.746   0.750  0.00  0.00     0.020 A 
ATOM      3  C2  UNL d   1       4.988  -0.926   1.696  0.00  0.00     0.034 A 
ATOM      4  C3  UNL d   1       3.974   0.029   1.832  0.00  0.00     0.017 A 
ATOM      5  C4  UNL d   1       3.975   1.165   1.015  0.00  0.00     0.017 A 
ATOM      6  C5  UNL d   1       4.990   1.340   0.069  0.00  0.00     0.034 A 
ATOM      7 Cl   UNL d   1       2.756   2.386   1.123  0.00  0.00    -0.070 Cl
ATOM      8 Cl1  UNL d   1       2.755  -0.258   3.022  0.00  0.00    -0.070 Cl
ENDROOT
TORSDOF 0
ENDMDL
