MODEL 1
REMARK minimizedAffinity 8.74316692
REMARK minimizedRMSD -1
REMARK  0 active torsions:
REMARK  status: ('A' for Active; 'I' for Inactive)
ROOT
ATOM      1  C   UNL d   1      -5.350  -5.923  -3.255  0.00  0.00     0.020 A 
ATOM      2  C1  UNL d   1      -5.032  -4.817  -4.043  0.00  0.00     0.020 A 
ATOM      3  C2  UNL d   1      -4.247  -3.788  -3.518  0.00  0.00     0.034 A 
ATOM      4  C3  UNL d   1      -3.779  -3.862  -2.201  0.00  0.00     0.017 A 
ATOM      5  C4  UNL d   1      -4.099  -4.972  -1.411  0.00  0.00     0.017 A 
ATOM      6  C5  UNL d   1      -4.884  -6.000  -1.941  0.00  0.00     0.034 A 
ATOM      7 Cl   UNL d   1      -3.557  -5.134   0.223  0.00  0.00    -0.070 Cl
ATOM      8 Cl1  UNL d   1      -2.814  -2.553  -1.617  0.00  0.00    -0.070 Cl
ENDROOT
TORSDOF 0
ENDMDL
