MODEL 1
REMARK minimizedAffinity -1.74077761
REMARK minimizedRMSD -1
REMARK  0 active torsions:
REMARK  status: ('A' for Active; 'I' for Inactive)
ROOT
ATOM      1  C   UNL d   1      -2.519  -2.373  -2.310  0.00  0.00     0.020 A 
ATOM      2  C1  UNL d   1      -2.247  -3.730  -2.479  0.00  0.00     0.020 A 
ATOM      3  C2  UNL d   1      -1.464  -4.407  -1.542  0.00  0.00     0.034 A 
ATOM      4  C3  UNL d   1      -0.952  -3.728  -0.430  0.00  0.00     0.017 A 
ATOM      5  C4  UNL d   1      -1.226  -2.366  -0.262  0.00  0.00     0.017 A 
ATOM      6  C5  UNL d   1      -2.010  -1.693  -1.204  0.00  0.00     0.034 A 
ATOM      7 Cl   UNL d   1      -0.628  -1.460   1.084  0.00  0.00    -0.070 Cl
ATOM      8 Cl1  UNL d   1       0.008  -4.629   0.690  0.00  0.00    -0.070 Cl
ENDROOT
TORSDOF 0
ENDMDL
