MODEL 1
REMARK minimizedAffinity 12.3006821
REMARK minimizedRMSD -1
REMARK  0 active torsions:
REMARK  status: ('A' for Active; 'I' for Inactive)
ROOT
ATOM      1  C   UNL d   1       5.797  -0.013   1.555  0.00  0.00     0.020 A 
ATOM      2  C1  UNL d   1       4.502  -0.498   1.739  0.00  0.00     0.020 A 
ATOM      3  C2  UNL d   1       3.405   0.327   1.485  0.00  0.00     0.034 A 
ATOM      4  C3  UNL d   1       3.599   1.641   1.044  0.00  0.00     0.017 A 
ATOM      5  C4  UNL d   1       4.898   2.127   0.860  0.00  0.00     0.017 A 
ATOM      6  C5  UNL d   1       5.994   1.297   1.116  0.00  0.00     0.034 A 
ATOM      7 Cl   UNL d   1       5.218   3.737   0.319  0.00  0.00    -0.070 Cl
ATOM      8 Cl1  UNL d   1       2.196   2.605   0.749  0.00  0.00    -0.070 Cl
ENDROOT
TORSDOF 0
ENDMDL
