MODEL 1
REMARK minimizedAffinity 10.2231436
REMARK minimizedRMSD -1
REMARK  0 active torsions:
REMARK  status: ('A' for Active; 'I' for Inactive)
ROOT
ATOM      1  C   UNL d   1      -1.809  -3.962  -2.864  0.00  0.00     0.020 A 
ATOM      2  C1  UNL d   1      -3.078  -3.472  -2.559  0.00  0.00     0.020 A 
ATOM      3  C2  UNL d   1      -3.377  -3.070  -1.255  0.00  0.00     0.034 A 
ATOM      4  C3  UNL d   1      -2.405  -3.157  -0.252  0.00  0.00     0.017 A 
ATOM      5  C4  UNL d   1      -1.131  -3.648  -0.559  0.00  0.00     0.017 A 
ATOM      6  C5  UNL d   1      -0.837  -4.049  -1.866  0.00  0.00     0.034 A 
ATOM      7 Cl   UNL d   1       0.120  -3.785   0.625  0.00  0.00    -0.070 Cl
ATOM      8 Cl1  UNL d   1      -2.843  -2.642   1.338  0.00  0.00    -0.070 Cl
ENDROOT
TORSDOF 0
ENDMDL
