MODEL 1
REMARK minimizedAffinity 6.85176516
REMARK minimizedRMSD -1
REMARK  0 active torsions:
REMARK  status: ('A' for Active; 'I' for Inactive)
ROOT
ATOM      1  C   UNL d   1      -5.892  -5.758  -1.983  0.00  0.00     0.020 A 
ATOM      2  C1  UNL d   1      -5.999  -5.876  -3.368  0.00  0.00     0.020 A 
ATOM      3  C2  UNL d   1      -5.067  -5.249  -4.196  0.00  0.00     0.034 A 
ATOM      4  C3  UNL d   1      -4.022  -4.500  -3.641  0.00  0.00     0.017 A 
ATOM      5  C4  UNL d   1      -3.915  -4.382  -2.250  0.00  0.00     0.017 A 
ATOM      6  C5  UNL d   1      -4.852  -5.013  -1.425  0.00  0.00     0.034 A 
ATOM      7 Cl   UNL d   1      -2.655  -3.476  -1.491  0.00  0.00    -0.070 Cl
ATOM      8 Cl1  UNL d   1      -2.905  -3.752  -4.725  0.00  0.00    -0.070 Cl
ENDROOT
TORSDOF 0
ENDMDL
