MODEL 1
REMARK minimizedAffinity 14.1117229
REMARK minimizedRMSD -1
REMARK  0 active torsions:
REMARK  status: ('A' for Active; 'I' for Inactive)
ROOT
ATOM      1  C   UNL d   1       1.511   0.162   2.217  0.00  0.00     0.020 A 
ATOM      2  C1  UNL d   1       1.330   1.418   1.638  0.00  0.00     0.020 A 
ATOM      3  C2  UNL d   1       2.380   2.023   0.944  0.00  0.00     0.034 A 
ATOM      4  C3  UNL d   1       3.614   1.374   0.827  0.00  0.00     0.017 A 
ATOM      5  C4  UNL d   1       3.794   0.113   1.408  0.00  0.00     0.017 A 
ATOM      6  C5  UNL d   1       2.740  -0.489   2.102  0.00  0.00     0.034 A 
ATOM      7 Cl   UNL d   1       5.287  -0.750   1.305  0.00  0.00    -0.070 Cl
ATOM      8 Cl1  UNL d   1       4.867   2.181  -0.047  0.00  0.00    -0.070 Cl
ENDROOT
TORSDOF 0
ENDMDL
