MODEL 1
REMARK minimizedAffinity -1.64100695
REMARK minimizedRMSD -1
REMARK  0 active torsions:
REMARK  status: ('A' for Active; 'I' for Inactive)
ROOT
ATOM      1  C   UNL d   1      -6.000  -4.925  -3.335  0.00  0.00     0.020 A 
ATOM      2  C1  UNL d   1      -5.992  -4.697  -4.711  0.00  0.00     0.020 A 
ATOM      3  C2  UNL d   1      -4.813  -4.869  -5.440  0.00  0.00     0.034 A 
ATOM      4  C3  UNL d   1      -3.638  -5.272  -4.794  0.00  0.00     0.017 A 
ATOM      5  C4  UNL d   1      -3.648  -5.501  -3.414  0.00  0.00     0.017 A 
ATOM      6  C5  UNL d   1      -4.830  -5.327  -2.688  0.00  0.00     0.034 A 
ATOM      7 Cl   UNL d   1      -2.238  -6.000  -2.548  0.00  0.00    -0.070 Cl
ATOM      8 Cl1  UNL d   1      -2.218  -5.466  -5.759  0.00  0.00    -0.070 Cl
ENDROOT
TORSDOF 0
ENDMDL
