MODEL 1
REMARK minimizedAffinity 5.65939331
REMARK minimizedRMSD -1
REMARK  0 active torsions:
REMARK  status: ('A' for Active; 'I' for Inactive)
ROOT
ATOM      1  C   UNL d   1      -0.827  -4.133  -6.000  0.00  0.00     0.020 A 
ATOM      2  C1  UNL d   1      -0.995  -2.749  -5.997  0.00  0.00     0.020 A 
ATOM      3  C2  UNL d   1       0.122  -1.911  -5.988  0.00  0.00     0.034 A 
ATOM      4  C3  UNL d   1       1.411  -2.456  -5.981  0.00  0.00     0.017 A 
ATOM      5  C4  UNL d   1       1.578  -3.846  -5.984  0.00  0.00     0.017 A 
ATOM      6  C5  UNL d   1       0.456  -4.680  -5.993  0.00  0.00     0.034 A 
ATOM      7 Cl   UNL d   1       3.137  -4.592  -5.976  0.00  0.00    -0.070 Cl
ATOM      8 Cl1  UNL d   1       2.747  -1.360  -5.970  0.00  0.00    -0.070 Cl
ENDROOT
TORSDOF 0
ENDMDL
