MODEL 1
REMARK minimizedAffinity 5.09084272
REMARK minimizedRMSD -1
REMARK  0 active torsions:
REMARK  status: ('A' for Active; 'I' for Inactive)
ROOT
ATOM      1  C   UNL d   1      -0.907  -2.348  -6.000  0.00  0.00     0.020 A 
ATOM      2  C1  UNL d   1      -0.854  -3.737  -5.889  0.00  0.00     0.020 A 
ATOM      3  C2  UNL d   1       0.380  -4.381  -5.777  0.00  0.00     0.034 A 
ATOM      4  C3  UNL d   1       1.566  -3.637  -5.777  0.00  0.00     0.017 A 
ATOM      5  C4  UNL d   1       1.510  -2.243  -5.889  0.00  0.00     0.017 A 
ATOM      6  C5  UNL d   1       0.272  -1.603  -6.000  0.00  0.00     0.034 A 
ATOM      7 Cl   UNL d   1       2.930  -1.257  -5.896  0.00  0.00    -0.070 Cl
ATOM      8 Cl1  UNL d   1       3.056  -4.499  -5.635  0.00  0.00    -0.070 Cl
ENDROOT
TORSDOF 0
ENDMDL
