MODEL 1
REMARK minimizedAffinity -2.17359471
REMARK minimizedRMSD -1
REMARK  1 active torsions:
REMARK  status: ('A' for Active; 'I' for Inactive)
REMARK    1  A    between atoms: C1_2  and  C2_3 
ROOT
ATOM      1  C2  UNL d   1       0.735  -0.122  -1.226  0.00  0.00    -0.081 A 
ATOM      2  C3  UNL d   1       2.021   0.360  -1.503  0.00  0.00     0.006 A 
ATOM      3  C4  UNL d   1       2.474   0.450  -2.821  0.00  0.00     0.002 A 
ATOM      4  C5  UNL d   1       1.648   0.068  -3.884  0.00  0.00    -0.080 A 
ATOM      5  C6  UNL d   1       2.111   0.189  -5.305  0.00  0.00     0.076 C 
ATOM      6  C7  UNL d   1       0.370  -0.429  -3.606  0.00  0.00     0.002 A 
ATOM      7  C8  UNL d   1      -0.083  -0.521  -2.288  0.00  0.00     0.006 A 
ENDROOT
BRANCH   1   8
ATOM      8  C1  UNL d   1       0.220  -0.160   0.190  0.00  0.00     0.054 C 
ATOM      9  C   UNL d   1      -1.272   0.137   0.244  0.00  0.00     0.018 C 
ENDBRANCH   1   8
TORSDOF 1
ENDMDL
