MODEL 1
REMARK minimizedAffinity -2.92572856
REMARK minimizedRMSD -1
REMARK  1 active torsions:
REMARK  status: ('A' for Active; 'I' for Inactive)
REMARK    1  A    between atoms: C1_2  and  C2_3 
ROOT
ATOM      1  C2  UNL d   1      -0.583   0.344   0.619  0.00  0.00    -0.081 A 
ATOM      2  C3  UNL d   1      -0.461   0.576   1.995  0.00  0.00     0.006 A 
ATOM      3  C4  UNL d   1      -1.425   0.094   2.883  0.00  0.00     0.002 A 
ATOM      4  C5  UNL d   1      -2.523  -0.633   2.412  0.00  0.00    -0.080 A 
ATOM      5  C6  UNL d   1      -3.550  -1.182   3.358  0.00  0.00     0.076 C 
ATOM      6  C7  UNL d   1      -2.655  -0.850   1.036  0.00  0.00     0.002 A 
ATOM      7  C8  UNL d   1      -1.691  -0.369   0.148  0.00  0.00     0.006 A 
ENDROOT
BRANCH   1   8
ATOM      8  C1  UNL d   1       0.489   0.806  -0.335  0.00  0.00     0.054 C 
ATOM      9  C   UNL d   1       0.711  -0.206  -1.450  0.00  0.00     0.018 C 
ENDBRANCH   1   8
TORSDOF 1
ENDMDL
