MODEL 1
REMARK minimizedAffinity -2.13419294
REMARK minimizedRMSD -1
REMARK  1 active torsions:
REMARK  status: ('A' for Active; 'I' for Inactive)
REMARK    1  A    between atoms: C1_2  and  C2_3 
ROOT
ATOM      1  C2  UNL d   1      -1.302  -0.041   1.807  0.00  0.00    -0.081 A 
ATOM      2  C3  UNL d   1      -1.874  -0.673   0.696  0.00  0.00     0.006 A 
ATOM      3  C4  UNL d   1      -1.190  -0.724  -0.520  0.00  0.00     0.002 A 
ATOM      4  C5  UNL d   1       0.081  -0.151  -0.644  0.00  0.00    -0.080 A 
ATOM      5  C6  UNL d   1       0.839  -0.225  -1.936  0.00  0.00     0.076 C 
ATOM      6  C7  UNL d   1       0.645   0.495   0.460  0.00  0.00     0.002 A 
ATOM      7  C8  UNL d   1      -0.039   0.547   1.677  0.00  0.00     0.006 A 
ENDROOT
BRANCH   1   8
ATOM      8  C1  UNL d   1      -2.010  -0.041   3.138  0.00  0.00     0.054 C 
ATOM      9  C   UNL d   1      -2.798  -1.327   3.345  0.00  0.00     0.018 C 
ENDBRANCH   1   8
TORSDOF 1
ENDMDL
