MODEL 1
REMARK minimizedAffinity 12.862339
REMARK minimizedRMSD -1
REMARK  1 active torsions:
REMARK  status: ('A' for Active; 'I' for Inactive)
REMARK    1  A    between atoms: C1_2  and  C2_3 
ROOT
ATOM      1  C2  UNL d   1      -0.688  -0.819  -5.721  0.00  0.00    -0.077 A 
ATOM      2  C3  UNL d   1       0.679  -0.558  -5.890  0.00  0.00     0.002 A 
ATOM      3  C4  UNL d   1       1.139   0.756  -5.999  0.00  0.00     0.002 A 
ATOM      4  C5  UNL d   1       0.240   1.818  -5.937  0.00  0.00    -0.004 A 
ATOM      5  C6  UNL d   1      -1.122   1.569  -5.771  0.00  0.00     0.002 A 
ATOM      6  C7  UNL d   1      -1.584   0.256  -5.663  0.00  0.00     0.002 A 
ENDROOT
BRANCH   1   7
ATOM      7  C1  UNL d   1      -1.180  -2.233  -5.553  0.00  0.00     0.055 C 
ATOM      8  C   UNL d   1      -0.391  -2.970  -4.481  0.00  0.00     0.019 C 
ENDBRANCH   1   7
TORSDOF 1
ENDMDL
