MODEL 1
REMARK minimizedAffinity 4.60669994
REMARK minimizedRMSD -1
REMARK  1 active torsions:
REMARK  status: ('A' for Active; 'I' for Inactive)
REMARK    1  A    between atoms: N_2  and  C1_3 
ROOT
ATOM      1  C1  UNL d   1      -3.296   3.524  -5.411  0.00  0.00     0.143 A 
ATOM      2  C2  UNL d   1      -4.527   3.214  -5.999  0.00  0.00    -0.057 A 
ATOM      3  C3  UNL d   1      -5.724   3.736  -5.495  0.00  0.00     0.033 A 
ATOM      4  C4  UNL d   1      -5.714   4.557  -4.372  0.00  0.00    -0.042 A 
ATOM      5  C5  UNL d   1      -4.505   4.858  -3.757  0.00  0.00     0.033 A 
ATOM      6  C6  UNL d   1      -3.312   4.339  -4.269  0.00  0.00    -0.057 A 
ENDROOT
BRANCH   1   7
ATOM      7  N   UNL d   1      -2.081   2.957  -5.805  0.00  0.00    -0.732 N 
ATOM      8  C   UNL d   1      -0.910   3.786  -5.999  0.00  0.00     0.284 C 
ATOM      9  H3  UNL d   1      -1.893   2.075  -5.335  0.00  0.00     0.395 HD
ENDBRANCH   1   7
TORSDOF 1
ENDMDL
