MODEL 1
REMARK minimizedAffinity 3.14466548
REMARK minimizedRMSD -1
REMARK  1 active torsions:
REMARK  status: ('A' for Active; 'I' for Inactive)
REMARK    1  A    between atoms: N_2  and  C1_3 
ROOT
ATOM      1  C1  UNL d   1       0.919  -2.040   2.337  0.00  0.00     0.143 A 
ATOM      2  C2  UNL d   1       0.965  -0.818   3.017  0.00  0.00    -0.057 A 
ATOM      3  C3  UNL d   1      -0.208  -0.147   3.383  0.00  0.00     0.033 A 
ATOM      4  C4  UNL d   1      -1.451  -0.674   3.049  0.00  0.00    -0.042 A 
ATOM      5  C5  UNL d   1      -1.520  -1.875   2.352  0.00  0.00     0.033 A 
ATOM      6  C6  UNL d   1      -0.345  -2.543   1.994  0.00  0.00    -0.057 A 
ENDROOT
BRANCH   1   7
ATOM      7  N   UNL d   1       2.050  -2.706   1.858  0.00  0.00    -0.732 N 
ATOM      8  C   UNL d   1       1.979  -4.101   1.480  0.00  0.00     0.284 C 
ATOM      9  H3  UNL d   1       2.601  -2.131   1.225  0.00  0.00     0.395 HD
ENDBRANCH   1   7
TORSDOF 1
ENDMDL
