MODEL 1
REMARK minimizedAffinity 8.906703
REMARK minimizedRMSD -1
REMARK  1 active torsions:
REMARK  status: ('A' for Active; 'I' for Inactive)
REMARK    1  A    between atoms: N_2  and  C1_3 
ROOT
ATOM      1  C1  UNL d   1      -4.164  -1.098  -4.445  0.00  0.00     0.143 A 
ATOM      2  C2  UNL d   1      -4.880  -2.265  -4.158  0.00  0.00    -0.057 A 
ATOM      3  C3  UNL d   1      -4.902  -2.804  -2.866  0.00  0.00     0.033 A 
ATOM      4  C4  UNL d   1      -4.182  -2.200  -1.841  0.00  0.00    -0.042 A 
ATOM      5  C5  UNL d   1      -3.443  -1.053  -2.109  0.00  0.00     0.033 A 
ATOM      6  C6  UNL d   1      -3.430  -0.515  -3.399  0.00  0.00    -0.057 A 
ENDROOT
BRANCH   1   7
ATOM      7  N   UNL d   1      -4.023  -0.568  -5.730  0.00  0.00    -0.732 N 
ATOM      8  C   UNL d   1      -3.041   0.460  -5.999  0.00  0.00     0.284 C 
ATOM      9  H3  UNL d   1      -4.088  -1.280  -6.453  0.00  0.00     0.395 HD
ENDBRANCH   1   7
TORSDOF 1
ENDMDL
