MODEL 1
REMARK minimizedAffinity 11.024579
REMARK minimizedRMSD -1
REMARK  1 active torsions:
REMARK  status: ('A' for Active; 'I' for Inactive)
REMARK    1  A    between atoms: N_2  and  C1_3 
ROOT
ATOM      1  C1  UNL d   1       2.863  -2.781   3.325  0.00  0.00     0.143 A 
ATOM      2  C2  UNL d   1       3.024  -3.879   2.473  0.00  0.00    -0.057 A 
ATOM      3  C3  UNL d   1       2.342  -3.959   1.253  0.00  0.00     0.033 A 
ATOM      4  C4  UNL d   1       1.460  -2.951   0.876  0.00  0.00    -0.042 A 
ATOM      5  C5  UNL d   1       1.265  -1.862   1.718  0.00  0.00     0.033 A 
ATOM      6  C6  UNL d   1       1.955  -1.785   2.932  0.00  0.00    -0.057 A 
ENDROOT
BRANCH   1   7
ATOM      7  N   UNL d   1       3.438  -2.691   4.595  0.00  0.00    -0.732 N 
ATOM      8  C   UNL d   1       4.025  -3.855   5.223  0.00  0.00     0.284 C 
ATOM      9  H3  UNL d   1       3.976  -1.836   4.718  0.00  0.00     0.395 HD
ENDBRANCH   1   7
TORSDOF 1
ENDMDL
