MODEL 1
REMARK minimizedAffinity 9.13337517
REMARK minimizedRMSD -1
REMARK  1 active torsions:
REMARK  status: ('A' for Active; 'I' for Inactive)
REMARK    1  A    between atoms: N_2  and  C1_3 
ROOT
ATOM      1  C1  UNL d   1       0.939  -1.427   0.340  0.00  0.00     0.143 A 
ATOM      2  C2  UNL d   1       0.121  -1.337  -0.791  0.00  0.00    -0.057 A 
ATOM      3  C3  UNL d   1       0.319  -0.339  -1.753  0.00  0.00     0.033 A 
ATOM      4  C4  UNL d   1       1.324   0.607  -1.586  0.00  0.00    -0.042 A 
ATOM      5  C5  UNL d   1       2.134   0.552  -0.457  0.00  0.00     0.033 A 
ATOM      6  C6  UNL d   1       1.936  -0.451   0.497  0.00  0.00    -0.057 A 
ENDROOT
BRANCH   1   7
ATOM      7  N   UNL d   1       0.731  -2.335   1.381  0.00  0.00    -0.732 N 
ATOM      8  C   UNL d   1       1.852  -2.959   2.050  0.00  0.00     0.284 C 
ATOM      9  H3  UNL d   1      -0.017  -2.045   2.006  0.00  0.00     0.395 HD
ENDBRANCH   1   7
TORSDOF 1
ENDMDL
