MODEL 1
REMARK minimizedAffinity 9.79244232
REMARK minimizedRMSD -1
REMARK  1 active torsions:
REMARK  status: ('A' for Active; 'I' for Inactive)
REMARK    1  A    between atoms: N_2  and  C1_3 
ROOT
ATOM      1  C1  UNL d   1       1.007  -0.923   0.467  0.00  0.00     0.143 A 
ATOM      2  C2  UNL d   1       0.263  -0.723  -0.701  0.00  0.00    -0.057 A 
ATOM      3  C3  UNL d   1       0.358   0.471  -1.426  0.00  0.00     0.033 A 
ATOM      4  C4  UNL d   1       1.179   1.501  -0.979  0.00  0.00    -0.042 A 
ATOM      5  C5  UNL d   1       1.908   1.333   0.193  0.00  0.00     0.033 A 
ATOM      6  C6  UNL d   1       1.815   0.136   0.909  0.00  0.00    -0.057 A 
ENDROOT
BRANCH   1   7
ATOM      7  N   UNL d   1       0.883  -2.049   1.285  0.00  0.00    -0.732 N 
ATOM      8  C   UNL d   1       1.993  -2.960   1.460  0.00  0.00     0.284 C 
ATOM      9  H3  UNL d   1       0.368  -1.852   2.140  0.00  0.00     0.395 HD
ENDBRANCH   1   7
TORSDOF 1
ENDMDL
