MODEL 1
REMARK minimizedAffinity 0.705970466
REMARK minimizedRMSD -1
REMARK  2 active torsions:
REMARK  status: ('A' for Active; 'I' for Inactive)
REMARK    1  A    between atoms: C2'_3  and  C1'_4 
REMARK    2  A    between atoms: C1'_4  and  C1_5 
ROOT
ATOM      1  C1  I4B d   1       2.024  -1.265   2.164  0.00  0.00    -0.075 A 
ATOM      2  C2  I4B d   1       3.317  -0.945   1.834  0.00  0.00     0.003 A 
ATOM      3  C3  I4B d   1       4.324  -0.928   2.830  0.00  0.00     0.002 A 
ATOM      4  C4  I4B d   1       3.985  -1.184   4.143  0.00  0.00    -0.004 A 
ATOM      5  C5  I4B d   1       2.678  -1.530   4.472  0.00  0.00     0.002 A 
ATOM      6  C6  I4B d   1       1.693  -1.583   3.475  0.00  0.00     0.003 A 
ENDROOT
BRANCH   1   7
ATOM      7  C1' I4B d   1       0.980  -1.241   1.093  0.00  0.00     0.060 C 
BRANCH   7   8
ATOM      8  C2' I4B d   1       0.676   0.207   0.768  0.00  0.00    -0.013 C 
ATOM      9  C4' I4B d   1       1.283   0.608  -0.550  0.00  0.00     0.013 C 
ATOM     10  C3' I4B d   1      -0.814   0.376   0.752  0.00  0.00     0.013 C 
ENDBRANCH   7   8
ENDBRANCH   1   7
TORSDOF 2
ENDMDL
