MODEL 1
REMARK minimizedAffinity 2.69459391
REMARK minimizedRMSD -1
REMARK  2 active torsions:
REMARK  status: ('A' for Active; 'I' for Inactive)
REMARK    1  A    between atoms: C2'_3  and  C1'_4 
REMARK    2  A    between atoms: C1'_4  and  C1_5 
ROOT
ATOM      1  C1  I4B d   1      -2.718   1.321  -2.520  0.00  0.00    -0.075 A 
ATOM      2  C2  I4B d   1      -1.402   0.980  -2.712  0.00  0.00     0.003 A 
ATOM      3  C3  I4B d   1      -0.487   1.932  -3.224  0.00  0.00     0.002 A 
ATOM      4  C4  I4B d   1      -0.937   3.188  -3.575  0.00  0.00    -0.004 A 
ATOM      5  C5  I4B d   1      -2.266   3.539  -3.358  0.00  0.00     0.002 A 
ATOM      6  C6  I4B d   1      -3.160   2.604  -2.816  0.00  0.00     0.003 A 
ENDROOT
BRANCH   1   7
ATOM      7  C1' I4B d   1      -3.664   0.282  -2.009  0.00  0.00     0.060 C 
BRANCH   7   8
ATOM      8  C2' I4B d   1      -3.616   0.311  -0.495  0.00  0.00    -0.013 C 
ATOM      9  C4' I4B d   1      -4.978   0.063   0.099  0.00  0.00     0.013 C 
ATOM     10  C3' I4B d   1      -2.631  -0.725  -0.042  0.00  0.00     0.013 C 
ENDBRANCH   7   8
ENDBRANCH   1   7
TORSDOF 2
ENDMDL
