MODEL 1
REMARK minimizedAffinity 7.40352964
REMARK minimizedRMSD -1
REMARK  2 active torsions:
REMARK  status: ('A' for Active; 'I' for Inactive)
REMARK    1  A    between atoms: C2'_3  and  C1'_4 
REMARK    2  A    between atoms: C1'_4  and  C1_5 
ROOT
ATOM      1  C1  I4B d   1       2.587  -1.088   2.467  0.00  0.00    -0.075 A 
ATOM      2  C2  I4B d   1       3.591  -0.788   1.580  0.00  0.00     0.003 A 
ATOM      3  C3  I4B d   1       4.939  -0.771   2.010  0.00  0.00     0.002 A 
ATOM      4  C4  I4B d   1       5.233  -1.007   3.338  0.00  0.00    -0.004 A 
ATOM      5  C5  I4B d   1       4.216  -1.332   4.231  0.00  0.00     0.002 A 
ATOM      6  C6  I4B d   1       2.885  -1.386   3.790  0.00  0.00     0.003 A 
ENDROOT
BRANCH   1   7
ATOM      7  C1' I4B d   1       1.170  -1.065   1.986  0.00  0.00     0.060 C 
BRANCH   7   8
ATOM      8  C2' I4B d   1       1.178  -1.350   0.498  0.00  0.00    -0.013 C 
ATOM      9  C4' I4B d   1       0.024  -2.236   0.107  0.00  0.00     0.013 C 
ATOM     10  C3' I4B d   1       1.122  -0.038  -0.224  0.00  0.00     0.013 C 
ENDBRANCH   7   8
ENDBRANCH   1   7
TORSDOF 2
ENDMDL
