MODEL 1
REMARK minimizedAffinity 6.39342308
REMARK minimizedRMSD -1
REMARK  2 active torsions:
REMARK  status: ('A' for Active; 'I' for Inactive)
REMARK    1  A    between atoms: C2'_3  and  C1'_4 
REMARK    2  A    between atoms: C1'_4  and  C1_5 
ROOT
ATOM      1  C1  I4B d   1       2.659  -1.178   1.513  0.00  0.00    -0.075 A 
ATOM      2  C2  I4B d   1       2.550  -1.566   2.825  0.00  0.00     0.003 A 
ATOM      3  C3  I4B d   1       3.631  -1.371   3.718  0.00  0.00     0.002 A 
ATOM      4  C4  I4B d   1       4.812  -0.834   3.248  0.00  0.00    -0.004 A 
ATOM      5  C5  I4B d   1       4.913  -0.420   1.923  0.00  0.00     0.002 A 
ATOM      6  C6  I4B d   1       3.825  -0.582   1.053  0.00  0.00     0.003 A 
ENDROOT
BRANCH   1   7
ATOM      7  C1' I4B d   1       1.509  -1.430   0.590  0.00  0.00     0.060 C 
BRANCH   7   8
ATOM      8  C2' I4B d   1       0.975  -0.087   0.133  0.00  0.00    -0.013 C 
ATOM      9  C4' I4B d   1       1.084   0.063  -1.361  0.00  0.00     0.013 C 
ATOM     10  C3' I4B d   1      -0.451   0.022   0.586  0.00  0.00     0.013 C 
ENDBRANCH   7   8
ENDBRANCH   1   7
TORSDOF 2
ENDMDL
