MODEL 1
REMARK minimizedAffinity -1.48755825
REMARK minimizedRMSD -1
REMARK  2 active torsions:
REMARK  status: ('A' for Active; 'I' for Inactive)
REMARK    1  A    between atoms: C2'_3  and  C1'_4 
REMARK    2  A    between atoms: C1'_4  and  C1_5 
ROOT
ATOM      1  C1  I4B d   1       2.049   1.700  -0.137  0.00  0.00    -0.075 A 
ATOM      2  C2  I4B d   1       2.928   0.678  -0.398  0.00  0.00     0.003 A 
ATOM      3  C3  I4B d   1       2.538  -0.668  -0.192  0.00  0.00     0.002 A 
ATOM      4  C4  I4B d   1       1.287  -0.942   0.320  0.00  0.00    -0.004 A 
ATOM      5  C5  I4B d   1       0.389   0.094   0.563  0.00  0.00     0.002 A 
ATOM      6  C6  I4B d   1       0.767   1.422   0.321  0.00  0.00     0.003 A 
ENDROOT
BRANCH   1   7
ATOM      7  C1' I4B d   1       2.505   3.111  -0.335  0.00  0.00     0.060 C 
BRANCH   7   8
ATOM      8  C2' I4B d   1       3.964   3.190   0.063  0.00  0.00    -0.013 C 
ATOM      9  C4' I4B d   1       4.841   3.463  -1.131  0.00  0.00     0.013 C 
ATOM     10  C3' I4B d   1       4.105   4.267   1.096  0.00  0.00     0.013 C 
ENDBRANCH   7   8
ENDBRANCH   1   7
TORSDOF 2
ENDMDL
