MODEL 1
REMARK minimizedAffinity 3.80145001
REMARK minimizedRMSD -1
REMARK  2 active torsions:
REMARK  status: ('A' for Active; 'I' for Inactive)
REMARK    1  A    between atoms: C2'_3  and  C1'_4 
REMARK    2  A    between atoms: C1'_4  and  C1_5 
ROOT
ATOM      1  C1  I4B d   1       3.302  -1.192   1.379  0.00  0.00    -0.075 A 
ATOM      2  C2  I4B d   1       4.656  -0.966   1.362  0.00  0.00     0.003 A 
ATOM      3  C3  I4B d   1       5.387  -0.930   2.574  0.00  0.00     0.002 A 
ATOM      4  C4  I4B d   1       4.722  -1.075   3.774  0.00  0.00    -0.004 A 
ATOM      5  C5  I4B d   1       3.353  -1.328   3.788  0.00  0.00     0.002 A 
ATOM      6  C6  I4B d   1       2.640  -1.399   2.582  0.00  0.00     0.003 A 
ENDROOT
BRANCH   1   7
ATOM      7  C1' I4B d   1       2.555  -1.190   0.082  0.00  0.00     0.060 C 
BRANCH   7   8
ATOM      8  C2' I4B d   1       1.094  -1.452   0.385  0.00  0.00    -0.013 C 
ATOM      9  C4' I4B d   1       0.264  -0.212   0.178  0.00  0.00     0.013 C 
ATOM     10  C3' I4B d   1       0.630  -2.569  -0.502  0.00  0.00     0.013 C 
ENDBRANCH   7   8
ENDBRANCH   1   7
TORSDOF 2
ENDMDL
