MODEL 1
REMARK minimizedAffinity 7.80450392
REMARK minimizedRMSD -1
REMARK  2 active torsions:
REMARK  status: ('A' for Active; 'I' for Inactive)
REMARK    1  A    between atoms: C2'_3  and  C1'_4 
REMARK    2  A    between atoms: C1'_4  and  C1_5 
ROOT
ATOM      1  C1  I4B d   1       2.323  -0.781   0.852  0.00  0.00    -0.075 A 
ATOM      2  C2  I4B d   1       1.097  -0.641   1.454  0.00  0.00     0.003 A 
ATOM      3  C3  I4B d   1       0.092   0.153   0.848  0.00  0.00     0.002 A 
ATOM      4  C4  I4B d   1       0.371   0.824  -0.325  0.00  0.00    -0.004 A 
ATOM      5  C5  I4B d   1       1.607   0.663  -0.945  0.00  0.00     0.002 A 
ATOM      6  C6  I4B d   1       2.585  -0.155  -0.360  0.00  0.00     0.003 A 
ENDROOT
BRANCH   1   7
ATOM      7  C1' I4B d   1       3.372  -1.599   1.535  0.00  0.00     0.060 C 
BRANCH   7   8
ATOM      8  C2' I4B d   1       3.549  -1.054   2.938  0.00  0.00    -0.013 C 
ATOM      9  C4' I4B d   1       3.065  -2.038   3.970  0.00  0.00     0.013 C 
ATOM     10  C3' I4B d   1       5.002  -0.737   3.131  0.00  0.00     0.013 C 
ENDBRANCH   7   8
ENDBRANCH   1   7
TORSDOF 2
ENDMDL
