MODEL 1
REMARK minimizedAffinity -2.44034958
REMARK minimizedRMSD -1
REMARK  0 active torsions:
REMARK  status: ('A' for Active; 'I' for Inactive)
ROOT
ATOM      1  C   UNL d   1       1.325   0.733   2.091  0.00  0.00     0.020 A 
ATOM      2  C1  UNL d   1       0.620  -0.032   3.019  0.00  0.00     0.020 A 
ATOM      3  C2  UNL d   1      -0.408  -0.876   2.592  0.00  0.00     0.034 A 
ATOM      4  C3  UNL d   1      -0.733  -0.956   1.233  0.00  0.00     0.017 A 
ATOM      5  C4  UNL d   1      -0.025  -0.188   0.302  0.00  0.00     0.017 A 
ATOM      6  C5  UNL d   1       1.003   0.655   0.736  0.00  0.00     0.034 A 
ATOM      7 Cl   UNL d   1      -0.368  -0.233  -1.391  0.00  0.00    -0.070 Cl
ATOM      8 Cl1  UNL d   1      -2.015  -2.020   0.775  0.00  0.00    -0.070 Cl
ENDROOT
TORSDOF 0
ENDMDL
