MODEL 1
REMARK minimizedAffinity -4.57683706
REMARK minimizedRMSD -1
REMARK  0 active torsions:
REMARK  status: ('A' for Active; 'I' for Inactive)
ROOT
ATOM      1  C   UNL d   1      -2.280   3.652  -0.393  0.00  0.00     0.020 A 
ATOM      2  C1  UNL d   1      -1.188   2.786  -0.374  0.00  0.00     0.020 A 
ATOM      3  C2  UNL d   1      -0.358   2.684  -1.493  0.00  0.00     0.034 A 
ATOM      4  C3  UNL d   1      -0.619   3.449  -2.635  0.00  0.00     0.017 A 
ATOM      5  C4  UNL d   1      -1.715   4.318  -2.653  0.00  0.00     0.017 A 
ATOM      6  C5  UNL d   1      -2.543   4.417  -1.531  0.00  0.00     0.034 A 
ATOM      7 Cl   UNL d   1      -2.101   5.295  -4.026  0.00  0.00    -0.070 Cl
ATOM      8 Cl1  UNL d   1       0.449   3.273  -3.982  0.00  0.00    -0.070 Cl
ENDROOT
TORSDOF 0
ENDMDL
