MODEL 1
REMARK minimizedAffinity -4.12691784
REMARK minimizedRMSD -1
REMARK  0 active torsions:
REMARK  status: ('A' for Active; 'I' for Inactive)
ROOT
ATOM      1  C   UNL d   1      -1.648   3.079  -3.033  0.00  0.00     0.020 A 
ATOM      2  C1  UNL d   1      -1.947   3.427  -1.717  0.00  0.00     0.020 A 
ATOM      3  C2  UNL d   1      -1.662   2.540  -0.677  0.00  0.00     0.034 A 
ATOM      4  C3  UNL d   1      -1.076   1.299  -0.952  0.00  0.00     0.017 A 
ATOM      5  C4  UNL d   1      -0.776   0.950  -2.274  0.00  0.00     0.017 A 
ATOM      6  C5  UNL d   1      -1.063   1.842  -3.311  0.00  0.00     0.034 A 
ATOM      7 Cl   UNL d   1      -0.052  -0.563  -2.691  0.00  0.00    -0.070 Cl
ATOM      8 Cl1  UNL d   1      -0.750   0.250   0.382  0.00  0.00    -0.070 Cl
ENDROOT
TORSDOF 0
ENDMDL
