MODEL 1
REMARK minimizedAffinity -5.06086111
REMARK minimizedRMSD -1
REMARK  0 active torsions:
REMARK  status: ('A' for Active; 'I' for Inactive)
ROOT
ATOM      1  C   UNL d   1      -4.051   2.402  -2.189  0.00  0.00     0.020 A 
ATOM      2  C1  UNL d   1      -3.500   3.519  -2.814  0.00  0.00     0.020 A 
ATOM      3  C2  UNL d   1      -2.114   3.631  -2.950  0.00  0.00     0.034 A 
ATOM      4  C3  UNL d   1      -1.276   2.623  -2.460  0.00  0.00     0.017 A 
ATOM      5  C4  UNL d   1      -1.830   1.502  -1.832  0.00  0.00     0.017 A 
ATOM      6  C5  UNL d   1      -3.218   1.395  -1.699  0.00  0.00     0.034 A 
ATOM      7 Cl   UNL d   1      -0.860   0.218  -1.202  0.00  0.00    -0.070 Cl
ATOM      8 Cl1  UNL d   1       0.428   2.827  -2.662  0.00  0.00    -0.070 Cl
ENDROOT
TORSDOF 0
ENDMDL
