MODEL 1
REMARK minimizedAffinity 0.119879767
REMARK minimizedRMSD -1
REMARK  0 active torsions:
REMARK  status: ('A' for Active; 'I' for Inactive)
ROOT
ATOM      1  C   UNL d   1      -1.134  -0.170   1.942  0.00  0.00     0.020 A 
ATOM      2  C1  UNL d   1      -0.149  -1.075   2.334  0.00  0.00     0.020 A 
ATOM      3  C2  UNL d   1       0.825  -1.486   1.422  0.00  0.00     0.034 A 
ATOM      4  C3  UNL d   1       0.817  -0.991   0.113  0.00  0.00     0.017 A 
ATOM      5  C4  UNL d   1      -0.173  -0.082  -0.280  0.00  0.00     0.017 A 
ATOM      6  C5  UNL d   1      -1.146   0.326   0.638  0.00  0.00     0.034 A 
ATOM      7 Cl   UNL d   1      -0.248   0.573  -1.878  0.00  0.00    -0.070 Cl
ATOM      8 Cl1  UNL d   1       2.052  -1.541  -0.962  0.00  0.00    -0.070 Cl
ENDROOT
TORSDOF 0
ENDMDL
