MODEL 1
REMARK minimizedAffinity -4.21724415
REMARK minimizedRMSD -1
REMARK  0 active torsions:
REMARK  status: ('A' for Active; 'I' for Inactive)
ROOT
ATOM      1  C   UNL d   1      -1.214   0.124   1.083  0.00  0.00     0.020 A 
ATOM      2  C1  UNL d   1      -0.702  -0.412   2.264  0.00  0.00     0.020 A 
ATOM      3  C2  UNL d   1       0.446  -1.206   2.231  0.00  0.00     0.034 A 
ATOM      4  C3  UNL d   1       1.086  -1.467   1.015  0.00  0.00     0.017 A 
ATOM      5  C4  UNL d   1       0.572  -0.929  -0.171  0.00  0.00     0.017 A 
ATOM      6  C5  UNL d   1      -0.578  -0.135  -0.132  0.00  0.00     0.034 A 
ATOM      7 Cl   UNL d   1       1.307  -1.207  -1.710  0.00  0.00    -0.070 Cl
ATOM      8 Cl1  UNL d   1       2.502  -2.457   1.048  0.00  0.00    -0.070 Cl
ENDROOT
TORSDOF 0
ENDMDL
