MODEL 1
REMARK minimizedAffinity -0.377543241
REMARK minimizedRMSD -1
REMARK  0 active torsions:
REMARK  status: ('A' for Active; 'I' for Inactive)
ROOT
ATOM      1  C   UNL d   1      -0.730   0.695  -1.161  0.00  0.00     0.020 A 
ATOM      2  C1  UNL d   1      -1.514   0.720  -0.008  0.00  0.00     0.020 A 
ATOM      3  C2  UNL d   1      -1.102   0.025   1.131  0.00  0.00     0.034 A 
ATOM      4  C3  UNL d   1       0.097  -0.697   1.121  0.00  0.00     0.017 A 
ATOM      5  C4  UNL d   1       0.883  -0.722  -0.037  0.00  0.00     0.017 A 
ATOM      6  C5  UNL d   1       0.466  -0.025  -1.175  0.00  0.00     0.034 A 
ATOM      7 Cl   UNL d   1       2.374  -1.591  -0.126  0.00  0.00    -0.070 Cl
ATOM      8 Cl1  UNL d   1       0.545  -1.532   2.565  0.00  0.00    -0.070 Cl
ENDROOT
TORSDOF 0
ENDMDL
