MODEL 1
REMARK minimizedAffinity -0.332262695
REMARK minimizedRMSD -1
REMARK  0 active torsions:
REMARK  status: ('A' for Active; 'I' for Inactive)
ROOT
ATOM      1  C   UNL d   1      -2.571   4.483  -2.933  0.00  0.00     0.020 A 
ATOM      2  C1  UNL d   1      -3.238   3.513  -2.185  0.00  0.00     0.020 A 
ATOM      3  C2  UNL d   1      -2.587   2.326  -1.842  0.00  0.00     0.034 A 
ATOM      4  C3  UNL d   1      -1.266   2.105  -2.247  0.00  0.00     0.017 A 
ATOM      5  C4  UNL d   1      -0.597   3.079  -2.998  0.00  0.00     0.017 A 
ATOM      6  C5  UNL d   1      -1.253   4.266  -3.338  0.00  0.00     0.034 A 
ATOM      7 Cl   UNL d   1       1.034   2.878  -3.533  0.00  0.00    -0.070 Cl
ATOM      8 Cl1  UNL d   1      -0.523   0.615  -1.787  0.00  0.00    -0.070 Cl
ENDROOT
TORSDOF 0
ENDMDL
