MODEL 1
REMARK minimizedAffinity -4.71716118
REMARK minimizedRMSD -1
REMARK  0 active torsions:
REMARK  status: ('A' for Active; 'I' for Inactive)
ROOT
ATOM      1  C   UNL d   1       1.062   0.962   2.390  0.00  0.00     0.020 A 
ATOM      2  C1  UNL d   1       0.595  -0.311   2.716  0.00  0.00     0.020 A 
ATOM      3  C2  UNL d   1      -0.171  -1.030   1.796  0.00  0.00     0.034 A 
ATOM      4  C3  UNL d   1      -0.473  -0.477   0.547  0.00  0.00     0.017 A 
ATOM      5  C4  UNL d   1      -0.004   0.800   0.220  0.00  0.00     0.017 A 
ATOM      6  C5  UNL d   1       0.763   1.516   1.144  0.00  0.00     0.034 A 
ATOM      7 Cl   UNL d   1      -0.336   1.549  -1.302  0.00  0.00    -0.070 Cl
ATOM      8 Cl1  UNL d   1      -1.426  -1.423  -0.541  0.00  0.00    -0.070 Cl
ENDROOT
TORSDOF 0
ENDMDL
