MODEL 1
REMARK minimizedAffinity -2.93001676
REMARK minimizedRMSD -1
REMARK  0 active torsions:
REMARK  status: ('A' for Active; 'I' for Inactive)
ROOT
ATOM      1  C   UNL d   1       1.613  -0.529   2.926  0.00  0.00     0.020 A 
ATOM      2  C1  UNL d   1       0.288  -0.155   3.148  0.00  0.00     0.020 A 
ATOM      3  C2  UNL d   1      -0.619  -0.135   2.087  0.00  0.00     0.034 A 
ATOM      4  C3  UNL d   1      -0.203  -0.491   0.799  0.00  0.00     0.017 A 
ATOM      5  C4  UNL d   1       1.127  -0.867   0.577  0.00  0.00     0.017 A 
ATOM      6  C5  UNL d   1       2.031  -0.885   1.643  0.00  0.00     0.034 A 
ATOM      7 Cl   UNL d   1       1.714  -1.319  -0.985  0.00  0.00    -0.070 Cl
ATOM      8 Cl1  UNL d   1      -1.378  -0.445  -0.467  0.00  0.00    -0.070 Cl
ENDROOT
TORSDOF 0
ENDMDL
