MODEL 1
REMARK minimizedAffinity -3.89542532
REMARK minimizedRMSD -1
REMARK  0 active torsions:
REMARK  status: ('A' for Active; 'I' for Inactive)
ROOT
ATOM      1  C   UNL d   1      -1.103  -0.158  -0.411  0.00  0.00     0.020 A 
ATOM      2  C1  UNL d   1      -1.443  -0.099   0.940  0.00  0.00     0.020 A 
ATOM      3  C2  UNL d   1      -0.467  -0.310   1.916  0.00  0.00     0.034 A 
ATOM      4  C3  UNL d   1       0.855  -0.580   1.542  0.00  0.00     0.017 A 
ATOM      5  C4  UNL d   1       1.195  -0.638   0.186  0.00  0.00     0.017 A 
ATOM      6  C5  UNL d   1       0.214  -0.427  -0.787  0.00  0.00     0.034 A 
ATOM      7 Cl   UNL d   1       2.805  -0.966  -0.352  0.00  0.00    -0.070 Cl
ATOM      8 Cl1  UNL d   1       2.011  -0.830   2.802  0.00  0.00    -0.070 Cl
ENDROOT
TORSDOF 0
ENDMDL
