MODEL 1
REMARK minimizedAffinity 6.10906076
REMARK minimizedRMSD -1
REMARK  0 active torsions:
REMARK  status: ('A' for Active; 'I' for Inactive)
ROOT
ATOM      1  C   UNL d   1       0.286   3.668  -4.281  0.00  0.00     0.020 A 
ATOM      2  C1  UNL d   1       0.154   3.258  -5.607  0.00  0.00     0.020 A 
ATOM      3  C2  UNL d   1      -0.878   2.390  -5.970  0.00  0.00     0.034 A 
ATOM      4  C3  UNL d   1      -1.782   1.929  -5.006  0.00  0.00     0.017 A 
ATOM      5  C4  UNL d   1      -1.648   2.341  -3.675  0.00  0.00     0.017 A 
ATOM      6  C5  UNL d   1      -0.613   3.211  -3.317  0.00  0.00     0.034 A 
ATOM      7 Cl   UNL d   1      -2.725   1.815  -2.429  0.00  0.00    -0.070 Cl
ATOM      8 Cl1  UNL d   1      -3.034   0.858  -5.525  0.00  0.00    -0.070 Cl
ENDROOT
TORSDOF 0
ENDMDL
