MODEL 1
REMARK minimizedAffinity -1.59903014
REMARK minimizedRMSD -1
REMARK  0 active torsions:
REMARK  status: ('A' for Active; 'I' for Inactive)
ROOT
ATOM      1  C   UNL d   1      -0.459  -0.771   1.923  0.00  0.00     0.020 A 
ATOM      2  C1  UNL d   1       0.450  -1.825   1.834  0.00  0.00     0.020 A 
ATOM      3  C2  UNL d   1       1.202  -2.001   0.670  0.00  0.00     0.034 A 
ATOM      4  C3  UNL d   1       1.047  -1.123  -0.408  0.00  0.00     0.017 A 
ATOM      5  C4  UNL d   1       0.135  -0.065  -0.317  0.00  0.00     0.017 A 
ATOM      6  C5  UNL d   1      -0.615   0.107   0.850  0.00  0.00     0.034 A 
ATOM      7 Cl   UNL d   1      -0.110   1.060  -1.607  0.00  0.00    -0.070 Cl
ATOM      8 Cl1  UNL d   1       2.011  -1.401  -1.815  0.00  0.00    -0.070 Cl
ENDROOT
TORSDOF 0
ENDMDL
