MODEL 1
REMARK minimizedAffinity 8.19913769
REMARK minimizedRMSD -1
REMARK  1 active torsions:
REMARK  status: ('A' for Active; 'I' for Inactive)
REMARK    1  A    between atoms: C3_4  and  O_7 
ROOT
ATOM      1  C   UNL d   1      -2.672   0.018   1.445  0.00  0.00    -0.033 A 
ATOM      2  C1  UNL d   1      -3.504   0.869   0.716  0.00  0.00     0.039 A 
ATOM      3  C2  UNL d   1      -4.630   0.359   0.066  0.00  0.00    -0.080 A 
ATOM      4  C3  UNL d   1      -4.913  -1.001   0.155  0.00  0.00     0.150 A 
ATOM      5  C4  UNL d   1      -4.090  -1.854   0.883  0.00  0.00    -0.007 A 
ATOM      6  C5  UNL d   1      -2.965  -1.344   1.530  0.00  0.00     0.039 A 
ENDROOT
BRANCH   4   7
ATOM      7  O   UNL d   1      -5.997  -1.546  -0.466  0.00  0.00    -0.526 OA
ATOM      8  H5  UNL d   1      -6.457  -0.843  -0.955  0.00  0.00     0.418 HD
ENDBRANCH   4   7
TORSDOF 1
ENDMDL
