MODEL 1
REMARK minimizedAffinity 0.740721226
REMARK minimizedRMSD -1
REMARK  1 active torsions:
REMARK  status: ('A' for Active; 'I' for Inactive)
REMARK    1  A    between atoms: C3_4  and  O_7 
ROOT
ATOM      1  C   UNL d   1      -1.296  -1.098  -1.711  0.00  0.00    -0.033 A 
ATOM      2  C1  UNL d   1      -0.846   0.064  -1.079  0.00  0.00     0.039 A 
ATOM      3  C2  UNL d   1       0.416   0.091  -0.481  0.00  0.00    -0.080 A 
ATOM      4  C3  UNL d   1       1.216  -1.047  -0.523  0.00  0.00     0.150 A 
ATOM      5  C4  UNL d   1       0.776  -2.206  -1.153  0.00  0.00    -0.007 A 
ATOM      6  C5  UNL d   1      -0.484  -2.232  -1.749  0.00  0.00     0.039 A 
ENDROOT
BRANCH   4   7
ATOM      7  O   UNL d   1       2.453  -1.069   0.051  0.00  0.00    -0.526 OA
ATOM      8  H5  UNL d   1       2.611  -0.209   0.474  0.00  0.00     0.418 HD
ENDBRANCH   4   7
TORSDOF 1
ENDMDL
