MODEL 1
REMARK minimizedAffinity 0.983640015
REMARK minimizedRMSD -1
REMARK  1 active torsions:
REMARK  status: ('A' for Active; 'I' for Inactive)
REMARK    1  A    between atoms: C3_4  and  O_7 
ROOT
ATOM      1  C   UNL d   1       1.451  -2.435   5.966  0.00  0.00    -0.033 A 
ATOM      2  C1  UNL d   1       1.980  -3.727   5.989  0.00  0.00     0.039 A 
ATOM      3  C2  UNL d   1       1.127  -4.832   6.000  0.00  0.00    -0.080 A 
ATOM      4  C3  UNL d   1      -0.250  -4.633   5.985  0.00  0.00     0.150 A 
ATOM      5  C4  UNL d   1      -0.784  -3.349   5.958  0.00  0.00    -0.007 A 
ATOM      6  C5  UNL d   1       0.069  -2.246   5.949  0.00  0.00     0.039 A 
ENDROOT
BRANCH   4   7
ATOM      7  O   UNL d   1      -1.123  -5.680   6.000  0.00  0.00    -0.526 OA
ATOM      8  H5  UNL d   1      -0.611  -6.506   6.047  0.00  0.00     0.418 HD
ENDBRANCH   4   7
TORSDOF 1
ENDMDL
