MODEL 1
REMARK minimizedAffinity -0.149455681
REMARK minimizedRMSD -1
REMARK  1 active torsions:
REMARK  status: ('A' for Active; 'I' for Inactive)
REMARK    1  A    between atoms: C3_4  and  O_7 
ROOT
ATOM      1  C   UNL d   1       2.820  -0.741   1.257  0.00  0.00    -0.033 A 
ATOM      2  C1  UNL d   1       2.825  -1.246  -0.045  0.00  0.00     0.039 A 
ATOM      3  C2  UNL d   1       1.858  -0.828  -0.961  0.00  0.00    -0.080 A 
ATOM      4  C3  UNL d   1       0.894   0.094  -0.564  0.00  0.00     0.150 A 
ATOM      5  C4  UNL d   1       0.885   0.605   0.730  0.00  0.00    -0.007 A 
ATOM      6  C5  UNL d   1       1.851   0.186   1.644  0.00  0.00     0.039 A 
ENDROOT
BRANCH   4   7
ATOM      7  O   UNL d   1      -0.073   0.528  -1.422  0.00  0.00    -0.526 OA
ATOM      8  H5  UNL d   1       0.040   0.068  -2.270  0.00  0.00     0.418 HD
ENDBRANCH   4   7
TORSDOF 1
ENDMDL
