MODEL 1
REMARK minimizedAffinity -4.2491765
REMARK minimizedRMSD -1
REMARK  0 active torsions:
REMARK  status: ('A' for Active; 'I' for Inactive)
ROOT
ATOM      1  O1  BZF d   1      -0.046   1.289  -0.378  0.00  0.00    -0.204 OA
ATOM      2  C2  BZF d   1      -1.220   0.923   0.251  0.00  0.00     0.174 A 
ATOM      3  C3  BZF d   1      -1.285  -0.415   0.402  0.00  0.00    -0.012 A 
ATOM      4  C3A BZF d   1      -0.034  -0.910  -0.086  0.00  0.00    -0.107 A 
ATOM      5  C4  BZF d   1       0.506  -2.160  -0.185  0.00  0.00     0.055 A 
ATOM      6  C5  BZF d   1       1.721  -2.309  -0.776  0.00  0.00    -0.016 A 
ATOM      7  C6  BZF d   1       2.419  -1.232  -1.282  0.00  0.00     0.022 A 
ATOM      8  C7  BZF d   1       1.926   0.027  -1.202  0.00  0.00     0.029 A 
ATOM      9  C7A BZF d   1       0.713   0.185  -0.576  0.00  0.00     0.058 A 
ENDROOT
TORSDOF 0
ENDMDL
