MODEL 1
REMARK minimizedAffinity -4.43389988
REMARK minimizedRMSD -1
REMARK  0 active torsions:
REMARK  status: ('A' for Active; 'I' for Inactive)
ROOT
ATOM      1  O1  BZF d   1      -0.369  -1.319   0.006  0.00  0.00    -0.204 OA
ATOM      2  C2  BZF d   1      -1.112  -0.233   0.426  0.00  0.00     0.174 A 
ATOM      3  C3  BZF d   1      -0.407   0.909   0.294  0.00  0.00    -0.012 A 
ATOM      4  C3A BZF d   1       0.822   0.522  -0.330  0.00  0.00    -0.107 A 
ATOM      5  C4  BZF d   1       1.927   1.214  -0.735  0.00  0.00     0.055 A 
ATOM      6  C5  BZF d   1       2.986   0.529  -1.242  0.00  0.00    -0.016 A 
ATOM      7  C6  BZF d   1       2.976  -0.846  -1.352  0.00  0.00     0.022 A 
ATOM      8  C7  BZF d   1       1.900  -1.575  -0.967  0.00  0.00     0.029 A 
ATOM      9  C7A BZF d   1       0.815  -0.883  -0.486  0.00  0.00     0.058 A 
ENDROOT
TORSDOF 0
ENDMDL
