MODEL 1
REMARK minimizedAffinity -4.47113895
REMARK minimizedRMSD -1
REMARK  0 active torsions:
REMARK  status: ('A' for Active; 'I' for Inactive)
ROOT
ATOM      1  O1  BZF d   1      -1.001   0.983  -1.103  0.00  0.00    -0.204 OA
ATOM      2  C2  BZF d   1      -1.933   0.672  -0.131  0.00  0.00     0.174 A 
ATOM      3  C3  BZF d   1      -1.569  -0.438   0.543  0.00  0.00    -0.012 A 
ATOM      4  C3A BZF d   1      -0.286  -0.794   0.017  0.00  0.00    -0.107 A 
ATOM      5  C4  BZF d   1       0.597  -1.797   0.296  0.00  0.00     0.055 A 
ATOM      6  C5  BZF d   1       1.728  -1.907  -0.449  0.00  0.00    -0.016 A 
ATOM      7  C6  BZF d   1       2.005  -1.035  -1.482  0.00  0.00     0.022 A 
ATOM      8  C7  BZF d   1       1.162  -0.020  -1.792  0.00  0.00     0.029 A 
ATOM      9  C7A BZF d   1       0.034   0.113  -1.019  0.00  0.00     0.058 A 
ENDROOT
TORSDOF 0
ENDMDL
