MODEL 1
REMARK minimizedAffinity 1.68527997
REMARK minimizedRMSD -1
REMARK  0 active torsions:
REMARK  status: ('A' for Active; 'I' for Inactive)
ROOT
ATOM      1  O1  BZF d   1       3.741   0.461   4.494  0.00  0.00    -0.204 OA
ATOM      2  C2  BZF d   1       4.850  -0.219   4.958  0.00  0.00     0.174 A 
ATOM      3  C3  BZF d   1       5.916   0.603   5.038  0.00  0.00    -0.012 A 
ATOM      4  C3A BZF d   1       5.421   1.897   4.685  0.00  0.00    -0.107 A 
ATOM      5  C4  BZF d   1       5.999   3.131   4.595  0.00  0.00     0.055 A 
ATOM      6  C5  BZF d   1       5.256   4.178   4.150  0.00  0.00    -0.016 A 
ATOM      7  C6  BZF d   1       3.935   4.027   3.782  0.00  0.00     0.022 A 
ATOM      8  C7  BZF d   1       3.316   2.823   3.859  0.00  0.00     0.029 A 
ATOM      9  C7A BZF d   1       4.056   1.770   4.339  0.00  0.00     0.058 A 
ENDROOT
TORSDOF 0
ENDMDL
