MODEL 1
REMARK minimizedAffinity 10.0538063
REMARK minimizedRMSD -1
REMARK  0 active torsions:
REMARK  status: ('A' for Active; 'I' for Inactive)
ROOT
ATOM      1  O1  BZF d   1      -1.280  -0.656   1.427  0.00  0.00    -0.204 OA
ATOM      2  C2  BZF d   1      -0.458  -1.718   1.751  0.00  0.00     0.174 A 
ATOM      3  C3  BZF d   1       0.511  -1.872   0.826  0.00  0.00    -0.012 A 
ATOM      4  C3A BZF d   1       0.336  -0.785  -0.088  0.00  0.00    -0.107 A 
ATOM      5  C4  BZF d   1       1.001  -0.386  -1.211  0.00  0.00     0.055 A 
ATOM      6  C5  BZF d   1       0.531   0.677  -1.915  0.00  0.00    -0.016 A 
ATOM      7  C6  BZF d   1      -0.603   1.360  -1.528  0.00  0.00     0.022 A 
ATOM      8  C7  BZF d   1      -1.294   1.005  -0.418  0.00  0.00     0.029 A 
ATOM      9  C7A BZF d   1      -0.803  -0.049   0.314  0.00  0.00     0.058 A 
ENDROOT
TORSDOF 0
ENDMDL
