MODEL 1
REMARK minimizedAffinity -2.34331226
REMARK minimizedRMSD -1
REMARK  0 active torsions:
REMARK  status: ('A' for Active; 'I' for Inactive)
ROOT
ATOM      1  O1  BZF d   1       5.624   2.382   3.762  0.00  0.00    -0.204 OA
ATOM      2  C2  BZF d   1       5.832   3.079   4.937  0.00  0.00     0.174 A 
ATOM      3  C3  BZF d   1       5.784   2.250   6.000  0.00  0.00    -0.012 A 
ATOM      4  C3A BZF d   1       5.623   0.940   5.448  0.00  0.00    -0.107 A 
ATOM      5  C4  BZF d   1       5.526  -0.305   6.000  0.00  0.00     0.055 A 
ATOM      6  C5  BZF d   1       5.301  -1.372   5.188  0.00  0.00    -0.016 A 
ATOM      7  C6  BZF d   1       5.163  -1.228   3.823  0.00  0.00     0.022 A 
ATOM      8  C7  BZF d   1       5.257  -0.013   3.229  0.00  0.00     0.029 A 
ATOM      9  C7A BZF d   1       5.517   1.062   4.043  0.00  0.00     0.058 A 
ENDROOT
TORSDOF 0
ENDMDL
