MODEL 1
REMARK minimizedAffinity -0.96125567
REMARK minimizedRMSD -1
REMARK  0 active torsions:
REMARK  status: ('A' for Active; 'I' for Inactive)
ROOT
ATOM      1  O1  BZF d   1      -1.021   1.419   0.905  0.00  0.00    -0.204 OA
ATOM      2  C2  BZF d   1      -2.331   1.105   1.212  0.00  0.00     0.174 A 
ATOM      3  C3  BZF d   1      -2.619  -0.160   0.845  0.00  0.00    -0.012 A 
ATOM      4  C3A BZF d   1      -1.387  -0.699   0.355  0.00  0.00    -0.107 A 
ATOM      5  C4  BZF d   1      -1.027  -1.920  -0.140  0.00  0.00     0.055 A 
ATOM      6  C5  BZF d   1       0.239  -2.099  -0.599  0.00  0.00    -0.016 A 
ATOM      7  C6  BZF d   1       1.169  -1.080  -0.583  0.00  0.00     0.022 A 
ATOM      8  C7  BZF d   1       0.860   0.147  -0.097  0.00  0.00     0.029 A 
ATOM      9  C7A BZF d   1      -0.409   0.322   0.398  0.00  0.00     0.058 A 
ENDROOT
TORSDOF 0
ENDMDL
