MODEL 1
REMARK minimizedAffinity -2.41375303
REMARK minimizedRMSD -1
REMARK  0 active torsions:
REMARK  status: ('A' for Active; 'I' for Inactive)
ROOT
ATOM      1  O1  BZF d   1       0.212   1.230  -0.119  0.00  0.00    -0.204 OA
ATOM      2  C2  BZF d   1      -1.031   1.115   0.473  0.00  0.00     0.174 A 
ATOM      3  C3  BZF d   1      -1.360  -0.181   0.648  0.00  0.00    -0.012 A 
ATOM      4  C3A BZF d   1      -0.213  -0.921   0.219  0.00  0.00    -0.107 A 
ATOM      5  C4  BZF d   1       0.078  -2.254   0.165  0.00  0.00     0.055 A 
ATOM      6  C5  BZF d   1       1.260  -2.651  -0.376  0.00  0.00    -0.016 A 
ATOM      7  C6  BZF d   1       2.170  -1.743  -0.877  0.00  0.00     0.022 A 
ATOM      8  C7  BZF d   1       1.928  -0.410  -0.842  0.00  0.00     0.029 A 
ATOM      9  C7A BZF d   1       0.749  -0.004  -0.265  0.00  0.00     0.058 A 
ENDROOT
TORSDOF 0
ENDMDL
