MODEL 1
REMARK minimizedAffinity -5.18735838
REMARK minimizedRMSD -1
REMARK  0 active torsions:
REMARK  status: ('A' for Active; 'I' for Inactive)
ROOT
ATOM      1  O1  BZF d   1      -0.921  -0.264  -0.437  0.00  0.00    -0.204 OA
ATOM      2  C2  BZF d   1      -1.035   1.014  -0.950  0.00  0.00     0.174 A 
ATOM      3  C3  BZF d   1       0.152   1.449  -1.420  0.00  0.00    -0.012 A 
ATOM      4  C3A BZF d   1       1.044   0.341  -1.270  0.00  0.00    -0.107 A 
ATOM      5  C4  BZF d   1       2.363   0.150  -1.571  0.00  0.00     0.055 A 
ATOM      6  C5  BZF d   1       2.955  -1.024  -1.230  0.00  0.00    -0.016 A 
ATOM      7  C6  BZF d   1       2.261  -2.026  -0.584  0.00  0.00     0.022 A 
ATOM      8  C7  BZF d   1       0.951  -1.885  -0.269  0.00  0.00     0.029 A 
ATOM      9  C7A BZF d   1       0.341  -0.712  -0.641  0.00  0.00     0.058 A 
ENDROOT
TORSDOF 0
ENDMDL
