MODEL 1
REMARK minimizedAffinity -4.25014877
REMARK minimizedRMSD -1
REMARK  0 active torsions:
REMARK  status: ('A' for Active; 'I' for Inactive)
ROOT
ATOM      1  O1  BZF d   1       2.389   0.244  -1.332  0.00  0.00    -0.204 OA
ATOM      2  C2  BZF d   1       2.805  -1.062  -1.506  0.00  0.00     0.174 A 
ATOM      3  C3  BZF d   1       1.924  -1.922  -0.956  0.00  0.00    -0.012 A 
ATOM      4  C3A BZF d   1       0.847  -1.107  -0.484  0.00  0.00    -0.107 A 
ATOM      5  C4  BZF d   1      -0.334  -1.383   0.143  0.00  0.00     0.055 A 
ATOM      6  C5  BZF d   1      -1.130  -0.354   0.535  0.00  0.00    -0.016 A 
ATOM      7  C6  BZF d   1      -0.774   0.961   0.322  0.00  0.00     0.022 A 
ATOM      8  C7  BZF d   1       0.386   1.285  -0.301  0.00  0.00     0.029 A 
ATOM      9  C7A BZF d   1       1.177   0.246  -0.728  0.00  0.00     0.058 A 
ENDROOT
TORSDOF 0
ENDMDL
