MODEL 1
REMARK minimizedAffinity -5.42070246
REMARK minimizedRMSD -1
REMARK  0 active torsions:
REMARK  status: ('A' for Active; 'I' for Inactive)
ROOT
ATOM      1  O1  BZF d   1       0.985  -1.975   0.029  0.00  0.00    -0.204 OA
ATOM      2  C2  BZF d   1       2.287  -1.919  -0.431  0.00  0.00     0.174 A 
ATOM      3  C3  BZF d   1       2.514  -0.761  -1.085  0.00  0.00    -0.012 A 
ATOM      4  C3A BZF d   1       1.303  -0.010  -0.951  0.00  0.00    -0.107 A 
ATOM      5  C4  BZF d   1       0.915   1.228  -1.375  0.00  0.00     0.055 A 
ATOM      6  C5  BZF d   1      -0.360   1.637  -1.143  0.00  0.00    -0.016 A 
ATOM      7  C6  BZF d   1      -1.274   0.831  -0.496  0.00  0.00     0.022 A 
ATOM      8  C7  BZF d   1      -0.934  -0.404  -0.053  0.00  0.00     0.029 A 
ATOM      9  C7A BZF d   1       0.363  -0.806  -0.256  0.00  0.00     0.058 A 
ENDROOT
TORSDOF 0
ENDMDL
