MODEL 1
REMARK minimizedAffinity -5.55457449
REMARK minimizedRMSD -1
REMARK  0 active torsions:
REMARK  status: ('A' for Active; 'I' for Inactive)
ROOT
ATOM      1  O1  BZF d   1       2.427  -1.166  -1.048  0.00  0.00    -0.204 OA
ATOM      2  C2  BZF d   1       2.756   0.082  -1.540  0.00  0.00     0.174 A 
ATOM      3  C3  BZF d   1       1.706   0.924  -1.447  0.00  0.00    -0.012 A 
ATOM      4  C3A BZF d   1       0.685   0.180  -0.775  0.00  0.00    -0.107 A 
ATOM      5  C4  BZF d   1      -0.587   0.479  -0.378  0.00  0.00     0.055 A 
ATOM      6  C5  BZF d   1      -1.348  -0.495   0.188  0.00  0.00    -0.016 A 
ATOM      7  C6  BZF d   1      -0.871  -1.777   0.367  0.00  0.00     0.022 A 
ATOM      8  C7  BZF d   1       0.386  -2.120  -0.007  0.00  0.00     0.029 A 
ATOM      9  C7A BZF d   1       1.168  -1.130  -0.549  0.00  0.00     0.058 A 
ENDROOT
TORSDOF 0
ENDMDL
