MODEL 1
REMARK minimizedAffinity -2.80231071
REMARK minimizedRMSD -1
REMARK  0 active torsions:
REMARK  status: ('A' for Active; 'I' for Inactive)
ROOT
ATOM      1  O1  BZF d   1      -2.338   0.059   2.192  0.00  0.00    -0.204 OA
ATOM      2  C2  BZF d   1      -2.565   0.551   3.462  0.00  0.00     0.174 A 
ATOM      3  C3  BZF d   1      -2.059   1.795   3.590  0.00  0.00    -0.012 A 
ATOM      4  C3A BZF d   1      -1.562   2.135   2.292  0.00  0.00    -0.107 A 
ATOM      5  C4  BZF d   1      -0.958   3.247   1.779  0.00  0.00     0.055 A 
ATOM      6  C5  BZF d   1      -0.528   3.230   0.490  0.00  0.00    -0.016 A 
ATOM      7  C6  BZF d   1      -0.681   2.118  -0.312  0.00  0.00     0.022 A 
ATOM      8  C7  BZF d   1      -1.279   0.993   0.150  0.00  0.00     0.029 A 
ATOM      9  C7A BZF d   1      -1.744   1.019   1.443  0.00  0.00     0.058 A 
ENDROOT
TORSDOF 0
ENDMDL
