MODEL 1
REMARK minimizedAffinity 2.33328056
REMARK minimizedRMSD -1
REMARK  0 active torsions:
REMARK  status: ('A' for Active; 'I' for Inactive)
ROOT
ATOM      1  C4' PXY d   1      -2.852  -1.342   3.288  0.00  0.00     0.077 C 
ATOM      2  C1' PXY d   1      -0.409  -0.673  -1.909  0.00  0.00     0.077 C 
ATOM      3  C1  PXY d   1      -1.055  -0.860  -0.550  0.00  0.00    -0.082 A 
ATOM      4  C2  PXY d   1      -1.330   0.199   0.195  0.00  0.00     0.003 A 
ATOM      5  C3  PXY d   1      -1.885   0.046   1.439  0.00  0.00     0.003 A 
ATOM      6  C4  PXY d   1      -2.209  -1.200   1.905  0.00  0.00    -0.082 A 
ATOM      7  C5  PXY d   1      -1.941  -2.284   1.147  0.00  0.00     0.003 A 
ATOM      8  C6  PXY d   1      -1.340  -2.110  -0.096  0.00  0.00     0.003 A 
ENDROOT
TORSDOF 0
ENDMDL
