MODEL 1
REMARK minimizedAffinity 8.85765076
REMARK minimizedRMSD -1
REMARK  0 active torsions:
REMARK  status: ('A' for Active; 'I' for Inactive)
ROOT
ATOM      1  C4' PXY d   1      -3.973   0.717   1.875  0.00  0.00     0.077 C 
ATOM      2  C1' PXY d   1       0.828  -0.706  -1.013  0.00  0.00     0.077 C 
ATOM      3  C1  PXY d   1      -0.434  -0.346  -0.255  0.00  0.00    -0.082 A 
ATOM      4  C2  PXY d   1      -0.978   0.849  -0.421  0.00  0.00     0.003 A 
ATOM      5  C3  PXY d   1      -2.102   1.203   0.281  0.00  0.00     0.003 A 
ATOM      6  C4  PXY d   1      -2.704   0.306   1.122  0.00  0.00    -0.082 A 
ATOM      7  C5  PXY d   1      -2.161  -0.918   1.290  0.00  0.00     0.003 A 
ATOM      8  C6  PXY d   1      -0.997  -1.244   0.599  0.00  0.00     0.003 A 
ENDROOT
TORSDOF 0
ENDMDL
