MODEL 1
REMARK minimizedAffinity -5.03324699
REMARK minimizedRMSD -1
REMARK  0 active torsions:
REMARK  status: ('A' for Active; 'I' for Inactive)
ROOT
ATOM      1  C4' PXY d   1      -0.406   2.058   0.074  0.00  0.00     0.077 C 
ATOM      2  C1' PXY d   1       0.028  -3.704  -0.067  0.00  0.00     0.077 C 
ATOM      3  C1  PXY d   1      -0.075  -2.192  -0.037  0.00  0.00    -0.082 A 
ATOM      4  C2  PXY d   1      -0.717  -1.600   0.956  0.00  0.00     0.003 A 
ATOM      5  C3  PXY d   1      -0.847  -0.235   0.982  0.00  0.00     0.003 A 
ATOM      6  C4  PXY d   1      -0.269   0.535   0.008  0.00  0.00    -0.082 A 
ATOM      7  C5  PXY d   1       0.397  -0.062  -1.003  0.00  0.00     0.003 A 
ATOM      8  C6  PXY d   1       0.482  -1.451  -1.033  0.00  0.00     0.003 A 
ENDROOT
TORSDOF 0
ENDMDL
