MODEL 1
REMARK minimizedAffinity -5.76251125
REMARK minimizedRMSD -1
REMARK  0 active torsions:
REMARK  status: ('A' for Active; 'I' for Inactive)
ROOT
ATOM      1  C4' PXY d   1      -2.333   0.096   2.436  0.00  0.00     0.077 C 
ATOM      2  C1' PXY d   1       1.235  -1.867  -1.666  0.00  0.00     0.077 C 
ATOM      3  C1  PXY d   1       0.305  -1.341  -0.591  0.00  0.00    -0.082 A 
ATOM      4  C2  PXY d   1      -0.273  -2.187   0.246  0.00  0.00     0.003 A 
ATOM      5  C3  PXY d   1      -1.141  -1.731   1.204  0.00  0.00     0.003 A 
ATOM      6  C4  PXY d   1      -1.380  -0.390   1.341  0.00  0.00    -0.082 A 
ATOM      7  C5  PXY d   1      -0.785   0.481   0.498  0.00  0.00     0.003 A 
ATOM      8  C6  PXY d   1       0.061  -0.006  -0.494  0.00  0.00     0.003 A 
ENDROOT
TORSDOF 0
ENDMDL
