MODEL 1
REMARK minimizedAffinity -1.16599882
REMARK minimizedRMSD -1
REMARK  0 active torsions:
REMARK  status: ('A' for Active; 'I' for Inactive)
ROOT
ATOM      1  C4' PXY d   1      -0.001   1.589   0.259  0.00  0.00     0.077 C 
ATOM      2  C1' PXY d   1      -0.108  -4.180   0.597  0.00  0.00     0.077 C 
ATOM      3  C1  PXY d   1      -0.093  -2.667   0.507  0.00  0.00    -0.082 A 
ATOM      4  C2  PXY d   1       0.982  -2.050   0.047  0.00  0.00     0.003 A 
ATOM      5  C3  PXY d   1       1.025  -0.680  -0.010  0.00  0.00     0.003 A 
ATOM      6  C4  PXY d   1      -0.065   0.063   0.357  0.00  0.00    -0.082 A 
ATOM      7  C5  PXY d   1      -1.170  -0.560   0.818  0.00  0.00     0.003 A 
ATOM      8  C6  PXY d   1      -1.178  -1.949   0.907  0.00  0.00     0.003 A 
ENDROOT
TORSDOF 0
ENDMDL
