MODEL 1
REMARK minimizedAffinity -3.61780143
REMARK minimizedRMSD -1
REMARK  0 active torsions:
REMARK  status: ('A' for Active; 'I' for Inactive)
ROOT
ATOM      1  C4' PXY d   1       0.441   2.661  -0.187  0.00  0.00     0.077 C 
ATOM      2  C1' PXY d   1      -1.079  -2.906   0.150  0.00  0.00     0.077 C 
ATOM      3  C1  PXY d   1      -0.673  -1.449   0.051  0.00  0.00    -0.082 A 
ATOM      4  C2  PXY d   1      -0.721  -0.682   1.128  0.00  0.00     0.003 A 
ATOM      5  C3  PXY d   1      -0.388   0.646   1.050  0.00  0.00     0.003 A 
ATOM      6  C4  PXY d   1       0.049   1.182  -0.132  0.00  0.00    -0.082 A 
ATOM      7  C5  PXY d   1       0.112   0.403  -1.233  0.00  0.00     0.003 A 
ATOM      8  C6  PXY d   1      -0.270  -0.932  -1.141  0.00  0.00     0.003 A 
ENDROOT
TORSDOF 0
ENDMDL
