MODEL 1
REMARK minimizedAffinity -5.0347271
REMARK minimizedRMSD -1
REMARK  0 active torsions:
REMARK  status: ('A' for Active; 'I' for Inactive)
ROOT
ATOM      1  C4' PXY d   1      -2.279  -0.345   2.506  0.00  0.00     0.077 C 
ATOM      2  C1' PXY d   1       1.106  -1.927  -1.905  0.00  0.00     0.077 C 
ATOM      3  C1  PXY d   1       0.210  -1.522  -0.751  0.00  0.00    -0.082 A 
ATOM      4  C2  PXY d   1       0.263  -0.285  -0.285  0.00  0.00     0.003 A 
ATOM      5  C3  PXY d   1      -0.517   0.089   0.779  0.00  0.00     0.003 A 
ATOM      6  C4  PXY d   1      -1.400  -0.796   1.336  0.00  0.00    -0.082 A 
ATOM      7  C5  PXY d   1      -1.468  -2.057   0.859  0.00  0.00     0.003 A 
ATOM      8  C6  PXY d   1      -0.638  -2.429  -0.195  0.00  0.00     0.003 A 
ENDROOT
TORSDOF 0
ENDMDL
