MODEL 1
REMARK minimizedAffinity -4.23733997
REMARK minimizedRMSD -1
REMARK  0 active torsions:
REMARK  status: ('A' for Active; 'I' for Inactive)
ROOT
ATOM      1  C4' PXY d   1      -0.024   2.178  -0.041  0.00  0.00     0.077 C 
ATOM      2  C1' PXY d   1      -0.297  -3.596   0.040  0.00  0.00     0.077 C 
ATOM      3  C1  PXY d   1      -0.237  -2.081   0.025  0.00  0.00    -0.082 A 
ATOM      4  C2  PXY d   1       0.528  -1.466  -0.862  0.00  0.00     0.003 A 
ATOM      5  C3  PXY d   1       0.618  -0.097  -0.870  0.00  0.00     0.003 A 
ATOM      6  C4  PXY d   1      -0.123   0.651   0.005  0.00  0.00    -0.082 A 
ATOM      7  C5  PXY d   1      -0.914   0.031   0.906  0.00  0.00     0.003 A 
ATOM      8  C6  PXY d   1      -0.960  -1.360   0.925  0.00  0.00     0.003 A 
ENDROOT
TORSDOF 0
ENDMDL
