MODEL 1
REMARK minimizedAffinity -5.55505848
REMARK minimizedRMSD -1
REMARK  0 active torsions:
REMARK  status: ('A' for Active; 'I' for Inactive)
ROOT
ATOM      1  C4' PXY d   1      -0.512   1.779  -0.021  0.00  0.00     0.077 C 
ATOM      2  C1' PXY d   1       0.096  -3.840   1.196  0.00  0.00     0.077 C 
ATOM      3  C1  PXY d   1      -0.074  -2.366   0.884  0.00  0.00    -0.082 A 
ATOM      4  C2  PXY d   1       0.453  -1.866  -0.222  0.00  0.00     0.003 A 
ATOM      5  C3  PXY d   1       0.336  -0.529  -0.503  0.00  0.00     0.003 A 
ATOM      6  C4  PXY d   1      -0.373   0.295   0.329  0.00  0.00    -0.082 A 
ATOM      7  C5  PXY d   1      -0.923  -0.210   1.454  0.00  0.00     0.003 A 
ATOM      8  C6  PXY d   1      -0.758  -1.562   1.743  0.00  0.00     0.003 A 
ENDROOT
TORSDOF 0
ENDMDL
