MODEL 1
REMARK minimizedAffinity -1.5857203
REMARK minimizedRMSD -1
REMARK  0 active torsions:
REMARK  status: ('A' for Active; 'I' for Inactive)
ROOT
ATOM      1  C4' PXY d   1      -0.437   1.974  -0.684  0.00  0.00     0.077 C 
ATOM      2  C1' PXY d   1       0.317  -3.555   0.824  0.00  0.00     0.077 C 
ATOM      3  C1  PXY d   1       0.131  -2.105   0.423  0.00  0.00    -0.082 A 
ATOM      4  C2  PXY d   1      -0.729  -1.348   1.086  0.00  0.00     0.003 A 
ATOM      5  C3  PXY d   1      -0.933  -0.044   0.716  0.00  0.00     0.003 A 
ATOM      6  C4  PXY d   1      -0.210   0.507  -0.308  0.00  0.00    -0.082 A 
ATOM      7  C5  PXY d   1       0.677  -0.255  -0.982  0.00  0.00     0.003 A 
ATOM      8  C6  PXY d   1       0.839  -1.589  -0.618  0.00  0.00     0.003 A 
ENDROOT
TORSDOF 0
ENDMDL
