MODEL 1
REMARK minimizedAffinity -3.89922476
REMARK minimizedRMSD -1
REMARK  0 active torsions:
REMARK  status: ('A' for Active; 'I' for Inactive)
ROOT
ATOM      1  C4' PXY d   1       0.504  -3.787   0.819  0.00  0.00     0.077 C 
ATOM      2  C1' PXY d   1      -1.124   1.722   0.176  0.00  0.00     0.077 C 
ATOM      3  C1  PXY d   1      -0.707   0.276   0.353  0.00  0.00    -0.082 A 
ATOM      4  C2  PXY d   1       0.540  -0.082   0.094  0.00  0.00     0.003 A 
ATOM      5  C3  PXY d   1       0.927  -1.391   0.218  0.00  0.00     0.003 A 
ATOM      6  C4  PXY d   1       0.041  -2.336   0.663  0.00  0.00    -0.082 A 
ATOM      7  C5  PXY d   1      -1.231  -1.977   0.940  0.00  0.00     0.003 A 
ATOM      8  C6  PXY d   1      -1.614  -0.650   0.768  0.00  0.00     0.003 A 
ENDROOT
TORSDOF 0
ENDMDL
