MODEL 1
REMARK minimizedAffinity -3.13797688
REMARK minimizedRMSD -1
REMARK  0 active torsions:
REMARK  status: ('A' for Active; 'I' for Inactive)
ROOT
ATOM      1  C4' PXY d   1      -2.955   0.031   1.349  0.00  0.00     0.077 C 
ATOM      2  C1' PXY d   1       2.122  -2.432   0.098  0.00  0.00     0.077 C 
ATOM      3  C1  PXY d   1       0.784  -1.797   0.422  0.00  0.00    -0.082 A 
ATOM      4  C2  PXY d   1       0.678  -0.478   0.459  0.00  0.00     0.003 A 
ATOM      5  C3  PXY d   1      -0.516   0.112   0.782  0.00  0.00     0.003 A 
ATOM      6  C4  PXY d   1      -1.627  -0.653   1.017  0.00  0.00    -0.082 A 
ATOM      7  C5  PXY d   1      -1.529  -1.999   0.971  0.00  0.00     0.003 A 
ATOM      8  C6  PXY d   1      -0.298  -2.580   0.681  0.00  0.00     0.003 A 
ENDROOT
TORSDOF 0
ENDMDL
