MODEL 1
REMARK minimizedAffinity -4.79448414
REMARK minimizedRMSD -1
REMARK  0 active torsions:
REMARK  status: ('A' for Active; 'I' for Inactive)
ROOT
ATOM      1  C4' PXY d   1       0.071   2.498  -1.087  0.00  0.00     0.077 C 
ATOM      2  C1' PXY d   1      -0.277  -2.944   0.831  0.00  0.00     0.077 C 
ATOM      3  C1  PXY d   1      -0.191  -1.512   0.339  0.00  0.00    -0.082 A 
ATOM      4  C2  PXY d   1      -0.142  -1.269  -0.960  0.00  0.00     0.003 A 
ATOM      5  C3  PXY d   1      -0.032   0.017  -1.422  0.00  0.00     0.003 A 
ATOM      6  C4  PXY d   1      -0.026   1.069  -0.545  0.00  0.00    -0.082 A 
ATOM      7  C5  PXY d   1      -0.086   0.830   0.782  0.00  0.00     0.003 A 
ATOM      8  C6  PXY d   1      -0.156  -0.485   1.231  0.00  0.00     0.003 A 
ENDROOT
TORSDOF 0
ENDMDL
