MODEL 1
REMARK minimizedAffinity -4.56881189
REMARK minimizedRMSD -1
REMARK  0 active torsions:
REMARK  status: ('A' for Active; 'I' for Inactive)
ROOT
ATOM      1  C4' PXY d   1      -0.006   2.153   0.421  0.00  0.00     0.077 C 
ATOM      2  C1' PXY d   1      -1.105  -3.466  -0.373  0.00  0.00     0.077 C 
ATOM      3  C1  PXY d   1      -0.805  -1.994  -0.171  0.00  0.00    -0.082 A 
ATOM      4  C2  PXY d   1      -1.440  -1.321   0.775  0.00  0.00     0.003 A 
ATOM      5  C3  PXY d   1      -1.204   0.018   0.951  0.00  0.00     0.003 A 
ATOM      6  C4  PXY d   1      -0.270   0.664   0.186  0.00  0.00    -0.082 A 
ATOM      7  C5  PXY d   1       0.390  -0.018  -0.774  0.00  0.00     0.003 A 
ATOM      8  C6  PXY d   1       0.107  -1.368  -0.964  0.00  0.00     0.003 A 
ENDROOT
TORSDOF 0
ENDMDL
