MODEL 1
REMARK minimizedAffinity -5.44238853
REMARK minimizedRMSD -1
REMARK  0 active torsions:
REMARK  status: ('A' for Active; 'I' for Inactive)
ROOT
ATOM      1  C4' PXY d   1      -0.103   2.042  -0.166  0.00  0.00     0.077 C 
ATOM      2  C1' PXY d   1      -0.322  -3.731   0.049  0.00  0.00     0.077 C 
ATOM      3  C1  PXY d   1      -0.255  -2.218  -0.015  0.00  0.00    -0.082 A 
ATOM      4  C2  PXY d   1      -0.786  -1.497   0.959  0.00  0.00     0.003 A 
ATOM      5  C3  PXY d   1      -0.762  -0.128   0.901  0.00  0.00     0.003 A 
ATOM      6  C4  PXY d   1      -0.140   0.511  -0.138  0.00  0.00    -0.082 A 
ATOM      7  C5  PXY d   1       0.414  -0.217  -1.131  0.00  0.00     0.003 A 
ATOM      8  C6  PXY d   1       0.343  -1.606  -1.074  0.00  0.00     0.003 A 
ENDROOT
TORSDOF 0
ENDMDL
