MODEL 1
REMARK minimizedAffinity -3.07509613
REMARK minimizedRMSD -1
REMARK  0 active torsions:
REMARK  status: ('A' for Active; 'I' for Inactive)
ROOT
ATOM      1  C4' PXY d   1       0.463   2.215  -0.499  0.00  0.00     0.077 C 
ATOM      2  C1' PXY d   1      -1.264  -3.087   1.025  0.00  0.00     0.077 C 
ATOM      3  C1  PXY d   1      -0.800  -1.702   0.622  0.00  0.00    -0.082 A 
ATOM      4  C2  PXY d   1      -1.390  -0.637   1.141  0.00  0.00     0.003 A 
ATOM      5  C3  PXY d   1      -1.003   0.623   0.764  0.00  0.00     0.003 A 
ATOM      6  C4  PXY d   1       0.033   0.796  -0.114  0.00  0.00    -0.082 A 
ATOM      7  C5  PXY d   1       0.647  -0.285  -0.640  0.00  0.00     0.003 A 
ATOM      8  C6  PXY d   1       0.213  -1.556  -0.275  0.00  0.00     0.003 A 
ENDROOT
TORSDOF 0
ENDMDL
