MODEL 1
REMARK minimizedAffinity -4.00431728
REMARK minimizedRMSD -1
REMARK  0 active torsions:
REMARK  status: ('A' for Active; 'I' for Inactive)
ROOT
ATOM      1  C4' PXY d   1      -0.364   4.814   3.233  0.00  0.00     0.077 C 
ATOM      2  C1' PXY d   1       2.115   1.844  -1.062  0.00  0.00     0.077 C 
ATOM      3  C1  PXY d   1       1.454   2.623   0.057  0.00  0.00    -0.082 A 
ATOM      4  C2  PXY d   1       2.201   3.310   0.907  0.00  0.00     0.003 A 
ATOM      5  C3  PXY d   1       1.622   3.994   1.944  0.00  0.00     0.003 A 
ATOM      6  C4  PXY d   1       0.260   4.020   2.082  0.00  0.00    -0.082 A 
ATOM      7  C5  PXY d   1      -0.510   3.331   1.214  0.00  0.00     0.003 A 
ATOM      8  C6  PXY d   1       0.100   2.609   0.192  0.00  0.00     0.003 A 
ENDROOT
TORSDOF 0
ENDMDL
