MODEL 1
REMARK minimizedAffinity -4.49585438
REMARK minimizedRMSD -1
REMARK  0 active torsions:
REMARK  status: ('A' for Active; 'I' for Inactive)
ROOT
ATOM      1  C4' PXY d   1      -0.344   4.505   3.789  0.00  0.00     0.077 C 
ATOM      2  C1' PXY d   1       2.420   2.269  -0.770  0.00  0.00     0.077 C 
ATOM      3  C1  PXY d   1       1.685   2.858   0.418  0.00  0.00    -0.082 A 
ATOM      4  C2  PXY d   1       2.371   3.293   1.462  0.00  0.00     0.003 A 
ATOM      5  C3  PXY d   1       1.721   3.800   2.558  0.00  0.00     0.003 A 
ATOM      6  C4  PXY d   1       0.357   3.911   2.564  0.00  0.00    -0.082 A 
ATOM      7  C5  PXY d   1      -0.351   3.479   1.498  0.00  0.00     0.003 A 
ATOM      8  C6  PXY d   1       0.326   2.931   0.412  0.00  0.00     0.003 A 
ENDROOT
TORSDOF 0
ENDMDL
