MODEL 1
REMARK minimizedAffinity -5.91696358
REMARK minimizedRMSD -1
REMARK  0 active torsions:
REMARK  status: ('A' for Active; 'I' for Inactive)
ROOT
ATOM      1  C4' PXY d   1       1.357  -2.232  -3.342  0.00  0.00     0.077 C 
ATOM      2  C1' PXY d   1      -1.340  -2.041   1.767  0.00  0.00     0.077 C 
ATOM      3  C1  PXY d   1      -0.635  -2.078   0.426  0.00  0.00    -0.082 A 
ATOM      4  C2  PXY d   1      -0.592  -3.209  -0.260  0.00  0.00     0.003 A 
ATOM      5  C3  PXY d   1       0.070  -3.269  -1.459  0.00  0.00     0.003 A 
ATOM      6  C4  PXY d   1       0.647  -2.145  -1.988  0.00  0.00    -0.082 A 
ATOM      7  C5  PXY d   1       0.598  -0.985  -1.300  0.00  0.00     0.003 A 
ATOM      8  C6  PXY d   1      -0.042  -0.956  -0.065  0.00  0.00     0.003 A 
ENDROOT
TORSDOF 0
ENDMDL
