MODEL 1
REMARK minimizedAffinity -5.16228485
REMARK minimizedRMSD -1
REMARK  0 active torsions:
REMARK  status: ('A' for Active; 'I' for Inactive)
ROOT
ATOM      1  C4' PXY d   1       0.769  -2.185  -2.609  0.00  0.00     0.077 C 
ATOM      2  C1' PXY d   1      -1.742  -1.563   2.561  0.00  0.00     0.077 C 
ATOM      3  C1  PXY d   1      -1.083  -1.739   1.207  0.00  0.00    -0.082 A 
ATOM      4  C2  PXY d   1      -0.428  -0.727   0.662  0.00  0.00     0.003 A 
ATOM      5  C3  PXY d   1       0.146  -0.859  -0.576  0.00  0.00     0.003 A 
ATOM      6  C4  PXY d   1       0.096  -2.056  -1.239  0.00  0.00    -0.082 A 
ATOM      7  C5  PXY d   1      -0.560  -3.096  -0.685  0.00  0.00     0.003 A 
ATOM      8  C6  PXY d   1      -1.172  -2.930   0.554  0.00  0.00     0.003 A 
ENDROOT
TORSDOF 0
ENDMDL
