MODEL 1
REMARK minimizedAffinity -5.48307228
REMARK minimizedRMSD -1
REMARK  3 active torsions:
REMARK  status: ('A' for Active; 'I' for Inactive)
REMARK    1  A    between atoms: C3'_2  and  C2'_3 
REMARK    2  A    between atoms: C2'_3  and  C1'_4 
REMARK    3  A    between atoms: C1'_4  and  C1_5 
ROOT
ATOM      1  C1  N4B d   1       0.347  -0.790   0.373  0.00  0.00    -0.075 A 
ATOM      2  C2  N4B d   1      -0.701  -0.859   1.317  0.00  0.00     0.002 A 
ATOM      3  C3  N4B d   1      -0.629  -1.751   2.359  0.00  0.00     0.002 A 
ATOM      4  C4  N4B d   1       0.467  -2.593   2.466  0.00  0.00    -0.004 A 
ATOM      5  C5  N4B d   1       1.487  -2.503   1.564  0.00  0.00     0.002 A 
ATOM      6  C6  N4B d   1       1.430  -1.608   0.515  0.00  0.00     0.002 A 
ENDROOT
BRANCH   1   7
ATOM      7  C1' N4B d   1       0.273   0.109  -0.831  0.00  0.00     0.057 C 
BRANCH   7   8
ATOM      8  C2' N4B d   1      -0.958   1.003  -0.713  0.00  0.00     0.009 C 
BRANCH   8   9
ATOM      9  C3' N4B d   1      -2.061   0.580  -1.669  0.00  0.00     0.004 C 
ATOM     10  C4' N4B d   1      -2.173   1.482  -2.862  0.00  0.00     0.003 C 
ENDBRANCH   8   9
ENDBRANCH   7   8
ENDBRANCH   1   7
TORSDOF 3
ENDMDL
