MODEL 1
REMARK minimizedAffinity -6.11401081
REMARK minimizedRMSD -1
REMARK  3 active torsions:
REMARK  status: ('A' for Active; 'I' for Inactive)
REMARK    1  A    between atoms: C3'_2  and  C2'_3 
REMARK    2  A    between atoms: C2'_3  and  C1'_4 
REMARK    3  A    between atoms: C1'_4  and  C1_5 
ROOT
ATOM      1  C1  N4B d   1       0.135  -0.666   0.544  0.00  0.00    -0.075 A 
ATOM      2  C2  N4B d   1       1.118  -1.677   0.616  0.00  0.00     0.002 A 
ATOM      3  C3  N4B d   1       1.061  -2.620   1.614  0.00  0.00     0.002 A 
ATOM      4  C4  N4B d   1       0.046  -2.560   2.557  0.00  0.00    -0.004 A 
ATOM      5  C5  N4B d   1      -0.914  -1.595   2.465  0.00  0.00     0.002 A 
ATOM      6  C6  N4B d   1      -0.872  -0.644   1.466  0.00  0.00     0.002 A 
ENDROOT
BRANCH   1   7
ATOM      7  C1' N4B d   1       0.203   0.437  -0.477  0.00  0.00     0.057 C 
BRANCH   7   8
ATOM      8  C2' N4B d   1      -1.150   1.139  -0.547  0.00  0.00     0.009 C 
BRANCH   8   9
ATOM      9  C3' N4B d   1      -1.401   1.752  -1.914  0.00  0.00     0.004 C 
ATOM     10  C4' N4B d   1      -2.611   1.181  -2.593  0.00  0.00     0.003 C 
ENDBRANCH   8   9
ENDBRANCH   7   8
ENDBRANCH   1   7
TORSDOF 3
ENDMDL
