MODEL 1
REMARK minimizedAffinity -5.17224503
REMARK minimizedRMSD -1
REMARK  3 active torsions:
REMARK  status: ('A' for Active; 'I' for Inactive)
REMARK    1  A    between atoms: C3'_2  and  C2'_3 
REMARK    2  A    between atoms: C2'_3  and  C1'_4 
REMARK    3  A    between atoms: C1'_4  and  C1_5 
ROOT
ATOM      1  C1  N4B d   1       0.171  -0.761   0.459  0.00  0.00    -0.075 A 
ATOM      2  C2  N4B d   1       1.265  -1.618   0.710  0.00  0.00     0.002 A 
ATOM      3  C3  N4B d   1       1.291  -2.380   1.853  0.00  0.00     0.002 A 
ATOM      4  C4  N4B d   1       0.249  -2.287   2.763  0.00  0.00    -0.004 A 
ATOM      5  C5  N4B d   1      -0.816  -1.476   2.500  0.00  0.00     0.002 A 
ATOM      6  C6  N4B d   1      -0.857  -0.707   1.354  0.00  0.00     0.002 A 
ENDROOT
BRANCH   1   7
ATOM      7  C1' N4B d   1       0.139   0.156  -0.734  0.00  0.00     0.057 C 
BRANCH   7   8
ATOM      8  C2' N4B d   1      -1.112   1.026  -0.663  0.00  0.00     0.009 C 
BRANCH   8   9
ATOM      9  C3' N4B d   1      -1.374   1.752  -1.971  0.00  0.00     0.004 C 
ATOM     10  C4' N4B d   1      -2.762   1.527  -2.493  0.00  0.00     0.003 C 
ENDBRANCH   8   9
ENDBRANCH   7   8
ENDBRANCH   1   7
TORSDOF 3
ENDMDL
