MODEL 1
REMARK minimizedAffinity -4.52242517
REMARK minimizedRMSD -1
REMARK  3 active torsions:
REMARK  status: ('A' for Active; 'I' for Inactive)
REMARK    1  A    between atoms: C3'_2  and  C2'_3 
REMARK    2  A    between atoms: C2'_3  and  C1'_4 
REMARK    3  A    between atoms: C1'_4  and  C1_5 
ROOT
ATOM      1  C1  N4B d   1       0.645  -0.581   0.229  0.00  0.00    -0.075 A 
ATOM      2  C2  N4B d   1       1.730  -1.483   0.164  0.00  0.00     0.002 A 
ATOM      3  C3  N4B d   1       1.792  -2.545   1.033  0.00  0.00     0.002 A 
ATOM      4  C4  N4B d   1       0.796  -2.713   1.983  0.00  0.00    -0.004 A 
ATOM      5  C5  N4B d   1      -0.261  -1.852   2.022  0.00  0.00     0.002 A 
ATOM      6  C6  N4B d   1      -0.339  -0.783   1.153  0.00  0.00     0.002 A 
ENDROOT
BRANCH   1   7
ATOM      7  C1' N4B d   1       0.577   0.643  -0.643  0.00  0.00     0.057 C 
BRANCH   7   8
ATOM      8  C2' N4B d   1      -0.877   1.091  -0.764  0.00  0.00     0.009 C 
BRANCH   8   9
ATOM      9  C3' N4B d   1      -1.071   2.090  -1.892  0.00  0.00     0.004 C 
ATOM     10  C4' N4B d   1      -2.194   1.715  -2.812  0.00  0.00     0.003 C 
ENDBRANCH   8   9
ENDBRANCH   7   8
ENDBRANCH   1   7
TORSDOF 3
ENDMDL
