MODEL 1
REMARK minimizedAffinity -5.98870993
REMARK minimizedRMSD -1
REMARK  3 active torsions:
REMARK  status: ('A' for Active; 'I' for Inactive)
REMARK    1  A    between atoms: C3'_2  and  C2'_3 
REMARK    2  A    between atoms: C2'_3  and  C1'_4 
REMARK    3  A    between atoms: C1'_4  and  C1_5 
ROOT
ATOM      1  C1  N4B d   1       0.476  -0.675   0.487  0.00  0.00    -0.075 A 
ATOM      2  C2  N4B d   1       1.419  -1.720   0.369  0.00  0.00     0.002 A 
ATOM      3  C3  N4B d   1       1.395  -2.769   1.255  0.00  0.00     0.002 A 
ATOM      4  C4  N4B d   1       0.453  -2.786   2.273  0.00  0.00    -0.004 A 
ATOM      5  C5  N4B d   1      -0.470  -1.786   2.364  0.00  0.00     0.002 A 
ATOM      6  C6  N4B d   1      -0.460  -0.727   1.478  0.00  0.00     0.002 A 
ENDROOT
BRANCH   1   7
ATOM      7  C1' N4B d   1       0.517   0.536  -0.405  0.00  0.00     0.057 C 
BRANCH   7   8
ATOM      8  C2' N4B d   1      -0.825   1.258  -0.331  0.00  0.00     0.009 C 
BRANCH   8   9
ATOM      9  C3' N4B d   1      -1.168   1.955  -1.636  0.00  0.00     0.004 C 
ATOM     10  C4' N4B d   1      -2.237   1.244  -2.411  0.00  0.00     0.003 C 
ENDBRANCH   8   9
ENDBRANCH   7   8
ENDBRANCH   1   7
TORSDOF 3
ENDMDL
