MODEL 1
REMARK minimizedAffinity 0.27641654
REMARK minimizedRMSD -1
REMARK  0 active torsions:
REMARK  status: ('A' for Active; 'I' for Inactive)
ROOT
ATOM      1  C1  BNZ d   1      -1.058   0.592   0.715  0.00  0.00     0.000 A 
ATOM      2  C2  BNZ d   1      -1.563  -0.247   1.672  0.00  0.00     0.000 A 
ATOM      3  C3  BNZ d   1      -1.591  -1.599   1.474  0.00  0.00     0.000 A 
ATOM      4  C4  BNZ d   1      -1.151  -2.106   0.305  0.00  0.00     0.000 A 
ATOM      5  C5  BNZ d   1      -0.647  -1.273  -0.674  0.00  0.00     0.000 A 
ATOM      6  C6  BNZ d   1      -0.585   0.084  -0.456  0.00  0.00     0.000 A 
ENDROOT
TORSDOF 0
ENDMDL
