MODEL 1
REMARK minimizedAffinity -2.23736405
REMARK minimizedRMSD -1
REMARK  0 active torsions:
REMARK  status: ('A' for Active; 'I' for Inactive)
ROOT
ATOM      1  C1  BNZ d   1       1.212   3.934   1.602  0.00  0.00     0.000 A 
ATOM      2  C2  BNZ d   1       0.221   3.059   1.245  0.00  0.00     0.000 A 
ATOM      3  C3  BNZ d   1       0.507   1.931   0.529  0.00  0.00     0.000 A 
ATOM      4  C4  BNZ d   1       1.777   1.700   0.135  0.00  0.00     0.000 A 
ATOM      5  C5  BNZ d   1       2.786   2.578   0.479  0.00  0.00     0.000 A 
ATOM      6  C6  BNZ d   1       2.499   3.692   1.234  0.00  0.00     0.000 A 
ENDROOT
TORSDOF 0
ENDMDL
