MODEL 1
REMARK minimizedAffinity 3.19731855
REMARK minimizedRMSD -1
REMARK  0 active torsions:
REMARK  status: ('A' for Active; 'I' for Inactive)
ROOT
ATOM      1  C1  BNZ d   1      -2.109  -0.022   1.316  0.00  0.00     0.000 A 
ATOM      2  C2  BNZ d   1      -1.708   1.014   0.515  0.00  0.00     0.000 A 
ATOM      3  C3  BNZ d   1      -0.518   0.959  -0.156  0.00  0.00     0.000 A 
ATOM      4  C4  BNZ d   1       0.286  -0.111   0.006  0.00  0.00     0.000 A 
ATOM      5  C5  BNZ d   1      -0.100  -1.159   0.817  0.00  0.00     0.000 A 
ATOM      6  C6  BNZ d   1      -1.316  -1.118   1.461  0.00  0.00     0.000 A 
ENDROOT
TORSDOF 0
ENDMDL
