MODEL 1
REMARK minimizedAffinity -1.53675056
REMARK minimizedRMSD -1
REMARK  0 active torsions:
REMARK  status: ('A' for Active; 'I' for Inactive)
ROOT
ATOM      1  C1  BNZ d   1      -1.062   0.559  -0.562  0.00  0.00     0.000 A 
ATOM      2  C2  BNZ d   1      -2.021  -0.013   0.231  0.00  0.00     0.000 A 
ATOM      3  C3  BNZ d   1      -1.735  -0.391   1.513  0.00  0.00     0.000 A 
ATOM      4  C4  BNZ d   1      -0.482  -0.233   1.987  0.00  0.00     0.000 A 
ATOM      5  C5  BNZ d   1       0.498   0.333   1.196  0.00  0.00     0.000 A 
ATOM      6  C6  BNZ d   1       0.196   0.748  -0.081  0.00  0.00     0.000 A 
ENDROOT
TORSDOF 0
ENDMDL
