MODEL 1
REMARK minimizedAffinity -3.55412483
REMARK minimizedRMSD -1
REMARK  0 active torsions:
REMARK  status: ('A' for Active; 'I' for Inactive)
ROOT
ATOM      1  C1  BNZ d   1      -0.917  -0.888   0.701  0.00  0.00     0.000 A 
ATOM      2  C2  BNZ d   1      -1.124  -2.233   0.545  0.00  0.00     0.000 A 
ATOM      3  C3  BNZ d   1      -0.777  -2.865  -0.617  0.00  0.00     0.000 A 
ATOM      4  C4  BNZ d   1      -0.261  -2.145  -1.634  0.00  0.00     0.000 A 
ATOM      5  C5  BNZ d   1      -0.055  -0.787  -1.496  0.00  0.00     0.000 A 
ATOM      6  C6  BNZ d   1      -0.369  -0.161  -0.311  0.00  0.00     0.000 A 
ENDROOT
TORSDOF 0
ENDMDL
