MODEL 1
REMARK minimizedAffinity -2.98677874
REMARK minimizedRMSD -1
REMARK  0 active torsions:
REMARK  status: ('A' for Active; 'I' for Inactive)
ROOT
ATOM      1  C1  BNZ d   1       0.290   1.075  -0.114  0.00  0.00     0.000 A 
ATOM      2  C2  BNZ d   1       0.541   0.088   0.801  0.00  0.00     0.000 A 
ATOM      3  C3  BNZ d   1      -0.478  -0.484   1.510  0.00  0.00     0.000 A 
ATOM      4  C4  BNZ d   1      -1.740  -0.042   1.332  0.00  0.00     0.000 A 
ATOM      5  C5  BNZ d   1      -2.008   0.959   0.419  0.00  0.00     0.000 A 
ATOM      6  C6  BNZ d   1      -0.984   1.506  -0.321  0.00  0.00     0.000 A 
ENDROOT
TORSDOF 0
ENDMDL
