MODEL 1
REMARK minimizedAffinity -4.09514523
REMARK minimizedRMSD -1
REMARK  0 active torsions:
REMARK  status: ('A' for Active; 'I' for Inactive)
ROOT
ATOM      1  C1  BNZ d   1       0.124  -0.870  -1.878  0.00  0.00     0.000 A 
ATOM      2  C2  BNZ d   1      -0.260  -1.604  -0.788  0.00  0.00     0.000 A 
ATOM      3  C3  BNZ d   1      -0.720  -0.990   0.344  0.00  0.00     0.000 A 
ATOM      4  C4  BNZ d   1      -0.756   0.357   0.398  0.00  0.00     0.000 A 
ATOM      5  C5  BNZ d   1      -0.363   1.112  -0.689  0.00  0.00     0.000 A 
ATOM      6  C6  BNZ d   1       0.062   0.489  -1.840  0.00  0.00     0.000 A 
ENDROOT
TORSDOF 0
ENDMDL
