MODEL 1
REMARK minimizedAffinity 2.40461397
REMARK minimizedRMSD -1
REMARK  0 active torsions:
REMARK  status: ('A' for Active; 'I' for Inactive)
ROOT
ATOM      1  C1  BNZ d   1      -1.157  -0.567   2.759  0.00  0.00     0.000 A 
ATOM      2  C2  BNZ d   1       0.011  -0.764   2.073  0.00  0.00     0.000 A 
ATOM      3  C3  BNZ d   1       0.137  -0.358   0.774  0.00  0.00     0.000 A 
ATOM      4  C4  BNZ d   1      -0.917   0.208   0.151  0.00  0.00     0.000 A 
ATOM      5  C5  BNZ d   1      -2.105   0.405   0.827  0.00  0.00     0.000 A 
ATOM      6  C6  BNZ d   1      -2.215   0.030   2.146  0.00  0.00     0.000 A 
ENDROOT
TORSDOF 0
ENDMDL
