MODEL 1
REMARK minimizedAffinity -2.08260536
REMARK minimizedRMSD -1
REMARK  0 active torsions:
REMARK  status: ('A' for Active; 'I' for Inactive)
ROOT
ATOM      1  C1  BNZ d   1       0.423  -0.344   1.532  0.00  0.00     0.000 A 
ATOM      2  C2  BNZ d   1       1.053   0.628   0.800  0.00  0.00     0.000 A 
ATOM      3  C3  BNZ d   1       0.336   1.484   0.011  0.00  0.00     0.000 A 
ATOM      4  C4  BNZ d   1      -1.002   1.342  -0.076  0.00  0.00     0.000 A 
ATOM      5  C5  BNZ d   1      -1.650   0.362   0.648  0.00  0.00     0.000 A 
ATOM      6  C6  BNZ d   1      -0.930  -0.473   1.471  0.00  0.00     0.000 A 
ENDROOT
TORSDOF 0
ENDMDL
