MODEL 1
REMARK minimizedAffinity -2.81999135
REMARK minimizedRMSD -1
REMARK  0 active torsions:
REMARK  status: ('A' for Active; 'I' for Inactive)
ROOT
ATOM      1  C1  BNZ d   1      -0.808  -0.998   1.502  0.00  0.00     0.000 A 
ATOM      2  C2  BNZ d   1      -1.079  -2.287   1.126  0.00  0.00     0.000 A 
ATOM      3  C3  BNZ d   1      -0.556  -2.804  -0.026  0.00  0.00     0.000 A 
ATOM      4  C4  BNZ d   1       0.202  -2.021  -0.820  0.00  0.00     0.000 A 
ATOM      5  C5  BNZ d   1       0.477  -0.717  -0.459  0.00  0.00     0.000 A 
ATOM      6  C6  BNZ d   1      -0.019  -0.212   0.721  0.00  0.00     0.000 A 
ENDROOT
TORSDOF 0
ENDMDL
