MODEL 1
REMARK minimizedAffinity -2.25364757
REMARK minimizedRMSD -1
REMARK  0 active torsions:
REMARK  status: ('A' for Active; 'I' for Inactive)
ROOT
ATOM      1  C1  BNZ d   1      -0.836   1.048   0.122  0.00  0.00     0.000 A 
ATOM      2  C2  BNZ d   1      -1.618   0.587   1.148  0.00  0.00     0.000 A 
ATOM      3  C3  BNZ d   1      -1.662  -0.745   1.450  0.00  0.00     0.000 A 
ATOM      4  C4  BNZ d   1      -0.957  -1.619   0.703  0.00  0.00     0.000 A 
ATOM      5  C5  BNZ d   1      -0.171  -1.171  -0.340  0.00  0.00     0.000 A 
ATOM      6  C6  BNZ d   1      -0.098   0.175  -0.617  0.00  0.00     0.000 A 
ENDROOT
TORSDOF 0
ENDMDL
