MODEL 1
REMARK minimizedAffinity -4.82015705
REMARK minimizedRMSD -1
REMARK  0 active torsions:
REMARK  status: ('A' for Active; 'I' for Inactive)
ROOT
ATOM      1  C1  BNZ d   1      -0.763  -0.855   0.977  0.00  0.00     0.000 A 
ATOM      2  C2  BNZ d   1      -0.757  -2.224   1.034  0.00  0.00     0.000 A 
ATOM      3  C3  BNZ d   1      -0.074  -2.960   0.107  0.00  0.00     0.000 A 
ATOM      4  C4  BNZ d   1       0.567  -2.330  -0.899  0.00  0.00     0.000 A 
ATOM      5  C5  BNZ d   1       0.563  -0.951  -0.975  0.00  0.00     0.000 A 
ATOM      6  C6  BNZ d   1      -0.093  -0.212  -0.018  0.00  0.00     0.000 A 
ENDROOT
TORSDOF 0
ENDMDL
