MODEL 1
REMARK minimizedAffinity 10.2277384
REMARK minimizedRMSD -1
REMARK  0 active torsions:
REMARK  status: ('A' for Active; 'I' for Inactive)
ROOT
ATOM      1  O1  BZF d   1       1.291   3.007  -2.160  0.00  0.00    -0.204 OA
ATOM      2  C2  BZF d   1       1.680   3.990  -1.270  0.00  0.00     0.174 A 
ATOM      3  C3  BZF d   1       1.804   3.487  -0.025  0.00  0.00    -0.012 A 
ATOM      4  C3A BZF d   1       1.563   2.083  -0.161  0.00  0.00    -0.107 A 
ATOM      5  C4  BZF d   1       1.559   1.041   0.722  0.00  0.00     0.055 A 
ATOM      6  C5  BZF d   1       1.212  -0.197   0.281  0.00  0.00    -0.016 A 
ATOM      7  C6  BZF d   1       0.859  -0.427  -1.032  0.00  0.00     0.022 A 
ATOM      8  C7  BZF d   1       0.852   0.574  -1.946  0.00  0.00     0.029 A 
ATOM      9  C7A BZF d   1       1.234   1.819  -1.511  0.00  0.00     0.058 A 
ENDROOT
TORSDOF 0
ENDMDL
