MODEL 1
REMARK minimizedAffinity 2.31543779
REMARK minimizedRMSD -1
REMARK  0 active torsions:
REMARK  status: ('A' for Active; 'I' for Inactive)
ROOT
ATOM      1  O1  BZF d   1       0.569  -1.771   0.258  0.00  0.00    -0.204 OA
ATOM      2  C2  BZF d   1       0.121  -2.382  -0.898  0.00  0.00     0.174 A 
ATOM      3  C3  BZF d   1       0.106  -1.508  -1.925  0.00  0.00    -0.012 A 
ATOM      4  C3A BZF d   1       0.662  -0.299  -1.400  0.00  0.00    -0.107 A 
ATOM      5  C4  BZF d   1       0.925   0.927  -1.941  0.00  0.00     0.055 A 
ATOM      6  C5  BZF d   1       1.402   1.914  -1.139  0.00  0.00    -0.016 A 
ATOM      7  C6  BZF d   1       1.623   1.713   0.208  0.00  0.00     0.022 A 
ATOM      8  C7  BZF d   1       1.383   0.513   0.789  0.00  0.00     0.029 A 
ATOM      9  C7A BZF d   1       0.932  -0.497  -0.025  0.00  0.00     0.058 A 
ENDROOT
TORSDOF 0
ENDMDL
