MODEL 1
REMARK minimizedAffinity 4.43637943
REMARK minimizedRMSD -1
REMARK  0 active torsions:
REMARK  status: ('A' for Active; 'I' for Inactive)
ROOT
ATOM      1  O1  BZF d   1      -3.797   0.387   4.442  0.00  0.00    -0.204 OA
ATOM      2  C2  BZF d   1      -2.763   0.657   5.317  0.00  0.00     0.174 A 
ATOM      3  C3  BZF d   1      -1.937   1.593   4.808  0.00  0.00    -0.012 A 
ATOM      4  C3A BZF d   1      -2.540   1.996   3.575  0.00  0.00    -0.107 A 
ATOM      5  C4  BZF d   1      -2.200   2.909   2.617  0.00  0.00     0.055 A 
ATOM      6  C5  BZF d   1      -2.964   3.008   1.498  0.00  0.00    -0.016 A 
ATOM      7  C6  BZF d   1      -4.071   2.208   1.301  0.00  0.00     0.022 A 
ATOM      8  C7  BZF d   1      -4.451   1.292   2.225  0.00  0.00     0.029 A 
ATOM      9  C7A BZF d   1      -3.699   1.212   3.372  0.00  0.00     0.058 A 
ENDROOT
TORSDOF 0
ENDMDL
