MODEL 1
REMARK minimizedAffinity 3.80395412
REMARK minimizedRMSD -1
REMARK  0 active torsions:
REMARK  status: ('A' for Active; 'I' for Inactive)
ROOT
ATOM      1  O1  BZF d   1       0.687  -0.079   1.258  0.00  0.00    -0.204 OA
ATOM      2  C2  BZF d   1       1.084   1.052   1.945  0.00  0.00     0.174 A 
ATOM      3  C3  BZF d   1       1.555   1.987   1.094  0.00  0.00    -0.012 A 
ATOM      4  C3A BZF d   1       1.359   1.440  -0.213  0.00  0.00    -0.107 A 
ATOM      5  C4  BZF d   1       1.612   1.903  -1.472  0.00  0.00     0.055 A 
ATOM      6  C5  BZF d   1       1.371   1.091  -2.535  0.00  0.00    -0.016 A 
ATOM      7  C6  BZF d   1       0.882  -0.189  -2.376  0.00  0.00     0.022 A 
ATOM      8  C7  BZF d   1       0.610  -0.690  -1.146  0.00  0.00     0.029 A 
ATOM      9  C7A BZF d   1       0.822   0.139  -0.072  0.00  0.00     0.058 A 
ENDROOT
TORSDOF 0
ENDMDL
