MODEL 1
REMARK minimizedAffinity 8.65376472
REMARK minimizedRMSD -1
REMARK  0 active torsions:
REMARK  status: ('A' for Active; 'I' for Inactive)
ROOT
ATOM      1  O1  BZF d   1       1.943   2.459   0.073  0.00  0.00    -0.204 OA
ATOM      2  C2  BZF d   1       1.861   1.989   1.370  0.00  0.00     0.174 A 
ATOM      3  C3  BZF d   1       1.240   0.792   1.407  0.00  0.00    -0.012 A 
ATOM      4  C3A BZF d   1       0.996   0.453   0.038  0.00  0.00    -0.107 A 
ATOM      5  C4  BZF d   1       0.422  -0.625  -0.574  0.00  0.00     0.055 A 
ATOM      6  C5  BZF d   1       0.271  -0.614  -1.924  0.00  0.00    -0.016 A 
ATOM      7  C6  BZF d   1       0.677   0.457  -2.692  0.00  0.00     0.022 A 
ATOM      8  C7  BZF d   1       1.257   1.546  -2.130  0.00  0.00     0.029 A 
ATOM      9  C7A BZF d   1       1.441   1.525  -0.769  0.00  0.00     0.058 A 
ENDROOT
TORSDOF 0
ENDMDL
