MODEL 1
REMARK minimizedAffinity 4.82277393
REMARK minimizedRMSD -1
REMARK  0 active torsions:
REMARK  status: ('A' for Active; 'I' for Inactive)
ROOT
ATOM      1  O1  BZF d   1       1.806   1.082  -2.884  0.00  0.00    -0.204 OA
ATOM      2  C2  BZF d   1       1.387  -0.218  -3.092  0.00  0.00     0.174 A 
ATOM      3  C3  BZF d   1       0.990  -0.785  -1.935  0.00  0.00    -0.012 A 
ATOM      4  C3A BZF d   1       1.085   0.254  -0.955  0.00  0.00    -0.107 A 
ATOM      5  C4  BZF d   1       0.813   0.312   0.382  0.00  0.00     0.055 A 
ATOM      6  C5  BZF d   1       1.084   1.456   1.062  0.00  0.00    -0.016 A 
ATOM      7  C6  BZF d   1       1.630   2.559   0.439  0.00  0.00     0.022 A 
ATOM      8  C7  BZF d   1       1.913   2.551  -0.886  0.00  0.00     0.029 A 
ATOM      9  C7A BZF d   1       1.610   1.407  -1.583  0.00  0.00     0.058 A 
ENDROOT
TORSDOF 0
ENDMDL
