MODEL 1
REMARK minimizedAffinity 5.2549262
REMARK minimizedRMSD -1
REMARK  0 active torsions:
REMARK  status: ('A' for Active; 'I' for Inactive)
ROOT
ATOM      1  O1  BZF d   1       1.437   2.635  -2.223  0.00  0.00    -0.204 OA
ATOM      2  C2  BZF d   1       1.457   3.814  -1.503  0.00  0.00     0.174 A 
ATOM      3  C3  BZF d   1       1.318   3.571  -0.184  0.00  0.00    -0.012 A 
ATOM      4  C3A BZF d   1       1.298   2.146  -0.064  0.00  0.00    -0.107 A 
ATOM      5  C4  BZF d   1       1.198   1.295   1.000  0.00  0.00     0.055 A 
ATOM      6  C5  BZF d   1       1.134  -0.044   0.771  0.00  0.00    -0.016 A 
ATOM      7  C6  BZF d   1       1.163  -0.564  -0.506  0.00  0.00     0.022 A 
ATOM      8  C7  BZF d   1       1.266   0.240  -1.592  0.00  0.00     0.029 A 
ATOM      9  C7A BZF d   1       1.364   1.591  -1.363  0.00  0.00     0.058 A 
ENDROOT
TORSDOF 0
ENDMDL
