MODEL 1
REMARK minimizedAffinity 6.4963274
REMARK minimizedRMSD -1
REMARK  0 active torsions:
REMARK  status: ('A' for Active; 'I' for Inactive)
ROOT
ATOM      1  O1  BZF d   1       1.310   2.494   0.787  0.00  0.00    -0.204 OA
ATOM      2  C2  BZF d   1       1.755   1.931   1.967  0.00  0.00     0.174 A 
ATOM      3  C3  BZF d   1       1.790   0.586   1.872  0.00  0.00    -0.012 A 
ATOM      4  C3A BZF d   1       1.426   0.295   0.520  0.00  0.00    -0.107 A 
ATOM      5  C4  BZF d   1       1.297  -0.866  -0.189  0.00  0.00     0.055 A 
ATOM      6  C5  BZF d   1       0.855  -0.810  -1.472  0.00  0.00    -0.016 A 
ATOM      7  C6  BZF d   1       0.528   0.386  -2.076  0.00  0.00     0.022 A 
ATOM      8  C7  BZF d   1       0.644   1.564  -1.416  0.00  0.00     0.029 A 
ATOM      9  C7A BZF d   1       1.123   1.514  -0.129  0.00  0.00     0.058 A 
ENDROOT
TORSDOF 0
ENDMDL
