MODEL 1
REMARK minimizedAffinity 3.40583444
REMARK minimizedRMSD -1
REMARK  0 active torsions:
REMARK  status: ('A' for Active; 'I' for Inactive)
ROOT
ATOM      1  O1  BZF d   1      -0.025   0.773  -0.061  0.00  0.00    -0.204 OA
ATOM      2  C2  BZF d   1       0.284   0.058  -1.202  0.00  0.00     0.174 A 
ATOM      3  C3  BZF d   1       1.620  -0.056  -1.348  0.00  0.00    -0.012 A 
ATOM      4  C3A BZF d   1       2.179   0.551  -0.179  0.00  0.00    -0.107 A 
ATOM      5  C4  BZF d   1       3.458   0.734   0.263  0.00  0.00     0.055 A 
ATOM      6  C5  BZF d   1       3.666   1.430   1.412  0.00  0.00    -0.016 A 
ATOM      7  C6  BZF d   1       2.621   1.960   2.139  0.00  0.00     0.022 A 
ATOM      8  C7  BZF d   1       1.335   1.800   1.743  0.00  0.00     0.029 A 
ATOM      9  C7A BZF d   1       1.119   1.069   0.601  0.00  0.00     0.058 A 
ENDROOT
TORSDOF 0
ENDMDL
