MODEL 1
REMARK minimizedAffinity 6.77898073
REMARK minimizedRMSD -1
REMARK  0 active torsions:
REMARK  status: ('A' for Active; 'I' for Inactive)
ROOT
ATOM      1  O1  BZF d   1       1.001  -0.031   1.440  0.00  0.00    -0.204 OA
ATOM      2  C2  BZF d   1       1.274   1.155   2.094  0.00  0.00     0.174 A 
ATOM      3  C3  BZF d   1       1.511   2.145   1.210  0.00  0.00    -0.012 A 
ATOM      4  C3A BZF d   1       1.287   1.562  -0.077  0.00  0.00    -0.107 A 
ATOM      5  C4  BZF d   1       1.349   2.049  -1.352  0.00  0.00     0.055 A 
ATOM      6  C5  BZF d   1       1.145   1.200  -2.393  0.00  0.00    -0.016 A 
ATOM      7  C6  BZF d   1       0.883  -0.140  -2.197  0.00  0.00     0.022 A 
ATOM      8  C7  BZF d   1       0.807  -0.668  -0.951  0.00  0.00     0.029 A 
ATOM      9  C7A BZF d   1       0.979   0.194   0.104  0.00  0.00     0.058 A 
ENDROOT
TORSDOF 0
ENDMDL
