MODEL 1
REMARK minimizedAffinity 8.18258572
REMARK minimizedRMSD -1
REMARK  0 active torsions:
REMARK  status: ('A' for Active; 'I' for Inactive)
ROOT
ATOM      1  O1  BZF d   1      -3.826   0.553   2.527  0.00  0.00    -0.204 OA
ATOM      2  C2  BZF d   1      -3.355   0.681   3.819  0.00  0.00     0.174 A 
ATOM      3  C3  BZF d   1      -2.698   1.849   3.975  0.00  0.00    -0.012 A 
ATOM      4  C3A BZF d   1      -2.844   2.532   2.726  0.00  0.00    -0.107 A 
ATOM      5  C4  BZF d   1      -2.424   3.748   2.266  0.00  0.00     0.055 A 
ATOM      6  C5  BZF d   1      -2.669   4.085   0.973  0.00  0.00    -0.016 A 
ATOM      7  C6  BZF d   1      -3.325   3.230   0.111  0.00  0.00     0.022 A 
ATOM      8  C7  BZF d   1      -3.764   2.016   0.523  0.00  0.00     0.029 A 
ATOM      9  C7A BZF d   1      -3.548   1.686   1.838  0.00  0.00     0.058 A 
ENDROOT
TORSDOF 0
ENDMDL
