MODEL 1
REMARK minimizedAffinity 1.53936017
REMARK minimizedRMSD -1
REMARK  0 active torsions:
REMARK  status: ('A' for Active; 'I' for Inactive)
ROOT
ATOM      1  O1  BZF d   1       0.068  -0.412  -0.521  0.00  0.00    -0.204 OA
ATOM      2  C2  BZF d   1       0.805  -1.357  -1.208  0.00  0.00     0.174 A 
ATOM      3  C3  BZF d   1       2.126  -1.163  -1.019  0.00  0.00    -0.012 A 
ATOM      4  C3A BZF d   1       2.218  -0.083  -0.085  0.00  0.00    -0.107 A 
ATOM      5  C4  BZF d   1       3.268   0.560   0.506  0.00  0.00     0.055 A 
ATOM      6  C5  BZF d   1       3.020   1.624   1.315  0.00  0.00    -0.016 A 
ATOM      7  C6  BZF d   1       1.738   2.074   1.549  0.00  0.00     0.022 A 
ATOM      8  C7  BZF d   1       0.664   1.466   0.989  0.00  0.00     0.029 A 
ATOM      9  C7A BZF d   1       0.909   0.370   0.197  0.00  0.00     0.058 A 
ENDROOT
TORSDOF 0
ENDMDL
