MODEL 1
REMARK minimizedAffinity -0.194410503
REMARK minimizedRMSD -1
REMARK  0 active torsions:
REMARK  status: ('A' for Active; 'I' for Inactive)
ROOT
ATOM      1  O1  BZF d   1       2.648   0.396  -1.376  0.00  0.00    -0.204 OA
ATOM      2  C2  BZF d   1       1.533   1.175  -1.618  0.00  0.00     0.174 A 
ATOM      3  C3  BZF d   1       0.403   0.477  -1.385  0.00  0.00    -0.012 A 
ATOM      4  C3A BZF d   1       0.839  -0.790  -0.883  0.00  0.00    -0.107 A 
ATOM      5  C4  BZF d   1       0.181  -1.908  -0.457  0.00  0.00     0.055 A 
ATOM      6  C5  BZF d   1       0.902  -3.002  -0.098  0.00  0.00    -0.016 A 
ATOM      7  C6  BZF d   1       2.281  -3.014  -0.156  0.00  0.00     0.022 A 
ATOM      8  C7  BZF d   1       2.978  -1.927  -0.568  0.00  0.00     0.029 A 
ATOM      9  C7A BZF d   1       2.253  -0.809  -0.900  0.00  0.00     0.058 A 
ENDROOT
TORSDOF 0
ENDMDL
