MODEL 1
REMARK minimizedAffinity 5.58823967
REMARK minimizedRMSD -1
REMARK  0 active torsions:
REMARK  status: ('A' for Active; 'I' for Inactive)
ROOT
ATOM      1  O1  BZF d   1       1.729   0.259   1.517  0.00  0.00    -0.204 OA
ATOM      2  C2  BZF d   1       1.646   1.555   1.990  0.00  0.00     0.174 A 
ATOM      3  C3  BZF d   1       1.343   2.410   0.992  0.00  0.00    -0.012 A 
ATOM      4  C3A BZF d   1       1.140   1.587  -0.161  0.00  0.00    -0.107 A 
ATOM      5  C4  BZF d   1       0.801   1.853  -1.456  0.00  0.00     0.055 A 
ATOM      6  C5  BZF d   1       0.756   0.831  -2.351  0.00  0.00    -0.016 A 
ATOM      7  C6  BZF d   1       1.050  -0.467  -1.985  0.00  0.00     0.022 A 
ATOM      8  C7  BZF d   1       1.387  -0.781  -0.711  0.00  0.00     0.029 A 
ATOM      9  C7A BZF d   1       1.401   0.245   0.203  0.00  0.00     0.058 A 
ENDROOT
TORSDOF 0
ENDMDL
