MODEL 1
REMARK minimizedAffinity 1.52790844
REMARK minimizedRMSD -1
REMARK  0 active torsions:
REMARK  status: ('A' for Active; 'I' for Inactive)
ROOT
ATOM      1  O1  BZF d   1       1.547   0.295   1.983  0.00  0.00    -0.204 OA
ATOM      2  C2  BZF d   1       1.381   1.631   2.296  0.00  0.00     0.174 A 
ATOM      3  C3  BZF d   1       0.917   2.317   1.232  0.00  0.00    -0.012 A 
ATOM      4  C3A BZF d   1       0.697   1.333   0.216  0.00  0.00    -0.107 A 
ATOM      5  C4  BZF d   1       0.226   1.395  -1.064  0.00  0.00     0.055 A 
ATOM      6  C5  BZF d   1       0.204   0.262  -1.815  0.00  0.00    -0.016 A 
ATOM      7  C6  BZF d   1       0.648  -0.946  -1.319  0.00  0.00     0.022 A 
ATOM      8  C7  BZF d   1       1.119  -1.058  -0.053  0.00  0.00     0.029 A 
ATOM      9  C7A BZF d   1       1.112   0.079   0.719  0.00  0.00     0.058 A 
ENDROOT
TORSDOF 0
ENDMDL
