MODEL 1
REMARK minimizedAffinity -1.79620492
REMARK minimizedRMSD -1
REMARK  0 active torsions:
REMARK  status: ('A' for Active; 'I' for Inactive)
ROOT
ATOM      1  O1  BZF d   1       0.310   1.318  -0.145  0.00  0.00    -0.204 OA
ATOM      2  C2  BZF d   1       0.322   0.587  -1.318  0.00  0.00     0.174 A 
ATOM      3  C3  BZF d   1       1.559   0.116  -1.575  0.00  0.00    -0.012 A 
ATOM      4  C3A BZF d   1       2.351   0.503  -0.449  0.00  0.00    -0.107 A 
ATOM      5  C4  BZF d   1       3.661   0.312  -0.112  0.00  0.00     0.055 A 
ATOM      6  C5  BZF d   1       4.140   0.881   1.025  0.00  0.00    -0.016 A 
ATOM      7  C6  BZF d   1       3.341   1.651   1.844  0.00  0.00     0.022 A 
ATOM      8  C7  BZF d   1       2.034   1.865   1.554  0.00  0.00     0.029 A 
ATOM      9  C7A BZF d   1       1.539   1.263   0.423  0.00  0.00     0.058 A 
ENDROOT
TORSDOF 0
ENDMDL
