MODEL 1
REMARK minimizedAffinity 4.27187586
REMARK minimizedRMSD -1
REMARK  0 active torsions:
REMARK  status: ('A' for Active; 'I' for Inactive)
ROOT
ATOM      1  O1  BZF d   1       0.409   2.503   0.628  0.00  0.00    -0.204 OA
ATOM      2  C2  BZF d   1       1.258   2.612   1.712  0.00  0.00     0.174 A 
ATOM      3  C3  BZF d   1       2.012   1.502   1.843  0.00  0.00    -0.012 A 
ATOM      4  C3A BZF d   1       1.674   0.683   0.720  0.00  0.00    -0.107 A 
ATOM      5  C4  BZF d   1       2.101  -0.540   0.287  0.00  0.00     0.055 A 
ATOM      6  C5  BZF d   1       1.518  -1.094  -0.808  0.00  0.00    -0.016 A 
ATOM      7  C6  BZF d   1       0.502  -0.456  -1.490  0.00  0.00     0.022 A 
ATOM      8  C7  BZF d   1       0.048   0.760  -1.102  0.00  0.00     0.029 A 
ATOM      9  C7A BZF d   1       0.659   1.337  -0.015  0.00  0.00     0.058 A 
ENDROOT
TORSDOF 0
ENDMDL
