MODEL 1
REMARK minimizedAffinity 6.92315197
REMARK minimizedRMSD -1
REMARK  0 active torsions:
REMARK  status: ('A' for Active; 'I' for Inactive)
ROOT
ATOM      1  O1  BZF d   1       1.011   2.245  -2.167  0.00  0.00    -0.204 OA
ATOM      2  C2  BZF d   1       1.014   1.273  -3.148  0.00  0.00     0.174 A 
ATOM      3  C3  BZF d   1       1.116   0.043  -2.604  0.00  0.00    -0.012 A 
ATOM      4  C3A BZF d   1       1.088   0.255  -1.189  0.00  0.00    -0.107 A 
ATOM      5  C4  BZF d   1       1.137  -0.585  -0.113  0.00  0.00     0.055 A 
ATOM      6  C5  BZF d   1       1.163  -0.054   1.138  0.00  0.00    -0.016 A 
ATOM      7  C6  BZF d   1       1.145   1.309   1.349  0.00  0.00     0.022 A 
ATOM      8  C7  BZF d   1       1.090   2.181   0.313  0.00  0.00     0.029 A 
ATOM      9  C7A BZF d   1       1.031   1.647  -0.951  0.00  0.00     0.058 A 
ENDROOT
TORSDOF 0
ENDMDL
