MODEL 1
REMARK minimizedAffinity 3.55138874
REMARK minimizedRMSD -1
REMARK  0 active torsions:
REMARK  status: ('A' for Active; 'I' for Inactive)
ROOT
ATOM      1  O1  BZF d   1       1.252  -2.270   0.381  0.00  0.00    -0.204 OA
ATOM      2  C2  BZF d   1       0.576  -2.737  -0.730  0.00  0.00     0.174 A 
ATOM      3  C3  BZF d   1      -0.020  -1.723  -1.389  0.00  0.00    -0.012 A 
ATOM      4  C3A BZF d   1       0.381  -0.537  -0.695  0.00  0.00    -0.107 A 
ATOM      5  C4  BZF d   1       0.125   0.791  -0.882  0.00  0.00     0.055 A 
ATOM      6  C5  BZF d   1       0.608   1.690   0.016  0.00  0.00    -0.016 A 
ATOM      7  C6  BZF d   1       1.344   1.295   1.113  0.00  0.00     0.022 A 
ATOM      8  C7  BZF d   1       1.628  -0.011   1.338  0.00  0.00     0.029 A 
ATOM      9  C7A BZF d   1       1.169  -0.919   0.415  0.00  0.00     0.058 A 
ENDROOT
TORSDOF 0
ENDMDL
