MODEL 1
REMARK minimizedAffinity 0.846092522
REMARK minimizedRMSD -1
REMARK  0 active torsions:
REMARK  status: ('A' for Active; 'I' for Inactive)
ROOT
ATOM      1  C   UNL d   1       0.513  -1.124   1.121  0.00  0.00     0.077 C 
ATOM      2  C1  UNL d   1       1.123  -1.822   2.300  0.00  0.00    -0.074 A 
ATOM      3  C2  UNL d   1       1.322  -1.148   3.510  0.00  0.00    -0.005 A 
ATOM      4  C3  UNL d   1       1.882  -1.813   4.601  0.00  0.00     0.006 A 
ATOM      5  C4  UNL d   1       2.248  -3.155   4.493  0.00  0.00    -0.005 A 
ATOM      6  C5  UNL d   1       2.057  -3.845   3.292  0.00  0.00    -0.074 A 
ATOM      7  C6  UNL d   1       2.436  -5.290   3.163  0.00  0.00     0.077 C 
ATOM      8  C7  UNL d   1       1.487  -3.172   2.203  0.00  0.00    -0.001 A 
ENDROOT
TORSDOF 0
ENDMDL
