MODEL 1
REMARK minimizedAffinity 4.77925777
REMARK minimizedRMSD -1
REMARK  0 active torsions:
REMARK  status: ('A' for Active; 'I' for Inactive)
ROOT
ATOM      1  C   UNL d   1       1.889  -1.902  -3.098  0.00  0.00     0.077 C 
ATOM      2  C1  UNL d   1       1.594  -2.706  -1.867  0.00  0.00    -0.074 A 
ATOM      3  C2  UNL d   1       1.105  -4.013  -1.962  0.00  0.00    -0.005 A 
ATOM      4  C3  UNL d   1       0.844  -4.752  -0.808  0.00  0.00     0.006 A 
ATOM      5  C4  UNL d   1       1.068  -4.192   0.450  0.00  0.00    -0.005 A 
ATOM      6  C5  UNL d   1       1.557  -2.887   0.565  0.00  0.00    -0.074 A 
ATOM      7  C6  UNL d   1       1.813  -2.274   1.910  0.00  0.00     0.077 C 
ATOM      8  C7  UNL d   1       1.824  -2.153  -0.599  0.00  0.00    -0.001 A 
ENDROOT
TORSDOF 0
ENDMDL
