MODEL 1
REMARK minimizedAffinity -2.60455394
REMARK minimizedRMSD -1
REMARK  0 active torsions:
REMARK  status: ('A' for Active; 'I' for Inactive)
ROOT
ATOM      1  C   UNL d   1       1.526  -5.988   1.689  0.00  0.00     0.077 C 
ATOM      2  C1  UNL d   1       1.166  -4.609   2.156  0.00  0.00    -0.074 A 
ATOM      3  C2  UNL d   1       0.376  -4.419   3.295  0.00  0.00    -0.005 A 
ATOM      4  C3  UNL d   1       0.058  -3.130   3.723  0.00  0.00     0.006 A 
ATOM      5  C4  UNL d   1       0.525  -2.020   3.019  0.00  0.00    -0.005 A 
ATOM      6  C5  UNL d   1       1.318  -2.190   1.879  0.00  0.00    -0.074 A 
ATOM      7  C6  UNL d   1       1.837  -1.008   1.116  0.00  0.00     0.077 C 
ATOM      8  C7  UNL d   1       1.639  -3.488   1.459  0.00  0.00    -0.001 A 
ENDROOT
TORSDOF 0
ENDMDL
