MODEL 1
REMARK minimizedAffinity 1.92986274
REMARK minimizedRMSD -1
REMARK  0 active torsions:
REMARK  status: ('A' for Active; 'I' for Inactive)
ROOT
ATOM      1  C   UNL d   1      -4.579  -3.506  -1.866  0.00  0.00     0.077 C 
ATOM      2  C1  UNL d   1      -5.080  -3.486  -3.279  0.00  0.00    -0.074 A 
ATOM      3  C2  UNL d   1      -5.332  -2.277  -3.936  0.00  0.00    -0.005 A 
ATOM      4  C3  UNL d   1      -5.790  -2.275  -5.253  0.00  0.00     0.006 A 
ATOM      5  C4  UNL d   1      -5.999  -3.479  -5.927  0.00  0.00    -0.005 A 
ATOM      6  C5  UNL d   1      -5.752  -4.697  -5.287  0.00  0.00    -0.074 A 
ATOM      7  C6  UNL d   1      -5.962  -6.000  -6.000  0.00  0.00     0.077 C 
ATOM      8  C7  UNL d   1      -5.286  -4.692  -3.965  0.00  0.00    -0.001 A 
ENDROOT
TORSDOF 0
ENDMDL
