MODEL 1
REMARK minimizedAffinity -1.73928595
REMARK minimizedRMSD -1
REMARK  0 active torsions:
REMARK  status: ('A' for Active; 'I' for Inactive)
ROOT
ATOM      1  C   UNL d   1       0.757  -0.900   1.862  0.00  0.00     0.077 C 
ATOM      2  C1  UNL d   1       1.634  -1.708   2.771  0.00  0.00    -0.074 A 
ATOM      3  C2  UNL d   1       2.999  -1.860   2.504  0.00  0.00    -0.005 A 
ATOM      4  C3  UNL d   1       3.804  -2.607   3.364  0.00  0.00     0.006 A 
ATOM      5  C4  UNL d   1       3.255  -3.207   4.497  0.00  0.00    -0.005 A 
ATOM      6  C5  UNL d   1       1.893  -3.065   4.781  0.00  0.00    -0.074 A 
ATOM      7  C6  UNL d   1       1.288  -3.696   6.000  0.00  0.00     0.077 C 
ATOM      8  C7  UNL d   1       1.091  -2.308   3.916  0.00  0.00    -0.001 A 
ENDROOT
TORSDOF 0
ENDMDL
