MODEL 1
REMARK minimizedAffinity 5.99744844
REMARK minimizedRMSD -1
REMARK  0 active torsions:
REMARK  status: ('A' for Active; 'I' for Inactive)
ROOT
ATOM      1  C   UNL d   1       2.272   1.023   2.243  0.00  0.00     0.077 C 
ATOM      2  C1  UNL d   1       1.791  -0.325   2.689  0.00  0.00    -0.074 A 
ATOM      3  C2  UNL d   1       1.344  -0.532   3.998  0.00  0.00    -0.005 A 
ATOM      4  C3  UNL d   1       0.890  -1.790   4.396  0.00  0.00     0.006 A 
ATOM      5  C4  UNL d   1       0.880  -2.852   3.490  0.00  0.00    -0.005 A 
ATOM      6  C5  UNL d   1       1.323  -2.663   2.177  0.00  0.00    -0.074 A 
ATOM      7  C6  UNL d   1       1.309  -3.791   1.189  0.00  0.00     0.077 C 
ATOM      8  C7  UNL d   1       1.770  -1.395   1.783  0.00  0.00    -0.001 A 
ENDROOT
TORSDOF 0
ENDMDL
