MODEL 1
REMARK minimizedAffinity 12.4391375
REMARK minimizedRMSD -1
REMARK  0 active torsions:
REMARK  status: ('A' for Active; 'I' for Inactive)
ROOT
ATOM      1  C   UNL d   1      -3.401  -1.105  -3.948  0.00  0.00     0.077 C 
ATOM      2  C1  UNL d   1      -4.133  -2.204  -4.659  0.00  0.00    -0.074 A 
ATOM      3  C2  UNL d   1      -5.334  -1.950  -5.329  0.00  0.00    -0.005 A 
ATOM      4  C3  UNL d   1      -5.999  -2.981  -5.994  0.00  0.00     0.006 A 
ATOM      5  C4  UNL d   1      -5.471  -4.272  -5.995  0.00  0.00    -0.005 A 
ATOM      6  C5  UNL d   1      -4.271  -4.544  -5.331  0.00  0.00    -0.074 A 
ATOM      7  C6  UNL d   1      -3.684  -5.925  -5.330  0.00  0.00     0.077 C 
ATOM      8  C7  UNL d   1      -3.605  -3.502  -4.671  0.00  0.00    -0.001 A 
ENDROOT
TORSDOF 0
ENDMDL
