MODEL 1
REMARK minimizedAffinity 8.6844511
REMARK minimizedRMSD -1
REMARK  0 active torsions:
REMARK  status: ('A' for Active; 'I' for Inactive)
ROOT
ATOM      1  C   UNL d   1       1.195  -3.020   6.000  0.00  0.00     0.077 C 
ATOM      2  C1  UNL d   1       1.707  -2.969   4.591  0.00  0.00    -0.074 A 
ATOM      3  C2  UNL d   1       0.948  -2.384   3.572  0.00  0.00    -0.005 A 
ATOM      4  C3  UNL d   1       1.441  -2.335   2.268  0.00  0.00     0.006 A 
ATOM      5  C4  UNL d   1       2.695  -2.870   1.970  0.00  0.00    -0.005 A 
ATOM      6  C5  UNL d   1       3.468  -3.458   2.977  0.00  0.00    -0.074 A 
ATOM      7  C6  UNL d   1       4.822  -4.029   2.676  0.00  0.00     0.077 C 
ATOM      8  C7  UNL d   1       2.969  -3.497   4.286  0.00  0.00    -0.001 A 
ENDROOT
TORSDOF 0
ENDMDL
