MODEL 1
REMARK minimizedAffinity 15.7113714
REMARK minimizedRMSD -1
REMARK  0 active torsions:
REMARK  status: ('A' for Active; 'I' for Inactive)
ROOT
ATOM      1  N1  IND d   1       0.695  -0.102   2.833  0.00  0.00    -0.196 N 
ATOM      2  C2  IND d   1       0.676  -0.599   1.560  0.00  0.00     0.054 A 
ATOM      3  C3  IND d   1      -0.154  -1.663   1.483  0.00  0.00    -0.031 A 
ATOM      4  C4  IND d   1      -1.657  -2.699   3.297  0.00  0.00     0.051 A 
ATOM      5  C5  IND d   1      -1.955  -2.613   4.628  0.00  0.00    -0.031 A 
ATOM      6  C6  IND d   1      -1.375  -1.664   5.445  0.00  0.00     0.015 A 
ATOM      7  C7  IND d   1      -0.480  -0.755   4.956  0.00  0.00    -0.016 A 
ATOM      8  C8  IND d   1      -0.170  -0.844   3.607  0.00  0.00    -0.047 A 
ATOM      9  C9  IND d   1      -0.723  -1.832   2.782  0.00  0.00    -0.096 A 
ATOM     10  HN1 IND d   1       1.168   0.563   3.105  0.00  0.00     0.298 HD
ENDROOT
TORSDOF 0
ENDMDL
