MODEL 1
REMARK minimizedAffinity 11.7735596
REMARK minimizedRMSD -1
REMARK  0 active torsions:
REMARK  status: ('A' for Active; 'I' for Inactive)
ROOT
ATOM      1  N1  IND d   1      -0.015   0.016   4.625  0.00  0.00    -0.196 N 
ATOM      2  C2  IND d   1       0.497  -0.403   3.429  0.00  0.00     0.054 A 
ATOM      3  C3  IND d   1      -0.245  -1.417   2.929  0.00  0.00    -0.031 A 
ATOM      4  C4  IND d   1      -2.399  -2.479   3.857  0.00  0.00     0.051 A 
ATOM      5  C5  IND d   1      -3.230  -2.456   4.941  0.00  0.00    -0.031 A 
ATOM      6  C6  IND d   1      -3.031  -1.589   5.996  0.00  0.00     0.015 A 
ATOM      7  C7  IND d   1      -1.993  -0.700   6.000  0.00  0.00    -0.016 A 
ATOM      8  C8  IND d   1      -1.142  -0.725   4.904  0.00  0.00    -0.047 A 
ATOM      9  C9  IND d   1      -1.316  -1.632   3.851  0.00  0.00    -0.096 A 
ATOM     10  HN1 IND d   1       0.312   0.638   5.121  0.00  0.00     0.298 HD
ENDROOT
TORSDOF 0
ENDMDL
