MODEL 1
REMARK minimizedAffinity 8.19616127
REMARK minimizedRMSD -1
REMARK  0 active torsions:
REMARK  status: ('A' for Active; 'I' for Inactive)
ROOT
ATOM      1  N1  IND d   1      -4.832  -5.927  -0.602  0.00  0.00    -0.196 N 
ATOM      2  C2  IND d   1      -6.000  -6.000   0.105  0.00  0.00     0.054 A 
ATOM      3  C3  IND d   1      -5.991  -5.107   1.120  0.00  0.00    -0.031 A 
ATOM      4  C4  IND d   1      -4.209  -3.358   1.745  0.00  0.00     0.051 A 
ATOM      5  C5  IND d   1      -2.952  -2.935   1.414  0.00  0.00    -0.031 A 
ATOM      6  C6  IND d   1      -2.244  -3.497   0.372  0.00  0.00     0.015 A 
ATOM      7  C7  IND d   1      -2.774  -4.500  -0.390  0.00  0.00    -0.016 A 
ATOM      8  C8  IND d   1      -4.047  -4.937  -0.052  0.00  0.00    -0.047 A 
ATOM      9  C9  IND d   1      -4.753  -4.399   1.032  0.00  0.00    -0.096 A 
ATOM     10  HN1 IND d   1      -4.623  -6.417  -1.277  0.00  0.00     0.298 HD
ENDROOT
TORSDOF 0
ENDMDL
