MODEL 1
REMARK minimizedAffinity 8.11293983
REMARK minimizedRMSD -1
REMARK  0 active torsions:
REMARK  status: ('A' for Active; 'I' for Inactive)
ROOT
ATOM      1  N1  IND d   1      -4.504  -3.906  -0.107  0.00  0.00    -0.196 N 
ATOM      2  C2  IND d   1      -4.188  -5.041  -0.800  0.00  0.00     0.054 A 
ATOM      3  C3  IND d   1      -3.742  -5.999   0.044  0.00  0.00    -0.031 A 
ATOM      4  C4  IND d   1      -3.545  -5.953   2.611  0.00  0.00     0.051 A 
ATOM      5  C5  IND d   1      -3.681  -5.122   3.687  0.00  0.00    -0.031 A 
ATOM      6  C6  IND d   1      -4.110  -3.818   3.551  0.00  0.00     0.015 A 
ATOM      7  C7  IND d   1      -4.431  -3.297   2.329  0.00  0.00    -0.016 A 
ATOM      8  C8  IND d   1      -4.287  -4.136   1.233  0.00  0.00    -0.047 A 
ATOM      9  C9  IND d   1      -3.811  -5.447   1.360  0.00  0.00    -0.096 A 
ATOM     10  HN1 IND d   1      -4.790  -3.172  -0.451  0.00  0.00     0.298 HD
ENDROOT
TORSDOF 0
ENDMDL
