MODEL 1
REMARK minimizedAffinity 14.0444698
REMARK minimizedRMSD -1
REMARK  0 active torsions:
REMARK  status: ('A' for Active; 'I' for Inactive)
ROOT
ATOM      1  N1  IND d   1      -4.802   1.739  -2.998  0.00  0.00    -0.196 N 
ATOM      2  C2  IND d   1      -6.000   1.658  -3.652  0.00  0.00     0.054 A 
ATOM      3  C3  IND d   1      -5.920   2.268  -4.856  0.00  0.00    -0.031 A 
ATOM      4  C4  IND d   1      -3.896   3.374  -5.999  0.00  0.00     0.051 A 
ATOM      5  C5  IND d   1      -2.594   3.724  -5.779  0.00  0.00    -0.031 A 
ATOM      6  C6  IND d   1      -1.947   3.423  -4.598  0.00  0.00     0.015 A 
ATOM      7  C7  IND d   1      -2.578   2.746  -3.593  0.00  0.00    -0.016 A 
ATOM      8  C8  IND d   1      -3.903   2.394  -3.810  0.00  0.00    -0.047 A 
ATOM      9  C9  IND d   1      -4.577   2.735  -4.990  0.00  0.00    -0.096 A 
ATOM     10  HN1 IND d   1      -4.638   1.432  -2.212  0.00  0.00     0.298 HD
ENDROOT
TORSDOF 0
ENDMDL
