MODEL 1
REMARK minimizedAffinity 8.39326572
REMARK minimizedRMSD -1
REMARK  0 active torsions:
REMARK  status: ('A' for Active; 'I' for Inactive)
ROOT
ATOM      1  N1  IND d   1       1.509  -0.686   2.229  0.00  0.00    -0.196 N 
ATOM      2  C2  IND d   1       1.558  -1.261   0.989  0.00  0.00     0.054 A 
ATOM      3  C3  IND d   1       0.438  -1.981   0.760  0.00  0.00    -0.031 A 
ATOM      4  C4  IND d   1      -1.650  -2.272   2.238  0.00  0.00     0.051 A 
ATOM      5  C5  IND d   1      -2.145  -1.967   3.475  0.00  0.00    -0.031 A 
ATOM      6  C6  IND d   1      -1.434  -1.203   4.377  0.00  0.00     0.015 A 
ATOM      7  C7  IND d   1      -0.201  -0.702   4.070  0.00  0.00    -0.016 A 
ATOM      8  C8  IND d   1       0.308  -1.015   2.817  0.00  0.00    -0.047 A 
ATOM      9  C9  IND d   1      -0.391  -1.826   1.914  0.00  0.00    -0.096 A 
ATOM     10  HN1 IND d   1       2.125  -0.200   2.581  0.00  0.00     0.298 HD
ENDROOT
TORSDOF 0
ENDMDL
