MODEL 1
REMARK minimizedAffinity 19.6972542
REMARK minimizedRMSD -1
REMARK  0 active torsions:
REMARK  status: ('A' for Active; 'I' for Inactive)
ROOT
ATOM      1  N1  IND d   1       1.136  -0.761   2.522  0.00  0.00    -0.196 N 
ATOM      2  C2  IND d   1       0.352  -1.133   1.466  0.00  0.00     0.054 A 
ATOM      3  C3  IND d   1      -0.927  -1.303   1.867  0.00  0.00    -0.031 A 
ATOM      4  C4  IND d   1      -1.978  -0.929   4.187  0.00  0.00     0.051 A 
ATOM      5  C5  IND d   1      -1.654  -0.623   5.480  0.00  0.00    -0.031 A 
ATOM      6  C6  IND d   1      -0.359  -0.340   5.859  0.00  0.00     0.015 A 
ATOM      7  C7  IND d   1       0.665  -0.340   4.954  0.00  0.00    -0.016 A 
ATOM      8  C8  IND d   1       0.342  -0.657   3.643  0.00  0.00    -0.047 A 
ATOM      9  C9  IND d   1      -0.965  -0.987   3.260  0.00  0.00    -0.096 A 
ATOM     10  HN1 IND d   1       1.984  -0.618   2.492  0.00  0.00     0.298 HD
ENDROOT
TORSDOF 0
ENDMDL
