MODEL 1
REMARK minimizedAffinity 18.6450081
REMARK minimizedRMSD -1
REMARK  0 active torsions:
REMARK  status: ('A' for Active; 'I' for Inactive)
ROOT
ATOM      1  N1  IND d   1       2.443   0.671   2.597  0.00  0.00    -0.196 N 
ATOM      2  C2  IND d   1       3.728   0.318   2.291  0.00  0.00     0.054 A 
ATOM      3  C3  IND d   1       3.751  -0.887   1.678  0.00  0.00    -0.031 A 
ATOM      4  C4  IND d   1       1.792  -2.406   0.983  0.00  0.00     0.051 A 
ATOM      5  C5  IND d   1       0.434  -2.526   1.081  0.00  0.00    -0.031 A 
ATOM      6  C6  IND d   1      -0.340  -1.565   1.699  0.00  0.00     0.015 A 
ATOM      7  C7  IND d   1       0.217  -0.438   2.235  0.00  0.00    -0.016 A 
ATOM      8  C8  IND d   1       1.597  -0.317   2.144  0.00  0.00    -0.047 A 
ATOM      9  C9  IND d   1       2.391  -1.309   1.555  0.00  0.00    -0.096 A 
ATOM     10  HN1 IND d   1       2.204   1.390   3.004  0.00  0.00     0.298 HD
ENDROOT
TORSDOF 0
ENDMDL
