MODEL 1
REMARK minimizedAffinity 8.95156288
REMARK minimizedRMSD -1
REMARK  0 active torsions:
REMARK  status: ('A' for Active; 'I' for Inactive)
ROOT
ATOM      1  N1  IND d   1       1.859  -2.357   0.753  0.00  0.00    -0.196 N 
ATOM      2  C2  IND d   1       0.666  -2.992   0.957  0.00  0.00     0.054 A 
ATOM      3  C3  IND d   1       0.170  -2.682   2.175  0.00  0.00    -0.031 A 
ATOM      4  C4  IND d   1       1.097  -1.072   3.958  0.00  0.00     0.051 A 
ATOM      5  C5  IND d   1       2.179  -0.287   4.241  0.00  0.00    -0.031 A 
ATOM      6  C6  IND d   1       3.229  -0.146   3.358  0.00  0.00     0.015 A 
ATOM      7  C7  IND d   1       3.232  -0.779   2.147  0.00  0.00    -0.016 A 
ATOM      8  C8  IND d   1       2.138  -1.584   1.859  0.00  0.00    -0.047 A 
ATOM      9  C9  IND d   1       1.089  -1.764   2.769  0.00  0.00    -0.096 A 
ATOM     10  HN1 IND d   1       2.353  -2.428   0.053  0.00  0.00     0.298 HD
ENDROOT
TORSDOF 0
ENDMDL
