MODEL 1
REMARK minimizedAffinity 13.3830748
REMARK minimizedRMSD -1
REMARK  0 active torsions:
REMARK  status: ('A' for Active; 'I' for Inactive)
ROOT
ATOM      1  N1  IND d   1       0.521  -0.244   0.762  0.00  0.00    -0.196 N 
ATOM      2  C2  IND d   1       0.319  -1.533   1.168  0.00  0.00     0.054 A 
ATOM      3  C3  IND d   1       1.465  -2.057   1.658  0.00  0.00    -0.031 A 
ATOM      4  C4  IND d   1       3.764  -0.944   1.983  0.00  0.00     0.051 A 
ATOM      5  C5  IND d   1       4.447   0.212   1.727  0.00  0.00    -0.031 A 
ATOM      6  C6  IND d   1       3.843   1.298   1.128  0.00  0.00     0.015 A 
ATOM      7  C7  IND d   1       2.524   1.273   0.769  0.00  0.00    -0.016 A 
ATOM      8  C8  IND d   1       1.830   0.098   1.021  0.00  0.00    -0.047 A 
ATOM      9  C9  IND d   1       2.449  -1.023   1.590  0.00  0.00    -0.096 A 
ATOM     10  HN1 IND d   1      -0.071   0.268   0.405  0.00  0.00     0.298 HD
ENDROOT
TORSDOF 0
ENDMDL
