MODEL 1
REMARK minimizedAffinity 0.69406563
REMARK minimizedRMSD -1
REMARK  0 active torsions:
REMARK  status: ('A' for Active; 'I' for Inactive)
ROOT
ATOM      1  N1  IND d   1      -5.608  -5.982   4.397  0.00  0.00    -0.196 N 
ATOM      2  C2  IND d   1      -5.998  -4.987   5.249  0.00  0.00     0.054 A 
ATOM      3  C3  IND d   1      -5.562  -3.788   4.802  0.00  0.00    -0.031 A 
ATOM      4  C4  IND d   1      -4.280  -3.214   2.645  0.00  0.00     0.051 A 
ATOM      5  C5  IND d   1      -3.670  -3.793   1.568  0.00  0.00    -0.031 A 
ATOM      6  C6  IND d   1      -3.677  -5.159   1.373  0.00  0.00     0.015 A 
ATOM      7  C7  IND d   1      -4.307  -6.000   2.247  0.00  0.00    -0.016 A 
ATOM      8  C8  IND d   1      -4.922  -5.415   3.345  0.00  0.00    -0.047 A 
ATOM      9  C9  IND d   1      -4.881  -4.033   3.570  0.00  0.00    -0.096 A 
ATOM     10  HN1 IND d   1      -5.765  -6.821   4.500  0.00  0.00     0.298 HD
ENDROOT
TORSDOF 0
ENDMDL
