MODEL 1
REMARK minimizedAffinity -0.637385249
REMARK minimizedRMSD -1
REMARK  0 active torsions:
REMARK  status: ('A' for Active; 'I' for Inactive)
ROOT
ATOM      1  N1  IND d   1      -4.464  -3.764   2.394  0.00  0.00    -0.196 N 
ATOM      2  C2  IND d   1      -5.088  -4.582   1.494  0.00  0.00     0.054 A 
ATOM      3  C3  IND d   1      -5.738  -5.578   2.136  0.00  0.00    -0.031 A 
ATOM      4  C4  IND d   1      -5.999  -5.999   4.663  0.00  0.00     0.051 A 
ATOM      5  C5  IND d   1      -5.579  -5.541   5.880  0.00  0.00    -0.031 A 
ATOM      6  C6  IND d   1      -4.752  -4.443   6.000  0.00  0.00     0.015 A 
ATOM      7  C7  IND d   1      -4.321  -3.752   4.903  0.00  0.00    -0.016 A 
ATOM      8  C8  IND d   1      -4.739  -4.219   3.665  0.00  0.00    -0.047 A 
ATOM      9  C9  IND d   1      -5.544  -5.358   3.535  0.00  0.00    -0.096 A 
ATOM     10  HN1 IND d   1      -3.982  -3.079   2.199  0.00  0.00     0.298 HD
ENDROOT
TORSDOF 0
ENDMDL
