MODEL 1
REMARK minimizedAffinity 17.3342686
REMARK minimizedRMSD -1
REMARK  0 active torsions:
REMARK  status: ('A' for Active; 'I' for Inactive)
ROOT
ATOM      1  N1  IND d   1      -1.553   2.013  -2.384  0.00  0.00    -0.196 N 
ATOM      2  C2  IND d   1      -2.054   3.000  -3.186  0.00  0.00     0.054 A 
ATOM      3  C3  IND d   1      -1.392   4.160  -2.975  0.00  0.00    -0.031 A 
ATOM      4  C4  IND d   1       0.613   4.641  -1.433  0.00  0.00     0.051 A 
ATOM      5  C5  IND d   1       1.400   4.062  -0.477  0.00  0.00    -0.031 A 
ATOM      6  C6  IND d   1       1.241   2.744  -0.102  0.00  0.00     0.015 A 
ATOM      7  C7  IND d   1       0.293   1.948  -0.680  0.00  0.00    -0.016 A 
ATOM      8  C8  IND d   1      -0.513   2.534  -1.646  0.00  0.00    -0.047 A 
ATOM      9  C9  IND d   1      -0.384   3.883  -2.001  0.00  0.00    -0.096 A 
ATOM     10  HN1 IND d   1      -1.839   1.203  -2.346  0.00  0.00     0.298 HD
ENDROOT
TORSDOF 0
ENDMDL
