MODEL 1
REMARK minimizedAffinity 11.0622759
REMARK minimizedRMSD -1
REMARK  0 active torsions:
REMARK  status: ('A' for Active; 'I' for Inactive)
ROOT
ATOM      1  N1  IND d   1       3.140  -2.706  -4.739  0.00  0.00    -0.196 N 
ATOM      2  C2  IND d   1       3.881  -3.196  -5.778  0.00  0.00     0.054 A 
ATOM      3  C3  IND d   1       3.579  -4.495  -6.000  0.00  0.00    -0.031 A 
ATOM      4  C4  IND d   1       1.827  -5.986  -4.845  0.00  0.00     0.051 A 
ATOM      5  C5  IND d   1       0.931  -5.994  -3.813  0.00  0.00    -0.031 A 
ATOM      6  C6  IND d   1       0.719  -4.883  -3.023  0.00  0.00     0.015 A 
ATOM      7  C7  IND d   1       1.391  -3.714  -3.243  0.00  0.00    -0.016 A 
ATOM      8  C8  IND d   1       2.306  -3.704  -4.286  0.00  0.00    -0.047 A 
ATOM      9  C9  IND d   1       2.556  -4.842  -5.064  0.00  0.00    -0.096 A 
ATOM     10  HN1 IND d   1       3.187  -1.908  -4.422  0.00  0.00     0.298 HD
ENDROOT
TORSDOF 0
ENDMDL
