MODEL 1
REMARK minimizedAffinity 23.1719189
REMARK minimizedRMSD -1
REMARK  0 active torsions:
REMARK  status: ('A' for Active; 'I' for Inactive)
ROOT
ATOM      1  N1  IND d   1      -2.826   2.104  -2.459  0.00  0.00    -0.196 N 
ATOM      2  C2  IND d   1      -1.681   2.603  -3.015  0.00  0.00     0.054 A 
ATOM      3  C3  IND d   1      -1.656   3.950  -2.910  0.00  0.00    -0.031 A 
ATOM      4  C4  IND d   1      -3.337   5.534  -1.773  0.00  0.00     0.051 A 
ATOM      5  C5  IND d   1      -4.557   5.548  -1.158  0.00  0.00    -0.031 A 
ATOM      6  C6  IND d   1      -5.276   4.391  -0.937  0.00  0.00     0.015 A 
ATOM      7  C7  IND d   1      -4.794   3.170  -1.316  0.00  0.00    -0.016 A 
ATOM      8  C8  IND d   1      -3.559   3.153  -1.948  0.00  0.00    -0.047 A 
ATOM      9  C9  IND d   1      -2.844   4.328  -2.212  0.00  0.00    -0.096 A 
ATOM     10  HN1 IND d   1      -3.051   1.274  -2.433  0.00  0.00     0.298 HD
ENDROOT
TORSDOF 0
ENDMDL
