MODEL 1
REMARK minimizedAffinity 5.29675007
REMARK minimizedRMSD -1
REMARK  1 active torsions:
REMARK  status: ('A' for Active; 'I' for Inactive)
REMARK    1  A    between atoms: C1_2  and  C2_3 
ROOT
ATOM      1  C2  UNL d   1       3.912   0.209  -0.684  0.00  0.00    -0.073 A 
ATOM      2  C3  UNL d   1       4.653   0.228  -1.871  0.00  0.00    -0.002 A 
ATOM      3  C4  UNL d   1       4.742  -0.916  -2.665  0.00  0.00     0.004 A 
ATOM      4  C5  UNL d   1       4.087  -2.087  -2.285  0.00  0.00    -0.004 A 
ATOM      5  C6  UNL d   1       3.332  -2.123  -1.109  0.00  0.00    -0.075 A 
ATOM      6  C7  UNL d   1       2.623  -3.376  -0.684  0.00  0.00     0.076 C 
ATOM      7  C8  UNL d   1       3.249  -0.971  -0.315  0.00  0.00     0.001 A 
ENDROOT
BRANCH   1   8
ATOM      8  C1  UNL d   1       3.807   1.444   0.173  0.00  0.00     0.053 C 
ATOM      9  C   UNL d   1       4.988   2.379  -0.028  0.00  0.00     0.018 C 
ENDBRANCH   1   8
TORSDOF 1
ENDMDL
