MODEL 1
REMARK minimizedAffinity 16.7042885
REMARK minimizedRMSD -1
REMARK  1 active torsions:
REMARK  status: ('A' for Active; 'I' for Inactive)
REMARK    1  A    between atoms: C1_2  and  C2_3 
ROOT
ATOM      1  C2  UNL d   1      -5.360   2.903  -3.863  0.00  0.00    -0.073 A 
ATOM      2  C3  UNL d   1      -5.193   2.010  -4.928  0.00  0.00    -0.002 A 
ATOM      3  C4  UNL d   1      -5.270   0.634  -4.713  0.00  0.00     0.004 A 
ATOM      4  C5  UNL d   1      -5.521   0.136  -3.434  0.00  0.00    -0.004 A 
ATOM      5  C6  UNL d   1      -5.703   1.012  -2.359  0.00  0.00    -0.075 A 
ATOM      6  C7  UNL d   1      -5.972   0.492  -0.977  0.00  0.00     0.076 C 
ATOM      7  C8  UNL d   1      -5.622   2.393  -2.583  0.00  0.00     0.001 A 
ENDROOT
BRANCH   1   8
ATOM      8  C1  UNL d   1      -5.284   4.390  -4.091  0.00  0.00     0.053 C 
ATOM      9  C   UNL d   1      -3.851   4.897  -4.071  0.00  0.00     0.018 C 
ENDBRANCH   1   8
TORSDOF 1
ENDMDL
