MODEL 1
REMARK minimizedAffinity 0.379020125
REMARK minimizedRMSD -1
REMARK  1 active torsions:
REMARK  status: ('A' for Active; 'I' for Inactive)
REMARK    1  A    between atoms: C1_2  and  C2_3 
ROOT
ATOM      1  C2  UNL d   1       5.202  -0.392  -1.936  0.00  0.00    -0.073 A 
ATOM      2  C3  UNL d   1       5.599  -0.965  -3.150  0.00  0.00    -0.002 A 
ATOM      3  C4  UNL d   1       5.008  -2.146  -3.599  0.00  0.00     0.004 A 
ATOM      4  C5  UNL d   1       4.011  -2.763  -2.845  0.00  0.00    -0.004 A 
ATOM      5  C6  UNL d   1       3.592  -2.201  -1.635  0.00  0.00    -0.075 A 
ATOM      6  C7  UNL d   1       2.521  -2.853  -0.810  0.00  0.00     0.076 C 
ATOM      7  C8  UNL d   1       4.192  -1.015  -1.189  0.00  0.00     0.001 A 
ENDROOT
BRANCH   1   8
ATOM      8  C1  UNL d   1       5.832   0.887  -1.450  0.00  0.00     0.053 C 
ATOM      9  C   UNL d   1       4.791   1.915  -1.037  0.00  0.00     0.018 C 
ENDBRANCH   1   8
TORSDOF 1
ENDMDL
