MODEL 1
REMARK minimizedAffinity 0.197339714
REMARK minimizedRMSD -1
REMARK  1 active torsions:
REMARK  status: ('A' for Active; 'I' for Inactive)
REMARK    1  A    between atoms: C1_2  and  C2_3 
ROOT
ATOM      1  C2  UNL d   1       5.799   4.815   3.161  0.00  0.00    -0.073 A 
ATOM      2  C3  UNL d   1       5.978   6.000   2.439  0.00  0.00    -0.002 A 
ATOM      3  C4  UNL d   1       5.876   6.000   1.048  0.00  0.00     0.004 A 
ATOM      4  C5  UNL d   1       5.587   4.818   0.365  0.00  0.00    -0.004 A 
ATOM      5  C6  UNL d   1       5.392   3.626   1.070  0.00  0.00    -0.075 A 
ATOM      6  C7  UNL d   1       5.083   2.346   0.350  0.00  0.00     0.076 C 
ATOM      7  C8  UNL d   1       5.499   3.634   2.467  0.00  0.00     0.001 A 
ENDROOT
BRANCH   1   8
ATOM      8  C1  UNL d   1       5.902   4.811   4.665  0.00  0.00     0.053 C 
ATOM      9  C   UNL d   1       5.072   5.918   5.296  0.00  0.00     0.018 C 
ENDBRANCH   1   8
TORSDOF 1
ENDMDL
