MODEL 1
REMARK minimizedAffinity 6.67369175
REMARK minimizedRMSD -1
REMARK  1 active torsions:
REMARK  status: ('A' for Active; 'I' for Inactive)
REMARK    1  A    between atoms: C1_2  and  C2_3 
ROOT
ATOM      1  C2  UNL d   1       2.897  -1.040  -0.965  0.00  0.00    -0.073 A 
ATOM      2  C3  UNL d   1       2.044  -1.649  -0.038  0.00  0.00    -0.002 A 
ATOM      3  C4  UNL d   1       1.555  -2.936  -0.268  0.00  0.00     0.004 A 
ATOM      4  C5  UNL d   1       1.918  -3.628  -1.423  0.00  0.00    -0.004 A 
ATOM      5  C6  UNL d   1       2.778  -3.041  -2.357  0.00  0.00    -0.075 A 
ATOM      6  C7  UNL d   1       3.176  -3.772  -3.605  0.00  0.00     0.076 C 
ATOM      7  C8  UNL d   1       3.263  -1.748  -2.119  0.00  0.00     0.001 A 
ENDROOT
BRANCH   1   8
ATOM      8  C1  UNL d   1       3.433   0.346  -0.718  0.00  0.00     0.053 C 
ATOM      9  C   UNL d   1       4.801   0.549  -1.348  0.00  0.00     0.018 C 
ENDBRANCH   1   8
TORSDOF 1
ENDMDL
