MODEL 1
REMARK minimizedAffinity -4.30507994
REMARK minimizedRMSD -1
REMARK  0 active torsions:
REMARK  status: ('A' for Active; 'I' for Inactive)
ROOT
ATOM      1  C1  BNZ d   1      -0.167  -0.795  -1.017  0.00  0.00     0.000 A 
ATOM      2  C2  BNZ d   1       0.503  -0.747  -2.211  0.00  0.00     0.000 A 
ATOM      3  C3  BNZ d   1       1.577   0.082  -2.377  0.00  0.00     0.000 A 
ATOM      4  C4  BNZ d   1       1.955   0.889  -1.365  0.00  0.00     0.000 A 
ATOM      5  C5  BNZ d   1       1.284   0.858  -0.158  0.00  0.00     0.000 A 
ATOM      6  C6  BNZ d   1       0.227  -0.005   0.018  0.00  0.00     0.000 A 
ENDROOT
TORSDOF 0
ENDMDL
