MODEL 1
REMARK minimizedAffinity -3.22256446
REMARK minimizedRMSD -1
REMARK  0 active torsions:
REMARK  status: ('A' for Active; 'I' for Inactive)
ROOT
ATOM      1  C1  BNZ d   1      -0.006  -1.048  -0.013  0.00  0.00     0.000 A 
ATOM      2  C2  BNZ d   1       0.706   0.002  -0.528  0.00  0.00     0.000 A 
ATOM      3  C3  BNZ d   1       0.583   1.258  -0.002  0.00  0.00     0.000 A 
ATOM      4  C4  BNZ d   1      -0.282   1.470   1.010  0.00  0.00     0.000 A 
ATOM      5  C5  BNZ d   1      -1.015   0.424   1.535  0.00  0.00     0.000 A 
ATOM      6  C6  BNZ d   1      -0.859  -0.846   1.028  0.00  0.00     0.000 A 
ENDROOT
TORSDOF 0
ENDMDL
