MODEL 1
REMARK minimizedAffinity -4.50625086
REMARK minimizedRMSD -1
REMARK  0 active torsions:
REMARK  status: ('A' for Active; 'I' for Inactive)
ROOT
ATOM      1  C1  BNZ d   1       0.628  -1.645  -1.085  0.00  0.00     0.000 A 
ATOM      2  C2  BNZ d   1       0.369  -1.141   0.162  0.00  0.00     0.000 A 
ATOM      3  C3  BNZ d   1       0.726   0.137   0.488  0.00  0.00     0.000 A 
ATOM      4  C4  BNZ d   1       1.377   0.895  -0.418  0.00  0.00     0.000 A 
ATOM      5  C5  BNZ d   1       1.654   0.398  -1.676  0.00  0.00     0.000 A 
ATOM      6  C6  BNZ d   1       1.258  -0.876  -2.014  0.00  0.00     0.000 A 
ENDROOT
TORSDOF 0
ENDMDL
