MODEL 1
REMARK minimizedAffinity -2.89887094
REMARK minimizedRMSD -1
REMARK  0 active torsions:
REMARK  status: ('A' for Active; 'I' for Inactive)
ROOT
ATOM      1  C1  BNZ d   1       0.418   1.281  -0.041  0.00  0.00     0.000 A 
ATOM      2  C2  BNZ d   1       1.170   1.600  -1.140  0.00  0.00     0.000 A 
ATOM      3  C3  BNZ d   1       1.555   0.635  -2.029  0.00  0.00     0.000 A 
ATOM      4  C4  BNZ d   1       1.223  -0.652  -1.796  0.00  0.00     0.000 A 
ATOM      5  C5  BNZ d   1       0.473  -0.990  -0.687  0.00  0.00     0.000 A 
ATOM      6  C6  BNZ d   1       0.054  -0.011   0.184  0.00  0.00     0.000 A 
ENDROOT
TORSDOF 0
ENDMDL
