MODEL 1
REMARK minimizedAffinity -4.63569355
REMARK minimizedRMSD -1
REMARK  0 active torsions:
REMARK  status: ('A' for Active; 'I' for Inactive)
ROOT
ATOM      1  C1  BNZ d   1       1.516   0.409  -1.836  0.00  0.00     0.000 A 
ATOM      2  C2  BNZ d   1       0.914   0.998  -0.756  0.00  0.00     0.000 A 
ATOM      3  C3  BNZ d   1       0.254   0.245   0.174  0.00  0.00     0.000 A 
ATOM      4  C4  BNZ d   1       0.160  -1.089   0.002  0.00  0.00     0.000 A 
ATOM      5  C5  BNZ d   1       0.753  -1.697  -1.087  0.00  0.00     0.000 A 
ATOM      6  C6  BNZ d   1       1.451  -0.940  -2.001  0.00  0.00     0.000 A 
ENDROOT
TORSDOF 0
ENDMDL
