MODEL 1
REMARK minimizedAffinity -4.3091073
REMARK minimizedRMSD -1
REMARK  0 active torsions:
REMARK  status: ('A' for Active; 'I' for Inactive)
ROOT
ATOM      1  C1  BNZ d   1       1.521   0.249  -1.070  0.00  0.00     0.000 A 
ATOM      2  C2  BNZ d   1       0.742  -0.286  -0.079  0.00  0.00     0.000 A 
ATOM      3  C3  BNZ d   1       0.048  -1.445  -0.284  0.00  0.00     0.000 A 
ATOM      4  C4  BNZ d   1       0.102  -2.046  -1.491  0.00  0.00     0.000 A 
ATOM      5  C5  BNZ d   1       0.875  -1.513  -2.503  0.00  0.00     0.000 A 
ATOM      6  C6  BNZ d   1       1.604  -0.367  -2.280  0.00  0.00     0.000 A 
ENDROOT
TORSDOF 0
ENDMDL
