MODEL 1
REMARK minimizedAffinity -4.06722355
REMARK minimizedRMSD -1
REMARK  0 active torsions:
REMARK  status: ('A' for Active; 'I' for Inactive)
ROOT
ATOM      1  C1  BNZ d   1       0.520  -2.168  -0.863  0.00  0.00     0.000 A 
ATOM      2  C2  BNZ d   1       0.105  -1.815   0.393  0.00  0.00     0.000 A 
ATOM      3  C3  BNZ d   1       0.118  -0.509   0.794  0.00  0.00     0.000 A 
ATOM      4  C4  BNZ d   1       0.583   0.438  -0.047  0.00  0.00     0.000 A 
ATOM      5  C5  BNZ d   1       1.013   0.097  -1.314  0.00  0.00     0.000 A 
ATOM      6  C6  BNZ d   1       0.962  -1.215  -1.727  0.00  0.00     0.000 A 
ENDROOT
TORSDOF 0
ENDMDL
