MODEL 1
REMARK minimizedAffinity -2.89091372
REMARK minimizedRMSD -1
REMARK  0 active torsions:
REMARK  status: ('A' for Active; 'I' for Inactive)
ROOT
ATOM      1  C1  BNZ d   1       1.570  -0.069  -2.250  0.00  0.00     0.000 A 
ATOM      2  C2  BNZ d   1       0.367  -0.527  -1.783  0.00  0.00     0.000 A 
ATOM      3  C3  BNZ d   1      -0.102  -0.140  -0.559  0.00  0.00     0.000 A 
ATOM      4  C4  BNZ d   1       0.649   0.673   0.212  0.00  0.00     0.000 A 
ATOM      5  C5  BNZ d   1       1.868   1.136  -0.241  0.00  0.00     0.000 A 
ATOM      6  C6  BNZ d   1       2.319   0.775  -1.490  0.00  0.00     0.000 A 
ENDROOT
TORSDOF 0
ENDMDL
