MODEL 1
REMARK minimizedAffinity -4.61724186
REMARK minimizedRMSD -1
REMARK  0 active torsions:
REMARK  status: ('A' for Active; 'I' for Inactive)
ROOT
ATOM      1  C1  BNZ d   1       1.700  -1.889  -2.230  0.00  0.00     0.000 A 
ATOM      2  C2  BNZ d   1       2.420  -0.757  -2.505  0.00  0.00     0.000 A 
ATOM      3  C3  BNZ d   1       2.095   0.437  -1.925  0.00  0.00     0.000 A 
ATOM      4  C4  BNZ d   1       1.028   0.506  -1.103  0.00  0.00     0.000 A 
ATOM      5  C5  BNZ d   1       0.287  -0.624  -0.823  0.00  0.00     0.000 A 
ATOM      6  C6  BNZ d   1       0.641  -1.833  -1.378  0.00  0.00     0.000 A 
ENDROOT
TORSDOF 0
ENDMDL
