MODEL 1
REMARK minimizedAffinity -4.64274216
REMARK minimizedRMSD -1
REMARK  0 active torsions:
REMARK  status: ('A' for Active; 'I' for Inactive)
ROOT
ATOM      1  C1  BNZ d   1       0.521   1.660  -0.030  0.00  0.00     0.000 A 
ATOM      2  C2  BNZ d   1      -0.283   0.835   0.710  0.00  0.00     0.000 A 
ATOM      3  C3  BNZ d   1      -0.462  -0.472   0.353  0.00  0.00     0.000 A 
ATOM      4  C4  BNZ d   1       0.131  -0.942  -0.763  0.00  0.00     0.000 A 
ATOM      5  C5  BNZ d   1       0.937  -0.120  -1.525  0.00  0.00     0.000 A 
ATOM      6  C6  BNZ d   1       1.146   1.185  -1.141  0.00  0.00     0.000 A 
ENDROOT
TORSDOF 0
ENDMDL
