MODEL 1
REMARK minimizedAffinity -1.36456013
REMARK minimizedRMSD -1
REMARK  0 active torsions:
REMARK  status: ('A' for Active; 'I' for Inactive)
ROOT
ATOM      1  C1  BNZ d   1      -0.098  -0.228   0.902  0.00  0.00     0.000 A 
ATOM      2  C2  BNZ d   1      -1.287  -0.738   1.350  0.00  0.00     0.000 A 
ATOM      3  C3  BNZ d   1      -2.189   0.058   2.000  0.00  0.00     0.000 A 
ATOM      4  C4  BNZ d   1      -1.884   1.350   2.236  0.00  0.00     0.000 A 
ATOM      5  C5  BNZ d   1      -0.685   1.876   1.799  0.00  0.00     0.000 A 
ATOM      6  C6  BNZ d   1       0.204   1.082   1.111  0.00  0.00     0.000 A 
ENDROOT
TORSDOF 0
ENDMDL
