MODEL 1
REMARK minimizedAffinity -3.60006738
REMARK minimizedRMSD -1
REMARK  0 active torsions:
REMARK  status: ('A' for Active; 'I' for Inactive)
ROOT
ATOM      1  C1  BNZ d   1       1.957   0.521  -1.574  0.00  0.00     0.000 A 
ATOM      2  C2  BNZ d   1       1.117   1.075  -0.645  0.00  0.00     0.000 A 
ATOM      3  C3  BNZ d   1       0.318   0.286   0.134  0.00  0.00     0.000 A 
ATOM      4  C4  BNZ d   1       0.331  -1.051  -0.044  0.00  0.00     0.000 A 
ATOM      5  C5  BNZ d   1       1.165  -1.623  -0.982  0.00  0.00     0.000 A 
ATOM      6  C6  BNZ d   1       1.997  -0.829  -1.738  0.00  0.00     0.000 A 
ENDROOT
TORSDOF 0
ENDMDL
