MODEL 1
REMARK minimizedAffinity -4.61081696
REMARK minimizedRMSD -1
REMARK  0 active torsions:
REMARK  status: ('A' for Active; 'I' for Inactive)
ROOT
ATOM      1  C1  BNZ d   1       0.430  -0.922   0.274  0.00  0.00     0.000 A 
ATOM      2  C2  BNZ d   1       0.389   0.447   0.283  0.00  0.00     0.000 A 
ATOM      3  C3  BNZ d   1       1.123   1.175  -0.611  0.00  0.00     0.000 A 
ATOM      4  C4  BNZ d   1       1.927   0.536  -1.485  0.00  0.00     0.000 A 
ATOM      5  C5  BNZ d   1       1.986  -0.843  -1.501  0.00  0.00     0.000 A 
ATOM      6  C6  BNZ d   1       1.216  -1.574  -0.625  0.00  0.00     0.000 A 
ENDROOT
TORSDOF 0
ENDMDL
