MODEL 1
REMARK minimizedAffinity -0.963120401
REMARK minimizedRMSD -1
REMARK  0 active torsions:
REMARK  status: ('A' for Active; 'I' for Inactive)
ROOT
ATOM      1  C1  BNZ d   1      -3.454   3.586  -5.877  0.00  0.00     0.000 A 
ATOM      2  C2  BNZ d   1      -3.679   4.933  -5.984  0.00  0.00     0.000 A 
ATOM      3  C3  BNZ d   1      -4.952   5.430  -5.997  0.00  0.00     0.000 A 
ATOM      4  C4  BNZ d   1      -5.997   4.580  -5.943  0.00  0.00     0.000 A 
ATOM      5  C5  BNZ d   1      -5.787   3.219  -5.845  0.00  0.00     0.000 A 
ATOM      6  C6  BNZ d   1      -4.504   2.724  -5.793  0.00  0.00     0.000 A 
ENDROOT
TORSDOF 0
ENDMDL
