MODEL 1
REMARK minimizedAffinity -3.34016776
REMARK minimizedRMSD -1
REMARK  0 active torsions:
REMARK  status: ('A' for Active; 'I' for Inactive)
ROOT
ATOM      1  C1  DEN d   1       0.621  -2.803   1.722  0.00  0.00     0.130 A 
ATOM      2  C2  DEN d   1       2.051  -3.089   1.650  0.00  0.00    -0.031 A 
ATOM      3  C3  DEN d   1       2.713  -1.942   0.995  0.00  0.00     0.027 A 
ATOM      4  C4  DEN d   1       1.668   0.238   0.097  0.00  0.00     0.027 A 
ATOM      5  C5  DEN d   1       0.489   0.929  -0.077  0.00  0.00    -0.003 A 
ATOM      6  C6  DEN d   1      -0.722   0.415   0.303  0.00  0.00     0.001 A 
ATOM      7  C7  DEN d   1      -0.777  -0.808   0.917  0.00  0.00     0.017 A 
ATOM      8  C8  DEN d   1       0.406  -1.515   1.089  0.00  0.00    -0.094 A 
ATOM      9  C9  DEN d   1       1.622  -0.972   0.710  0.00  0.00    -0.072 A 
ENDROOT
TORSDOF 0
ENDMDL
