MODEL 1
REMARK minimizedAffinity -1.38963807
REMARK minimizedRMSD -1
REMARK  0 active torsions:
REMARK  status: ('A' for Active; 'I' for Inactive)
ROOT
ATOM      1  C1  DEN d   1      -0.453  -1.957   1.925  0.00  0.00     0.130 A 
ATOM      2  C2  DEN d   1      -1.718  -1.241   1.781  0.00  0.00    -0.031 A 
ATOM      3  C3  DEN d   1      -1.471  -0.040   0.958  0.00  0.00     0.027 A 
ATOM      4  C4  DEN d   1       0.734   0.774  -0.104  0.00  0.00     0.027 A 
ATOM      5  C5  DEN d   1       2.077   0.504  -0.249  0.00  0.00    -0.003 A 
ATOM      6  C6  DEN d   1       2.672  -0.577   0.344  0.00  0.00     0.001 A 
ATOM      7  C7  DEN d   1       1.914  -1.455   1.073  0.00  0.00     0.017 A 
ATOM      8  C8  DEN d   1       0.561  -1.186   1.229  0.00  0.00    -0.094 A 
ATOM      9  C9  DEN d   1      -0.025  -0.094   0.612  0.00  0.00    -0.072 A 
ENDROOT
TORSDOF 0
ENDMDL
