MODEL 1
REMARK minimizedAffinity -5.13274908
REMARK minimizedRMSD -1
REMARK  0 active torsions:
REMARK  status: ('A' for Active; 'I' for Inactive)
ROOT
ATOM      1  C1  DEN d   1       2.273   0.192  -0.148  0.00  0.00     0.130 A 
ATOM      2  C2  DEN d   1       2.527  -1.155   0.357  0.00  0.00    -0.031 A 
ATOM      3  C3  DEN d   1       1.358  -1.572   1.156  0.00  0.00     0.027 A 
ATOM      4  C4  DEN d   1      -0.813  -0.271   1.654  0.00  0.00     0.027 A 
ATOM      5  C5  DEN d   1      -1.482   0.916   1.452  0.00  0.00    -0.003 A 
ATOM      6  C6  DEN d   1      -0.937   1.949   0.737  0.00  0.00     0.001 A 
ATOM      7  C7  DEN d   1       0.296   1.798   0.160  0.00  0.00     0.017 A 
ATOM      8  C8  DEN d   1       0.980   0.607   0.365  0.00  0.00    -0.094 A 
ATOM      9  C9  DEN d   1       0.406  -0.430   1.081  0.00  0.00    -0.072 A 
ENDROOT
TORSDOF 0
ENDMDL
