MODEL 1
REMARK minimizedAffinity -5.18696594
REMARK minimizedRMSD -1
REMARK  0 active torsions:
REMARK  status: ('A' for Active; 'I' for Inactive)
ROOT
ATOM      1  C1  DEN d   1       0.058   1.373  -0.122  0.00  0.00     0.130 A 
ATOM      2  C2  DEN d   1      -1.214   1.798   0.454  0.00  0.00    -0.031 A 
ATOM      3  C3  DEN d   1      -1.768   0.666   1.224  0.00  0.00     0.027 A 
ATOM      4  C4  DEN d   1      -0.781  -1.690   1.582  0.00  0.00     0.027 A 
ATOM      5  C5  DEN d   1       0.274  -2.523   1.280  0.00  0.00    -0.003 A 
ATOM      6  C6  DEN d   1       1.306  -2.130   0.469  0.00  0.00     0.001 A 
ATOM      7  C7  DEN d   1       1.327  -0.856  -0.033  0.00  0.00     0.017 A 
ATOM      8  C8  DEN d   1       0.264  -0.012   0.261  0.00  0.00    -0.094 A 
ATOM      9  C9  DEN d   1      -0.764  -0.424   1.093  0.00  0.00    -0.072 A 
ENDROOT
TORSDOF 0
ENDMDL
