MODEL 1
REMARK minimizedAffinity -4.56679726
REMARK minimizedRMSD -1
REMARK  0 active torsions:
REMARK  status: ('A' for Active; 'I' for Inactive)
ROOT
ATOM      1  C1  DEN d   1      -0.970   0.398   0.229  0.00  0.00     0.130 A 
ATOM      2  C2  DEN d   1      -0.015   0.961  -0.722  0.00  0.00    -0.031 A 
ATOM      3  C3  DEN d   1       1.230   0.172  -0.639  0.00  0.00     0.027 A 
ATOM      4  C4  DEN d   1       1.768  -1.859   0.857  0.00  0.00     0.027 A 
ATOM      5  C5  DEN d   1       1.276  -2.694   1.835  0.00  0.00    -0.003 A 
ATOM      6  C6  DEN d   1       0.023  -2.538   2.366  0.00  0.00     0.001 A 
ATOM      7  C7  DEN d   1      -0.798  -1.550   1.890  0.00  0.00     0.017 A 
ATOM      8  C8  DEN d   1      -0.306  -0.699   0.909  0.00  0.00    -0.094 A 
ATOM      9  C9  DEN d   1       0.959  -0.881   0.376  0.00  0.00    -0.072 A 
ENDROOT
TORSDOF 0
ENDMDL
