MODEL 1
REMARK minimizedAffinity -5.29373789
REMARK minimizedRMSD -1
REMARK  0 active torsions:
REMARK  status: ('A' for Active; 'I' for Inactive)
ROOT
ATOM      1  C1  DEN d   1       2.669   0.059  -0.601  0.00  0.00     0.130 A 
ATOM      2  C2  DEN d   1       3.270  -1.125   0.008  0.00  0.00    -0.031 A 
ATOM      3  C3  DEN d   1       2.212  -1.846   0.743  0.00  0.00     0.027 A 
ATOM      4  C4  DEN d   1      -0.285  -1.251   0.993  0.00  0.00     0.027 A 
ATOM      5  C5  DEN d   1      -1.259  -0.333   0.665  0.00  0.00    -0.003 A 
ATOM      6  C6  DEN d   1      -0.987   0.788  -0.073  0.00  0.00     0.001 A 
ATOM      7  C7  DEN d   1       0.282   0.997  -0.547  0.00  0.00     0.017 A 
ATOM      8  C8  DEN d   1       1.270   0.081  -0.214  0.00  0.00    -0.094 A 
ATOM      9  C9  DEN d   1       0.972  -1.053   0.523  0.00  0.00    -0.072 A 
ENDROOT
TORSDOF 0
ENDMDL
