MODEL 1
REMARK minimizedAffinity -2.29878044
REMARK minimizedRMSD -1
REMARK  0 active torsions:
REMARK  status: ('A' for Active; 'I' for Inactive)
ROOT
ATOM      1  C1  DEN d   1      -0.045  -2.133   1.141  0.00  0.00     0.130 A 
ATOM      2  C2  DEN d   1       1.325  -2.573   0.894  0.00  0.00    -0.031 A 
ATOM      3  C3  DEN d   1       2.068  -1.444   0.301  0.00  0.00     0.027 A 
ATOM      4  C4  DEN d   1       1.235   0.934  -0.252  0.00  0.00     0.027 A 
ATOM      5  C5  DEN d   1       0.144   1.775  -0.231  0.00  0.00    -0.003 A 
ATOM      6  C6  DEN d   1      -1.085   1.365   0.213  0.00  0.00     0.001 A 
ATOM      7  C7  DEN d   1      -1.242   0.093   0.698  0.00  0.00     0.017 A 
ATOM      8  C8  DEN d   1      -0.148  -0.762   0.673  0.00  0.00    -0.094 A 
ATOM      9  C9  DEN d   1       1.089  -0.325   0.231  0.00  0.00    -0.072 A 
ENDROOT
TORSDOF 0
ENDMDL
