MODEL 1
REMARK minimizedAffinity -5.89285755
REMARK minimizedRMSD -1
REMARK  0 active torsions:
REMARK  status: ('A' for Active; 'I' for Inactive)
ROOT
ATOM      1  C1  DEN d   1       0.389  -0.632  -1.094  0.00  0.00     0.130 A 
ATOM      2  C2  DEN d   1      -0.759   0.263  -1.211  0.00  0.00    -0.031 A 
ATOM      3  C3  DEN d   1      -1.544   0.163   0.036  0.00  0.00     0.027 A 
ATOM      4  C4  DEN d   1      -1.095  -1.280   2.126  0.00  0.00     0.027 A 
ATOM      5  C5  DEN d   1      -0.249  -2.211   2.686  0.00  0.00    -0.003 A 
ATOM      6  C6  DEN d   1       0.842  -2.702   2.019  0.00  0.00     0.001 A 
ATOM      7  C7  DEN d   1       1.140  -2.231   0.768  0.00  0.00     0.017 A 
ATOM      8  C8  DEN d   1       0.287  -1.298   0.193  0.00  0.00    -0.094 A 
ATOM      9  C9  DEN d   1      -0.803  -0.804   0.889  0.00  0.00    -0.072 A 
ENDROOT
TORSDOF 0
ENDMDL
