MODEL 1
REMARK minimizedAffinity -5.49559021
REMARK minimizedRMSD -1
REMARK  0 active torsions:
REMARK  status: ('A' for Active; 'I' for Inactive)
ROOT
ATOM      1  C1  DEN d   1       0.431  -2.257   1.403  0.00  0.00     0.130 A 
ATOM      2  C2  DEN d   1       1.822  -2.638   1.171  0.00  0.00    -0.031 A 
ATOM      3  C3  DEN d   1       2.467  -1.559   0.396  0.00  0.00     0.027 A 
ATOM      4  C4  DEN d   1       1.456   0.655  -0.456  0.00  0.00     0.027 A 
ATOM      5  C5  DEN d   1       0.310   1.416  -0.515  0.00  0.00    -0.003 A 
ATOM      6  C6  DEN d   1      -0.876   0.995   0.028  0.00  0.00     0.001 A 
ATOM      7  C7  DEN d   1      -0.930  -0.202   0.692  0.00  0.00     0.017 A 
ATOM      8  C8  DEN d   1       0.220  -0.978   0.749  0.00  0.00    -0.094 A 
ATOM      9  C9  DEN d   1       1.411  -0.529   0.205  0.00  0.00    -0.072 A 
ENDROOT
TORSDOF 0
ENDMDL
