MODEL 1
REMARK minimizedAffinity -3.2295568
REMARK minimizedRMSD -1
REMARK  0 active torsions:
REMARK  status: ('A' for Active; 'I' for Inactive)
ROOT
ATOM      1  C1  DEN d   1       0.074   1.162  -1.047  0.00  0.00     0.130 A 
ATOM      2  C2  DEN d   1      -1.322   0.944  -0.678  0.00  0.00    -0.031 A 
ATOM      3  C3  DEN d   1      -1.378  -0.218   0.232  0.00  0.00     0.027 A 
ATOM      4  C4  DEN d   1       0.553  -1.689   1.104  0.00  0.00     0.027 A 
ATOM      5  C5  DEN d   1       1.913  -1.899   1.059  0.00  0.00    -0.003 A 
ATOM      6  C6  DEN d   1       2.745  -1.131   0.288  0.00  0.00     0.001 A 
ATOM      7  C7  DEN d   1       2.230  -0.087  -0.434  0.00  0.00     0.017 A 
ATOM      8  C8  DEN d   1       0.858   0.126  -0.399  0.00  0.00    -0.094 A 
ATOM      9  C9  DEN d   1       0.035  -0.654   0.396  0.00  0.00    -0.072 A 
ENDROOT
TORSDOF 0
ENDMDL
