MODEL 1
REMARK minimizedAffinity -0.883777559
REMARK minimizedRMSD -1
REMARK  0 active torsions:
REMARK  status: ('A' for Active; 'I' for Inactive)
ROOT
ATOM      1  C   UNL d   1      -0.671  -1.148   2.541  0.00  0.00     0.023 A 
ATOM      2  C1  UNL d   1       0.654  -1.384   2.908  0.00  0.00     0.003 A 
ATOM      3  C2  UNL d   1       1.690  -1.073   2.025  0.00  0.00     0.048 A 
ATOM      4  C3  UNL d   1       1.394  -0.525   0.777  0.00  0.00     0.023 A 
ATOM      5  C4  UNL d   1       0.070  -0.287   0.406  0.00  0.00     0.048 A 
ATOM      6  C5  UNL d   1      -0.963  -0.600   1.292  0.00  0.00     0.003 A 
ATOM      7  I   UNL d   1       2.935  -0.061  -0.538  0.00  0.00    -0.146 I 
ENDROOT
TORSDOF 0
ENDMDL
