MODEL 1
REMARK minimizedAffinity -0.43232885
REMARK minimizedRMSD -1
REMARK  0 active torsions:
REMARK  status: ('A' for Active; 'I' for Inactive)
ROOT
ATOM      1  C   UNL d   1       5.896   4.936   0.800  0.00  0.00     0.023 A 
ATOM      2  C1  UNL d   1       4.792   5.691   0.403  0.00  0.00     0.003 A 
ATOM      3  C2  UNL d   1       3.783   5.992   1.321  0.00  0.00     0.048 A 
ATOM      4  C3  UNL d   1       3.885   5.536   2.634  0.00  0.00     0.023 A 
ATOM      5  C4  UNL d   1       4.988   4.780   3.037  0.00  0.00     0.048 A 
ATOM      6  C5  UNL d   1       5.993   4.481   2.115  0.00  0.00     0.003 A 
ATOM      7  I   UNL d   1       2.385   5.983   4.002  0.00  0.00    -0.146 I 
ENDROOT
TORSDOF 0
ENDMDL
