MODEL 1
REMARK minimizedAffinity -3.44817972
REMARK minimizedRMSD -1
REMARK  0 active torsions:
REMARK  status: ('A' for Active; 'I' for Inactive)
ROOT
ATOM      1  C   UNL d   1       0.641  -0.935   2.583  0.00  0.00     0.023 A 
ATOM      2  C1  UNL d   1       1.657  -0.135   2.059  0.00  0.00     0.003 A 
ATOM      3  C2  UNL d   1       1.448   0.574   0.875  0.00  0.00     0.048 A 
ATOM      4  C3  UNL d   1       0.220   0.481   0.220  0.00  0.00     0.023 A 
ATOM      5  C4  UNL d   1      -0.799  -0.317   0.741  0.00  0.00     0.048 A 
ATOM      6  C5  UNL d   1      -0.586  -1.026   1.925  0.00  0.00     0.003 A 
ATOM      7  I   UNL d   1      -0.093   1.537  -1.543  0.00  0.00    -0.146 I 
ENDROOT
TORSDOF 0
ENDMDL
