MODEL 1
REMARK minimizedAffinity -3.57471848
REMARK minimizedRMSD -1
REMARK  0 active torsions:
REMARK  status: ('A' for Active; 'I' for Inactive)
ROOT
ATOM      1  C   UNL d   1       1.292  -1.446   2.210  0.00  0.00     0.023 A 
ATOM      2  C1  UNL d   1       0.176  -0.625   2.373  0.00  0.00     0.003 A 
ATOM      3  C2  UNL d   1      -0.299   0.131   1.299  0.00  0.00     0.048 A 
ATOM      4  C3  UNL d   1       0.346   0.059   0.065  0.00  0.00     0.023 A 
ATOM      5  C4  UNL d   1       1.462  -0.762  -0.103  0.00  0.00     0.048 A 
ATOM      6  C5  UNL d   1       1.934  -1.515   0.974  0.00  0.00     0.003 A 
ATOM      7  I   UNL d   1      -0.360   1.183  -1.535  0.00  0.00    -0.146 I 
ENDROOT
TORSDOF 0
ENDMDL
