MODEL 1
REMARK minimizedAffinity 1.79678869
REMARK minimizedRMSD -1
REMARK  0 active torsions:
REMARK  status: ('A' for Active; 'I' for Inactive)
ROOT
ATOM      1  C   UNL d   1      -1.166  -0.213   2.250  0.00  0.00     0.023 A 
ATOM      2  C1  UNL d   1      -1.152   0.284   0.947  0.00  0.00     0.003 A 
ATOM      3  C2  UNL d   1      -0.152  -0.114   0.058  0.00  0.00     0.048 A 
ATOM      4  C3  UNL d   1       0.831  -1.010   0.478  0.00  0.00     0.023 A 
ATOM      5  C4  UNL d   1       0.820  -1.511   1.781  0.00  0.00     0.048 A 
ATOM      6  C5  UNL d   1      -0.182  -1.110   2.667  0.00  0.00     0.003 A 
ATOM      7  I   UNL d   1       2.320  -1.604  -0.844  0.00  0.00    -0.146 I 
ENDROOT
TORSDOF 0
ENDMDL
