MODEL 1
REMARK minimizedAffinity -4.72841024
REMARK minimizedRMSD -1
REMARK  0 active torsions:
REMARK  status: ('A' for Active; 'I' for Inactive)
ROOT
ATOM      1  C   UNL d   1       2.155  -1.829   2.250  0.00  0.00     0.023 A 
ATOM      2  C1  UNL d   1       2.516  -2.030   0.918  0.00  0.00     0.003 A 
ATOM      3  C2  UNL d   1       1.747  -1.473  -0.107  0.00  0.00     0.048 A 
ATOM      4  C3  UNL d   1       0.620  -0.716   0.208  0.00  0.00     0.023 A 
ATOM      5  C4  UNL d   1       0.255  -0.511   1.540  0.00  0.00     0.048 A 
ATOM      6  C5  UNL d   1       1.026  -1.070   2.561  0.00  0.00     0.003 A 
ATOM      7  I   UNL d   1      -0.525   0.113  -1.315  0.00  0.00    -0.146 I 
ENDROOT
TORSDOF 0
ENDMDL
