MODEL 1
REMARK minimizedAffinity -2.19582224
REMARK minimizedRMSD -1
REMARK  0 active torsions:
REMARK  status: ('A' for Active; 'I' for Inactive)
ROOT
ATOM      1  C   UNL d   1      -0.986  -1.076   2.263  0.00  0.00     0.023 A 
ATOM      2  C1  UNL d   1       0.339  -1.377   2.577  0.00  0.00     0.003 A 
ATOM      3  C2  UNL d   1       1.313  -1.373   1.576  0.00  0.00     0.048 A 
ATOM      4  C3  UNL d   1       0.955  -1.066   0.264  0.00  0.00     0.023 A 
ATOM      5  C4  UNL d   1      -0.370  -0.763  -0.055  0.00  0.00     0.048 A 
ATOM      6  C5  UNL d   1      -1.340  -0.769   0.949  0.00  0.00     0.003 A 
ATOM      7  I   UNL d   1       2.402  -1.060  -1.228  0.00  0.00    -0.146 I 
ENDROOT
TORSDOF 0
ENDMDL
