MODEL 1
REMARK minimizedAffinity 3.02306247
REMARK minimizedRMSD -1
REMARK  1 active torsions:
REMARK  status: ('A' for Active; 'I' for Inactive)
REMARK    1  A    between atoms: C1_2  and  C2_3 
ROOT
ATOM      1  C2  UNL d   1      -0.208   1.027   1.002  0.00  0.00    -0.076 A 
ATOM      2  C3  UNL d   1      -0.363   0.634  -0.339  0.00  0.00     0.004 A 
ATOM      3  C4  UNL d   1       0.512  -0.280  -0.924  0.00  0.00    -0.003 A 
ATOM      4  C5  UNL d   1       1.556  -0.816  -0.178  0.00  0.00     0.000 A 
ATOM      5  C6  UNL d   1       1.714  -0.451   1.158  0.00  0.00     0.000 A 
ATOM      6  C7  UNL d   1       0.831   0.456   1.769  0.00  0.00    -0.073 A 
ATOM      7  C8  UNL d   1       1.052   0.819   3.212  0.00  0.00     0.078 C 
ENDROOT
BRANCH   1   8
ATOM      8  C1  UNL d   1      -1.171   2.042   1.575  0.00  0.00     0.053 C 
ATOM      9  C   UNL d   1      -1.146   3.360   0.818  0.00  0.00     0.018 C 
ENDBRANCH   1   8
TORSDOF 1
ENDMDL
