MODEL 1
REMARK minimizedAffinity 1.67856741
REMARK minimizedRMSD -1
REMARK  1 active torsions:
REMARK  status: ('A' for Active; 'I' for Inactive)
REMARK    1  A    between atoms: C1_2  and  C2_3 
ROOT
ATOM      1  C2  UNL d   1      -1.357   3.109   0.555  0.00  0.00    -0.076 A 
ATOM      2  C3  UNL d   1      -1.716   4.420   0.915  0.00  0.00     0.004 A 
ATOM      3  C4  UNL d   1      -1.084   5.521   0.339  0.00  0.00    -0.003 A 
ATOM      4  C5  UNL d   1      -0.083   5.329  -0.607  0.00  0.00     0.000 A 
ATOM      5  C6  UNL d   1       0.274   4.036  -0.988  0.00  0.00     0.000 A 
ATOM      6  C7  UNL d   1      -0.365   2.915  -0.429  0.00  0.00    -0.073 A 
ATOM      7  C8  UNL d   1       0.064   1.544  -0.873  0.00  0.00     0.078 C 
ENDROOT
BRANCH   1   8
ATOM      8  C1  UNL d   1      -2.058   1.954   1.234  0.00  0.00     0.053 C 
ATOM      9  C   UNL d   1      -1.351   1.508   2.504  0.00  0.00     0.018 C 
ENDBRANCH   1   8
TORSDOF 1
ENDMDL
