MODEL 1
REMARK minimizedAffinity 9.44359589
REMARK minimizedRMSD -1
REMARK  1 active torsions:
REMARK  status: ('A' for Active; 'I' for Inactive)
REMARK    1  A    between atoms: C1_2  and  C2_3 
ROOT
ATOM      1  C2  UNL d   1       0.600   0.786   1.084  0.00  0.00    -0.076 A 
ATOM      2  C3  UNL d   1       1.247   0.664   2.326  0.00  0.00     0.004 A 
ATOM      3  C4  UNL d   1       2.476   0.015   2.434  0.00  0.00    -0.003 A 
ATOM      4  C5  UNL d   1       3.079  -0.521   1.302  0.00  0.00     0.000 A 
ATOM      5  C6  UNL d   1       2.460  -0.393   0.058  0.00  0.00     0.000 A 
ATOM      6  C7  UNL d   1       1.229   0.272  -0.070  0.00  0.00    -0.073 A 
ATOM      7  C8  UNL d   1       0.603   0.375  -1.434  0.00  0.00     0.078 C 
ENDROOT
BRANCH   1   8
ATOM      8  C1  UNL d   1      -0.744   1.476   1.033  0.00  0.00     0.053 C 
ATOM      9  C   UNL d   1      -0.622   2.992   1.044  0.00  0.00     0.018 C 
ENDBRANCH   1   8
TORSDOF 1
ENDMDL
