MODEL 1
REMARK minimizedAffinity 7.45487976
REMARK minimizedRMSD -1
REMARK  1 active torsions:
REMARK  status: ('A' for Active; 'I' for Inactive)
REMARK    1  A    between atoms: C1_2  and  C2_3 
ROOT
ATOM      1  C2  UNL d   1       2.822  -3.339  -0.005  0.00  0.00    -0.076 A 
ATOM      2  C3  UNL d   1       3.810  -4.338  -0.062  0.00  0.00     0.004 A 
ATOM      3  C4  UNL d   1       5.138  -4.052   0.247  0.00  0.00    -0.003 A 
ATOM      4  C5  UNL d   1       5.501  -2.762   0.619  0.00  0.00     0.000 A 
ATOM      5  C6  UNL d   1       4.532  -1.763   0.698  0.00  0.00     0.000 A 
ATOM      6  C7  UNL d   1       3.185  -2.038   0.405  0.00  0.00    -0.073 A 
ATOM      7  C8  UNL d   1       2.182  -0.921   0.501  0.00  0.00     0.078 C 
ENDROOT
BRANCH   1   8
ATOM      8  C1  UNL d   1       1.403  -3.702  -0.378  0.00  0.00     0.053 C 
ATOM      9  C   UNL d   1       1.307  -5.061  -1.053  0.00  0.00     0.018 C 
ENDBRANCH   1   8
TORSDOF 1
ENDMDL
