MODEL 1
REMARK minimizedAffinity 6.29348421
REMARK minimizedRMSD -1
REMARK  1 active torsions:
REMARK  status: ('A' for Active; 'I' for Inactive)
REMARK    1  A    between atoms: C1_2  and  C2_3 
ROOT
ATOM      1  C2  UNL d   1       2.998  -2.851  -0.169  0.00  0.00    -0.076 A 
ATOM      2  C3  UNL d   1       4.052  -3.672   0.268  0.00  0.00     0.004 A 
ATOM      3  C4  UNL d   1       5.222  -3.122   0.788  0.00  0.00    -0.003 A 
ATOM      4  C5  UNL d   1       5.358  -1.741   0.879  0.00  0.00     0.000 A 
ATOM      5  C6  UNL d   1       4.316  -0.911   0.466  0.00  0.00     0.000 A 
ATOM      6  C7  UNL d   1       3.122  -1.451  -0.045  0.00  0.00    -0.073 A 
ATOM      7  C8  UNL d   1       2.033  -0.509  -0.481  0.00  0.00     0.078 C 
ENDROOT
BRANCH   1   8
ATOM      8  C1  UNL d   1       1.764  -3.504  -0.749  0.00  0.00     0.053 C 
ATOM      9  C   UNL d   1       1.491  -4.873  -0.146  0.00  0.00     0.018 C 
ENDBRANCH   1   8
TORSDOF 1
ENDMDL
