MODEL 1
REMARK minimizedAffinity 3.46545243
REMARK minimizedRMSD -1
REMARK  1 active torsions:
REMARK  status: ('A' for Active; 'I' for Inactive)
REMARK    1  A    between atoms: C1_2  and  C2_3 
ROOT
ATOM      1  C2  UNL d   1      -3.243   1.612   1.574  0.00  0.00    -0.076 A 
ATOM      2  C3  UNL d   1      -3.063   2.821   0.881  0.00  0.00     0.004 A 
ATOM      3  C4  UNL d   1      -1.877   3.545   0.997  0.00  0.00    -0.003 A 
ATOM      4  C5  UNL d   1      -0.852   3.071   1.808  0.00  0.00     0.000 A 
ATOM      5  C6  UNL d   1      -1.007   1.864   2.490  0.00  0.00     0.000 A 
ATOM      6  C7  UNL d   1      -2.189   1.114   2.371  0.00  0.00    -0.073 A 
ATOM      7  C8  UNL d   1      -2.304  -0.178   3.133  0.00  0.00     0.078 C 
ENDROOT
BRANCH   1   8
ATOM      8  C1  UNL d   1      -4.560   0.884   1.431  0.00  0.00     0.053 C 
ATOM      9  C   UNL d   1      -4.500  -0.233   0.401  0.00  0.00     0.018 C 
ENDBRANCH   1   8
TORSDOF 1
ENDMDL
