MODEL 1
REMARK minimizedAffinity 3.96082091
REMARK minimizedRMSD -1
REMARK  1 active torsions:
REMARK  status: ('A' for Active; 'I' for Inactive)
REMARK    1  A    between atoms: C1_2  and  C2_3 
ROOT
ATOM      1  C2  UNL d   1      -1.566   1.670   1.936  0.00  0.00    -0.076 A 
ATOM      2  C3  UNL d   1      -0.287   2.062   1.504  0.00  0.00     0.004 A 
ATOM      3  C4  UNL d   1      -0.119   2.790   0.328  0.00  0.00    -0.003 A 
ATOM      4  C5  UNL d   1      -1.227   3.138  -0.437  0.00  0.00     0.000 A 
ATOM      5  C6  UNL d   1      -2.505   2.772  -0.015  0.00  0.00     0.000 A 
ATOM      6  C7  UNL d   1      -2.693   2.052   1.178  0.00  0.00    -0.073 A 
ATOM      7  C8  UNL d   1      -4.093   1.679   1.582  0.00  0.00     0.078 C 
ENDROOT
BRANCH   1   8
ATOM      8  C1  UNL d   1      -1.684   0.858   3.206  0.00  0.00     0.053 C 
ATOM      9  C   UNL d   1      -1.453  -0.627   2.972  0.00  0.00     0.018 C 
ENDBRANCH   1   8
TORSDOF 1
ENDMDL
