MODEL 1
REMARK minimizedAffinity 6.78483248
REMARK minimizedRMSD -1
REMARK  1 active torsions:
REMARK  status: ('A' for Active; 'I' for Inactive)
REMARK    1  A    between atoms: C1_2  and  C2_3 
ROOT
ATOM      1  C2  UNL d   1      -0.249   1.469  -0.751  0.00  0.00    -0.076 A 
ATOM      2  C3  UNL d   1      -0.810   1.268   0.522  0.00  0.00     0.004 A 
ATOM      3  C4  UNL d   1      -1.090   2.346   1.361  0.00  0.00    -0.003 A 
ATOM      4  C5  UNL d   1      -0.814   3.642   0.940  0.00  0.00     0.000 A 
ATOM      5  C6  UNL d   1      -0.273   3.861  -0.326  0.00  0.00     0.000 A 
ATOM      6  C7  UNL d   1      -0.000   2.787  -1.191  0.00  0.00    -0.073 A 
ATOM      7  C8  UNL d   1       0.588   3.081  -2.544  0.00  0.00     0.078 C 
ENDROOT
BRANCH   1   8
ATOM      8  C1  UNL d   1       0.058   0.261  -1.606  0.00  0.00     0.053 C 
ATOM      9  C   UNL d   1      -1.195  -0.374  -2.189  0.00  0.00     0.018 C 
ENDBRANCH   1   8
TORSDOF 1
ENDMDL
