MODEL 1
REMARK minimizedAffinity 11.5725975
REMARK minimizedRMSD -1
REMARK  1 active torsions:
REMARK  status: ('A' for Active; 'I' for Inactive)
REMARK    1  A    between atoms: C1_2  and  C2_3 
ROOT
ATOM      1  C2  UNL d   1      -0.518   2.474  -0.160  0.00  0.00    -0.076 A 
ATOM      2  C3  UNL d   1      -0.677   1.985   1.148  0.00  0.00     0.004 A 
ATOM      3  C4  UNL d   1      -0.523   2.823   2.251  0.00  0.00    -0.003 A 
ATOM      4  C5  UNL d   1      -0.207   4.164   2.063  0.00  0.00     0.000 A 
ATOM      5  C6  UNL d   1      -0.063   4.670   0.772  0.00  0.00     0.000 A 
ATOM      6  C7  UNL d   1      -0.231   3.842  -0.351  0.00  0.00    -0.073 A 
ATOM      7  C8  UNL d   1      -0.058   4.440  -1.721  0.00  0.00     0.078 C 
ENDROOT
BRANCH   1   8
ATOM      8  C1  UNL d   1      -0.671   1.512  -1.317  0.00  0.00     0.053 C 
ATOM      9  C   UNL d   1       0.573   0.664  -1.538  0.00  0.00     0.018 C 
ENDBRANCH   1   8
TORSDOF 1
ENDMDL
