MODEL 1
REMARK minimizedAffinity 2.96588206
REMARK minimizedRMSD -1
REMARK  1 active torsions:
REMARK  status: ('A' for Active; 'I' for Inactive)
REMARK    1  A    between atoms: C1_2  and  C2_3 
ROOT
ATOM      1  C2  UNL d   1      -0.638   1.765  -1.967  0.00  0.00    -0.076 A 
ATOM      2  C3  UNL d   1       0.412   0.889  -1.644  0.00  0.00     0.004 A 
ATOM      3  C4  UNL d   1       0.347  -0.463  -1.976  0.00  0.00    -0.003 A 
ATOM      4  C5  UNL d   1      -0.770  -0.961  -2.638  0.00  0.00     0.000 A 
ATOM      5  C6  UNL d   1      -1.814  -0.103  -2.982  0.00  0.00     0.000 A 
ATOM      6  C7  UNL d   1      -1.757   1.266  -2.669  0.00  0.00    -0.073 A 
ATOM      7  C8  UNL d   1      -2.913   2.145  -3.059  0.00  0.00     0.078 C 
ENDROOT
BRANCH   1   8
ATOM      8  C1  UNL d   1      -0.523   3.216  -1.557  0.00  0.00     0.053 C 
ATOM      9  C   UNL d   1      -0.141   3.379  -0.094  0.00  0.00     0.018 C 
ENDBRANCH   1   8
TORSDOF 1
ENDMDL
