MODEL 1
REMARK minimizedAffinity 9.39893341
REMARK minimizedRMSD -1
REMARK  1 active torsions:
REMARK  status: ('A' for Active; 'I' for Inactive)
REMARK    1  A    between atoms: C1_2  and  C2_3 
ROOT
ATOM      1  C2  UNL d   1       3.298  -2.214   1.018  0.00  0.00    -0.076 A 
ATOM      2  C3  UNL d   1       4.622  -1.743   1.048  0.00  0.00     0.004 A 
ATOM      3  C4  UNL d   1       5.699  -2.628   1.024  0.00  0.00    -0.003 A 
ATOM      4  C5  UNL d   1       5.469  -3.999   0.969  0.00  0.00     0.000 A 
ATOM      5  C6  UNL d   1       4.162  -4.482   0.920  0.00  0.00     0.000 A 
ATOM      6  C7  UNL d   1       3.065  -3.603   0.927  0.00  0.00    -0.073 A 
ATOM      7  C8  UNL d   1       1.677  -4.180   0.879  0.00  0.00     0.078 C 
ENDROOT
BRANCH   1   8
ATOM      8  C1  UNL d   1       2.171  -1.208   1.073  0.00  0.00     0.053 C 
ATOM      9  C   UNL d   1       2.195  -0.375   2.346  0.00  0.00     0.018 C 
ENDBRANCH   1   8
TORSDOF 1
ENDMDL
