MODEL 1
REMARK minimizedAffinity 1.16820633
REMARK minimizedRMSD -1
REMARK  1 active torsions:
REMARK  status: ('A' for Active; 'I' for Inactive)
REMARK    1  A    between atoms: C1_2  and  C2_3 
ROOT
ATOM      1  C2  UNL d   1      -1.709   3.060   0.189  0.00  0.00    -0.076 A 
ATOM      2  C3  UNL d   1      -0.908   2.169  -0.546  0.00  0.00     0.004 A 
ATOM      3  C4  UNL d   1      -0.077   2.627  -1.567  0.00  0.00    -0.003 A 
ATOM      4  C5  UNL d   1      -0.032   3.983  -1.869  0.00  0.00     0.000 A 
ATOM      5  C6  UNL d   1      -0.807   4.884  -1.138  0.00  0.00     0.000 A 
ATOM      6  C7  UNL d   1      -1.638   4.440  -0.095  0.00  0.00    -0.073 A 
ATOM      7  C8  UNL d   1      -2.456   5.454   0.657  0.00  0.00     0.078 C 
ENDROOT
BRANCH   1   8
ATOM      8  C1  UNL d   1      -2.611   2.502   1.267  0.00  0.00     0.053 C 
ATOM      9  C   UNL d   1      -1.923   1.440   2.111  0.00  0.00     0.018 C 
ENDBRANCH   1   8
TORSDOF 1
ENDMDL
