MODEL 1
REMARK minimizedAffinity -5.2218256
REMARK minimizedRMSD -1
REMARK  1 active torsions:
REMARK  status: ('A' for Active; 'I' for Inactive)
REMARK    1  A    between atoms: C1_2  and  C2_3 
ROOT
ATOM      1  C2  UNL d   1      -0.086  -0.014   0.146  0.00  0.00    -0.081 A 
ATOM      2  C3  UNL d   1      -1.097   0.926   0.382  0.00  0.00     0.006 A 
ATOM      3  C4  UNL d   1      -0.884   2.279   0.109  0.00  0.00     0.002 A 
ATOM      4  C5  UNL d   1       0.339   2.714  -0.412  0.00  0.00    -0.080 A 
ATOM      5  C6  UNL d   1       0.571   4.160  -0.738  0.00  0.00     0.076 C 
ATOM      6  C7  UNL d   1       1.356   1.778  -0.631  0.00  0.00     0.002 A 
ATOM      7  C8  UNL d   1       1.143   0.425  -0.358  0.00  0.00     0.006 A 
ENDROOT
BRANCH   1   8
ATOM      8  C1  UNL d   1      -0.335  -1.482   0.379  0.00  0.00     0.054 C 
ATOM      9  C   UNL d   1      -0.671  -2.199  -0.921  0.00  0.00     0.018 C 
ENDBRANCH   1   8
TORSDOF 1
ENDMDL
