MODEL 1
REMARK minimizedAffinity -5.55134678
REMARK minimizedRMSD -1
REMARK  1 active torsions:
REMARK  status: ('A' for Active; 'I' for Inactive)
REMARK    1  A    between atoms: C1_2  and  C2_3 
ROOT
ATOM      1  C2  UNL d   1      -0.422  -0.837  -0.209  0.00  0.00    -0.081 A 
ATOM      2  C3  UNL d   1      -1.474   0.070  -0.031  0.00  0.00     0.006 A 
ATOM      3  C4  UNL d   1      -1.217   1.438   0.086  0.00  0.00     0.002 A 
ATOM      4  C5  UNL d   1       0.094   1.923   0.019  0.00  0.00    -0.080 A 
ATOM      5  C6  UNL d   1       0.381   3.392   0.112  0.00  0.00     0.076 C 
ATOM      6  C7  UNL d   1       1.146   1.015  -0.142  0.00  0.00     0.002 A 
ATOM      7  C8  UNL d   1       0.890  -0.353  -0.258  0.00  0.00     0.006 A 
ENDROOT
BRANCH   1   8
ATOM      8  C1  UNL d   1      -0.701  -2.306  -0.400  0.00  0.00     0.054 C 
ATOM      9  C   UNL d   1      -0.878  -2.649  -1.873  0.00  0.00     0.018 C 
ENDBRANCH   1   8
TORSDOF 1
ENDMDL
