MODEL 1
REMARK minimizedAffinity -4.85437584
REMARK minimizedRMSD -1
REMARK  1 active torsions:
REMARK  status: ('A' for Active; 'I' for Inactive)
REMARK    1  A    between atoms: C1_2  and  C2_3 
ROOT
ATOM      1  C2  UNL d   1      -0.361  -0.487  -0.294  0.00  0.00    -0.081 A 
ATOM      2  C3  UNL d   1      -1.300   0.529  -0.074  0.00  0.00     0.006 A 
ATOM      3  C4  UNL d   1      -0.882   1.845   0.140  0.00  0.00     0.002 A 
ATOM      4  C5  UNL d   1       0.479   2.168   0.129  0.00  0.00    -0.080 A 
ATOM      5  C6  UNL d   1       0.940   3.582   0.327  0.00  0.00     0.076 C 
ATOM      6  C7  UNL d   1       1.417   1.150  -0.074  0.00  0.00     0.002 A 
ATOM      7  C8  UNL d   1       1.000  -0.166  -0.287  0.00  0.00     0.006 A 
ENDROOT
BRANCH   1   8
ATOM      8  C1  UNL d   1      -0.811  -1.895  -0.589  0.00  0.00     0.054 C 
ATOM      9  C   UNL d   1      -0.275  -2.378  -1.929  0.00  0.00     0.018 C 
ENDBRANCH   1   8
TORSDOF 1
ENDMDL
