MODEL 1
REMARK minimizedAffinity -5.61780024
REMARK minimizedRMSD -1
REMARK  1 active torsions:
REMARK  status: ('A' for Active; 'I' for Inactive)
REMARK    1  A    between atoms: C1_2  and  C2_3 
ROOT
ATOM      1  C2  UNL d   1      -0.071  -0.510  -0.035  0.00  0.00    -0.081 A 
ATOM      2  C3  UNL d   1      -1.057   0.367   0.433  0.00  0.00     0.006 A 
ATOM      3  C4  UNL d   1      -0.838   1.747   0.429  0.00  0.00     0.002 A 
ATOM      4  C5  UNL d   1       0.367   2.273  -0.049  0.00  0.00    -0.080 A 
ATOM      5  C6  UNL d   1       0.604   3.753  -0.086  0.00  0.00     0.076 C 
ATOM      6  C7  UNL d   1       1.360   1.396  -0.500  0.00  0.00     0.002 A 
ATOM      7  C8  UNL d   1       1.141   0.017  -0.497  0.00  0.00     0.006 A 
ENDROOT
BRANCH   1   8
ATOM      8  C1  UNL d   1      -0.329  -1.993  -0.094  0.00  0.00     0.054 C 
ATOM      9  C   UNL d   1      -0.341  -2.497  -1.530  0.00  0.00     0.018 C 
ENDBRANCH   1   8
TORSDOF 1
ENDMDL
