MODEL 1
REMARK minimizedAffinity -5.50114822
REMARK minimizedRMSD -1
REMARK  1 active torsions:
REMARK  status: ('A' for Active; 'I' for Inactive)
REMARK    1  A    between atoms: C1_2  and  C2_3 
ROOT
ATOM      1  C2  UNL d   1       1.653   1.652   0.203  0.00  0.00    -0.081 A 
ATOM      2  C3  UNL d   1       0.853   2.800   0.211  0.00  0.00     0.006 A 
ATOM      3  C4  UNL d   1      -0.540   2.693   0.209  0.00  0.00     0.002 A 
ATOM      4  C5  UNL d   1      -1.155   1.437   0.207  0.00  0.00    -0.080 A 
ATOM      5  C6  UNL d   1      -2.649   1.308   0.236  0.00  0.00     0.076 C 
ATOM      6  C7  UNL d   1      -0.356   0.289   0.182  0.00  0.00     0.002 A 
ATOM      7  C8  UNL d   1       1.037   0.396   0.183  0.00  0.00     0.006 A 
ENDROOT
BRANCH   1   8
ATOM      8  C1  UNL d   1       3.155   1.763   0.271  0.00  0.00     0.054 C 
ATOM      9  C   UNL d   1       3.801   0.405   0.503  0.00  0.00     0.018 C 
ENDBRANCH   1   8
TORSDOF 1
ENDMDL
