MODEL 1
REMARK minimizedAffinity -4.26800442
REMARK minimizedRMSD -1
REMARK  1 active torsions:
REMARK  status: ('A' for Active; 'I' for Inactive)
REMARK    1  A    between atoms: C1_2  and  C2_3 
ROOT
ATOM      1  C2  UNL d   1       0.155  -0.505  -0.023  0.00  0.00    -0.081 A 
ATOM      2  C3  UNL d   1       1.462  -0.019   0.106  0.00  0.00     0.006 A 
ATOM      3  C4  UNL d   1       1.694   1.343   0.312  0.00  0.00     0.002 A 
ATOM      4  C5  UNL d   1       0.624   2.240   0.399  0.00  0.00    -0.080 A 
ATOM      5  C6  UNL d   1       0.858   3.700   0.650  0.00  0.00     0.076 C 
ATOM      6  C7  UNL d   1      -0.681   1.758   0.252  0.00  0.00     0.002 A 
ATOM      7  C8  UNL d   1      -0.913   0.396   0.046  0.00  0.00     0.006 A 
ENDROOT
BRANCH   1   8
ATOM      8  C1  UNL d   1      -0.101  -1.982  -0.180  0.00  0.00     0.054 C 
ATOM      9  C   UNL d   1      -0.418  -2.338  -1.626  0.00  0.00     0.018 C 
ENDBRANCH   1   8
TORSDOF 1
ENDMDL
