MODEL 1
REMARK minimizedAffinity -0.905674815
REMARK minimizedRMSD -1
REMARK  1 active torsions:
REMARK  status: ('A' for Active; 'I' for Inactive)
REMARK    1  A    between atoms: C1_2  and  C2_3 
ROOT
ATOM      1  C2  UNL d   1       0.100  -0.659  -1.191  0.00  0.00    -0.081 A 
ATOM      2  C3  UNL d   1      -0.476  -0.799   0.078  0.00  0.00     0.006 A 
ATOM      3  C4  UNL d   1      -0.731   0.325   0.868  0.00  0.00     0.002 A 
ATOM      4  C5  UNL d   1      -0.423   1.607   0.400  0.00  0.00    -0.080 A 
ATOM      5  C6  UNL d   1      -0.720   2.823   1.225  0.00  0.00     0.076 C 
ATOM      6  C7  UNL d   1       0.168   1.745  -0.861  0.00  0.00     0.002 A 
ATOM      7  C8  UNL d   1       0.425   0.622  -1.651  0.00  0.00     0.006 A 
ENDROOT
BRANCH   1   8
ATOM      8  C1  UNL d   1       0.317  -1.863  -2.071  0.00  0.00     0.054 C 
ATOM      9  C   UNL d   1      -0.862  -2.822  -1.997  0.00  0.00     0.018 C 
ENDBRANCH   1   8
TORSDOF 1
ENDMDL
