MODEL 1
REMARK minimizedAffinity -4.2772603
REMARK minimizedRMSD -1
REMARK  1 active torsions:
REMARK  status: ('A' for Active; 'I' for Inactive)
REMARK    1  A    between atoms: C1_2  and  C2_3 
ROOT
ATOM      1  C2  UNL d   1       0.205  -0.718  -0.227  0.00  0.00    -0.081 A 
ATOM      2  C3  UNL d   1      -1.049  -0.121  -0.045  0.00  0.00     0.006 A 
ATOM      3  C4  UNL d   1      -1.165   1.268   0.041  0.00  0.00     0.002 A 
ATOM      4  C5  UNL d   1      -0.033   2.084  -0.060  0.00  0.00    -0.080 A 
ATOM      5  C6  UNL d   1      -0.148   3.578   0.001  0.00  0.00     0.076 C 
ATOM      6  C7  UNL d   1       1.221   1.486  -0.225  0.00  0.00     0.002 A 
ATOM      7  C8  UNL d   1       1.339   0.097  -0.311  0.00  0.00     0.006 A 
ENDROOT
BRANCH   1   8
ATOM      8  C1  UNL d   1       0.326  -2.212  -0.386  0.00  0.00     0.054 C 
ATOM      9  C   UNL d   1      -0.991  -2.830  -0.834  0.00  0.00     0.018 C 
ENDBRANCH   1   8
TORSDOF 1
ENDMDL
