MODEL 1
REMARK minimizedAffinity 6.47891092
REMARK minimizedRMSD -1
REMARK  1 active torsions:
REMARK  status: ('A' for Active; 'I' for Inactive)
REMARK    1  A    between atoms: C1_2  and  C2_3 
ROOT
ATOM      1  C2  UNL d   1       1.006  -1.704   3.664  0.00  0.00    -0.073 A 
ATOM      2  C3  UNL d   1       1.732  -0.530   3.432  0.00  0.00    -0.002 A 
ATOM      3  C4  UNL d   1       1.121   0.569   2.827  0.00  0.00     0.004 A 
ATOM      4  C5  UNL d   1      -0.222   0.509   2.454  0.00  0.00    -0.004 A 
ATOM      5  C6  UNL d   1      -0.967  -0.651   2.688  0.00  0.00    -0.075 A 
ATOM      6  C7  UNL d   1      -2.412  -0.733   2.291  0.00  0.00     0.076 C 
ATOM      7  C8  UNL d   1      -0.346  -1.751   3.294  0.00  0.00     0.001 A 
ENDROOT
BRANCH   1   8
ATOM      8  C1  UNL d   1       1.659  -2.890   4.324  0.00  0.00     0.053 C 
ATOM      9  C   UNL d   1       1.205  -3.064   5.764  0.00  0.00     0.018 C 
ENDBRANCH   1   8
TORSDOF 1
ENDMDL
