MODEL 1
REMARK minimizedAffinity 5.38013744
REMARK minimizedRMSD -1
REMARK  1 active torsions:
REMARK  status: ('A' for Active; 'I' for Inactive)
REMARK    1  A    between atoms: C1_2  and  C2_3 
ROOT
ATOM      1  C2  UNL d   1      -0.155  -1.272  -3.117  0.00  0.00    -0.073 A 
ATOM      2  C3  UNL d   1       0.247   0.050  -3.342  0.00  0.00    -0.002 A 
ATOM      3  C4  UNL d   1       1.143   0.349  -4.370  0.00  0.00     0.004 A 
ATOM      4  C5  UNL d   1       1.639  -0.668  -5.186  0.00  0.00    -0.004 A 
ATOM      5  C6  UNL d   1       1.239  -1.993  -4.985  0.00  0.00    -0.075 A 
ATOM      6  C7  UNL d   1       1.766  -3.098  -5.853  0.00  0.00     0.076 C 
ATOM      7  C8  UNL d   1       0.342  -2.285  -3.949  0.00  0.00     0.001 A 
ENDROOT
BRANCH   1   8
ATOM      8  C1  UNL d   1      -1.127  -1.599  -2.013  0.00  0.00     0.053 C 
ATOM      9  C   UNL d   1      -1.649  -3.023  -2.116  0.00  0.00     0.018 C 
ENDBRANCH   1   8
TORSDOF 1
ENDMDL
