MODEL 1
REMARK minimizedAffinity 13.723712
REMARK minimizedRMSD -1
REMARK  1 active torsions:
REMARK  status: ('A' for Active; 'I' for Inactive)
REMARK    1  A    between atoms: C1_2  and  C2_3 
ROOT
ATOM      1  C2  UNL d   1       4.598  -2.441   4.748  0.00  0.00    -0.073 A 
ATOM      2  C3  UNL d   1       3.434  -2.973   4.182  0.00  0.00    -0.002 A 
ATOM      3  C4  UNL d   1       2.605  -2.173   3.394  0.00  0.00     0.004 A 
ATOM      4  C5  UNL d   1       2.935  -0.838   3.158  0.00  0.00    -0.004 A 
ATOM      5  C6  UNL d   1       4.100  -0.293   3.706  0.00  0.00    -0.075 A 
ATOM      6  C7  UNL d   1       4.468   1.142   3.463  0.00  0.00     0.076 C 
ATOM      7  C8  UNL d   1       4.926  -1.101   4.498  0.00  0.00     0.001 A 
ENDROOT
BRANCH   1   8
ATOM      8  C1  UNL d   1       5.499  -3.303   5.595  0.00  0.00     0.053 C 
ATOM      9  C   UNL d   1       5.999  -4.522   4.836  0.00  0.00     0.018 C 
ENDBRANCH   1   8
TORSDOF 1
ENDMDL
