MODEL 1
REMARK minimizedAffinity 12.7458267
REMARK minimizedRMSD -1
REMARK  1 active torsions:
REMARK  status: ('A' for Active; 'I' for Inactive)
REMARK    1  A    between atoms: C1_2  and  C2_3 
ROOT
ATOM      1  C2  UNL d   1      -1.226  -2.355  -3.811  0.00  0.00    -0.073 A 
ATOM      2  C3  UNL d   1      -1.691  -2.281  -2.493  0.00  0.00    -0.002 A 
ATOM      3  C4  UNL d   1      -2.256  -3.400  -1.881  0.00  0.00     0.004 A 
ATOM      4  C5  UNL d   1      -2.356  -4.605  -2.576  0.00  0.00    -0.004 A 
ATOM      5  C6  UNL d   1      -1.886  -4.703  -3.889  0.00  0.00    -0.075 A 
ATOM      6  C7  UNL d   1      -1.989  -5.992  -4.651  0.00  0.00     0.076 C 
ATOM      7  C8  UNL d   1      -1.323  -3.574  -4.499  0.00  0.00     0.001 A 
ENDROOT
BRANCH   1   8
ATOM      8  C1  UNL d   1      -0.609  -1.151  -4.475  0.00  0.00     0.053 C 
ATOM      9  C   UNL d   1       0.577  -0.613  -3.690  0.00  0.00     0.018 C 
ENDBRANCH   1   8
TORSDOF 1
ENDMDL
