MODEL 1
REMARK minimizedAffinity 12.096242
REMARK minimizedRMSD -1
REMARK  1 active torsions:
REMARK  status: ('A' for Active; 'I' for Inactive)
REMARK    1  A    between atoms: C1_2  and  C2_3 
ROOT
ATOM      1  C2  UNL d   1       0.331  -1.604  -2.321  0.00  0.00    -0.073 A 
ATOM      2  C3  UNL d   1      -0.371  -1.122  -3.432  0.00  0.00    -0.002 A 
ATOM      3  C4  UNL d   1       0.318  -0.626  -4.540  0.00  0.00     0.004 A 
ATOM      4  C5  UNL d   1       1.712  -0.614  -4.552  0.00  0.00    -0.004 A 
ATOM      5  C6  UNL d   1       2.432  -1.103  -3.456  0.00  0.00    -0.075 A 
ATOM      6  C7  UNL d   1       3.932  -1.095  -3.453  0.00  0.00     0.076 C 
ATOM      7  C8  UNL d   1       1.733  -1.596  -2.346  0.00  0.00     0.001 A 
ENDROOT
BRANCH   1   8
ATOM      8  C1  UNL d   1      -0.408  -2.146  -1.125  0.00  0.00     0.053 C 
ATOM      9  C   UNL d   1      -1.826  -2.570  -1.474  0.00  0.00     0.018 C 
ENDBRANCH   1   8
TORSDOF 1
ENDMDL
