MODEL 1
REMARK minimizedAffinity -4.1598897
REMARK minimizedRMSD -1
REMARK  1 active torsions:
REMARK  status: ('A' for Active; 'I' for Inactive)
REMARK    1  A    between atoms: C1_2  and  C2_3 
ROOT
ATOM      1  C2  UNL d   1       0.107   0.755   1.031  0.00  0.00    -0.077 A 
ATOM      2  C3  UNL d   1      -0.567   0.498  -0.171  0.00  0.00     0.002 A 
ATOM      3  C4  UNL d   1      -0.013  -0.363  -1.120  0.00  0.00     0.002 A 
ATOM      4  C5  UNL d   1       1.214  -0.976  -0.876  0.00  0.00    -0.004 A 
ATOM      5  C6  UNL d   1       1.893  -0.725   0.315  0.00  0.00     0.002 A 
ATOM      6  C7  UNL d   1       1.342   0.136   1.265  0.00  0.00     0.002 A 
ENDROOT
BRANCH   1   7
ATOM      7  C1  UNL d   1      -0.511   1.645   2.078  0.00  0.00     0.055 C 
ATOM      8  C   UNL d   1      -1.578   0.906   2.872  0.00  0.00     0.019 C 
ENDBRANCH   1   7
TORSDOF 1
ENDMDL
