MODEL 1
REMARK minimizedAffinity -3.0704627
REMARK minimizedRMSD -1
REMARK  1 active torsions:
REMARK  status: ('A' for Active; 'I' for Inactive)
REMARK    1  A    between atoms: C1_2  and  C2_3 
ROOT
ATOM      1  C2  UNL d   1      -0.204   0.355   1.014  0.00  0.00    -0.077 A 
ATOM      2  C3  UNL d   1      -0.795   0.051  -0.220  0.00  0.00     0.002 A 
ATOM      3  C4  UNL d   1      -0.043  -0.543  -1.236  0.00  0.00     0.002 A 
ATOM      4  C5  UNL d   1       1.301  -0.842  -1.026  0.00  0.00    -0.004 A 
ATOM      5  C6  UNL d   1       1.898  -0.543   0.198  0.00  0.00     0.002 A 
ATOM      6  C7  UNL d   1       1.149   0.052   1.214  0.00  0.00     0.002 A 
ENDROOT
BRANCH   1   7
ATOM      7  C1  UNL d   1      -1.026   0.950   2.128  0.00  0.00     0.055 C 
ATOM      8  C   UNL d   1      -0.422   2.256   2.624  0.00  0.00     0.019 C 
ENDBRANCH   1   7
TORSDOF 1
ENDMDL
