MODEL 1
REMARK minimizedAffinity -5.60981512
REMARK minimizedRMSD -1
REMARK  1 active torsions:
REMARK  status: ('A' for Active; 'I' for Inactive)
REMARK    1  A    between atoms: C1_2  and  C2_3 
ROOT
ATOM      1  C2  UNL d   1      -0.484   0.125  -0.464  0.00  0.00    -0.077 A 
ATOM      2  C3  UNL d   1       0.280   1.187   0.039  0.00  0.00     0.002 A 
ATOM      3  C4  UNL d   1       0.037   1.688   1.320  0.00  0.00     0.002 A 
ATOM      4  C5  UNL d   1      -0.966   1.129   2.109  0.00  0.00    -0.004 A 
ATOM      5  C6  UNL d   1      -1.733   0.074   1.617  0.00  0.00     0.002 A 
ATOM      6  C7  UNL d   1      -1.492  -0.427   0.337  0.00  0.00     0.002 A 
ENDROOT
BRANCH   1   7
ATOM      7  C1  UNL d   1      -0.191  -0.449  -1.826  0.00  0.00     0.055 C 
ATOM      8  C   UNL d   1       0.750   0.451  -2.614  0.00  0.00     0.019 C 
ENDBRANCH   1   7
TORSDOF 1
ENDMDL
