MODEL 1
REMARK minimizedAffinity 4.18898535
REMARK minimizedRMSD -1
REMARK  1 active torsions:
REMARK  status: ('A' for Active; 'I' for Inactive)
REMARK    1  A    between atoms: C1_2  and  C2_3 
ROOT
ATOM      1  C2  UNL d   1       0.203  -0.222   0.854  0.00  0.00    -0.077 A 
ATOM      2  C3  UNL d   1      -0.790  -0.093  -0.128  0.00  0.00     0.002 A 
ATOM      3  C4  UNL d   1      -2.107   0.196   0.234  0.00  0.00     0.002 A 
ATOM      4  C5  UNL d   1      -2.443   0.363   1.576  0.00  0.00    -0.004 A 
ATOM      5  C6  UNL d   1      -1.463   0.235   2.559  0.00  0.00     0.002 A 
ATOM      6  C7  UNL d   1      -0.146  -0.056   2.200  0.00  0.00     0.002 A 
ENDROOT
BRANCH   1   7
ATOM      7  C1  UNL d   1       1.633  -0.486   0.463  0.00  0.00     0.055 C 
ATOM      8  C   UNL d   1       2.541  -0.536   1.683  0.00  0.00     0.019 C 
ENDBRANCH   1   7
TORSDOF 1
ENDMDL
