MODEL 1
REMARK minimizedAffinity -2.98279691
REMARK minimizedRMSD -1
REMARK  1 active torsions:
REMARK  status: ('A' for Active; 'I' for Inactive)
REMARK    1  A    between atoms: C1_2  and  C2_3 
ROOT
ATOM      1  C2  UNL d   1      -0.295  -0.036   0.135  0.00  0.00    -0.077 A 
ATOM      2  C3  UNL d   1       0.541   0.958   0.661  0.00  0.00     0.002 A 
ATOM      3  C4  UNL d   1       0.277   1.512   1.915  0.00  0.00     0.002 A 
ATOM      4  C5  UNL d   1      -0.820   1.076   2.655  0.00  0.00    -0.004 A 
ATOM      5  C6  UNL d   1      -1.659   0.089   2.139  0.00  0.00     0.002 A 
ATOM      6  C7  UNL d   1      -1.397  -0.465   0.885  0.00  0.00     0.002 A 
ENDROOT
BRANCH   1   7
ATOM      7  C1  UNL d   1       0.016  -0.670  -1.196  0.00  0.00     0.055 C 
ATOM      8  C   UNL d   1       0.734   0.305  -2.118  0.00  0.00     0.019 C 
ENDBRANCH   1   7
TORSDOF 1
ENDMDL
