MODEL 1
REMARK minimizedAffinity -4.71937895
REMARK minimizedRMSD -1
REMARK  1 active torsions:
REMARK  status: ('A' for Active; 'I' for Inactive)
REMARK    1  A    between atoms: C1_2  and  C2_3 
ROOT
ATOM      1  C2  UNL d   1       0.152  -0.749  -1.989  0.00  0.00    -0.077 A 
ATOM      2  C3  UNL d   1       0.660   0.434  -2.542  0.00  0.00     0.002 A 
ATOM      3  C4  UNL d   1       0.447   0.733  -3.890  0.00  0.00     0.002 A 
ATOM      4  C5  UNL d   1      -0.278  -0.144  -4.693  0.00  0.00    -0.004 A 
ATOM      5  C6  UNL d   1      -0.787  -1.325  -4.153  0.00  0.00     0.002 A 
ATOM      6  C7  UNL d   1      -0.573  -1.626  -2.807  0.00  0.00     0.002 A 
ENDROOT
BRANCH   1   7
ATOM      7  C1  UNL d   1       0.338  -1.050  -0.525  0.00  0.00     0.055 C 
ATOM      8  C   UNL d   1       0.187   0.206   0.321  0.00  0.00     0.019 C 
ENDBRANCH   1   7
TORSDOF 1
ENDMDL
