MODEL 1
REMARK minimizedAffinity 4.33326149
REMARK minimizedRMSD -1
REMARK  1 active torsions:
REMARK  status: ('A' for Active; 'I' for Inactive)
REMARK    1  A    between atoms: C1_2  and  C2_3 
ROOT
ATOM      1  C2  UNL d   1      -2.318  -0.690   1.369  0.00  0.00    -0.077 A 
ATOM      2  C3  UNL d   1      -1.583   0.495   1.514  0.00  0.00     0.002 A 
ATOM      3  C4  UNL d   1      -1.316   1.010   2.784  0.00  0.00     0.002 A 
ATOM      4  C5  UNL d   1      -1.777   0.345   3.918  0.00  0.00    -0.004 A 
ATOM      5  C6  UNL d   1      -2.511  -0.833   3.784  0.00  0.00     0.002 A 
ATOM      6  C7  UNL d   1      -2.779  -1.349   2.516  0.00  0.00     0.002 A 
ENDROOT
BRANCH   1   7
ATOM      7  C1  UNL d   1      -2.564  -1.274   0.002  0.00  0.00     0.055 C 
ATOM      8  C   UNL d   1      -3.598  -0.465  -0.767  0.00  0.00     0.019 C 
ENDBRANCH   1   7
TORSDOF 1
ENDMDL
