MODEL 1
REMARK minimizedAffinity -4.38306093
REMARK minimizedRMSD -1
REMARK  1 active torsions:
REMARK  status: ('A' for Active; 'I' for Inactive)
REMARK    1  A    between atoms: C1_2  and  C2_3 
ROOT
ATOM      1  C2  UNL d   1       0.069   0.020  -0.353  0.00  0.00    -0.076 A 
ATOM      2  C3  UNL d   1       0.790  -0.716  -1.309  0.00  0.00     0.004 A 
ATOM      3  C4  UNL d   1       0.785  -2.110  -1.294  0.00  0.00    -0.003 A 
ATOM      4  C5  UNL d   1       0.059  -2.790  -0.323  0.00  0.00     0.000 A 
ATOM      5  C6  UNL d   1      -0.677  -2.076   0.623  0.00  0.00     0.000 A 
ATOM      6  C7  UNL d   1      -0.696  -0.671   0.611  0.00  0.00    -0.073 A 
ATOM      7  C8  UNL d   1      -1.501   0.049   1.658  0.00  0.00     0.078 C 
ENDROOT
BRANCH   1   8
ATOM      8  C1  UNL d   1       0.133   1.530  -0.402  0.00  0.00     0.053 C 
ATOM      9  C   UNL d   1       1.499   2.068  -0.006  0.00  0.00     0.018 C 
ENDBRANCH   1   8
TORSDOF 1
ENDMDL
