MODEL 1
REMARK minimizedAffinity -3.25927615
REMARK minimizedRMSD -1
REMARK  1 active torsions:
REMARK  status: ('A' for Active; 'I' for Inactive)
REMARK    1  A    between atoms: C1_2  and  C2_3 
ROOT
ATOM      1  C2  UNL d   1       0.158  -1.121  -0.581  0.00  0.00    -0.076 A 
ATOM      2  C3  UNL d   1       0.691  -1.525  -1.817  0.00  0.00     0.004 A 
ATOM      3  C4  UNL d   1       0.679  -2.865  -2.201  0.00  0.00    -0.003 A 
ATOM      4  C5  UNL d   1       0.132  -3.823  -1.354  0.00  0.00     0.000 A 
ATOM      5  C6  UNL d   1      -0.417  -3.438  -0.132  0.00  0.00     0.000 A 
ATOM      6  C7  UNL d   1      -0.428  -2.089   0.263  0.00  0.00    -0.073 A 
ATOM      7  C8  UNL d   1      -1.028  -1.731   1.595  0.00  0.00     0.078 C 
ENDROOT
BRANCH   1   8
ATOM      8  C1  UNL d   1       0.224   0.342  -0.207  0.00  0.00     0.053 C 
ATOM      9  C   UNL d   1       0.117   1.258  -1.416  0.00  0.00     0.018 C 
ENDBRANCH   1   8
TORSDOF 1
ENDMDL
