MODEL 1
REMARK minimizedAffinity -4.30193043
REMARK minimizedRMSD -1
REMARK  1 active torsions:
REMARK  status: ('A' for Active; 'I' for Inactive)
REMARK    1  A    between atoms: C1_2  and  C2_3 
ROOT
ATOM      1  C2  UNL d   1       0.069  -1.623  -0.584  0.00  0.00    -0.076 A 
ATOM      2  C3  UNL d   1       0.099  -2.155   0.717  0.00  0.00     0.004 A 
ATOM      3  C4  UNL d   1       0.170  -3.531   0.928  0.00  0.00    -0.003 A 
ATOM      4  C5  UNL d   1       0.215  -4.397  -0.158  0.00  0.00     0.000 A 
ATOM      5  C6  UNL d   1       0.204  -3.886  -1.456  0.00  0.00     0.000 A 
ATOM      6  C7  UNL d   1       0.149  -2.501  -1.686  0.00  0.00    -0.073 A 
ATOM      7  C8  UNL d   1       0.134  -2.005  -3.106  0.00  0.00     0.078 C 
ENDROOT
BRANCH   1   8
ATOM      8  C1  UNL d   1      -0.036  -0.124  -0.751  0.00  0.00     0.053 C 
ATOM      9  C   UNL d   1      -0.099   0.608   0.581  0.00  0.00     0.018 C 
ENDBRANCH   1   8
TORSDOF 1
ENDMDL
