MODEL 1
REMARK minimizedAffinity -4.28540134
REMARK minimizedRMSD -1
REMARK  1 active torsions:
REMARK  status: ('A' for Active; 'I' for Inactive)
REMARK    1  A    between atoms: C1_2  and  C2_3 
ROOT
ATOM      1  C2  UNL d   1      -0.013  -0.840   0.262  0.00  0.00    -0.076 A 
ATOM      2  C3  UNL d   1       0.707  -1.778  -0.497  0.00  0.00     0.004 A 
ATOM      3  C4  UNL d   1       0.156  -3.018  -0.816  0.00  0.00    -0.003 A 
ATOM      4  C5  UNL d   1      -1.125  -3.340  -0.382  0.00  0.00     0.000 A 
ATOM      5  C6  UNL d   1      -1.861  -2.414   0.357  0.00  0.00     0.000 A 
ATOM      6  C7  UNL d   1      -1.326  -1.154   0.674  0.00  0.00    -0.073 A 
ATOM      7  C8  UNL d   1      -2.162  -0.196   1.479  0.00  0.00     0.078 C 
ENDROOT
BRANCH   1   8
ATOM      8  C1  UNL d   1       0.646   0.478   0.601  0.00  0.00     0.053 C 
ATOM      9  C   UNL d   1       0.220   1.600  -0.334  0.00  0.00     0.018 C 
ENDBRANCH   1   8
TORSDOF 1
ENDMDL
