MODEL 1
REMARK minimizedAffinity -4.28805017
REMARK minimizedRMSD -1
REMARK  1 active torsions:
REMARK  status: ('A' for Active; 'I' for Inactive)
REMARK    1  A    between atoms: C1_2  and  C2_3 
ROOT
ATOM      1  C2  UNL d   1      -0.089  -0.601  -0.419  0.00  0.00    -0.076 A 
ATOM      2  C3  UNL d   1      -0.549  -0.795   0.895  0.00  0.00     0.004 A 
ATOM      3  C4  UNL d   1      -0.677  -2.076   1.429  0.00  0.00    -0.003 A 
ATOM      4  C5  UNL d   1      -0.347  -3.185   0.657  0.00  0.00     0.000 A 
ATOM      5  C6  UNL d   1       0.127  -3.010  -0.643  0.00  0.00     0.000 A 
ATOM      6  C7  UNL d   1       0.278  -1.725  -1.190  0.00  0.00    -0.073 A 
ATOM      7  C8  UNL d   1       0.788  -1.595  -2.600  0.00  0.00     0.078 C 
ENDROOT
BRANCH   1   8
ATOM      8  C1  UNL d   1       0.004   0.810  -0.953  0.00  0.00     0.053 C 
ATOM      9  C   UNL d   1       0.763   1.738  -0.018  0.00  0.00     0.018 C 
ENDBRANCH   1   8
TORSDOF 1
ENDMDL
