MODEL 1
REMARK minimizedAffinity -2.34364891
REMARK minimizedRMSD -1
REMARK  1 active torsions:
REMARK  status: ('A' for Active; 'I' for Inactive)
REMARK    1  A    between atoms: C1_2  and  C2_3 
ROOT
ATOM      1  C2  UNL d   1      -0.026  -0.235  -0.230  0.00  0.00    -0.076 A 
ATOM      2  C3  UNL d   1       0.219  -0.320  -1.611  0.00  0.00     0.004 A 
ATOM      3  C4  UNL d   1       0.165  -1.545  -2.275  0.00  0.00    -0.003 A 
ATOM      4  C5  UNL d   1      -0.136  -2.703  -1.568  0.00  0.00     0.000 A 
ATOM      5  C6  UNL d   1      -0.400  -2.635  -0.201  0.00  0.00     0.000 A 
ATOM      6  C7  UNL d   1      -0.365  -1.406   0.481  0.00  0.00    -0.073 A 
ATOM      7  C8  UNL d   1      -0.652  -1.391   1.957  0.00  0.00     0.078 C 
ENDROOT
BRANCH   1   8
ATOM      8  C1  UNL d   1       0.073   1.117   0.441  0.00  0.00     0.053 C 
ATOM      9  C   UNL d   1       1.087   2.029  -0.233  0.00  0.00     0.018 C 
ENDBRANCH   1   8
TORSDOF 1
ENDMDL
