MODEL 1
REMARK minimizedAffinity -6.09913206
REMARK minimizedRMSD -1
REMARK  1 active torsions:
REMARK  status: ('A' for Active; 'I' for Inactive)
REMARK    1  A    between atoms: C1_2  and  C2_3 
ROOT
ATOM      1  C2  UNL d   1      -0.371  -0.182  -0.147  0.00  0.00    -0.076 A 
ATOM      2  C3  UNL d   1       0.166  -0.905  -1.227  0.00  0.00     0.004 A 
ATOM      3  C4  UNL d   1       0.252  -2.295  -1.187  0.00  0.00    -0.003 A 
ATOM      4  C5  UNL d   1      -0.197  -2.986  -0.067  0.00  0.00     0.000 A 
ATOM      5  C6  UNL d   1      -0.749  -2.287   1.006  0.00  0.00     0.000 A 
ATOM      6  C7  UNL d   1      -0.859  -0.886   0.975  0.00  0.00    -0.073 A 
ATOM      7  C8  UNL d   1      -1.457  -0.182   2.162  0.00  0.00     0.078 C 
ENDROOT
BRANCH   1   8
ATOM      8  C1  UNL d   1      -0.415   1.327  -0.236  0.00  0.00     0.053 C 
ATOM      9  C   UNL d   1       0.972   1.951  -0.225  0.00  0.00     0.018 C 
ENDBRANCH   1   8
TORSDOF 1
ENDMDL
