MODEL 1
REMARK minimizedAffinity -4.40314436
REMARK minimizedRMSD -1
REMARK  1 active torsions:
REMARK  status: ('A' for Active; 'I' for Inactive)
REMARK    1  A    between atoms: C1_2  and  C2_3 
ROOT
ATOM      1  C2  UNL d   1       0.091  -0.724  -0.525  0.00  0.00    -0.076 A 
ATOM      2  C3  UNL d   1      -0.161  -0.821   0.855  0.00  0.00     0.004 A 
ATOM      3  C4  UNL d   1      -0.342  -2.060   1.465  0.00  0.00    -0.003 A 
ATOM      4  C5  UNL d   1      -0.273  -3.223   0.707  0.00  0.00     0.000 A 
ATOM      5  C6  UNL d   1      -0.006  -3.147  -0.660  0.00  0.00     0.000 A 
ATOM      6  C7  UNL d   1       0.195  -1.906  -1.288  0.00  0.00    -0.073 A 
ATOM      7  C8  UNL d   1       0.474  -1.882  -2.766  0.00  0.00     0.078 C 
ENDROOT
BRANCH   1   8
ATOM      8  C1  UNL d   1       0.252   0.649  -1.137  0.00  0.00     0.053 C 
ATOM      9  C   UNL d   1       0.595   1.711  -0.104  0.00  0.00     0.018 C 
ENDBRANCH   1   8
TORSDOF 1
ENDMDL
