MODEL 1
REMARK minimizedAffinity -1.67672563
REMARK minimizedRMSD -1
REMARK  1 active torsions:
REMARK  status: ('A' for Active; 'I' for Inactive)
REMARK    1  A    between atoms: C1_2  and  C2_3 
ROOT
ATOM      1  C2  UNL d   1       0.529   1.143  -0.026  0.00  0.00    -0.076 A 
ATOM      2  C3  UNL d   1      -0.136   2.373   0.121  0.00  0.00     0.004 A 
ATOM      3  C4  UNL d   1       0.576   3.567   0.213  0.00  0.00    -0.003 A 
ATOM      4  C5  UNL d   1       1.965   3.552   0.158  0.00  0.00     0.000 A 
ATOM      5  C6  UNL d   1       2.641   2.343  -0.005  0.00  0.00     0.000 A 
ATOM      6  C7  UNL d   1       1.938   1.131  -0.115  0.00  0.00    -0.073 A 
ATOM      7  C8  UNL d   1       2.718  -0.144  -0.284  0.00  0.00     0.078 C 
ENDROOT
BRANCH   1   8
ATOM      8  C1  UNL d   1      -0.295  -0.123  -0.093  0.00  0.00     0.053 C 
ATOM      9  C   UNL d   1      -0.929  -0.477   1.244  0.00  0.00     0.018 C 
ENDBRANCH   1   8
TORSDOF 1
ENDMDL
