MODEL 1
REMARK minimizedAffinity -5.17069864
REMARK minimizedRMSD -1
REMARK  1 active torsions:
REMARK  status: ('A' for Active; 'I' for Inactive)
REMARK    1  A    between atoms: C1_2  and  C2_3 
ROOT
ATOM      1  C2  UNL d   1       0.011  -0.298  -0.089  0.00  0.00    -0.076 A 
ATOM      2  C3  UNL d   1       0.594  -0.948  -1.190  0.00  0.00     0.004 A 
ATOM      3  C4  UNL d   1       0.639  -2.340  -1.260  0.00  0.00    -0.003 A 
ATOM      4  C5  UNL d   1       0.101  -3.103  -0.230  0.00  0.00     0.000 A 
ATOM      5  C6  UNL d   1      -0.497  -2.474   0.862  0.00  0.00     0.000 A 
ATOM      6  C7  UNL d   1      -0.566  -1.073   0.940  0.00  0.00    -0.073 A 
ATOM      7  C8  UNL d   1      -1.217  -0.448   2.143  0.00  0.00     0.078 C 
ENDROOT
BRANCH   1   8
ATOM      8  C1  UNL d   1       0.015   1.214  -0.055  0.00  0.00     0.053 C 
ATOM      9  C   UNL d   1       1.411   1.796  -0.220  0.00  0.00     0.018 C 
ENDBRANCH   1   8
TORSDOF 1
ENDMDL
