MODEL 1
REMARK minimizedAffinity -2.68137765
REMARK minimizedRMSD -1
REMARK  1 active torsions:
REMARK  status: ('A' for Active; 'I' for Inactive)
REMARK    1  A    between atoms: C1_2  and  C2_3 
ROOT
ATOM      1  C2  UNL d   1      -0.128  -0.224  -0.249  0.00  0.00    -0.076 A 
ATOM      2  C3  UNL d   1      -0.359  -0.138   1.135  0.00  0.00     0.004 A 
ATOM      3  C4  UNL d   1      -0.615  -1.281   1.891  0.00  0.00    -0.003 A 
ATOM      4  C5  UNL d   1      -0.643  -2.528   1.276  0.00  0.00     0.000 A 
ATOM      5  C6  UNL d   1      -0.399  -2.633  -0.093  0.00  0.00     0.000 A 
ATOM      6  C7  UNL d   1      -0.123  -1.493  -0.867  0.00  0.00    -0.073 A 
ATOM      7  C8  UNL d   1       0.127  -1.664  -2.341  0.00  0.00     0.078 C 
ENDROOT
BRANCH   1   8
ATOM      8  C1  UNL d   1       0.117   1.052  -1.023  0.00  0.00     0.053 C 
ATOM      9  C   UNL d   1       0.930   2.065  -0.232  0.00  0.00     0.018 C 
ENDBRANCH   1   8
TORSDOF 1
ENDMDL
