MODEL 1
REMARK minimizedAffinity -1.17549527
REMARK minimizedRMSD -1
REMARK  1 active torsions:
REMARK  status: ('A' for Active; 'I' for Inactive)
REMARK    1  A    between atoms: C1_2  and  C2_3 
ROOT
ATOM      1  C2  UNL d   1       0.152  -1.237  -0.868  0.00  0.00    -0.076 A 
ATOM      2  C3  UNL d   1      -0.061   0.151  -0.816  0.00  0.00     0.004 A 
ATOM      3  C4  UNL d   1      -0.826   0.722   0.201  0.00  0.00    -0.003 A 
ATOM      4  C5  UNL d   1      -1.389  -0.087   1.182  0.00  0.00     0.000 A 
ATOM      5  C6  UNL d   1      -1.173  -1.464   1.155  0.00  0.00     0.000 A 
ATOM      6  C7  UNL d   1      -0.391  -2.054   0.147  0.00  0.00    -0.073 A 
ATOM      7  C8  UNL d   1      -0.196  -3.545   0.163  0.00  0.00     0.078 C 
ENDROOT
BRANCH   1   8
ATOM      8  C1  UNL d   1       0.967  -1.802  -2.009  0.00  0.00     0.053 C 
ATOM      9  C   UNL d   1       0.455  -1.353  -3.369  0.00  0.00     0.018 C 
ENDBRANCH   1   8
TORSDOF 1
ENDMDL
