MODEL 1
REMARK minimizedAffinity -3.98472691
REMARK minimizedRMSD -1
REMARK  1 active torsions:
REMARK  status: ('A' for Active; 'I' for Inactive)
REMARK    1  A    between atoms: C1_2  and  C2_3 
ROOT
ATOM      1  C2  UNL d   1      -0.398  -1.058  -1.028  0.00  0.00    -0.076 A 
ATOM      2  C3  UNL d   1      -0.472  -2.075  -0.060  0.00  0.00     0.004 A 
ATOM      3  C4  UNL d   1      -0.713  -1.774   1.280  0.00  0.00    -0.003 A 
ATOM      4  C5  UNL d   1      -0.885  -0.451   1.673  0.00  0.00     0.000 A 
ATOM      5  C6  UNL d   1      -0.832   0.569   0.723  0.00  0.00     0.000 A 
ATOM      6  C7  UNL d   1      -0.606   0.281  -0.634  0.00  0.00    -0.073 A 
ATOM      7  C8  UNL d   1      -0.553   1.420  -1.615  0.00  0.00     0.078 C 
ENDROOT
BRANCH   1   8
ATOM      8  C1  UNL d   1      -0.107  -1.443  -2.461  0.00  0.00     0.053 C 
ATOM      9  C   UNL d   1       0.107  -2.939  -2.631  0.00  0.00     0.018 C 
ENDBRANCH   1   8
TORSDOF 1
ENDMDL
