MODEL 1
REMARK minimizedAffinity 0.304577857
REMARK minimizedRMSD -1
REMARK  0 active torsions:
REMARK  status: ('A' for Active; 'I' for Inactive)
ROOT
ATOM      1  C   UNL d   1       0.909   3.004   1.577  0.00  0.00     0.077 C 
ATOM      2  C1  UNL d   1       1.326   1.626   1.158  0.00  0.00    -0.074 A 
ATOM      3  C2  UNL d   1       2.496   1.045   1.657  0.00  0.00    -0.005 A 
ATOM      4  C3  UNL d   1       2.865  -0.242   1.266  0.00  0.00     0.006 A 
ATOM      5  C4  UNL d   1       2.070  -0.960   0.372  0.00  0.00    -0.005 A 
ATOM      6  C5  UNL d   1       0.895  -0.396  -0.137  0.00  0.00    -0.074 A 
ATOM      7  C6  UNL d   1       0.024  -1.158  -1.091  0.00  0.00     0.077 C 
ATOM      8  C7  UNL d   1       0.527   0.895   0.267  0.00  0.00    -0.001 A 
ENDROOT
TORSDOF 0
ENDMDL
