MODEL 1
REMARK minimizedAffinity -3.33530402
REMARK minimizedRMSD -1
REMARK  0 active torsions:
REMARK  status: ('A' for Active; 'I' for Inactive)
ROOT
ATOM      1  C   UNL d   1       2.654  -2.004   0.217  0.00  0.00     0.077 C 
ATOM      2  C1  UNL d   1       1.521  -1.045   0.001  0.00  0.00    -0.074 A 
ATOM      3  C2  UNL d   1       0.443  -1.379  -0.824  0.00  0.00    -0.005 A 
ATOM      4  C3  UNL d   1      -0.608  -0.481  -1.008  0.00  0.00     0.006 A 
ATOM      5  C4  UNL d   1      -0.591   0.760  -0.368  0.00  0.00    -0.005 A 
ATOM      6  C5  UNL d   1       0.478   1.111   0.462  0.00  0.00    -0.074 A 
ATOM      7  C6  UNL d   1       0.506   2.436   1.164  0.00  0.00     0.077 C 
ATOM      8  C7  UNL d   1       1.527   0.200   0.647  0.00  0.00    -0.001 A 
ENDROOT
TORSDOF 0
ENDMDL
