MODEL 1
REMARK minimizedAffinity 5.77622318
REMARK minimizedRMSD -1
REMARK  0 active torsions:
REMARK  status: ('A' for Active; 'I' for Inactive)
ROOT
ATOM      1  C   UNL d   1       1.238  -2.553   0.189  0.00  0.00     0.077 C 
ATOM      2  C1  UNL d   1       0.181  -1.999  -0.720  0.00  0.00    -0.074 A 
ATOM      3  C2  UNL d   1      -0.494  -0.817  -0.399  0.00  0.00    -0.005 A 
ATOM      4  C3  UNL d   1      -1.468  -0.308  -1.259  0.00  0.00     0.006 A 
ATOM      5  C4  UNL d   1      -1.776  -0.975  -2.445  0.00  0.00    -0.005 A 
ATOM      6  C5  UNL d   1      -1.110  -2.158  -2.783  0.00  0.00    -0.074 A 
ATOM      7  C6  UNL d   1      -1.421  -2.881  -4.059  0.00  0.00     0.077 C 
ATOM      8  C7  UNL d   1      -0.128  -2.659  -1.917  0.00  0.00    -0.001 A 
ENDROOT
TORSDOF 0
ENDMDL
