MODEL 1
REMARK minimizedAffinity 5.95001793
REMARK minimizedRMSD -1
REMARK  0 active torsions:
REMARK  status: ('A' for Active; 'I' for Inactive)
ROOT
ATOM      1  C   UNL d   1      -0.955  -2.219  -3.154  0.00  0.00     0.077 C 
ATOM      2  C1  UNL d   1      -0.459  -2.067  -1.746  0.00  0.00    -0.074 A 
ATOM      3  C2  UNL d   1      -0.244  -3.186  -0.935  0.00  0.00    -0.005 A 
ATOM      4  C3  UNL d   1       0.226  -3.030   0.368  0.00  0.00     0.006 A 
ATOM      5  C4  UNL d   1       0.486  -1.755   0.873  0.00  0.00    -0.005 A 
ATOM      6  C5  UNL d   1       0.278  -0.625   0.077  0.00  0.00    -0.074 A 
ATOM      7  C6  UNL d   1       0.562   0.752   0.601  0.00  0.00     0.077 C 
ATOM      8  C7  UNL d   1      -0.188  -0.790  -1.235  0.00  0.00    -0.001 A 
ENDROOT
TORSDOF 0
ENDMDL
