MODEL 1
REMARK minimizedAffinity 4.14427328
REMARK minimizedRMSD -1
REMARK  0 active torsions:
REMARK  status: ('A' for Active; 'I' for Inactive)
ROOT
ATOM      1  C   UNL d   1       1.337   1.811   0.014  0.00  0.00     0.077 C 
ATOM      2  C1  UNL d   1       0.760   0.511  -0.463  0.00  0.00    -0.074 A 
ATOM      3  C2  UNL d   1      -0.554   0.438  -0.936  0.00  0.00    -0.005 A 
ATOM      4  C3  UNL d   1      -1.074  -0.776  -1.385  0.00  0.00     0.006 A 
ATOM      5  C4  UNL d   1      -0.286  -1.927  -1.366  0.00  0.00    -0.005 A 
ATOM      6  C5  UNL d   1       1.031  -1.874  -0.898  0.00  0.00    -0.074 A 
ATOM      7  C6  UNL d   1       1.895  -3.100  -0.881  0.00  0.00     0.077 C 
ATOM      8  C7  UNL d   1       1.548  -0.649  -0.455  0.00  0.00    -0.001 A 
ENDROOT
TORSDOF 0
ENDMDL
