MODEL 1
REMARK minimizedAffinity -3.00855184
REMARK minimizedRMSD -1
REMARK  0 active torsions:
REMARK  status: ('A' for Active; 'I' for Inactive)
ROOT
ATOM      1  C   UNL d   1       3.875   2.027  -0.389  0.00  0.00     0.077 C 
ATOM      2  C1  UNL d   1       3.164   0.710  -0.298  0.00  0.00    -0.074 A 
ATOM      3  C2  UNL d   1       3.877  -0.493  -0.300  0.00  0.00    -0.005 A 
ATOM      4  C3  UNL d   1       3.202  -1.710  -0.205  0.00  0.00     0.006 A 
ATOM      5  C4  UNL d   1       1.810  -1.737  -0.107  0.00  0.00    -0.005 A 
ATOM      6  C5  UNL d   1       1.081  -0.544  -0.102  0.00  0.00    -0.074 A 
ATOM      7  C6  UNL d   1      -0.415  -0.554   0.012  0.00  0.00     0.077 C 
ATOM      8  C7  UNL d   1       1.766   0.676  -0.191  0.00  0.00    -0.001 A 
ENDROOT
TORSDOF 0
ENDMDL
