MODEL 1
REMARK minimizedAffinity -3.80442142
REMARK minimizedRMSD -1
REMARK  2 active torsions:
REMARK  status: ('A' for Active; 'I' for Inactive)
REMARK    1  A    between atoms: C1_2  and  C2_3 
REMARK    2  A    between atoms: C2_3  and  C3_4 
ROOT
ATOM      1  C3  UNL d   1       0.561  -1.723  -1.247  0.00  0.00    -0.075 A 
ATOM      2  C4  UNL d   1       0.824  -1.694  -2.624  0.00  0.00     0.002 A 
ATOM      3  C5  UNL d   1       0.995  -2.881  -3.338  0.00  0.00     0.002 A 
ATOM      4  C6  UNL d   1       0.914  -4.108  -2.684  0.00  0.00    -0.004 A 
ATOM      5  C7  UNL d   1       0.670  -4.148  -1.313  0.00  0.00     0.002 A 
ATOM      6  C8  UNL d   1       0.494  -2.962  -0.597  0.00  0.00     0.002 A 
ENDROOT
BRANCH   1   7
ATOM      7  C2  UNL d   1       0.346  -0.443  -0.475  0.00  0.00     0.056 C 
BRANCH   7   8
ATOM      8  C1  UNL d   1      -0.583  -0.593   0.734  0.00  0.00     0.007 C 
ATOM      9  C   UNL d   1      -0.577   0.624   1.651  0.00  0.00     0.009 C 
ENDBRANCH   7   8
ENDBRANCH   1   7
TORSDOF 2
ENDMDL
