MODEL 1
REMARK minimizedAffinity -2.21053958
REMARK minimizedRMSD -1
REMARK  2 active torsions:
REMARK  status: ('A' for Active; 'I' for Inactive)
REMARK    1  A    between atoms: C1_2  and  C2_3 
REMARK    2  A    between atoms: C2_3  and  C3_4 
ROOT
ATOM      1  C3  UNL d   1       0.407   0.008   0.326  0.00  0.00    -0.075 A 
ATOM      2  C4  UNL d   1       0.226   1.398   0.369  0.00  0.00     0.002 A 
ATOM      3  C5  UNL d   1      -0.579   1.977   1.349  0.00  0.00     0.002 A 
ATOM      4  C6  UNL d   1      -1.222   1.176   2.291  0.00  0.00    -0.004 A 
ATOM      5  C7  UNL d   1      -1.063  -0.207   2.247  0.00  0.00     0.002 A 
ATOM      6  C8  UNL d   1      -0.254  -0.790   1.270  0.00  0.00     0.002 A 
ENDROOT
BRANCH   1   7
ATOM      7  C2  UNL d   1       1.301  -0.623  -0.715  0.00  0.00     0.056 C 
BRANCH   7   8
ATOM      8  C1  UNL d   1       1.157  -2.145  -0.821  0.00  0.00     0.007 C 
ATOM      9  C   UNL d   1       0.938  -2.630  -2.248  0.00  0.00     0.009 C 
ENDBRANCH   7   8
ENDBRANCH   1   7
TORSDOF 2
ENDMDL
