MODEL 1
REMARK minimizedAffinity -3.21758223
REMARK minimizedRMSD -1
REMARK  2 active torsions:
REMARK  status: ('A' for Active; 'I' for Inactive)
REMARK    1  A    between atoms: C1_2  and  C2_3 
REMARK    2  A    between atoms: C2_3  and  C3_4 
ROOT
ATOM      1  C3  UNL d   1       0.128  -0.965  -0.860  0.00  0.00    -0.075 A 
ATOM      2  C4  UNL d   1       0.581   0.277  -0.391  0.00  0.00     0.002 A 
ATOM      3  C5  UNL d   1       0.140   0.775   0.835  0.00  0.00     0.002 A 
ATOM      4  C6  UNL d   1      -0.767   0.045   1.601  0.00  0.00    -0.004 A 
ATOM      5  C7  UNL d   1      -1.237  -1.181   1.137  0.00  0.00     0.002 A 
ATOM      6  C8  UNL d   1      -0.793  -1.684  -0.087  0.00  0.00     0.002 A 
ENDROOT
BRANCH   1   7
ATOM      7  C2  UNL d   1       0.624  -1.523  -2.172  0.00  0.00     0.056 C 
BRANCH   7   8
ATOM      8  C1  UNL d   1       1.238  -2.923  -2.062  0.00  0.00     0.007 C 
ATOM      9  C   UNL d   1       0.235  -4.040  -2.322  0.00  0.00     0.009 C 
ENDBRANCH   7   8
ENDBRANCH   1   7
TORSDOF 2
ENDMDL
