MODEL 1
REMARK minimizedAffinity -0.627502024
REMARK minimizedRMSD -1
REMARK  2 active torsions:
REMARK  status: ('A' for Active; 'I' for Inactive)
REMARK    1  A    between atoms: C1_2  and  C2_3 
REMARK    2  A    between atoms: C2_3  and  C3_4 
ROOT
ATOM      1  C3  UNL d   1       1.031  -1.734  -1.179  0.00  0.00    -0.075 A 
ATOM      2  C4  UNL d   1       0.801  -1.639  -2.559  0.00  0.00     0.002 A 
ATOM      3  C5  UNL d   1       0.844  -2.777  -3.365  0.00  0.00     0.002 A 
ATOM      4  C6  UNL d   1       1.127  -4.020  -2.804  0.00  0.00    -0.004 A 
ATOM      5  C7  UNL d   1       1.374  -4.125  -1.437  0.00  0.00     0.002 A 
ATOM      6  C8  UNL d   1       1.327  -2.988  -0.628  0.00  0.00     0.002 A 
ENDROOT
BRANCH   1   7
ATOM      7  C2  UNL d   1       0.956  -0.511  -0.296  0.00  0.00     0.056 C 
BRANCH   7   8
ATOM      8  C1  UNL d   1      -0.472  -0.043   0.000  0.00  0.00     0.007 C 
ATOM      9  C   UNL d   1      -0.767   0.080   1.490  0.00  0.00     0.009 C 
ENDBRANCH   7   8
ENDBRANCH   1   7
TORSDOF 2
ENDMDL
