MODEL 1
REMARK minimizedAffinity -3.75372195
REMARK minimizedRMSD -1
REMARK  2 active torsions:
REMARK  status: ('A' for Active; 'I' for Inactive)
REMARK    1  A    between atoms: C1_2  and  C2_3 
REMARK    2  A    between atoms: C2_3  and  C3_4 
ROOT
ATOM      1  C3  UNL d   1       0.654   0.070  -0.022  0.00  0.00    -0.075 A 
ATOM      2  C4  UNL d   1       0.247  -0.785   1.013  0.00  0.00     0.002 A 
ATOM      3  C5  UNL d   1      -0.619  -0.331   2.008  0.00  0.00     0.002 A 
ATOM      4  C6  UNL d   1      -1.079   0.984   1.988  0.00  0.00    -0.004 A 
ATOM      5  C7  UNL d   1      -0.667   1.847   0.975  0.00  0.00     0.002 A 
ATOM      6  C8  UNL d   1       0.195   1.393  -0.025  0.00  0.00     0.002 A 
ENDROOT
BRANCH   1   7
ATOM      7  C2  UNL d   1       1.567  -0.425  -1.118  0.00  0.00     0.056 C 
BRANCH   7   8
ATOM      8  C1  UNL d   1       1.563  -1.947  -1.294  0.00  0.00     0.007 C 
ATOM      9  C   UNL d   1       0.610  -2.424  -2.381  0.00  0.00     0.009 C 
ENDBRANCH   7   8
ENDBRANCH   1   7
TORSDOF 2
ENDMDL
