MODEL 1
REMARK minimizedAffinity -1.54524446
REMARK minimizedRMSD -1
REMARK  2 active torsions:
REMARK  status: ('A' for Active; 'I' for Inactive)
REMARK    1  A    between atoms: C1_2  and  C2_3 
REMARK    2  A    between atoms: C2_3  and  C3_4 
ROOT
ATOM      1  C3  UNL d   1       0.880  -1.326  -0.527  0.00  0.00    -0.075 A 
ATOM      2  C4  UNL d   1      -0.024  -1.650   0.495  0.00  0.00     0.002 A 
ATOM      3  C5  UNL d   1      -0.553  -0.653   1.315  0.00  0.00     0.002 A 
ATOM      4  C6  UNL d   1      -0.179   0.677   1.131  0.00  0.00    -0.004 A 
ATOM      5  C7  UNL d   1       0.731   1.008   0.129  0.00  0.00     0.002 A 
ATOM      6  C8  UNL d   1       1.258   0.013  -0.696  0.00  0.00     0.002 A 
ENDROOT
BRANCH   1   7
ATOM      7  C2  UNL d   1       1.433  -2.396  -1.437  0.00  0.00     0.056 C 
BRANCH   7   8
ATOM      8  C1  UNL d   1       0.540  -2.716  -2.640  0.00  0.00     0.007 C 
ATOM      9  C   UNL d   1       0.388  -4.210  -2.895  0.00  0.00     0.009 C 
ENDBRANCH   7   8
ENDBRANCH   1   7
TORSDOF 2
ENDMDL
