MODEL 1
REMARK minimizedAffinity -4.26195288
REMARK minimizedRMSD -1
REMARK  2 active torsions:
REMARK  status: ('A' for Active; 'I' for Inactive)
REMARK    1  A    between atoms: C1_2  and  C2_3 
REMARK    2  A    between atoms: C2_3  and  C3_4 
ROOT
ATOM      1  C3  UNL d   1      -0.704   0.880   0.704  0.00  0.00    -0.075 A 
ATOM      2  C4  UNL d   1      -1.362   1.142   1.915  0.00  0.00     0.002 A 
ATOM      3  C5  UNL d   1      -1.595   2.455   2.325  0.00  0.00     0.002 A 
ATOM      4  C6  UNL d   1      -1.166   3.521   1.537  0.00  0.00    -0.004 A 
ATOM      5  C7  UNL d   1      -0.497   3.273   0.341  0.00  0.00     0.002 A 
ATOM      6  C8  UNL d   1      -0.266   1.960  -0.074  0.00  0.00     0.002 A 
ENDROOT
BRANCH   1   7
ATOM      7  C2  UNL d   1      -0.475  -0.538   0.241  0.00  0.00     0.056 C 
BRANCH   7   8
ATOM      8  C1  UNL d   1       0.821  -0.733  -0.553  0.00  0.00     0.007 C 
ATOM      9  C   UNL d   1       0.910  -2.093  -1.233  0.00  0.00     0.009 C 
ENDBRANCH   7   8
ENDBRANCH   1   7
TORSDOF 2
ENDMDL
