MODEL 1
REMARK minimizedAffinity -3.43774533
REMARK minimizedRMSD -1
REMARK  2 active torsions:
REMARK  status: ('A' for Active; 'I' for Inactive)
REMARK    1  A    between atoms: C1_2  and  C2_3 
REMARK    2  A    between atoms: C2_3  and  C3_4 
ROOT
ATOM      1  C3  UNL d   1      -0.436   1.107   0.638  0.00  0.00    -0.075 A 
ATOM      2  C4  UNL d   1      -0.958   1.506   1.877  0.00  0.00     0.002 A 
ATOM      3  C5  UNL d   1      -1.047   2.859   2.206  0.00  0.00     0.002 A 
ATOM      4  C6  UNL d   1      -0.609   3.828   1.306  0.00  0.00    -0.004 A 
ATOM      5  C7  UNL d   1      -0.073   3.443   0.079  0.00  0.00     0.002 A 
ATOM      6  C8  UNL d   1       0.014   2.090  -0.254  0.00  0.00     0.002 A 
ENDROOT
BRANCH   1   7
ATOM      7  C2  UNL d   1      -0.363  -0.354   0.265  0.00  0.00     0.056 C 
BRANCH   7   8
ATOM      8  C1  UNL d   1       0.727  -0.682  -0.761  0.00  0.00     0.007 C 
ATOM      9  C   UNL d   1       0.825  -2.169  -1.077  0.00  0.00     0.009 C 
ENDBRANCH   7   8
ENDBRANCH   1   7
TORSDOF 2
ENDMDL
