MODEL 1
REMARK minimizedAffinity -4.78056955
REMARK minimizedRMSD -1
REMARK  2 active torsions:
REMARK  status: ('A' for Active; 'I' for Inactive)
REMARK    1  A    between atoms: C1_2  and  C2_3 
REMARK    2  A    between atoms: C2_3  and  C3_4 
ROOT
ATOM      1  C3  UNL d   1      -0.527   0.916   0.156  0.00  0.00    -0.075 A 
ATOM      2  C4  UNL d   1      -1.329   1.375   1.211  0.00  0.00     0.002 A 
ATOM      3  C5  UNL d   1      -1.514   2.742   1.417  0.00  0.00     0.002 A 
ATOM      4  C6  UNL d   1      -0.893   3.667   0.580  0.00  0.00    -0.004 A 
ATOM      5  C7  UNL d   1      -0.080   3.222  -0.460  0.00  0.00     0.002 A 
ATOM      6  C8  UNL d   1       0.103   1.855  -0.672  0.00  0.00     0.002 A 
ENDROOT
BRANCH   1   7
ATOM      7  C2  UNL d   1      -0.346  -0.563  -0.090  0.00  0.00     0.056 C 
BRANCH   7   8
ATOM      8  C1  UNL d   1       0.785  -0.898  -1.068  0.00  0.00     0.007 C 
ATOM      9  C   UNL d   1       0.900  -2.387  -1.365  0.00  0.00     0.009 C 
ENDBRANCH   7   8
ENDBRANCH   1   7
TORSDOF 2
ENDMDL
