MODEL 1
REMARK minimizedAffinity -4.62741423
REMARK minimizedRMSD -1
REMARK  2 active torsions:
REMARK  status: ('A' for Active; 'I' for Inactive)
REMARK    1  A    between atoms: C1_2  and  C2_3 
REMARK    2  A    between atoms: C2_3  and  C3_4 
ROOT
ATOM      1  C3  UNL d   1      -0.196   0.064   0.390  0.00  0.00    -0.075 A 
ATOM      2  C4  UNL d   1       0.331   1.178  -0.278  0.00  0.00     0.002 A 
ATOM      3  C5  UNL d   1       0.047   2.470   0.166  0.00  0.00     0.002 A 
ATOM      4  C6  UNL d   1      -0.773   2.664   1.275  0.00  0.00    -0.004 A 
ATOM      5  C7  UNL d   1      -1.316   1.565   1.937  0.00  0.00     0.002 A 
ATOM      6  C8  UNL d   1      -1.030   0.271   1.497  0.00  0.00     0.002 A 
ENDROOT
BRANCH   1   7
ATOM      7  C2  UNL d   1       0.131  -1.338  -0.068  0.00  0.00     0.056 C 
BRANCH   7   8
ATOM      8  C1  UNL d   1       0.630  -1.421  -1.514  0.00  0.00     0.007 C 
ATOM      9  C   UNL d   1       0.966  -2.840  -1.953  0.00  0.00     0.009 C 
ENDBRANCH   7   8
ENDBRANCH   1   7
TORSDOF 2
ENDMDL
