MODEL 1
REMARK minimizedAffinity -5.30787516
REMARK minimizedRMSD -1
REMARK  2 active torsions:
REMARK  status: ('A' for Active; 'I' for Inactive)
REMARK    1  A    between atoms: C1_2  and  C2_3 
REMARK    2  A    between atoms: C2_3  and  C3_4 
ROOT
ATOM      1  C3  UNL d   1       0.482  -0.417   0.346  0.00  0.00    -0.075 A 
ATOM      2  C4  UNL d   1      -0.302  -0.793   1.447  0.00  0.00     0.002 A 
ATOM      3  C5  UNL d   1      -0.976   0.170   2.198  0.00  0.00     0.002 A 
ATOM      4  C6  UNL d   1      -0.867   1.519   1.866  0.00  0.00    -0.004 A 
ATOM      5  C7  UNL d   1      -0.077   1.905   0.785  0.00  0.00     0.002 A 
ATOM      6  C8  UNL d   1       0.594   0.943   0.029  0.00  0.00     0.002 A 
ENDROOT
BRANCH   1   7
ATOM      7  C2  UNL d   1       1.190  -1.457  -0.489  0.00  0.00     0.056 C 
BRANCH   7   8
ATOM      8  C1  UNL d   1       0.265  -2.238  -1.428  0.00  0.00     0.007 C 
ATOM      9  C   UNL d   1       1.005  -2.912  -2.576  0.00  0.00     0.009 C 
ENDBRANCH   7   8
ENDBRANCH   1   7
TORSDOF 2
ENDMDL
