MODEL 1
REMARK minimizedAffinity 0.140353948
REMARK minimizedRMSD -1
REMARK  0 active torsions:
REMARK  status: ('A' for Active; 'I' for Inactive)
ROOT
ATOM      1  C1  BNZ d   1      -2.053   3.236   5.998  0.00  0.00     0.000 A 
ATOM      2  C2  BNZ d   1      -2.049   4.009   4.868  0.00  0.00     0.000 A 
ATOM      3  C3  BNZ d   1      -1.995   3.436   3.628  0.00  0.00     0.000 A 
ATOM      4  C4  BNZ d   1      -1.904   2.094   3.521  0.00  0.00     0.000 A 
ATOM      5  C5  BNZ d   1      -1.897   1.302   4.652  0.00  0.00     0.000 A 
ATOM      6  C6  BNZ d   1      -1.991   1.880   5.897  0.00  0.00     0.000 A 
ENDROOT
TORSDOF 0
ENDMDL
