MODEL 1
REMARK minimizedAffinity 1.65183353
REMARK minimizedRMSD -1
REMARK  0 active torsions:
REMARK  status: ('A' for Active; 'I' for Inactive)
ROOT
ATOM      1  C1  BNZ d   1       0.991   2.176  -1.299  0.00  0.00     0.000 A 
ATOM      2  C2  BNZ d   1       0.809   1.255  -2.295  0.00  0.00     0.000 A 
ATOM      3  C3  BNZ d   1       1.263  -0.027  -2.155  0.00  0.00     0.000 A 
ATOM      4  C4  BNZ d   1       1.933  -0.375  -1.038  0.00  0.00     0.000 A 
ATOM      5  C5  BNZ d   1       2.133   0.545  -0.028  0.00  0.00     0.000 A 
ATOM      6  C6  BNZ d   1       1.641   1.824  -0.156  0.00  0.00     0.000 A 
ENDROOT
TORSDOF 0
ENDMDL
