MODEL 1
REMARK minimizedAffinity 0.0238511041
REMARK minimizedRMSD -1
REMARK  0 active torsions:
REMARK  status: ('A' for Active; 'I' for Inactive)
ROOT
ATOM      1  C1  BNZ d   1       1.351   3.870   0.249  0.00  0.00     0.000 A 
ATOM      2  C2  BNZ d   1       1.140   3.988  -1.099  0.00  0.00     0.000 A 
ATOM      3  C3  BNZ d   1       1.073   2.880  -1.896  0.00  0.00     0.000 A 
ATOM      4  C4  BNZ d   1       1.258   1.660  -1.353  0.00  0.00     0.000 A 
ATOM      5  C5  BNZ d   1       1.481   1.525   0.003  0.00  0.00     0.000 A 
ATOM      6  C6  BNZ d   1       1.508   2.639   0.809  0.00  0.00     0.000 A 
ENDROOT
TORSDOF 0
ENDMDL
