MODEL 1
REMARK minimizedAffinity -3.84844041
REMARK minimizedRMSD -1
REMARK  0 active torsions:
REMARK  status: ('A' for Active; 'I' for Inactive)
ROOT
ATOM      1  C1  BNZ d   1       1.239   0.607  -1.046  0.00  0.00     0.000 A 
ATOM      2  C2  BNZ d   1       1.454   0.651   0.306  0.00  0.00     0.000 A 
ATOM      3  C3  BNZ d   1       1.418   1.838   0.982  0.00  0.00     0.000 A 
ATOM      4  C4  BNZ d   1       1.206   2.983   0.302  0.00  0.00     0.000 A 
ATOM      5  C5  BNZ d   1       0.997   2.956  -1.063  0.00  0.00     0.000 A 
ATOM      6  C6  BNZ d   1       0.996   1.755  -1.735  0.00  0.00     0.000 A 
ENDROOT
TORSDOF 0
ENDMDL
