MODEL 1
REMARK minimizedAffinity 1.69777656
REMARK minimizedRMSD -1
REMARK  0 active torsions:
REMARK  status: ('A' for Active; 'I' for Inactive)
ROOT
ATOM      1  C1  BNZ d   1       1.463   0.354  -1.089  0.00  0.00     0.000 A 
ATOM      2  C2  BNZ d   1       1.070   1.491  -1.745  0.00  0.00     0.000 A 
ATOM      3  C3  BNZ d   1       0.947   2.677  -1.077  0.00  0.00     0.000 A 
ATOM      4  C4  BNZ d   1       1.177   2.717   0.251  0.00  0.00     0.000 A 
ATOM      5  C5  BNZ d   1       1.565   1.578   0.929  0.00  0.00     0.000 A 
ATOM      6  C6  BNZ d   1       1.726   0.394   0.246  0.00  0.00     0.000 A 
ENDROOT
TORSDOF 0
ENDMDL
