MODEL 1
REMARK minimizedAffinity -2.08842087
REMARK minimizedRMSD -1
REMARK  0 active torsions:
REMARK  status: ('A' for Active; 'I' for Inactive)
ROOT
ATOM      1  C1  BNZ d   1       0.819   3.533  -0.755  0.00  0.00     0.000 A 
ATOM      2  C2  BNZ d   1       0.808   2.735  -1.868  0.00  0.00     0.000 A 
ATOM      3  C3  BNZ d   1       1.171   1.419  -1.789  0.00  0.00     0.000 A 
ATOM      4  C4  BNZ d   1       1.582   0.915  -0.608  0.00  0.00     0.000 A 
ATOM      5  C5  BNZ d   1       1.608   1.709   0.521  0.00  0.00     0.000 A 
ATOM      6  C6  BNZ d   1       1.205   3.023   0.446  0.00  0.00     0.000 A 
ENDROOT
TORSDOF 0
ENDMDL
