MODEL 1
REMARK minimizedAffinity -1.18444586
REMARK minimizedRMSD -1
REMARK  0 active torsions:
REMARK  status: ('A' for Active; 'I' for Inactive)
ROOT
ATOM      1  C1  BNZ d   1       1.483   0.983  -1.870  0.00  0.00     0.000 A 
ATOM      2  C2  BNZ d   1       2.118   0.521  -0.748  0.00  0.00     0.000 A 
ATOM      3  C3  BNZ d   1       2.804   1.375   0.069  0.00  0.00     0.000 A 
ATOM      4  C4  BNZ d   1       2.889   2.681  -0.257  0.00  0.00     0.000 A 
ATOM      5  C5  BNZ d   1       2.262   3.161  -1.390  0.00  0.00     0.000 A 
ATOM      6  C6  BNZ d   1       1.540   2.305  -2.190  0.00  0.00     0.000 A 
ENDROOT
TORSDOF 0
ENDMDL
