MODEL 1
REMARK minimizedAffinity -0.565696001
REMARK minimizedRMSD -1
REMARK  0 active torsions:
REMARK  status: ('A' for Active; 'I' for Inactive)
ROOT
ATOM      1  C1  BNZ d   1       1.581   1.283  -2.353  0.00  0.00     0.000 A 
ATOM      2  C2  BNZ d   1       1.847  -0.058  -2.432  0.00  0.00     0.000 A 
ATOM      3  C3  BNZ d   1       1.794  -0.849  -1.319  0.00  0.00     0.000 A 
ATOM      4  C4  BNZ d   1       1.514  -0.293  -0.123  0.00  0.00     0.000 A 
ATOM      5  C5  BNZ d   1       1.252   1.059  -0.025  0.00  0.00     0.000 A 
ATOM      6  C6  BNZ d   1       1.269   1.846  -1.154  0.00  0.00     0.000 A 
ENDROOT
TORSDOF 0
ENDMDL
