MODEL 1
REMARK minimizedAffinity -1.47014594
REMARK minimizedRMSD -1
REMARK  0 active torsions:
REMARK  status: ('A' for Active; 'I' for Inactive)
ROOT
ATOM      1  C1  BNZ d   1       2.154   1.077  -2.243  0.00  0.00     0.000 A 
ATOM      2  C2  BNZ d   1       1.572   2.217  -1.755  0.00  0.00     0.000 A 
ATOM      3  C3  BNZ d   1       0.896   2.203  -0.567  0.00  0.00     0.000 A 
ATOM      4  C4  BNZ d   1       0.768   1.044   0.110  0.00  0.00     0.000 A 
ATOM      5  C5  BNZ d   1       1.340  -0.115  -0.374  0.00  0.00     0.000 A 
ATOM      6  C6  BNZ d   1       2.054  -0.090  -1.550  0.00  0.00     0.000 A 
ENDROOT
TORSDOF 0
ENDMDL
