MODEL 1
REMARK minimizedAffinity -4.14010096
REMARK minimizedRMSD -1
REMARK  0 active torsions:
REMARK  status: ('A' for Active; 'I' for Inactive)
ROOT
ATOM      1  C1  BNZ d   1       1.394   0.750  -1.820  0.00  0.00     0.000 A 
ATOM      2  C2  BNZ d   1       1.046   2.040  -2.119  0.00  0.00     0.000 A 
ATOM      3  C3  BNZ d   1       0.744   2.932  -1.128  0.00  0.00     0.000 A 
ATOM      4  C4  BNZ d   1       0.750   2.522   0.157  0.00  0.00     0.000 A 
ATOM      5  C5  BNZ d   1       1.089   1.222   0.474  0.00  0.00     0.000 A 
ATOM      6  C6  BNZ d   1       1.430   0.338  -0.524  0.00  0.00     0.000 A 
ENDROOT
TORSDOF 0
ENDMDL
