MODEL 1
REMARK minimizedAffinity 2.84157801
REMARK minimizedRMSD -1
REMARK  0 active torsions:
REMARK  status: ('A' for Active; 'I' for Inactive)
ROOT
ATOM      1  C1  BNZ d   1       1.024   1.072  -0.079  0.00  0.00     0.000 A 
ATOM      2  C2  BNZ d   1       1.958   1.684   0.714  0.00  0.00     0.000 A 
ATOM      3  C3  BNZ d   1       3.144   1.068   1.002  0.00  0.00     0.000 A 
ATOM      4  C4  BNZ d   1       3.377  -0.174   0.531  0.00  0.00     0.000 A 
ATOM      5  C5  BNZ d   1       2.442  -0.808  -0.262  0.00  0.00     0.000 A 
ATOM      6  C6  BNZ d   1       1.266  -0.169  -0.583  0.00  0.00     0.000 A 
ENDROOT
TORSDOF 0
ENDMDL
