MODEL 1
REMARK minimizedAffinity -2.34611654
REMARK minimizedRMSD -1
REMARK  0 active torsions:
REMARK  status: ('A' for Active; 'I' for Inactive)
ROOT
ATOM      1  C1  BNZ d   1       1.351   2.254  -2.188  0.00  0.00     0.000 A 
ATOM      2  C2  BNZ d   1       1.247   0.916  -1.916  0.00  0.00     0.000 A 
ATOM      3  C3  BNZ d   1       0.918   0.480  -0.663  0.00  0.00     0.000 A 
ATOM      4  C4  BNZ d   1       0.735   1.379   0.325  0.00  0.00     0.000 A 
ATOM      5  C5  BNZ d   1       0.846   2.731   0.070  0.00  0.00     0.000 A 
ATOM      6  C6  BNZ d   1       1.138   3.168  -1.202  0.00  0.00     0.000 A 
ENDROOT
TORSDOF 0
ENDMDL
