MODEL 1
REMARK minimizedAffinity -0.404648036
REMARK minimizedRMSD -1
REMARK  0 active torsions:
REMARK  status: ('A' for Active; 'I' for Inactive)
ROOT
ATOM      1  C1  BNZ d   1       0.615   2.132  -0.948  0.00  0.00     0.000 A 
ATOM      2  C2  BNZ d   1       0.496   1.116  -1.857  0.00  0.00     0.000 A 
ATOM      3  C3  BNZ d   1       0.849  -0.163  -1.528  0.00  0.00     0.000 A 
ATOM      4  C4  BNZ d   1       1.358  -0.416  -0.305  0.00  0.00     0.000 A 
ATOM      5  C5  BNZ d   1       1.493   0.600   0.620  0.00  0.00     0.000 A 
ATOM      6  C6  BNZ d   1       1.100   1.879   0.298  0.00  0.00     0.000 A 
ENDROOT
TORSDOF 0
ENDMDL
