MODEL 1
REMARK minimizedAffinity 2.56855583
REMARK minimizedRMSD -1
REMARK  0 active torsions:
REMARK  status: ('A' for Active; 'I' for Inactive)
ROOT
ATOM      1  C1  BNZ d   1       0.371   2.071  -0.645  0.00  0.00     0.000 A 
ATOM      2  C2  BNZ d   1       0.491   1.054  -1.554  0.00  0.00     0.000 A 
ATOM      3  C3  BNZ d   1       1.129  -0.109  -1.223  0.00  0.00     0.000 A 
ATOM      4  C4  BNZ d   1       1.681  -0.237   0.000  0.00  0.00     0.000 A 
ATOM      5  C5  BNZ d   1       1.577   0.783   0.925  0.00  0.00     0.000 A 
ATOM      6  C6  BNZ d   1       0.900   1.937   0.601  0.00  0.00     0.000 A 
ENDROOT
TORSDOF 0
ENDMDL
