MODEL 1
REMARK minimizedAffinity -0.148817226
REMARK minimizedRMSD -1
REMARK  0 active torsions:
REMARK  status: ('A' for Active; 'I' for Inactive)
ROOT
ATOM      1  C1  BNZ d   1       0.502   2.166  -0.602  0.00  0.00     0.000 A 
ATOM      2  C2  BNZ d   1       0.464   1.157  -1.527  0.00  0.00     0.000 A 
ATOM      3  C3  BNZ d   1       1.000  -0.069  -1.248  0.00  0.00     0.000 A 
ATOM      4  C4  BNZ d   1       1.608  -0.272  -0.062  0.00  0.00     0.000 A 
ATOM      5  C5  BNZ d   1       1.663   0.738   0.878  0.00  0.00     0.000 A 
ATOM      6  C6  BNZ d   1       1.088   1.959   0.608  0.00  0.00     0.000 A 
ENDROOT
TORSDOF 0
ENDMDL
