MODEL 1
REMARK minimizedAffinity -2.19379282
REMARK minimizedRMSD -1
REMARK  0 active torsions:
REMARK  status: ('A' for Active; 'I' for Inactive)
ROOT
ATOM      1  C1  BNZ d   1       0.779   2.431  -0.529  0.00  0.00     0.000 A 
ATOM      2  C2  BNZ d   1       0.861   1.384  -1.408  0.00  0.00     0.000 A 
ATOM      3  C3  BNZ d   1       1.058   0.107  -0.959  0.00  0.00     0.000 A 
ATOM      4  C4  BNZ d   1       1.215  -0.115   0.362  0.00  0.00     0.000 A 
ATOM      5  C5  BNZ d   1       1.145   0.932   1.259  0.00  0.00     0.000 A 
ATOM      6  C6  BNZ d   1       0.907   2.210   0.808  0.00  0.00     0.000 A 
ENDROOT
TORSDOF 0
ENDMDL
