MODEL 1
REMARK minimizedAffinity -2.52113175
REMARK minimizedRMSD -1
REMARK  0 active torsions:
REMARK  status: ('A' for Active; 'I' for Inactive)
ROOT
ATOM      1  C1  BNZ d   1       1.151   0.794  -0.150  0.00  0.00     0.000 A 
ATOM      2  C2  BNZ d   1       1.126   0.950  -1.510  0.00  0.00     0.000 A 
ATOM      3  C3  BNZ d   1       1.164   2.196  -2.072  0.00  0.00     0.000 A 
ATOM      4  C4  BNZ d   1       1.186   3.283  -1.274  0.00  0.00     0.000 A 
ATOM      5  C5  BNZ d   1       1.203   3.141   0.099  0.00  0.00     0.000 A 
ATOM      6  C6  BNZ d   1       1.204   1.885   0.661  0.00  0.00     0.000 A 
ENDROOT
TORSDOF 0
ENDMDL
