MODEL 1
REMARK minimizedAffinity 6.08599281
REMARK minimizedRMSD -1
REMARK  1 active torsions:
REMARK  status: ('A' for Active; 'I' for Inactive)
REMARK    1  A    between atoms: C1_2  and  C2_3 
ROOT
ATOM      1  C2  UNL d   1       3.825  -2.525   0.230  0.00  0.00    -0.077 A 
ATOM      2  C3  UNL d   1       3.176  -3.587  -0.415  0.00  0.00     0.002 A 
ATOM      3  C4  UNL d   1       1.823  -3.837  -0.177  0.00  0.00     0.002 A 
ATOM      4  C5  UNL d   1       1.107  -3.027   0.702  0.00  0.00    -0.004 A 
ATOM      5  C6  UNL d   1       1.744  -1.970   1.350  0.00  0.00     0.002 A 
ATOM      6  C7  UNL d   1       3.097  -1.719   1.115  0.00  0.00     0.002 A 
ENDROOT
BRANCH   1   7
ATOM      7  C1  UNL d   1       5.271  -2.224  -0.062  0.00  0.00     0.055 C 
ATOM      8  C   UNL d   1       5.992  -3.447  -0.610  0.00  0.00     0.019 C 
ENDBRANCH   1   7
TORSDOF 1
ENDMDL
