MODEL 1
REMARK minimizedAffinity 2.67886972
REMARK minimizedRMSD -1
REMARK  1 active torsions:
REMARK  status: ('A' for Active; 'I' for Inactive)
REMARK    1  A    between atoms: C1_2  and  C2_3 
ROOT
ATOM      1  C2  UNL d   1       1.304  -2.245   1.705  0.00  0.00    -0.077 A 
ATOM      2  C3  UNL d   1       1.353  -3.639   1.568  0.00  0.00     0.002 A 
ATOM      3  C4  UNL d   1       2.300  -4.233   0.731  0.00  0.00     0.002 A 
ATOM      4  C5  UNL d   1       3.207  -3.441   0.029  0.00  0.00    -0.004 A 
ATOM      5  C6  UNL d   1       3.164  -2.053   0.158  0.00  0.00     0.002 A 
ATOM      6  C7  UNL d   1       2.218  -1.458   0.993  0.00  0.00     0.002 A 
ENDROOT
BRANCH   1   7
ATOM      7  C1  UNL d   1       0.316  -1.605   2.645  0.00  0.00     0.055 C 
ATOM      8  C   UNL d   1      -1.037  -2.300   2.583  0.00  0.00     0.019 C 
ENDBRANCH   1   7
TORSDOF 1
ENDMDL
