MODEL 1
REMARK minimizedAffinity 2.94158053
REMARK minimizedRMSD -1
REMARK  1 active torsions:
REMARK  status: ('A' for Active; 'I' for Inactive)
REMARK    1  A    between atoms: C1_2  and  C2_3 
ROOT
ATOM      1  C2  UNL d   1      -2.187   0.570   3.459  0.00  0.00    -0.077 A 
ATOM      2  C3  UNL d   1      -2.565  -0.152   2.318  0.00  0.00     0.002 A 
ATOM      3  C4  UNL d   1      -1.849  -1.285   1.929  0.00  0.00     0.002 A 
ATOM      4  C5  UNL d   1      -0.753  -1.709   2.677  0.00  0.00    -0.004 A 
ATOM      5  C6  UNL d   1      -0.367  -0.997   3.812  0.00  0.00     0.002 A 
ATOM      6  C7  UNL d   1      -1.082   0.136   4.202  0.00  0.00     0.002 A 
ENDROOT
BRANCH   1   7
ATOM      7  C1  UNL d   1      -2.989   1.763   3.908  0.00  0.00     0.055 C 
ATOM      8  C   UNL d   1      -4.483   1.487   3.831  0.00  0.00     0.019 C 
ENDBRANCH   1   7
TORSDOF 1
ENDMDL
