MODEL 1
REMARK minimizedAffinity 3.96167326
REMARK minimizedRMSD -1
REMARK  1 active torsions:
REMARK  status: ('A' for Active; 'I' for Inactive)
REMARK    1  A    between atoms: C1_2  and  C2_3 
ROOT
ATOM      1  C2  UNL d   1      -0.864   0.391  -1.970  0.00  0.00    -0.077 A 
ATOM      2  C3  UNL d   1      -0.359   1.485  -1.254  0.00  0.00     0.002 A 
ATOM      3  C4  UNL d   1      -0.293   2.747  -1.847  0.00  0.00     0.002 A 
ATOM      4  C5  UNL d   1      -0.734   2.928  -3.156  0.00  0.00    -0.004 A 
ATOM      5  C6  UNL d   1      -1.236   1.845  -3.877  0.00  0.00     0.002 A 
ATOM      6  C7  UNL d   1      -1.302   0.582  -3.287  0.00  0.00     0.002 A 
ENDROOT
BRANCH   1   7
ATOM      7  C1  UNL d   1      -0.982  -0.961  -1.316  0.00  0.00     0.055 C 
ATOM      8  C   UNL d   1       0.280  -1.313  -0.542  0.00  0.00     0.019 C 
ENDBRANCH   1   7
TORSDOF 1
ENDMDL
