MODEL 1
REMARK minimizedAffinity 4.99412632
REMARK minimizedRMSD -1
REMARK  1 active torsions:
REMARK  status: ('A' for Active; 'I' for Inactive)
REMARK    1  A    between atoms: C1_2  and  C2_3 
ROOT
ATOM      1  C2  UNL d   1      -0.408  -1.673   2.227  0.00  0.00    -0.077 A 
ATOM      2  C3  UNL d   1      -1.519  -1.467   1.398  0.00  0.00     0.002 A 
ATOM      3  C4  UNL d   1      -2.523  -0.571   1.772  0.00  0.00     0.002 A 
ATOM      4  C5  UNL d   1      -2.422   0.128   2.972  0.00  0.00    -0.004 A 
ATOM      5  C6  UNL d   1      -1.322  -0.072   3.805  0.00  0.00     0.002 A 
ATOM      6  C7  UNL d   1      -0.318  -0.968   3.433  0.00  0.00     0.002 A 
ENDROOT
BRANCH   1   7
ATOM      7  C1  UNL d   1       0.700  -2.602   1.802  0.00  0.00     0.055 C 
ATOM      8  C   UNL d   1       1.496  -2.021   0.642  0.00  0.00     0.019 C 
ENDBRANCH   1   7
TORSDOF 1
ENDMDL
