MODEL 1
REMARK minimizedAffinity 7.98207664
REMARK minimizedRMSD -1
REMARK  1 active torsions:
REMARK  status: ('A' for Active; 'I' for Inactive)
REMARK    1  A    between atoms: C1_2  and  C2_3 
ROOT
ATOM      1  C2  UNL d   1       4.290  -1.249   0.644  0.00  0.00    -0.077 A 
ATOM      2  C3  UNL d   1       2.951  -0.836   0.695  0.00  0.00     0.002 A 
ATOM      3  C4  UNL d   1       1.962  -1.706   1.156  0.00  0.00     0.002 A 
ATOM      4  C5  UNL d   1       2.300  -2.992   1.574  0.00  0.00    -0.004 A 
ATOM      5  C6  UNL d   1       3.629  -3.412   1.525  0.00  0.00     0.002 A 
ATOM      6  C7  UNL d   1       4.620  -2.544   1.064  0.00  0.00     0.002 A 
ENDROOT
BRANCH   1   7
ATOM      7  C1  UNL d   1       5.366  -0.295   0.194  0.00  0.00     0.055 C 
ATOM      8  C   UNL d   1       5.997  -0.750  -1.114  0.00  0.00     0.019 C 
ENDBRANCH   1   7
TORSDOF 1
ENDMDL
