MODEL 1
REMARK minimizedAffinity 19.8703651
REMARK minimizedRMSD -1
REMARK  0 active torsions:
REMARK  status: ('A' for Active; 'I' for Inactive)
ROOT
ATOM      1  C1  DEN d   1       2.796  -5.987  -3.046  0.00  0.00     0.130 A 
ATOM      2  C2  DEN d   1       2.432  -5.943  -1.632  0.00  0.00    -0.031 A 
ATOM      3  C3  DEN d   1       0.958  -5.925  -1.541  0.00  0.00     0.027 A 
ATOM      4  C4  DEN d   1      -0.786  -5.966  -3.442  0.00  0.00     0.027 A 
ATOM      5  C5  DEN d   1      -0.956  -5.992  -4.808  0.00  0.00    -0.003 A 
ATOM      6  C6  DEN d   1       0.103  -5.983  -5.676  0.00  0.00     0.001 A 
ATOM      7  C7  DEN d   1       1.382  -5.994  -5.187  0.00  0.00     0.017 A 
ATOM      8  C8  DEN d   1       1.562  -5.961  -3.810  0.00  0.00    -0.094 A 
ATOM      9  C9  DEN d   1       0.479  -5.982  -2.949  0.00  0.00    -0.072 A 
ENDROOT
TORSDOF 0
ENDMDL
