MODEL 1
REMARK minimizedAffinity 3.68330264
REMARK minimizedRMSD -1
REMARK  0 active torsions:
REMARK  status: ('A' for Active; 'I' for Inactive)
ROOT
ATOM      1  C1  DEN d   1      -0.582   3.866   0.969  0.00  0.00     0.130 A 
ATOM      2  C2  DEN d   1       0.797   3.763   1.439  0.00  0.00    -0.031 A 
ATOM      3  C3  DEN d   1       1.666   4.442   0.456  0.00  0.00     0.027 A 
ATOM      4  C4  DEN d   1       1.012   5.640  -1.732  0.00  0.00     0.027 A 
ATOM      5  C5  DEN d   1      -0.038   5.977  -2.557  0.00  0.00    -0.003 A 
ATOM      6  C6  DEN d   1      -1.329   5.609  -2.284  0.00  0.00     0.001 A 
ATOM      7  C7  DEN d   1      -1.608   4.918  -1.134  0.00  0.00     0.017 A 
ATOM      8  C8  DEN d   1      -0.553   4.568  -0.301  0.00  0.00    -0.094 A 
ATOM      9  C9  DEN d   1       0.743   4.961  -0.589  0.00  0.00    -0.072 A 
ENDROOT
TORSDOF 0
ENDMDL
