MODEL 1
REMARK minimizedAffinity 9.52056122
REMARK minimizedRMSD -1
REMARK  0 active torsions:
REMARK  status: ('A' for Active; 'I' for Inactive)
ROOT
ATOM      1  C1  DEN d   1      -0.386   3.796   0.073  0.00  0.00     0.130 A 
ATOM      2  C2  DEN d   1       0.184   4.820  -0.797  0.00  0.00    -0.031 A 
ATOM      3  C3  DEN d   1       1.419   5.324  -0.162  0.00  0.00     0.027 A 
ATOM      4  C4  DEN d   1       2.499   4.616   2.070  0.00  0.00     0.027 A 
ATOM      5  C5  DEN d   1       2.374   3.790   3.166  0.00  0.00    -0.003 A 
ATOM      6  C6  DEN d   1       1.312   2.941   3.323  0.00  0.00     0.001 A 
ATOM      7  C7  DEN d   1       0.354   2.864   2.346  0.00  0.00     0.017 A 
ATOM      8  C8  DEN d   1       0.469   3.698   1.242  0.00  0.00    -0.094 A 
ATOM      9  C9  DEN d   1       1.558   4.542   1.096  0.00  0.00    -0.072 A 
ENDROOT
TORSDOF 0
ENDMDL
