MODEL 1
REMARK minimizedAffinity 8.51200199
REMARK minimizedRMSD -1
REMARK  0 active torsions:
REMARK  status: ('A' for Active; 'I' for Inactive)
ROOT
ATOM      1  C1  DEN d   1       5.999  -4.028  -1.495  0.00  0.00     0.130 A 
ATOM      2  C2  DEN d   1       6.000  -5.076  -0.479  0.00  0.00    -0.031 A 
ATOM      3  C3  DEN d   1       4.967  -4.742   0.522  0.00  0.00     0.027 A 
ATOM      4  C4  DEN d   1       3.371  -2.717   0.593  0.00  0.00     0.027 A 
ATOM      5  C5  DEN d   1       3.005  -1.553  -0.046  0.00  0.00    -0.003 A 
ATOM      6  C6  DEN d   1       3.629  -1.119  -1.186  0.00  0.00     0.001 A 
ATOM      7  C7  DEN d   1       4.623  -1.877  -1.746  0.00  0.00     0.017 A 
ATOM      8  C8  DEN d   1       5.003  -3.048  -1.103  0.00  0.00    -0.094 A 
ATOM      9  C9  DEN d   1       4.352  -3.476   0.041  0.00  0.00    -0.072 A 
ENDROOT
TORSDOF 0
ENDMDL
