MODEL 1
REMARK minimizedAffinity 9.83811665
REMARK minimizedRMSD -1
REMARK  0 active torsions:
REMARK  status: ('A' for Active; 'I' for Inactive)
ROOT
ATOM      1  C1  DEN d   1       2.907   4.100   3.025  0.00  0.00     0.130 A 
ATOM      2  C2  DEN d   1       2.384   3.157   4.010  0.00  0.00    -0.031 A 
ATOM      3  C3  DEN d   1       1.091   2.647   3.511  0.00  0.00     0.027 A 
ATOM      4  C4  DEN d   1      -0.143   3.221   1.320  0.00  0.00     0.027 A 
ATOM      5  C5  DEN d   1      -0.097   3.979   0.171  0.00  0.00    -0.003 A 
ATOM      6  C6  DEN d   1       0.929   4.849  -0.089  0.00  0.00     0.001 A 
ATOM      7  C7  DEN d   1       1.974   4.949   0.791  0.00  0.00     0.017 A 
ATOM      8  C8  DEN d   1       1.930   4.193   1.956  0.00  0.00    -0.094 A 
ATOM      9  C9  DEN d   1       0.891   3.310   2.195  0.00  0.00    -0.072 A 
ENDROOT
TORSDOF 0
ENDMDL
