MODEL 1
REMARK minimizedAffinity 15.8597555
REMARK minimizedRMSD -1
REMARK  0 active torsions:
REMARK  status: ('A' for Active; 'I' for Inactive)
ROOT
ATOM      1  C1  DEN d   1       2.827  -1.096   5.080  0.00  0.00     0.130 A 
ATOM      2  C2  DEN d   1       1.896  -1.653   4.103  0.00  0.00    -0.031 A 
ATOM      3  C3  DEN d   1       2.436  -2.948   3.643  0.00  0.00     0.027 A 
ATOM      4  C4  DEN d   1       4.611  -4.141   4.351  0.00  0.00     0.027 A 
ATOM      5  C5  DEN d   1       5.733  -4.052   5.145  0.00  0.00    -0.003 A 
ATOM      6  C6  DEN d   1       5.980  -2.965   5.940  0.00  0.00     0.001 A 
ATOM      7  C7  DEN d   1       5.070  -1.942   5.994  0.00  0.00     0.017 A 
ATOM      8  C8  DEN d   1       3.940  -2.022   5.191  0.00  0.00    -0.094 A 
ATOM      9  C9  DEN d   1       3.702  -3.135   4.403  0.00  0.00    -0.072 A 
ENDROOT
TORSDOF 0
ENDMDL
