MODEL 1
REMARK minimizedAffinity 14.6376781
REMARK minimizedRMSD -1
REMARK  0 active torsions:
REMARK  status: ('A' for Active; 'I' for Inactive)
ROOT
ATOM      1  C1  DEN d   1      -0.749   3.192   1.657  0.00  0.00     0.130 A 
ATOM      2  C2  DEN d   1       0.405   2.514   2.243  0.00  0.00    -0.031 A 
ATOM      3  C3  DEN d   1       1.626   3.147   1.706  0.00  0.00     0.027 A 
ATOM      4  C4  DEN d   1       1.843   5.102   0.038  0.00  0.00     0.027 A 
ATOM      5  C5  DEN d   1       1.142   5.994  -0.743  0.00  0.00    -0.003 A 
ATOM      6  C6  DEN d   1      -0.227   5.992  -0.805  0.00  0.00     0.001 A 
ATOM      7  C7  DEN d   1      -0.939   5.109  -0.037  0.00  0.00     0.017 A 
ATOM      8  C8  DEN d   1      -0.239   4.202   0.748  0.00  0.00    -0.094 A 
ATOM      9  C9  DEN d   1       1.144   4.228   0.806  0.00  0.00    -0.072 A 
ENDROOT
TORSDOF 0
ENDMDL
