MODEL 1
REMARK minimizedAffinity 4.13101959
REMARK minimizedRMSD -1
REMARK  0 active torsions:
REMARK  status: ('A' for Active; 'I' for Inactive)
ROOT
ATOM      1  C1  DEN d   1      -0.652   3.747   3.001  0.00  0.00     0.130 A 
ATOM      2  C2  DEN d   1      -0.053   2.417   2.942  0.00  0.00    -0.031 A 
ATOM      3  C3  DEN d   1       0.542   2.244   1.601  0.00  0.00     0.027 A 
ATOM      4  C4  DEN d   1       0.598   3.899  -0.376  0.00  0.00     0.027 A 
ATOM      5  C5  DEN d   1       0.210   5.150  -0.804  0.00  0.00    -0.003 A 
ATOM      6  C6  DEN d   1      -0.516   6.000  -0.013  0.00  0.00     0.001 A 
ATOM      7  C7  DEN d   1      -0.838   5.628   1.266  0.00  0.00     0.017 A 
ATOM      8  C8  DEN d   1      -0.457   4.366   1.702  0.00  0.00    -0.094 A 
ATOM      9  C9  DEN d   1       0.287   3.526   0.892  0.00  0.00    -0.072 A 
ENDROOT
TORSDOF 0
ENDMDL
