MODEL 1
REMARK minimizedAffinity 10.1047487
REMARK minimizedRMSD -1
REMARK  0 active torsions:
REMARK  status: ('A' for Active; 'I' for Inactive)
ROOT
ATOM      1  C1  DEN d   1      -0.108   4.640  -1.616  0.00  0.00     0.130 A 
ATOM      2  C2  DEN d   1      -0.037   5.998  -1.085  0.00  0.00    -0.031 A 
ATOM      3  C3  DEN d   1       0.186   5.908   0.372  0.00  0.00     0.027 A 
ATOM      4  C4  DEN d   1       0.433   3.807   1.848  0.00  0.00     0.027 A 
ATOM      5  C5  DEN d   1       0.432   2.429   1.849  0.00  0.00    -0.003 A 
ATOM      6  C6  DEN d   1       0.220   1.698   0.710  0.00  0.00     0.001 A 
ATOM      7  C7  DEN d   1       0.043   2.342  -0.486  0.00  0.00     0.017 A 
ATOM      8  C8  DEN d   1       0.035   3.730  -0.494  0.00  0.00    -0.094 A 
ATOM      9  C9  DEN d   1       0.264   4.451   0.666  0.00  0.00    -0.072 A 
ENDROOT
TORSDOF 0
ENDMDL
