MODEL 1
REMARK minimizedAffinity 15.9086447
REMARK minimizedRMSD -1
REMARK  0 active torsions:
REMARK  status: ('A' for Active; 'I' for Inactive)
ROOT
ATOM      1  C1  DEN d   1       0.093   3.073   2.714  0.00  0.00     0.130 A 
ATOM      2  C2  DEN d   1       0.532   1.783   2.191  0.00  0.00    -0.031 A 
ATOM      3  C3  DEN d   1       0.756   1.931   0.739  0.00  0.00     0.027 A 
ATOM      4  C4  DEN d   1       0.470   4.023  -0.741  0.00  0.00     0.027 A 
ATOM      5  C5  DEN d   1       0.106   5.352  -0.749  0.00  0.00    -0.003 A 
ATOM      6  C6  DEN d   1      -0.318   5.999   0.381  0.00  0.00     0.001 A 
ATOM      7  C7  DEN d   1      -0.344   5.331   1.577  0.00  0.00     0.017 A 
ATOM      8  C8  DEN d   1       0.015   3.990   1.591  0.00  0.00    -0.094 A 
ATOM      9  C9  DEN d   1       0.452   3.356   0.440  0.00  0.00    -0.072 A 
ENDROOT
TORSDOF 0
ENDMDL
