MODEL 1
REMARK minimizedAffinity -0.191517755
REMARK minimizedRMSD -1
REMARK  0 active torsions:
REMARK  status: ('A' for Active; 'I' for Inactive)
ROOT
ATOM      1  C4' PXY d   1      -1.768   0.087   1.597  0.00  0.00     0.077 C 
ATOM      2  C1' PXY d   1       3.474   1.309  -0.512  0.00  0.00     0.077 C 
ATOM      3  C1  PXY d   1       2.097   0.980   0.031  0.00  0.00    -0.082 A 
ATOM      4  C2  PXY d   1       1.479   1.849   0.815  0.00  0.00     0.003 A 
ATOM      5  C3  PXY d   1       0.247   1.554   1.341  0.00  0.00     0.003 A 
ATOM      6  C4  PXY d   1      -0.381   0.381   1.018  0.00  0.00    -0.082 A 
ATOM      7  C5  PXY d   1       0.239  -0.506   0.211  0.00  0.00     0.003 A 
ATOM      8  C6  PXY d   1       1.506  -0.205  -0.279  0.00  0.00     0.003 A 
ENDROOT
TORSDOF 0
ENDMDL
