MODEL 1
REMARK minimizedAffinity -3.02098632
REMARK minimizedRMSD -1
REMARK  0 active torsions:
REMARK  status: ('A' for Active; 'I' for Inactive)
ROOT
ATOM      1  C4' PXY d   1       0.681   2.077   3.752  0.00  0.00     0.077 C 
ATOM      2  C1' PXY d   1      -1.732  -1.337  -0.241  0.00  0.00     0.077 C 
ATOM      3  C1  PXY d   1      -1.090  -0.438   0.798  0.00  0.00    -0.082 A 
ATOM      4  C2  PXY d   1      -1.321  -0.654   2.083  0.00  0.00     0.003 A 
ATOM      5  C3  PXY d   1      -0.774   0.168   3.034  0.00  0.00     0.003 A 
ATOM      6  C4  PXY d   1       0.061   1.190   2.669  0.00  0.00    -0.082 A 
ATOM      7  C5  PXY d   1       0.311   1.410   1.360  0.00  0.00     0.003 A 
ATOM      8  C6  PXY d   1      -0.287   0.589   0.409  0.00  0.00     0.003 A 
ENDROOT
TORSDOF 0
ENDMDL
