MODEL 1
REMARK minimizedAffinity 1.04434156
REMARK minimizedRMSD -1
REMARK  0 active torsions:
REMARK  status: ('A' for Active; 'I' for Inactive)
ROOT
ATOM      1  C4' PXY d   1      -4.036  -1.117  -1.038  0.00  0.00     0.077 C 
ATOM      2  C1' PXY d   1       1.361   0.132   0.614  0.00  0.00     0.077 C 
ATOM      3  C1  PXY d   1      -0.059  -0.192   0.193  0.00  0.00    -0.082 A 
ATOM      4  C2  PXY d   1      -0.269  -1.042  -0.799  0.00  0.00     0.003 A 
ATOM      5  C3  PXY d   1      -1.545  -1.322  -1.214  0.00  0.00     0.003 A 
ATOM      6  C4  PXY d   1      -2.620  -0.767  -0.573  0.00  0.00    -0.082 A 
ATOM      7  C5  PXY d   1      -2.414   0.093   0.447  0.00  0.00     0.003 A 
ATOM      8  C6  PXY d   1      -1.110   0.396   0.826  0.00  0.00     0.003 A 
ENDROOT
TORSDOF 0
ENDMDL
