MODEL 1
REMARK minimizedAffinity -0.934366763
REMARK minimizedRMSD -1
REMARK  0 active torsions:
REMARK  status: ('A' for Active; 'I' for Inactive)
ROOT
ATOM      1  C4' PXY d   1       3.103   2.216   1.610  0.00  0.00     0.077 C 
ATOM      2  C1' PXY d   1       4.312   0.482  -3.770  0.00  0.00     0.077 C 
ATOM      3  C1  PXY d   1       4.002   0.947  -2.361  0.00  0.00    -0.082 A 
ATOM      4  C2  PXY d   1       3.660   0.061  -1.439  0.00  0.00     0.003 A 
ATOM      5  C3  PXY d   1       3.345   0.469  -0.168  0.00  0.00     0.003 A 
ATOM      6  C4  PXY d   1       3.434   1.791   0.177  0.00  0.00    -0.082 A 
ATOM      7  C5  PXY d   1       3.793   2.699  -0.754  0.00  0.00     0.003 A 
ATOM      8  C6  PXY d   1       4.068   2.270  -2.049  0.00  0.00     0.003 A 
ENDROOT
TORSDOF 0
ENDMDL
