MODEL 1
REMARK minimizedAffinity 9.42123222
REMARK minimizedRMSD -1
REMARK  0 active torsions:
REMARK  status: ('A' for Active; 'I' for Inactive)
ROOT
ATOM      1  C4' PXY d   1       2.894   1.616  -2.990  0.00  0.00     0.077 C 
ATOM      2  C1' PXY d   1      -1.271  -1.333  -5.705  0.00  0.00     0.077 C 
ATOM      3  C1  PXY d   1      -0.170  -0.565  -5.001  0.00  0.00    -0.082 A 
ATOM      4  C2  PXY d   1      -0.359  -0.139  -3.762  0.00  0.00     0.003 A 
ATOM      5  C3  PXY d   1       0.614   0.584  -3.122  0.00  0.00     0.003 A 
ATOM      6  C4  PXY d   1       1.813   0.829  -3.737  0.00  0.00    -0.082 A 
ATOM      7  C5  PXY d   1       2.018   0.388  -4.996  0.00  0.00     0.003 A 
ATOM      8  C6  PXY d   1       1.002  -0.309  -5.643  0.00  0.00     0.003 A 
ENDROOT
TORSDOF 0
ENDMDL
