MODEL 1
REMARK minimizedAffinity -4.87865782
REMARK minimizedRMSD -1
REMARK  1 active torsions:
REMARK  status: ('A' for Active; 'I' for Inactive)
REMARK    1  A    between atoms: C1_2  and  C2_3 
ROOT
ATOM      1  C2  UNL d   1      -0.349   0.353   0.279  0.00  0.00    -0.077 A 
ATOM      2  C3  UNL d   1      -1.220   1.319  -0.244  0.00  0.00     0.002 A 
ATOM      3  C4  UNL d   1      -2.027   2.077   0.606  0.00  0.00     0.002 A 
ATOM      4  C5  UNL d   1      -1.969   1.880   1.984  0.00  0.00    -0.004 A 
ATOM      5  C6  UNL d   1      -1.108   0.920   2.514  0.00  0.00     0.002 A 
ATOM      6  C7  UNL d   1      -0.301   0.161   1.666  0.00  0.00     0.002 A 
ENDROOT
BRANCH   1   7
ATOM      7  C1  UNL d   1       0.558  -0.431  -0.632  0.00  0.00     0.055 C 
ATOM      8  C   UNL d   1       1.486   0.487  -1.414  0.00  0.00     0.019 C 
ENDBRANCH   1   7
TORSDOF 1
ENDMDL
