MODEL 1
REMARK minimizedAffinity -5.25741529
REMARK minimizedRMSD -1
REMARK  1 active torsions:
REMARK  status: ('A' for Active; 'I' for Inactive)
REMARK    1  A    between atoms: C1_2  and  C2_3 
ROOT
ATOM      1  C2  UNL d   1       0.073   1.109   0.182  0.00  0.00    -0.077 A 
ATOM      2  C3  UNL d   1       0.032   2.442  -0.251  0.00  0.00     0.002 A 
ATOM      3  C4  UNL d   1      -0.987   3.294   0.179  0.00  0.00     0.002 A 
ATOM      4  C5  UNL d   1      -1.969   2.824   1.048  0.00  0.00    -0.004 A 
ATOM      5  C6  UNL d   1      -1.939   1.500   1.483  0.00  0.00     0.002 A 
ATOM      6  C7  UNL d   1      -0.922   0.646   1.053  0.00  0.00     0.002 A 
ENDROOT
BRANCH   1   7
ATOM      7  C1  UNL d   1       1.198   0.202  -0.242  0.00  0.00     0.055 C 
ATOM      8  C   UNL d   1       0.673  -1.136  -0.742  0.00  0.00     0.019 C 
ENDBRANCH   1   7
TORSDOF 1
ENDMDL
