MODEL 1
REMARK minimizedAffinity -4.67543554
REMARK minimizedRMSD -1
REMARK  1 active torsions:
REMARK  status: ('A' for Active; 'I' for Inactive)
REMARK    1  A    between atoms: C1_2  and  C2_3 
ROOT
ATOM      1  C2  UNL d   1       0.029   0.244   0.349  0.00  0.00    -0.077 A 
ATOM      2  C3  UNL d   1      -0.210   0.141   1.726  0.00  0.00     0.002 A 
ATOM      3  C4  UNL d   1      -1.064   1.043   2.364  0.00  0.00     0.002 A 
ATOM      4  C5  UNL d   1      -1.690   2.050   1.632  0.00  0.00    -0.004 A 
ATOM      5  C6  UNL d   1      -1.457   2.161   0.262  0.00  0.00     0.002 A 
ATOM      6  C7  UNL d   1      -0.602   1.262  -0.377  0.00  0.00     0.002 A 
ENDROOT
BRANCH   1   7
ATOM      7  C1  UNL d   1       0.912  -0.757  -0.350  0.00  0.00     0.055 C 
ATOM      8  C   UNL d   1       0.118  -1.601  -1.337  0.00  0.00     0.019 C 
ENDBRANCH   1   7
TORSDOF 1
ENDMDL
