MODEL 1
REMARK minimizedAffinity -2.48762155
REMARK minimizedRMSD -1
REMARK  1 active torsions:
REMARK  status: ('A' for Active; 'I' for Inactive)
REMARK    1  A    between atoms: C1_2  and  C2_3 
ROOT
ATOM      1  C2  UNL d   1      -0.404   0.681   1.374  0.00  0.00    -0.077 A 
ATOM      2  C3  UNL d   1       0.128   1.292   0.230  0.00  0.00     0.002 A 
ATOM      3  C4  UNL d   1       0.702   0.519  -0.781  0.00  0.00     0.002 A 
ATOM      4  C5  UNL d   1       0.745  -0.868  -0.661  0.00  0.00    -0.004 A 
ATOM      5  C6  UNL d   1       0.220  -1.486   0.474  0.00  0.00     0.002 A 
ATOM      6  C7  UNL d   1      -0.353  -0.715   1.486  0.00  0.00     0.002 A 
ENDROOT
BRANCH   1   7
ATOM      7  C1  UNL d   1      -1.067   1.509   2.444  0.00  0.00     0.055 C 
ATOM      8  C   UNL d   1      -1.772   2.719   1.849  0.00  0.00     0.019 C 
ENDBRANCH   1   7
TORSDOF 1
ENDMDL
