MODEL 1
REMARK minimizedAffinity -6.05954075
REMARK minimizedRMSD -1
REMARK  1 active torsions:
REMARK  status: ('A' for Active; 'I' for Inactive)
REMARK    1  A    between atoms: C1_2  and  C2_3 
ROOT
ATOM      1  C2  UNL d   1      -0.665   1.536   0.077  0.00  0.00    -0.077 A 
ATOM      2  C3  UNL d   1       0.062   2.439  -0.712  0.00  0.00     0.002 A 
ATOM      3  C4  UNL d   1       0.000   3.810  -0.455  0.00  0.00     0.002 A 
ATOM      4  C5  UNL d   1      -0.783   4.290   0.592  0.00  0.00    -0.004 A 
ATOM      5  C6  UNL d   1      -1.512   3.400   1.381  0.00  0.00     0.002 A 
ATOM      6  C7  UNL d   1      -1.452   2.030   1.125  0.00  0.00     0.002 A 
ENDROOT
BRANCH   1   7
ATOM      7  C1  UNL d   1      -0.561   0.053  -0.167  0.00  0.00     0.055 C 
ATOM      8  C   UNL d   1       0.883  -0.370  -0.393  0.00  0.00     0.019 C 
ENDBRANCH   1   7
TORSDOF 1
ENDMDL
