MODEL 1
REMARK minimizedAffinity -0.472424567
REMARK minimizedRMSD -1
REMARK  1 active torsions:
REMARK  status: ('A' for Active; 'I' for Inactive)
REMARK    1  A    between atoms: C1_2  and  C2_3 
ROOT
ATOM      1  C2  UNL d   1      -0.419   1.203   1.105  0.00  0.00    -0.077 A 
ATOM      2  C3  UNL d   1      -0.395  -0.176   1.358  0.00  0.00     0.002 A 
ATOM      3  C4  UNL d   1       0.375  -1.026   0.562  0.00  0.00     0.002 A 
ATOM      4  C5  UNL d   1       1.129  -0.508  -0.488  0.00  0.00    -0.004 A 
ATOM      5  C6  UNL d   1       1.109   0.862  -0.749  0.00  0.00     0.002 A 
ATOM      6  C7  UNL d   1       0.340   1.713   0.044  0.00  0.00     0.002 A 
ENDROOT
BRANCH   1   7
ATOM      7  C1  UNL d   1      -1.210   2.128   1.993  0.00  0.00     0.055 C 
ATOM      8  C   UNL d   1      -0.365   2.640   3.151  0.00  0.00     0.019 C 
ENDBRANCH   1   7
TORSDOF 1
ENDMDL
