MODEL 1
REMARK minimizedAffinity -5.25013208
REMARK minimizedRMSD -1
REMARK  1 active torsions:
REMARK  status: ('A' for Active; 'I' for Inactive)
REMARK    1  A    between atoms: C1_2  and  C2_3 
ROOT
ATOM      1  C2  UNL d   1       0.145   0.256   0.190  0.00  0.00    -0.077 A 
ATOM      2  C3  UNL d   1       0.012  -0.135   1.530  0.00  0.00     0.002 A 
ATOM      3  C4  UNL d   1      -1.028   0.369   2.313  0.00  0.00     0.002 A 
ATOM      4  C5  UNL d   1      -1.945   1.264   1.765  0.00  0.00    -0.004 A 
ATOM      5  C6  UNL d   1      -1.820   1.660   0.434  0.00  0.00     0.002 A 
ATOM      6  C7  UNL d   1      -0.780   1.158  -0.350  0.00  0.00     0.002 A 
ENDROOT
BRANCH   1   7
ATOM      7  C1  UNL d   1       1.237  -0.325  -0.670  0.00  0.00     0.055 C 
ATOM      8  C   UNL d   1       0.814  -1.655  -1.278  0.00  0.00     0.019 C 
ENDBRANCH   1   7
TORSDOF 1
ENDMDL
