MODEL 1
REMARK minimizedAffinity -3.70157361
REMARK minimizedRMSD -1
REMARK  1 active torsions:
REMARK  status: ('A' for Active; 'I' for Inactive)
REMARK    1  A    between atoms: C1_2  and  C2_3 
ROOT
ATOM      1  C2  UNL d   1       0.493  -0.143   0.244  0.00  0.00    -0.077 A 
ATOM      2  C3  UNL d   1      -0.010  -0.881   1.324  0.00  0.00     0.002 A 
ATOM      3  C4  UNL d   1      -0.867  -0.282   2.250  0.00  0.00     0.002 A 
ATOM      4  C5  UNL d   1      -1.232   1.054   2.101  0.00  0.00    -0.004 A 
ATOM      5  C6  UNL d   1      -0.735   1.797   1.031  0.00  0.00     0.002 A 
ATOM      6  C7  UNL d   1       0.123   1.201   0.106  0.00  0.00     0.002 A 
ENDROOT
BRANCH   1   7
ATOM      7  C1  UNL d   1       1.379  -0.800  -0.783  0.00  0.00     0.055 C 
ATOM      8  C   UNL d   1       0.630  -1.880  -1.550  0.00  0.00     0.019 C 
ENDBRANCH   1   7
TORSDOF 1
ENDMDL
