MODEL 1
REMARK minimizedAffinity -5.48971939
REMARK minimizedRMSD -1
REMARK  1 active torsions:
REMARK  status: ('A' for Active; 'I' for Inactive)
REMARK    1  A    between atoms: C1_2  and  C2_3 
ROOT
ATOM      1  C2  UNL d   1       0.226   0.925   0.214  0.00  0.00    -0.077 A 
ATOM      2  C3  UNL d   1      -0.370   0.650   1.453  0.00  0.00     0.002 A 
ATOM      3  C4  UNL d   1      -1.303   1.535   1.999  0.00  0.00     0.002 A 
ATOM      4  C5  UNL d   1      -1.650   2.696   1.311  0.00  0.00    -0.004 A 
ATOM      5  C6  UNL d   1      -1.061   2.978   0.080  0.00  0.00     0.002 A 
ATOM      6  C7  UNL d   1      -0.127   2.096  -0.467  0.00  0.00     0.002 A 
ENDROOT
BRANCH   1   7
ATOM      7  C1  UNL d   1       1.195  -0.052  -0.399  0.00  0.00     0.055 C 
ATOM      8  C   UNL d   1       0.485  -1.310  -0.878  0.00  0.00     0.019 C 
ENDBRANCH   1   7
TORSDOF 1
ENDMDL
