MODEL 1
REMARK minimizedAffinity -3.92978811
REMARK minimizedRMSD -1
REMARK  1 active torsions:
REMARK  status: ('A' for Active; 'I' for Inactive)
REMARK    1  A    between atoms: C1_2  and  C2_3 
ROOT
ATOM      1  C2  UNL d   1       0.014   0.161   0.186  0.00  0.00    -0.077 A 
ATOM      2  C3  UNL d   1       0.162   1.391  -0.469  0.00  0.00     0.002 A 
ATOM      3  C4  UNL d   1      -0.393   2.552   0.074  0.00  0.00     0.002 A 
ATOM      4  C5  UNL d   1      -1.095   2.493   1.276  0.00  0.00    -0.004 A 
ATOM      5  C6  UNL d   1      -1.249   1.274   1.934  0.00  0.00     0.002 A 
ATOM      6  C7  UNL d   1      -0.696   0.113   1.392  0.00  0.00     0.002 A 
ENDROOT
BRANCH   1   7
ATOM      7  C1  UNL d   1       0.654  -1.083  -0.373  0.00  0.00     0.055 C 
ATOM      8  C   UNL d   1       0.001  -1.501  -1.683  0.00  0.00     0.019 C 
ENDBRANCH   1   7
TORSDOF 1
ENDMDL
