MODEL 1
REMARK minimizedAffinity -4.43734837
REMARK minimizedRMSD -1
REMARK  1 active torsions:
REMARK  status: ('A' for Active; 'I' for Inactive)
REMARK    1  A    between atoms: C1_2  and  C2_3 
ROOT
ATOM      1  C2  UNL d   1       0.661  -1.516  -1.381  0.00  0.00    -0.077 A 
ATOM      2  C3  UNL d   1      -0.297  -1.760  -2.375  0.00  0.00     0.002 A 
ATOM      3  C4  UNL d   1      -0.350  -3.000  -3.015  0.00  0.00     0.002 A 
ATOM      4  C5  UNL d   1       0.549  -4.005  -2.666  0.00  0.00    -0.004 A 
ATOM      5  C6  UNL d   1       1.507  -3.771  -1.681  0.00  0.00     0.002 A 
ATOM      6  C7  UNL d   1       1.562  -2.533  -1.040  0.00  0.00     0.002 A 
ENDROOT
BRANCH   1   7
ATOM      7  C1  UNL d   1       0.688  -0.196  -0.655  0.00  0.00     0.055 C 
ATOM      8  C   UNL d   1      -0.290  -0.186   0.511  0.00  0.00     0.019 C 
ENDBRANCH   1   7
TORSDOF 1
ENDMDL
