MODEL 1
REMARK minimizedAffinity 16.6109657
REMARK minimizedRMSD -1
REMARK  0 active torsions:
REMARK  status: ('A' for Active; 'I' for Inactive)
ROOT
ATOM      1  C2' OXE d   1       2.085   2.067  -0.741  0.00  0.00     0.078 C 
ATOM      2  C1' OXE d   1       3.762   0.500  -2.357  0.00  0.00     0.078 C 
ATOM      3  C1  OXE d   1       4.283   1.836  -1.889  0.00  0.00    -0.078 A 
ATOM      4  C2  OXE d   1       3.438   2.616  -1.137  0.00  0.00    -0.078 A 
ATOM      5  C3  OXE d   1       3.889   3.833  -0.634  0.00  0.00     0.003 A 
ATOM      6  C4  OXE d   1       5.139   4.338  -1.014  0.00  0.00    -0.002 A 
ATOM      7  C5  OXE d   1       5.999   3.577  -1.811  0.00  0.00    -0.002 A 
ATOM      8  C6  OXE d   1       5.605   2.308  -2.221  0.00  0.00     0.003 A 
ENDROOT
TORSDOF 0
ENDMDL
