MODEL 1
REMARK minimizedAffinity 11.6605616
REMARK minimizedRMSD -1
REMARK  0 active torsions:
REMARK  status: ('A' for Active; 'I' for Inactive)
ROOT
ATOM      1  C2' OXE d   1       0.742  -2.117  -1.691  0.00  0.00     0.078 C 
ATOM      2  C1' OXE d   1       2.607  -1.586   0.339  0.00  0.00     0.078 C 
ATOM      3  C1  OXE d   1       1.772  -0.437  -0.167  0.00  0.00    -0.078 A 
ATOM      4  C2  OXE d   1       0.895  -0.696  -1.193  0.00  0.00    -0.078 A 
ATOM      5  C3  OXE d   1       0.062   0.316  -1.661  0.00  0.00     0.003 A 
ATOM      6  C4  OXE d   1       0.217   1.630  -1.202  0.00  0.00    -0.002 A 
ATOM      7  C5  OXE d   1       1.132   1.924  -0.186  0.00  0.00    -0.002 A 
ATOM      8  C6  OXE d   1       1.886   0.896   0.371  0.00  0.00     0.003 A 
ENDROOT
TORSDOF 0
ENDMDL
