MODEL 1
REMARK minimizedAffinity 8.47797775
REMARK minimizedRMSD -1
REMARK  0 active torsions:
REMARK  status: ('A' for Active; 'I' for Inactive)
ROOT
ATOM      1  C2' OXE d   1       0.753   2.214  -0.749  0.00  0.00     0.078 C 
ATOM      2  C1' OXE d   1      -1.521   3.399   0.395  0.00  0.00     0.078 C 
ATOM      3  C1  OXE d   1      -0.685   2.496   1.266  0.00  0.00    -0.078 A 
ATOM      4  C2  OXE d   1       0.399   1.883   0.685  0.00  0.00    -0.078 A 
ATOM      5  C3  OXE d   1       1.235   1.083   1.459  0.00  0.00     0.003 A 
ATOM      6  C4  OXE d   1       0.896   0.774   2.781  0.00  0.00    -0.002 A 
ATOM      7  C5  OXE d   1      -0.226   1.355   3.381  0.00  0.00    -0.002 A 
ATOM      8  C6  OXE d   1      -1.002   2.250   2.651  0.00  0.00     0.003 A 
ENDROOT
TORSDOF 0
ENDMDL
