MODEL 1
REMARK minimizedAffinity 5.70086432
REMARK minimizedRMSD -1
REMARK  0 active torsions:
REMARK  status: ('A' for Active; 'I' for Inactive)
ROOT
ATOM      1  C2' OXE d   1       0.109   2.467  -0.504  0.00  0.00     0.078 C 
ATOM      2  C1' OXE d   1       2.162   0.951   0.665  0.00  0.00     0.078 C 
ATOM      3  C1  OXE d   1       0.853   1.052   1.407  0.00  0.00    -0.078 A 
ATOM      4  C2  OXE d   1      -0.130   1.834   0.850  0.00  0.00    -0.078 A 
ATOM      5  C3  OXE d   1      -1.376   1.918   1.466  0.00  0.00     0.003 A 
ATOM      6  C4  OXE d   1      -1.585   1.338   2.723  0.00  0.00    -0.002 A 
ATOM      7  C5  OXE d   1      -0.584   0.570   3.327  0.00  0.00    -0.002 A 
ATOM      8  C6  OXE d   1       0.624   0.383   2.663  0.00  0.00     0.003 A 
ENDROOT
TORSDOF 0
ENDMDL
