MODEL 1
REMARK minimizedAffinity 4.28629684
REMARK minimizedRMSD -1
REMARK  0 active torsions:
REMARK  status: ('A' for Active; 'I' for Inactive)
ROOT
ATOM      1  C2' OXE d   1      -4.254   0.538   0.418  0.00  0.00     0.078 C 
ATOM      2  C1' OXE d   1      -2.249   1.391   2.187  0.00  0.00     0.078 C 
ATOM      3  C1  OXE d   1      -1.898   1.286   0.724  0.00  0.00    -0.078 A 
ATOM      4  C2  OXE d   1      -2.872   0.823  -0.128  0.00  0.00    -0.078 A 
ATOM      5  C3  OXE d   1      -2.618   0.760  -1.495  0.00  0.00     0.003 A 
ATOM      6  C4  OXE d   1      -1.334   1.016  -1.990  0.00  0.00    -0.002 A 
ATOM      7  C5  OXE d   1      -0.316   1.451  -1.134  0.00  0.00    -0.002 A 
ATOM      8  C6  OXE d   1      -0.593   1.631   0.217  0.00  0.00     0.003 A 
ENDROOT
TORSDOF 0
ENDMDL
