MODEL 1
REMARK minimizedAffinity 12.7247381
REMARK minimizedRMSD -1
REMARK  0 active torsions:
REMARK  status: ('A' for Active; 'I' for Inactive)
ROOT
ATOM      1  C2' OXE d   1       4.934   6.000   2.223  0.00  0.00     0.078 C 
ATOM      2  C1' OXE d   1       3.649   3.507   2.338  0.00  0.00     0.078 C 
ATOM      3  C1  OXE d   1       4.237   4.055   3.614  0.00  0.00    -0.078 A 
ATOM      4  C2  OXE d   1       4.905   5.253   3.539  0.00  0.00    -0.078 A 
ATOM      5  C3  OXE d   1       5.418   5.830   4.697  0.00  0.00     0.003 A 
ATOM      6  C4  OXE d   1       5.396   5.128   5.908  0.00  0.00    -0.002 A 
ATOM      7  C5  OXE d   1       4.756   3.888   5.998  0.00  0.00    -0.002 A 
ATOM      8  C6  OXE d   1       4.135   3.358   4.872  0.00  0.00     0.003 A 
ENDROOT
TORSDOF 0
ENDMDL
