MODEL 1
REMARK minimizedAffinity 6.12258482
REMARK minimizedRMSD -1
REMARK  0 active torsions:
REMARK  status: ('A' for Active; 'I' for Inactive)
ROOT
ATOM      1  C2' OXE d   1       1.140   1.421  -0.018  0.00  0.00     0.078 C 
ATOM      2  C1' OXE d   1       1.566  -0.894  -1.547  0.00  0.00     0.078 C 
ATOM      3  C1  OXE d   1       2.187  -0.834  -0.173  0.00  0.00    -0.078 A 
ATOM      4  C2  OXE d   1       2.012   0.322   0.549  0.00  0.00    -0.078 A 
ATOM      5  C3  OXE d   1       2.517   0.409   1.843  0.00  0.00     0.003 A 
ATOM      6  C4  OXE d   1       3.330  -0.608   2.357  0.00  0.00    -0.002 A 
ATOM      7  C5  OXE d   1       3.554  -1.777   1.622  0.00  0.00    -0.002 A 
ATOM      8  C6  OXE d   1       2.956  -1.924   0.375  0.00  0.00     0.003 A 
ENDROOT
TORSDOF 0
ENDMDL
