MODEL 1
REMARK minimizedAffinity 5.03752661
REMARK minimizedRMSD -1
REMARK  0 active torsions:
REMARK  status: ('A' for Active; 'I' for Inactive)
ROOT
ATOM      1  C2' OXE d   1       2.478   1.897   2.216  0.00  0.00     0.078 C 
ATOM      2  C1' OXE d   1       1.006   1.957  -0.173  0.00  0.00     0.078 C 
ATOM      3  C1  OXE d   1       1.764   0.695   0.155  0.00  0.00    -0.078 A 
ATOM      4  C2  OXE d   1       2.519   0.691   1.303  0.00  0.00    -0.078 A 
ATOM      5  C3  OXE d   1       3.194  -0.466   1.681  0.00  0.00     0.003 A 
ATOM      6  C4  OXE d   1       3.235  -1.574   0.825  0.00  0.00    -0.002 A 
ATOM      7  C5  OXE d   1       2.505  -1.576  -0.368  0.00  0.00    -0.002 A 
ATOM      8  C6  OXE d   1       1.732  -0.468  -0.697  0.00  0.00     0.003 A 
ENDROOT
TORSDOF 0
ENDMDL
