MODEL 1
REMARK minimizedAffinity -5.80848598
REMARK minimizedRMSD -1
REMARK  0 active torsions:
REMARK  status: ('A' for Active; 'I' for Inactive)
ROOT
ATOM      1  C2' OXE d   1      -0.290  -1.797  -1.605  0.00  0.00     0.078 C 
ATOM      2  C1' OXE d   1      -0.845   0.444  -0.007  0.00  0.00     0.078 C 
ATOM      3  C1  OXE d   1       0.502  -0.217   0.151  0.00  0.00    -0.078 A 
ATOM      4  C2  OXE d   1       0.747  -1.341  -0.601  0.00  0.00    -0.078 A 
ATOM      5  C3  OXE d   1       1.993  -1.957  -0.534  0.00  0.00     0.003 A 
ATOM      6  C4  OXE d   1       2.943  -1.535   0.405  0.00  0.00    -0.002 A 
ATOM      7  C5  OXE d   1       2.698  -0.417   1.209  0.00  0.00    -0.002 A 
ATOM      8  C6  OXE d   1       1.502   0.278   1.064  0.00  0.00     0.003 A 
ENDROOT
TORSDOF 0
ENDMDL
