MODEL 1
REMARK minimizedAffinity -4.58163118
REMARK minimizedRMSD -1
REMARK  0 active torsions:
REMARK  status: ('A' for Active; 'I' for Inactive)
ROOT
ATOM      1  C   UNL d   1      -3.012  -1.891   4.237  0.00  0.00     0.078 C 
ATOM      2  C1  UNL d   1      -2.375  -0.825   3.398  0.00  0.00    -0.077 A 
ATOM      3  C2  UNL d   1      -1.924   0.371   3.971  0.00  0.00    -0.001 A 
ATOM      4  C3  UNL d   1      -1.342   1.359   3.176  0.00  0.00     0.003 A 
ATOM      5  C4  UNL d   1      -1.205   1.163   1.803  0.00  0.00    -0.005 A 
ATOM      6  C5  UNL d   1      -1.652  -0.023   1.224  0.00  0.00     0.003 A 
ATOM      7  C6  UNL d   1      -2.235  -1.012   2.017  0.00  0.00    -0.001 A 
ENDROOT
TORSDOF 0
ENDMDL
