MODEL 1
REMARK minimizedAffinity -2.26760149
REMARK minimizedRMSD -1
REMARK  0 active torsions:
REMARK  status: ('A' for Active; 'I' for Inactive)
ROOT
ATOM      1  C   UNL d   1       2.117   2.991  -0.152  0.00  0.00     0.078 C 
ATOM      2  C1  UNL d   1       1.108   1.904  -0.373  0.00  0.00    -0.077 A 
ATOM      3  C2  UNL d   1      -0.239   2.207  -0.609  0.00  0.00    -0.001 A 
ATOM      4  C3  UNL d   1      -1.169   1.184  -0.803  0.00  0.00     0.003 A 
ATOM      5  C4  UNL d   1      -0.763  -0.148  -0.761  0.00  0.00    -0.005 A 
ATOM      6  C5  UNL d   1       0.574  -0.459  -0.524  0.00  0.00     0.003 A 
ATOM      7  C6  UNL d   1       1.506   0.562  -0.330  0.00  0.00    -0.001 A 
ENDROOT
TORSDOF 0
ENDMDL
