MODEL 1
REMARK minimizedAffinity -0.51552856
REMARK minimizedRMSD -1
REMARK  0 active torsions:
REMARK  status: ('A' for Active; 'I' for Inactive)
ROOT
ATOM      1  C   UNL d   1       5.111  -0.685   5.966  0.00  0.00     0.078 C 
ATOM      2  C1  UNL d   1       5.165   0.694   5.379  0.00  0.00    -0.077 A 
ATOM      3  C2  UNL d   1       4.468   1.006   4.206  0.00  0.00    -0.001 A 
ATOM      4  C3  UNL d   1       4.536   2.292   3.666  0.00  0.00     0.003 A 
ATOM      5  C4  UNL d   1       5.301   3.274   4.291  0.00  0.00    -0.005 A 
ATOM      6  C5  UNL d   1       6.000   2.972   5.458  0.00  0.00     0.003 A 
ATOM      7  C6  UNL d   1       5.933   1.687   6.000  0.00  0.00    -0.001 A 
ENDROOT
TORSDOF 0
ENDMDL
