MODEL 1
REMARK minimizedAffinity -1.53212941
REMARK minimizedRMSD -1
REMARK  0 active torsions:
REMARK  status: ('A' for Active; 'I' for Inactive)
ROOT
ATOM      1  C   UNL d   1       1.379   0.202  -3.931  0.00  0.00     0.078 C 
ATOM      2  C1  UNL d   1       1.068   0.286  -2.467  0.00  0.00    -0.077 A 
ATOM      3  C2  UNL d   1       0.403  -0.756  -1.810  0.00  0.00    -0.001 A 
ATOM      4  C3  UNL d   1       0.111  -0.660  -0.448  0.00  0.00     0.003 A 
ATOM      5  C4  UNL d   1       0.480   0.477   0.268  0.00  0.00    -0.005 A 
ATOM      6  C5  UNL d   1       1.141   1.520  -0.378  0.00  0.00     0.003 A 
ATOM      7  C6  UNL d   1       1.433   1.426  -1.739  0.00  0.00    -0.001 A 
ENDROOT
TORSDOF 0
ENDMDL
