MODEL 1
REMARK minimizedAffinity -3.76809621
REMARK minimizedRMSD -1
REMARK  0 active torsions:
REMARK  status: ('A' for Active; 'I' for Inactive)
ROOT
ATOM      1  C   UNL d   1      -1.510   0.965  -0.080  0.00  0.00     0.078 C 
ATOM      2  C1  UNL d   1      -0.361   0.111  -0.525  0.00  0.00    -0.077 A 
ATOM      3  C2  UNL d   1       0.638   0.625  -1.361  0.00  0.00    -0.001 A 
ATOM      4  C3  UNL d   1       1.698  -0.184  -1.774  0.00  0.00     0.003 A 
ATOM      5  C4  UNL d   1       1.768  -1.512  -1.359  0.00  0.00    -0.005 A 
ATOM      6  C5  UNL d   1       0.777  -2.033  -0.529  0.00  0.00     0.003 A 
ATOM      7  C6  UNL d   1      -0.283  -1.226  -0.114  0.00  0.00    -0.001 A 
ENDROOT
TORSDOF 0
ENDMDL
