MODEL 1
REMARK minimizedAffinity -1.04508448
REMARK minimizedRMSD -1
REMARK  0 active torsions:
REMARK  status: ('A' for Active; 'I' for Inactive)
ROOT
ATOM      1  C   UNL d   1       2.177  -0.631  -1.876  0.00  0.00     0.078 C 
ATOM      2  C1  UNL d   1       0.917  -0.109  -1.252  0.00  0.00    -0.077 A 
ATOM      3  C2  UNL d   1       0.201  -0.876  -0.324  0.00  0.00    -0.001 A 
ATOM      4  C3  UNL d   1      -0.975  -0.382   0.242  0.00  0.00     0.003 A 
ATOM      5  C4  UNL d   1      -1.447   0.880  -0.114  0.00  0.00    -0.005 A 
ATOM      6  C5  UNL d   1      -0.742   1.649  -1.038  0.00  0.00     0.003 A 
ATOM      7  C6  UNL d   1       0.434   1.157  -1.605  0.00  0.00    -0.001 A 
ENDROOT
TORSDOF 0
ENDMDL
