MODEL 1
REMARK minimizedAffinity -5.52649307
REMARK minimizedRMSD -1
REMARK  0 active torsions:
REMARK  status: ('A' for Active; 'I' for Inactive)
ROOT
ATOM      1  C   UNL d   1      -0.733  -0.003   0.299  0.00  0.00     0.078 C 
ATOM      2  C1  UNL d   1       0.593  -0.314  -0.328  0.00  0.00    -0.077 A 
ATOM      3  C2  UNL d   1       1.625   0.632  -0.339  0.00  0.00    -0.001 A 
ATOM      4  C3  UNL d   1       2.851   0.332  -0.935  0.00  0.00     0.003 A 
ATOM      5  C4  UNL d   1       3.055  -0.913  -1.526  0.00  0.00    -0.005 A 
ATOM      6  C5  UNL d   1       2.033  -1.860  -1.523  0.00  0.00     0.003 A 
ATOM      7  C6  UNL d   1       0.807  -1.562  -0.927  0.00  0.00    -0.001 A 
ENDROOT
TORSDOF 0
ENDMDL
