MODEL 1
REMARK minimizedAffinity -5.65423727
REMARK minimizedRMSD -1
REMARK  0 active torsions:
REMARK  status: ('A' for Active; 'I' for Inactive)
ROOT
ATOM      1  C   UNL d   1       1.182   2.955  -2.633  0.00  0.00     0.078 C 
ATOM      2  C1  UNL d   1       1.441   1.601  -2.041  0.00  0.00    -0.077 A 
ATOM      3  C2  UNL d   1       2.632   0.914  -2.307  0.00  0.00    -0.001 A 
ATOM      4  C3  UNL d   1       2.856  -0.349  -1.757  0.00  0.00     0.003 A 
ATOM      5  C4  UNL d   1       1.893  -0.937  -0.939  0.00  0.00    -0.005 A 
ATOM      6  C5  UNL d   1       0.703  -0.262  -0.671  0.00  0.00     0.003 A 
ATOM      7  C6  UNL d   1       0.478   1.002  -1.220  0.00  0.00    -0.001 A 
ENDROOT
TORSDOF 0
ENDMDL
