MODEL 1
REMARK minimizedAffinity -4.31133509
REMARK minimizedRMSD -1
REMARK  0 active torsions:
REMARK  status: ('A' for Active; 'I' for Inactive)
ROOT
ATOM      1  C   UNL d   1      -0.647  -0.028   0.312  0.00  0.00     0.078 C 
ATOM      2  C1  UNL d   1       0.661  -0.297  -0.371  0.00  0.00    -0.077 A 
ATOM      3  C2  UNL d   1       1.406  -1.445  -0.076  0.00  0.00    -0.001 A 
ATOM      4  C3  UNL d   1       2.626  -1.678  -0.712  0.00  0.00     0.003 A 
ATOM      5  C4  UNL d   1       3.113  -0.766  -1.647  0.00  0.00    -0.005 A 
ATOM      6  C5  UNL d   1       2.380   0.380  -1.946  0.00  0.00     0.003 A 
ATOM      7  C6  UNL d   1       1.159   0.615  -1.310  0.00  0.00    -0.001 A 
ENDROOT
TORSDOF 0
ENDMDL
