MODEL 1
REMARK minimizedAffinity -4.45453644
REMARK minimizedRMSD -1
REMARK  0 active torsions:
REMARK  status: ('A' for Active; 'I' for Inactive)
ROOT
ATOM      1  C   UNL d   1      -3.124  -1.685   2.876  0.00  0.00     0.078 C 
ATOM      2  C1  UNL d   1      -2.460  -0.457   2.328  0.00  0.00    -0.077 A 
ATOM      3  C2  UNL d   1      -1.459  -0.552   1.354  0.00  0.00    -0.001 A 
ATOM      4  C3  UNL d   1      -0.843   0.600   0.861  0.00  0.00     0.003 A 
ATOM      5  C4  UNL d   1      -1.221   1.854   1.336  0.00  0.00    -0.005 A 
ATOM      6  C5  UNL d   1      -2.215   1.958   2.306  0.00  0.00     0.003 A 
ATOM      7  C6  UNL d   1      -2.832   0.808   2.801  0.00  0.00    -0.001 A 
ENDROOT
TORSDOF 0
ENDMDL
