MODEL 1
REMARK minimizedAffinity 4.1050992
REMARK minimizedRMSD -1
REMARK  0 active torsions:
REMARK  status: ('A' for Active; 'I' for Inactive)
ROOT
ATOM      1  C   UNL d   1      -1.257   3.268   3.658  0.00  0.00     0.078 C 
ATOM      2  C1  UNL d   1      -1.384   1.791   3.432  0.00  0.00    -0.077 A 
ATOM      3  C2  UNL d   1      -1.415   1.259   2.137  0.00  0.00    -0.001 A 
ATOM      4  C3  UNL d   1      -1.544  -0.117   1.942  0.00  0.00     0.003 A 
ATOM      5  C4  UNL d   1      -1.644  -0.973   3.037  0.00  0.00    -0.005 A 
ATOM      6  C5  UNL d   1      -1.616  -0.453   4.329  0.00  0.00     0.003 A 
ATOM      7  C6  UNL d   1      -1.487   0.923   4.526  0.00  0.00    -0.001 A 
ENDROOT
TORSDOF 0
ENDMDL
