MODEL 1
REMARK minimizedAffinity -5.66542912
REMARK minimizedRMSD -1
REMARK  0 active torsions:
REMARK  status: ('A' for Active; 'I' for Inactive)
ROOT
ATOM      1  C   UNL d   1      -0.117   0.036  -0.449  0.00  0.00     0.078 C 
ATOM      2  C1  UNL d   1       1.213   0.225  -1.115  0.00  0.00    -0.077 A 
ATOM      3  C2  UNL d   1       2.282  -0.638  -0.849  0.00  0.00    -0.001 A 
ATOM      4  C3  UNL d   1       3.518  -0.444  -1.469  0.00  0.00     0.003 A 
ATOM      5  C4  UNL d   1       3.695   0.614  -2.358  0.00  0.00    -0.005 A 
ATOM      6  C5  UNL d   1       2.637   1.480  -2.627  0.00  0.00     0.003 A 
ATOM      7  C6  UNL d   1       1.401   1.287  -2.008  0.00  0.00    -0.001 A 
ENDROOT
TORSDOF 0
ENDMDL
