MODEL 1
REMARK minimizedAffinity -5.44246149
REMARK minimizedRMSD -1
REMARK  0 active torsions:
REMARK  status: ('A' for Active; 'I' for Inactive)
ROOT
ATOM      1  C   UNL d   1      -0.683   0.252   0.682  0.00  0.00     0.078 C 
ATOM      2  C1  UNL d   1       0.441  -0.076  -0.254  0.00  0.00    -0.077 A 
ATOM      3  C2  UNL d   1       1.231   0.935  -0.815  0.00  0.00    -0.001 A 
ATOM      4  C3  UNL d   1       2.268   0.616  -1.693  0.00  0.00     0.003 A 
ATOM      5  C4  UNL d   1       2.524  -0.715  -2.019  0.00  0.00    -0.005 A 
ATOM      6  C5  UNL d   1       1.742  -1.728  -1.468  0.00  0.00     0.003 A 
ATOM      7  C6  UNL d   1       0.704  -1.410  -0.590  0.00  0.00    -0.001 A 
ENDROOT
TORSDOF 0
ENDMDL
