MODEL 1
REMARK minimizedAffinity -5.86080265
REMARK minimizedRMSD -1
REMARK  0 active torsions:
REMARK  status: ('A' for Active; 'I' for Inactive)
ROOT
ATOM      1  C   UNL d   1      -1.935   1.702   2.622  0.00  0.00     0.078 C 
ATOM      2  C1  UNL d   1      -2.666   0.474   3.077  0.00  0.00    -0.077 A 
ATOM      3  C2  UNL d   1      -3.991   0.548   3.524  0.00  0.00    -0.001 A 
ATOM      4  C3  UNL d   1      -4.656  -0.602   3.954  0.00  0.00     0.003 A 
ATOM      5  C4  UNL d   1      -4.004  -1.833   3.943  0.00  0.00    -0.005 A 
ATOM      6  C5  UNL d   1      -2.684  -1.916   3.503  0.00  0.00     0.003 A 
ATOM      7  C6  UNL d   1      -2.018  -0.767   3.072  0.00  0.00    -0.001 A 
ENDROOT
TORSDOF 0
ENDMDL
