MODEL 1
REMARK minimizedAffinity -1.81234038
REMARK minimizedRMSD -1
REMARK  0 active torsions:
REMARK  status: ('A' for Active; 'I' for Inactive)
ROOT
ATOM      1  C   UNL d   1      -4.062  -2.396   4.843  0.00  0.00     0.078 C 
ATOM      2  C1  UNL d   1      -3.242  -1.391   4.090  0.00  0.00    -0.077 A 
ATOM      3  C2  UNL d   1      -3.326  -0.024   4.385  0.00  0.00    -0.001 A 
ATOM      4  C3  UNL d   1      -2.565   0.901   3.670  0.00  0.00     0.003 A 
ATOM      5  C4  UNL d   1      -1.714   0.470   2.654  0.00  0.00    -0.005 A 
ATOM      6  C5  UNL d   1      -1.624  -0.887   2.352  0.00  0.00     0.003 A 
ATOM      7  C6  UNL d   1      -2.386  -1.814   3.066  0.00  0.00    -0.001 A 
ENDROOT
TORSDOF 0
ENDMDL
