MODEL 1
REMARK minimizedAffinity -5.09088039
REMARK minimizedRMSD -1
REMARK  0 active torsions:
REMARK  status: ('A' for Active; 'I' for Inactive)
ROOT
ATOM      1  C   UNL d   1      -3.020  -1.861   3.686  0.00  0.00     0.078 C 
ATOM      2  C1  UNL d   1      -2.510  -0.595   3.063  0.00  0.00    -0.077 A 
ATOM      3  C2  UNL d   1      -2.528   0.614   3.769  0.00  0.00    -0.001 A 
ATOM      4  C3  UNL d   1      -2.060   1.786   3.174  0.00  0.00     0.003 A 
ATOM      5  C4  UNL d   1      -1.572   1.761   1.869  0.00  0.00    -0.005 A 
ATOM      6  C5  UNL d   1      -1.552   0.563   1.158  0.00  0.00     0.003 A 
ATOM      7  C6  UNL d   1      -2.020  -0.610   1.752  0.00  0.00    -0.001 A 
ENDROOT
TORSDOF 0
ENDMDL
