MODEL 1
REMARK minimizedAffinity 7.07404709
REMARK minimizedRMSD -1
REMARK  1 active torsions:
REMARK  status: ('A' for Active; 'I' for Inactive)
REMARK    1  A    between atoms: C1_2  and  C2_3 
ROOT
ATOM      1  C2  UNL d   1       0.107   0.028   1.648  0.00  0.00    -0.076 A 
ATOM      2  C3  UNL d   1       0.868  -0.473   2.718  0.00  0.00     0.004 A 
ATOM      3  C4  UNL d   1       0.287  -0.711   3.962  0.00  0.00    -0.003 A 
ATOM      4  C5  UNL d   1      -1.065  -0.452   4.157  0.00  0.00     0.000 A 
ATOM      5  C6  UNL d   1      -1.839   0.029   3.101  0.00  0.00     0.000 A 
ATOM      6  C7  UNL d   1      -1.272   0.258   1.836  0.00  0.00    -0.073 A 
ATOM      7  C8  UNL d   1      -2.153   0.783   0.735  0.00  0.00     0.078 C 
ENDROOT
BRANCH   1   8
ATOM      8  C1  UNL d   1       0.798   0.292   0.329  0.00  0.00     0.053 C 
ATOM      9  C   UNL d   1       2.313   0.297   0.456  0.00  0.00     0.018 C 
ENDBRANCH   1   8
TORSDOF 1
ENDMDL
