MODEL 1
REMARK minimizedAffinity 5.58295107
REMARK minimizedRMSD -1
REMARK  1 active torsions:
REMARK  status: ('A' for Active; 'I' for Inactive)
REMARK    1  A    between atoms: C1_2  and  C2_3 
ROOT
ATOM      1  C2  UNL d   1      -2.088  -0.012   1.921  0.00  0.00    -0.076 A 
ATOM      2  C3  UNL d   1      -3.345  -0.412   2.406  0.00  0.00     0.004 A 
ATOM      3  C4  UNL d   1      -3.458  -1.163   3.575  0.00  0.00    -0.003 A 
ATOM      4  C5  UNL d   1      -2.314  -1.525   4.279  0.00  0.00     0.000 A 
ATOM      5  C6  UNL d   1      -1.060  -1.122   3.822  0.00  0.00     0.000 A 
ATOM      6  C7  UNL d   1      -0.930  -0.351   2.654  0.00  0.00    -0.073 A 
ATOM      7  C8  UNL d   1       0.448   0.052   2.205  0.00  0.00     0.078 C 
ENDROOT
BRANCH   1   8
ATOM      8  C1  UNL d   1      -2.026   0.778   0.634  0.00  0.00     0.053 C 
ATOM      9  C   UNL d   1      -2.392  -0.059  -0.582  0.00  0.00     0.018 C 
ENDBRANCH   1   8
TORSDOF 1
ENDMDL
