MODEL 1
REMARK minimizedAffinity 8.43208027
REMARK minimizedRMSD -1
REMARK  1 active torsions:
REMARK  status: ('A' for Active; 'I' for Inactive)
REMARK    1  A    between atoms: C1_2  and  C2_3 
ROOT
ATOM      1  C2  UNL d   1      -1.737  -0.107   2.392  0.00  0.00    -0.076 A 
ATOM      2  C3  UNL d   1      -3.125  -0.245   2.217  0.00  0.00     0.004 A 
ATOM      3  C4  UNL d   1      -3.866  -1.114   3.015  0.00  0.00    -0.003 A 
ATOM      4  C5  UNL d   1      -3.232  -1.860   4.002  0.00  0.00     0.000 A 
ATOM      5  C6  UNL d   1      -1.858  -1.723   4.202  0.00  0.00     0.000 A 
ATOM      6  C7  UNL d   1      -1.099  -0.839   3.416  0.00  0.00    -0.073 A 
ATOM      7  C8  UNL d   1       0.380  -0.735   3.671  0.00  0.00     0.078 C 
ENDROOT
BRANCH   1   8
ATOM      8  C1  UNL d   1      -0.982   0.831   1.478  0.00  0.00     0.053 C 
ATOM      9  C   UNL d   1      -0.608   0.181   0.155  0.00  0.00     0.018 C 
ENDBRANCH   1   8
TORSDOF 1
ENDMDL
