MODEL 1
REMARK minimizedAffinity 3.106879
REMARK minimizedRMSD -1
REMARK  1 active torsions:
REMARK  status: ('A' for Active; 'I' for Inactive)
REMARK    1  A    between atoms: C1_2  and  C2_3 
ROOT
ATOM      1  C2  UNL d   1      -1.922  -0.092   1.621  0.00  0.00    -0.076 A 
ATOM      2  C3  UNL d   1      -2.950  -0.262   2.565  0.00  0.00     0.004 A 
ATOM      3  C4  UNL d   1      -2.698  -0.855   3.801  0.00  0.00    -0.003 A 
ATOM      4  C5  UNL d   1      -1.414  -1.288   4.114  0.00  0.00     0.000 A 
ATOM      5  C6  UNL d   1      -0.379  -1.111   3.197  0.00  0.00     0.000 A 
ATOM      6  C7  UNL d   1      -0.612  -0.500   1.953  0.00  0.00    -0.073 A 
ATOM      7  C8  UNL d   1       0.541  -0.341   1.000  0.00  0.00     0.078 C 
ENDROOT
BRANCH   1   8
ATOM      8  C1  UNL d   1      -2.259   0.533   0.287  0.00  0.00     0.053 C 
ATOM      9  C   UNL d   1      -2.932  -0.447  -0.662  0.00  0.00     0.018 C 
ENDBRANCH   1   8
TORSDOF 1
ENDMDL
