MODEL 1
REMARK minimizedAffinity -0.748626649
REMARK minimizedRMSD -1
REMARK  1 active torsions:
REMARK  status: ('A' for Active; 'I' for Inactive)
REMARK    1  A    between atoms: C1_2  and  C2_3 
ROOT
ATOM      1  C2  UNL d   1      -0.142  -1.186   3.081  0.00  0.00    -0.076 A 
ATOM      2  C3  UNL d   1       0.957  -0.929   2.243  0.00  0.00     0.004 A 
ATOM      3  C4  UNL d   1       0.776  -0.430   0.954  0.00  0.00    -0.003 A 
ATOM      4  C5  UNL d   1      -0.508  -0.180   0.482  0.00  0.00     0.000 A 
ATOM      5  C6  UNL d   1      -1.609  -0.413   1.306  0.00  0.00     0.000 A 
ATOM      6  C7  UNL d   1      -1.442  -0.900   2.614  0.00  0.00    -0.073 A 
ATOM      7  C8  UNL d   1      -2.665  -1.138   3.456  0.00  0.00     0.078 C 
ENDROOT
BRANCH   1   8
ATOM      8  C1  UNL d   1       0.115  -1.752   4.459  0.00  0.00     0.053 C 
ATOM      9  C   UNL d   1       1.597  -1.931   4.749  0.00  0.00     0.018 C 
ENDBRANCH   1   8
TORSDOF 1
ENDMDL
