MODEL 1
REMARK minimizedAffinity 8.73637199
REMARK minimizedRMSD -1
REMARK  0 active torsions:
REMARK  status: ('A' for Active; 'I' for Inactive)
ROOT
ATOM      1  O1  BZF d   1      -3.771   2.514   5.900  0.00  0.00    -0.204 OA
ATOM      2  C2  BZF d   1      -5.081   2.940   5.999  0.00  0.00     0.174 A 
ATOM      3  C3  BZF d   1      -5.927   1.890   6.000  0.00  0.00    -0.012 A 
ATOM      4  C3A BZF d   1      -5.087   0.731   5.989  0.00  0.00    -0.107 A 
ATOM      5  C4  BZF d   1      -5.339  -0.611   5.999  0.00  0.00     0.055 A 
ATOM      6  C5  BZF d   1      -4.298  -1.480   5.908  0.00  0.00    -0.016 A 
ATOM      7  C6  BZF d   1      -2.994  -1.041   5.801  0.00  0.00     0.022 A 
ATOM      8  C7  BZF d   1      -2.694   0.280   5.791  0.00  0.00     0.029 A 
ATOM      9  C7A BZF d   1      -3.742   1.160   5.916  0.00  0.00     0.058 A 
ENDROOT
TORSDOF 0
ENDMDL
