MODEL 1
REMARK minimizedAffinity 6.76386738
REMARK minimizedRMSD -1
REMARK  0 active torsions:
REMARK  status: ('A' for Active; 'I' for Inactive)
ROOT
ATOM      1  O1  BZF d   1      -1.023  -5.278   2.157  0.00  0.00    -0.204 OA
ATOM      2  C2  BZF d   1      -0.188  -5.665   1.127  0.00  0.00     0.174 A 
ATOM      3  C3  BZF d   1      -0.034  -4.666   0.234  0.00  0.00    -0.012 A 
ATOM      4  C3A BZF d   1      -0.749  -3.556   0.785  0.00  0.00    -0.107 A 
ATOM      5  C4  BZF d   1      -0.953  -2.272   0.369  0.00  0.00     0.055 A 
ATOM      6  C5  BZF d   1      -1.761  -1.461   1.102  0.00  0.00    -0.016 A 
ATOM      7  C6  BZF d   1      -2.383  -1.902   2.252  0.00  0.00     0.022 A 
ATOM      8  C7  BZF d   1      -2.206  -3.166   2.707  0.00  0.00     0.029 A 
ATOM      9  C7A BZF d   1      -1.365  -3.978   1.986  0.00  0.00     0.058 A 
ENDROOT
TORSDOF 0
ENDMDL
