MODEL 1
REMARK minimizedAffinity 10.9853601
REMARK minimizedRMSD -1
REMARK  0 active torsions:
REMARK  status: ('A' for Active; 'I' for Inactive)
ROOT
ATOM      1  O1  BZF d   1      -3.441   1.870   5.258  0.00  0.00    -0.204 OA
ATOM      2  C2  BZF d   1      -4.748   1.944   5.698  0.00  0.00     0.174 A 
ATOM      3  C3  BZF d   1      -5.222   0.718   6.000  0.00  0.00    -0.012 A 
ATOM      4  C3A BZF d   1      -4.113  -0.169   5.819  0.00  0.00    -0.107 A 
ATOM      5  C4  BZF d   1      -3.952  -1.515   5.979  0.00  0.00     0.055 A 
ATOM      6  C5  BZF d   1      -2.761  -2.082   5.648  0.00  0.00    -0.016 A 
ATOM      7  C6  BZF d   1      -1.714  -1.334   5.151  0.00  0.00     0.022 A 
ATOM      8  C7  BZF d   1      -1.825   0.006   4.980  0.00  0.00     0.029 A 
ATOM      9  C7A BZF d   1      -3.016   0.587   5.344  0.00  0.00     0.058 A 
ENDROOT
TORSDOF 0
ENDMDL
