MODEL 1
REMARK minimizedAffinity 10.2098217
REMARK minimizedRMSD -1
REMARK  0 active torsions:
REMARK  status: ('A' for Active; 'I' for Inactive)
ROOT
ATOM      1  O1  BZF d   1      -3.827   2.329   6.000  0.00  0.00    -0.204 OA
ATOM      2  C2  BZF d   1      -5.165   2.673   6.000  0.00  0.00     0.174 A 
ATOM      3  C3  BZF d   1      -5.923   1.642   5.574  0.00  0.00    -0.012 A 
ATOM      4  C3A BZF d   1      -5.010   0.558   5.378  0.00  0.00    -0.107 A 
ATOM      5  C4  BZF d   1      -5.163  -0.738   4.976  0.00  0.00     0.055 A 
ATOM      6  C5  BZF d   1      -4.060  -1.515   4.817  0.00  0.00    -0.016 A 
ATOM      7  C6  BZF d   1      -2.790  -1.028   5.047  0.00  0.00     0.022 A 
ATOM      8  C7  BZF d   1      -2.588   0.250   5.452  0.00  0.00     0.029 A 
ATOM      9  C7A BZF d   1      -3.703   1.028   5.645  0.00  0.00     0.058 A 
ENDROOT
TORSDOF 0
ENDMDL
