MODEL 1
REMARK minimizedAffinity 13.0650034
REMARK minimizedRMSD -1
REMARK  0 active torsions:
REMARK  status: ('A' for Active; 'I' for Inactive)
ROOT
ATOM      1  O1  BZF d   1      -0.396  -2.771  -0.856  0.00  0.00    -0.204 OA
ATOM      2  C2  BZF d   1      -0.679  -3.053   0.466  0.00  0.00     0.174 A 
ATOM      3  C3  BZF d   1      -1.765  -2.368   0.880  0.00  0.00    -0.012 A 
ATOM      4  C3A BZF d   1      -2.241  -1.681  -0.282  0.00  0.00    -0.107 A 
ATOM      5  C4  BZF d   1      -3.299  -0.850  -0.513  0.00  0.00     0.055 A 
ATOM      6  C5  BZF d   1      -3.442  -0.288  -1.742  0.00  0.00    -0.016 A 
ATOM      7  C6  BZF d   1      -2.544  -0.532  -2.760  0.00  0.00     0.022 A 
ATOM      8  C7  BZF d   1      -1.481  -1.353  -2.580  0.00  0.00     0.029 A 
ATOM      9  C7A BZF d   1      -1.353  -1.948  -1.349  0.00  0.00     0.058 A 
ENDROOT
TORSDOF 0
ENDMDL
