MODEL 1
REMARK minimizedAffinity 6.63150978
REMARK minimizedRMSD -1
REMARK  0 active torsions:
REMARK  status: ('A' for Active; 'I' for Inactive)
ROOT
ATOM      1  O1  BZF d   1       3.332   1.164  -2.795  0.00  0.00    -0.204 OA
ATOM      2  C2  BZF d   1       2.460   0.171  -2.393  0.00  0.00     0.174 A 
ATOM      3  C3  BZF d   1       2.148   0.308  -1.088  0.00  0.00    -0.012 A 
ATOM      4  C3A BZF d   1       2.797   1.512  -0.670  0.00  0.00    -0.107 A 
ATOM      5  C4  BZF d   1       2.851   2.187   0.516  0.00  0.00     0.055 A 
ATOM      6  C5  BZF d   1       3.635   3.293   0.612  0.00  0.00    -0.016 A 
ATOM      7  C6  BZF d   1       4.381   3.749  -0.456  0.00  0.00     0.022 A 
ATOM      8  C7  BZF d   1       4.356   3.116  -1.654  0.00  0.00     0.029 A 
ATOM      9  C7A BZF d   1       3.539   2.016  -1.763  0.00  0.00     0.058 A 
ENDROOT
TORSDOF 0
ENDMDL
