MODEL 1
REMARK minimizedAffinity 18.0222721
REMARK minimizedRMSD -1
REMARK  0 active torsions:
REMARK  status: ('A' for Active; 'I' for Inactive)
ROOT
ATOM      1  O1  BZF d   1      -4.545  -3.114   2.218  0.00  0.00    -0.204 OA
ATOM      2  C2  BZF d   1      -5.578  -2.651   1.426  0.00  0.00     0.174 A 
ATOM      3  C3  BZF d   1      -5.099  -1.979   0.360  0.00  0.00    -0.012 A 
ATOM      4  C3A BZF d   1      -3.676  -2.104   0.444  0.00  0.00    -0.107 A 
ATOM      5  C4  BZF d   1      -2.647  -1.663  -0.337  0.00  0.00     0.055 A 
ATOM      6  C5  BZF d   1      -1.369  -1.892   0.063  0.00  0.00    -0.016 A 
ATOM      7  C6  BZF d   1      -1.084  -2.554   1.239  0.00  0.00     0.022 A 
ATOM      8  C7  BZF d   1      -2.071  -3.014   2.045  0.00  0.00     0.029 A 
ATOM      9  C7A BZF d   1      -3.364  -2.813   1.627  0.00  0.00     0.058 A 
ENDROOT
TORSDOF 0
ENDMDL
