MODEL 1
REMARK minimizedAffinity 17.8671799
REMARK minimizedRMSD -1
REMARK  0 active torsions:
REMARK  status: ('A' for Active; 'I' for Inactive)
ROOT
ATOM      1  O1  BZF d   1      -5.996   4.809  -5.980  0.00  0.00    -0.204 OA
ATOM      2  C2  BZF d   1      -5.999   5.993  -5.267  0.00  0.00     0.174 A 
ATOM      3  C3  BZF d   1      -5.066   5.968  -4.294  0.00  0.00    -0.012 A 
ATOM      4  C3A BZF d   1      -4.378   4.724  -4.464  0.00  0.00    -0.107 A 
ATOM      5  C4  BZF d   1      -3.336   4.131  -3.811  0.00  0.00     0.055 A 
ATOM      6  C5  BZF d   1      -2.952   2.880  -4.179  0.00  0.00    -0.016 A 
ATOM      7  C6  BZF d   1      -3.590   2.193  -5.191  0.00  0.00     0.022 A 
ATOM      8  C7  BZF d   1      -4.625   2.743  -5.871  0.00  0.00     0.029 A 
ATOM      9  C7A BZF d   1      -4.995   4.019  -5.524  0.00  0.00     0.058 A 
ENDROOT
TORSDOF 0
ENDMDL
