MODEL 1
REMARK minimizedAffinity 8.55912685
REMARK minimizedRMSD -1
REMARK  0 active torsions:
REMARK  status: ('A' for Active; 'I' for Inactive)
ROOT
ATOM      1  O1  BZF d   1      -3.468  -2.013   5.012  0.00  0.00    -0.204 OA
ATOM      2  C2  BZF d   1      -2.120  -1.813   4.790  0.00  0.00     0.174 A 
ATOM      3  C3  BZF d   1      -1.799  -0.511   4.937  0.00  0.00    -0.012 A 
ATOM      4  C3A BZF d   1      -3.006   0.128   5.361  0.00  0.00    -0.107 A 
ATOM      5  C4  BZF d   1      -3.322   1.417   5.685  0.00  0.00     0.055 A 
ATOM      6  C5  BZF d   1      -4.611   1.724   5.988  0.00  0.00    -0.016 A 
ATOM      7  C6  BZF d   1      -5.608   0.771   5.973  0.00  0.00     0.022 A 
ATOM      8  C7  BZF d   1      -5.342  -0.521   5.663  0.00  0.00     0.029 A 
ATOM      9  C7A BZF d   1      -4.035  -0.842   5.388  0.00  0.00     0.058 A 
ENDROOT
TORSDOF 0
ENDMDL
