MODEL 1
REMARK minimizedAffinity 1.98024464
REMARK minimizedRMSD -1
REMARK  0 active torsions:
REMARK  status: ('A' for Active; 'I' for Inactive)
ROOT
ATOM      1  O1  BZF d   1      -3.065   5.151  -1.547  0.00  0.00    -0.204 OA
ATOM      2  C2  BZF d   1      -3.882   6.000  -2.269  0.00  0.00     0.174 A 
ATOM      3  C3  BZF d   1      -5.135   5.998  -1.769  0.00  0.00    -0.012 A 
ATOM      4  C3A BZF d   1      -5.076   5.162  -0.609  0.00  0.00    -0.107 A 
ATOM      5  C4  BZF d   1      -6.000   4.781   0.321  0.00  0.00     0.055 A 
ATOM      6  C5  BZF d   1      -5.638   3.897   1.288  0.00  0.00    -0.016 A 
ATOM      7  C6  BZF d   1      -4.365   3.369   1.350  0.00  0.00     0.022 A 
ATOM      8  C7  BZF d   1      -3.413   3.721   0.452  0.00  0.00     0.029 A 
ATOM      9  C7A BZF d   1      -3.766   4.639  -0.506  0.00  0.00     0.058 A 
ENDROOT
TORSDOF 0
ENDMDL
