MODEL 1
REMARK minimizedAffinity 15.9145985
REMARK minimizedRMSD -1
REMARK  0 active torsions:
REMARK  status: ('A' for Active; 'I' for Inactive)
ROOT
ATOM      1  O1  BZF d   1      -5.999   2.667   5.996  0.00  0.00    -0.204 OA
ATOM      2  C2  BZF d   1      -5.084   3.701   5.990  0.00  0.00     0.174 A 
ATOM      3  C3  BZF d   1      -3.822   3.224   6.000  0.00  0.00    -0.012 A 
ATOM      4  C3A BZF d   1      -3.958   1.802   5.920  0.00  0.00    -0.107 A 
ATOM      5  C4  BZF d   1      -3.059   0.774   5.876  0.00  0.00     0.055 A 
ATOM      6  C5  BZF d   1      -3.519  -0.505   5.875  0.00  0.00    -0.016 A 
ATOM      7  C6  BZF d   1      -4.867  -0.792   5.922  0.00  0.00     0.022 A 
ATOM      8  C7  BZF d   1      -5.796   0.194   5.962  0.00  0.00     0.029 A 
ATOM      9  C7A BZF d   1      -5.336   1.488   5.930  0.00  0.00     0.058 A 
ENDROOT
TORSDOF 0
ENDMDL
