MODEL 1
REMARK minimizedAffinity 15.2623205
REMARK minimizedRMSD -1
REMARK  0 active torsions:
REMARK  status: ('A' for Active; 'I' for Inactive)
ROOT
ATOM      1  O1  BZF d   1       3.867   1.862  -1.390  0.00  0.00    -0.204 OA
ATOM      2  C2  BZF d   1       2.751   1.633  -0.609  0.00  0.00     0.174 A 
ATOM      3  C3  BZF d   1       2.648   2.562   0.364  0.00  0.00    -0.012 A 
ATOM      4  C3A BZF d   1       3.720   3.479   0.122  0.00  0.00    -0.107 A 
ATOM      5  C4  BZF d   1       4.134   4.623   0.742  0.00  0.00     0.055 A 
ATOM      6  C5  BZF d   1       5.261   5.242   0.302  0.00  0.00    -0.016 A 
ATOM      7  C6  BZF d   1       6.000   4.742  -0.750  0.00  0.00     0.022 A 
ATOM      8  C7  BZF d   1       5.626   3.613  -1.400  0.00  0.00     0.029 A 
ATOM      9  C7A BZF d   1       4.470   3.003  -0.978  0.00  0.00     0.058 A 
ENDROOT
TORSDOF 0
ENDMDL
