MODEL 1
REMARK minimizedAffinity 13.2469339
REMARK minimizedRMSD -1
REMARK  0 active torsions:
REMARK  status: ('A' for Active; 'I' for Inactive)
ROOT
ATOM      1  O1  BZF d   1       2.825   3.511  -0.716  0.00  0.00    -0.204 OA
ATOM      2  C2  BZF d   1       3.834   3.065   0.115  0.00  0.00     0.174 A 
ATOM      3  C3  BZF d   1       3.921   1.720   0.083  0.00  0.00    -0.012 A 
ATOM      4  C3A BZF d   1       2.963   1.304  -0.895  0.00  0.00    -0.107 A 
ATOM      5  C4  BZF d   1       2.592   0.085  -1.386  0.00  0.00     0.055 A 
ATOM      6  C5  BZF d   1       1.573   0.017  -2.282  0.00  0.00    -0.016 A 
ATOM      7  C6  BZF d   1       0.900   1.145  -2.704  0.00  0.00     0.022 A 
ATOM      8  C7  BZF d   1       1.236   2.376  -2.248  0.00  0.00     0.029 A 
ATOM      9  C7A BZF d   1       2.287   2.452  -1.368  0.00  0.00     0.058 A 
ENDROOT
TORSDOF 0
ENDMDL
