MODEL 1
REMARK minimizedAffinity 9.70963955
REMARK minimizedRMSD -1
REMARK  0 active torsions:
REMARK  status: ('A' for Active; 'I' for Inactive)
ROOT
ATOM      1  O1  BZF d   1       5.102   1.371  -4.077  0.00  0.00    -0.204 OA
ATOM      2  C2  BZF d   1       6.000   0.327  -4.195  0.00  0.00     0.174 A 
ATOM      3  C3  BZF d   1       5.571  -0.752  -3.509  0.00  0.00    -0.012 A 
ATOM      4  C3A BZF d   1       4.284  -0.389  -3.001  0.00  0.00    -0.107 A 
ATOM      5  C4  BZF d   1       3.350  -1.046  -2.253  0.00  0.00     0.055 A 
ATOM      6  C5  BZF d   1       2.229  -0.384  -1.864  0.00  0.00    -0.016 A 
ATOM      7  C6  BZF d   1       2.013   0.937  -2.200  0.00  0.00     0.022 A 
ATOM      8  C7  BZF d   1       2.908   1.629  -2.945  0.00  0.00     0.029 A 
ATOM      9  C7A BZF d   1       4.027   0.953  -3.368  0.00  0.00     0.058 A 
ENDROOT
TORSDOF 0
ENDMDL
