MODEL 1
REMARK minimizedAffinity 12.4714155
REMARK minimizedRMSD -1
REMARK  0 active torsions:
REMARK  status: ('A' for Active; 'I' for Inactive)
ROOT
ATOM      1  O1  BZF d   1      -3.795  -1.759   4.845  0.00  0.00    -0.204 OA
ATOM      2  C2  BZF d   1      -2.436  -1.544   4.716  0.00  0.00     0.174 A 
ATOM      3  C3  BZF d   1      -2.131  -0.254   4.961  0.00  0.00    -0.012 A 
ATOM      4  C3A BZF d   1      -3.364   0.357   5.353  0.00  0.00    -0.107 A 
ATOM      5  C4  BZF d   1      -3.704   1.622   5.738  0.00  0.00     0.055 A 
ATOM      6  C5  BZF d   1      -5.010   1.909   5.984  0.00  0.00    -0.016 A 
ATOM      7  C6  BZF d   1      -6.000   0.958   5.851  0.00  0.00     0.022 A 
ATOM      8  C7  BZF d   1      -5.710  -0.312   5.477  0.00  0.00     0.029 A 
ATOM      9  C7A BZF d   1      -4.388  -0.614   5.259  0.00  0.00     0.058 A 
ENDROOT
TORSDOF 0
ENDMDL
