MODEL 1
REMARK minimizedAffinity 13.7712288
REMARK minimizedRMSD -1
REMARK  0 active torsions:
REMARK  status: ('A' for Active; 'I' for Inactive)
ROOT
ATOM      1  O1  BZF d   1      -0.047  -3.373  -3.326  0.00  0.00    -0.204 OA
ATOM      2  C2  BZF d   1      -0.132  -2.007  -3.138  0.00  0.00     0.174 A 
ATOM      3  C3  BZF d   1      -0.226  -1.710  -1.826  0.00  0.00    -0.012 A 
ATOM      4  C3A BZF d   1      -0.105  -2.964  -1.147  0.00  0.00    -0.107 A 
ATOM      5  C4  BZF d   1      -0.106  -3.321   0.171  0.00  0.00     0.055 A 
ATOM      6  C5  BZF d   1      -0.042  -4.639   0.498  0.00  0.00    -0.016 A 
ATOM      7  C6  BZF d   1       0.018  -5.624  -0.465  0.00  0.00     0.022 A 
ATOM      8  C7  BZF d   1       0.026  -5.318  -1.786  0.00  0.00     0.029 A 
ATOM      9  C7A BZF d   1      -0.005  -3.986  -2.119  0.00  0.00     0.058 A 
ENDROOT
TORSDOF 0
ENDMDL
