MODEL 1
REMARK minimizedAffinity 10.8023195
REMARK minimizedRMSD -1
REMARK  0 active torsions:
REMARK  status: ('A' for Active; 'I' for Inactive)
ROOT
ATOM      1  O1  BZF d   1      -2.739  -1.000   0.199  0.00  0.00    -0.204 OA
ATOM      2  C2  BZF d   1      -2.000  -0.917  -0.965  0.00  0.00     0.174 A 
ATOM      3  C3  BZF d   1      -1.097  -1.917  -1.031  0.00  0.00    -0.012 A 
ATOM      4  C3A BZF d   1      -1.347  -2.726   0.123  0.00  0.00    -0.107 A 
ATOM      5  C4  BZF d   1      -0.785  -3.873   0.605  0.00  0.00     0.055 A 
ATOM      6  C5  BZF d   1      -1.210  -4.367   1.797  0.00  0.00    -0.016 A 
ATOM      7  C6  BZF d   1      -2.190  -3.737   2.536  0.00  0.00     0.022 A 
ATOM      8  C7  BZF d   1      -2.780  -2.599   2.097  0.00  0.00     0.029 A 
ATOM      9  C7A BZF d   1      -2.376  -2.115   0.877  0.00  0.00     0.058 A 
ENDROOT
TORSDOF 0
ENDMDL
