MODEL 1
REMARK minimizedAffinity 7.90206861
REMARK minimizedRMSD -1
REMARK  1 active torsions:
REMARK  status: ('A' for Active; 'I' for Inactive)
REMARK    1  A    between atoms: C1_2  and  C2_3 
ROOT
ATOM      1  C2  UNL d   1      -0.942   0.688   1.358  0.00  0.00    -0.076 A 
ATOM      2  C3  UNL d   1      -2.195   0.056   1.274  0.00  0.00     0.004 A 
ATOM      3  C4  UNL d   1      -3.030   0.261   0.177  0.00  0.00    -0.003 A 
ATOM      4  C5  UNL d   1      -2.624   1.100  -0.855  0.00  0.00     0.000 A 
ATOM      5  C6  UNL d   1      -1.377   1.721  -0.797  0.00  0.00     0.000 A 
ATOM      6  C7  UNL d   1      -0.517   1.513   0.295  0.00  0.00    -0.073 A 
ATOM      7  C8  UNL d   1       0.815   2.212   0.309  0.00  0.00     0.078 C 
ENDROOT
BRANCH   1   8
ATOM      8  C1  UNL d   1      -0.092   0.449   2.585  0.00  0.00     0.053 C 
ATOM      9  C   UNL d   1      -0.430   1.401   3.723  0.00  0.00     0.018 C 
ENDBRANCH   1   8
TORSDOF 1
ENDMDL
