MODEL 1
REMARK minimizedAffinity 1.18749905
REMARK minimizedRMSD -1
REMARK  1 active torsions:
REMARK  status: ('A' for Active; 'I' for Inactive)
REMARK    1  A    between atoms: C1_2  and  C2_3 
ROOT
ATOM      1  C2  UNL d   1      -1.231   1.571  -0.472  0.00  0.00    -0.076 A 
ATOM      2  C3  UNL d   1      -2.626   1.746  -0.487  0.00  0.00     0.004 A 
ATOM      3  C4  UNL d   1      -3.463   0.905   0.244  0.00  0.00    -0.003 A 
ATOM      4  C5  UNL d   1      -2.918  -0.125   1.003  0.00  0.00     0.000 A 
ATOM      5  C6  UNL d   1      -1.536  -0.303   1.043  0.00  0.00     0.000 A 
ATOM      6  C7  UNL d   1      -0.677   0.546   0.325  0.00  0.00    -0.073 A 
ATOM      7  C8  UNL d   1       0.806   0.305   0.400  0.00  0.00     0.078 C 
ENDROOT
BRANCH   1   8
ATOM      8  C1  UNL d   1      -0.376   2.497  -1.307  0.00  0.00     0.053 C 
ATOM      9  C   UNL d   1      -0.529   3.955  -0.902  0.00  0.00     0.018 C 
ENDBRANCH   1   8
TORSDOF 1
ENDMDL
