MODEL 1
REMARK minimizedAffinity 9.61785221
REMARK minimizedRMSD -1
REMARK  1 active torsions:
REMARK  status: ('A' for Active; 'I' for Inactive)
REMARK    1  A    between atoms: C1_2  and  C2_3 
ROOT
ATOM      1  C2  UNL d   1       0.198   3.108  -0.384  0.00  0.00    -0.076 A 
ATOM      2  C3  UNL d   1      -0.851   3.652  -1.145  0.00  0.00     0.004 A 
ATOM      3  C4  UNL d   1      -2.092   3.020  -1.211  0.00  0.00    -0.003 A 
ATOM      4  C5  UNL d   1      -2.304   1.834  -0.516  0.00  0.00     0.000 A 
ATOM      5  C6  UNL d   1      -1.280   1.290   0.258  0.00  0.00     0.000 A 
ATOM      6  C7  UNL d   1      -0.028   1.923   0.349  0.00  0.00    -0.073 A 
ATOM      7  C8  UNL d   1       1.042   1.289   1.194  0.00  0.00     0.078 C 
ENDROOT
BRANCH   1   8
ATOM      8  C1  UNL d   1       1.530   3.823  -0.372  0.00  0.00     0.053 C 
ATOM      9  C   UNL d   1       1.467   5.184  -1.049  0.00  0.00     0.018 C 
ENDBRANCH   1   8
TORSDOF 1
ENDMDL
