MODEL 1
REMARK minimizedAffinity 4.16009331
REMARK minimizedRMSD -1
REMARK  1 active torsions:
REMARK  status: ('A' for Active; 'I' for Inactive)
REMARK    1  A    between atoms: C1_2  and  C2_3 
ROOT
ATOM      1  C2  UNL d   1      -1.693   1.791   0.538  0.00  0.00    -0.076 A 
ATOM      2  C3  UNL d   1      -2.847   2.015  -0.232  0.00  0.00     0.004 A 
ATOM      3  C4  UNL d   1      -4.004   1.265  -0.027  0.00  0.00    -0.003 A 
ATOM      4  C5  UNL d   1      -4.025   0.279   0.953  0.00  0.00     0.000 A 
ATOM      5  C6  UNL d   1      -2.895   0.055   1.738  0.00  0.00     0.000 A 
ATOM      6  C7  UNL d   1      -1.726   0.813   1.555  0.00  0.00    -0.073 A 
ATOM      7  C8  UNL d   1      -0.535   0.525   2.427  0.00  0.00     0.078 C 
ENDROOT
BRANCH   1   8
ATOM      8  C1  UNL d   1      -0.459   2.618   0.252  0.00  0.00     0.053 C 
ATOM      9  C   UNL d   1       0.642   1.808  -0.415  0.00  0.00     0.018 C 
ENDBRANCH   1   8
TORSDOF 1
ENDMDL
