MODEL 1
REMARK minimizedAffinity 1.37982571
REMARK minimizedRMSD -1
REMARK  1 active torsions:
REMARK  status: ('A' for Active; 'I' for Inactive)
REMARK    1  A    between atoms: C1_2  and  C2_3 
ROOT
ATOM      1  C2  UNL d   1      -0.328   1.557   0.795  0.00  0.00    -0.076 A 
ATOM      2  C3  UNL d   1      -0.619   0.262   1.258  0.00  0.00     0.004 A 
ATOM      3  C4  UNL d   1      -1.923  -0.231   1.236  0.00  0.00    -0.003 A 
ATOM      4  C5  UNL d   1      -2.956   0.563   0.751  0.00  0.00     0.000 A 
ATOM      5  C6  UNL d   1      -2.682   1.843   0.271  0.00  0.00     0.000 A 
ATOM      6  C7  UNL d   1      -1.371   2.350   0.271  0.00  0.00    -0.073 A 
ATOM      7  C8  UNL d   1      -1.134   3.740  -0.253  0.00  0.00     0.078 C 
ENDROOT
BRANCH   1   8
ATOM      8  C1  UNL d   1       1.101   2.048   0.868  0.00  0.00     0.053 C 
ATOM      9  C   UNL d   1       2.109   0.957   0.543  0.00  0.00     0.018 C 
ENDBRANCH   1   8
TORSDOF 1
ENDMDL
