MODEL 1
REMARK minimizedAffinity 2.60751748
REMARK minimizedRMSD -1
REMARK  1 active torsions:
REMARK  status: ('A' for Active; 'I' for Inactive)
REMARK    1  A    between atoms: C1_2  and  C2_3 
ROOT
ATOM      1  C2  UNL d   1      -2.193   1.541   0.445  0.00  0.00    -0.076 A 
ATOM      2  C3  UNL d   1      -2.997   2.468  -0.241  0.00  0.00     0.004 A 
ATOM      3  C4  UNL d   1      -4.388   2.392  -0.183  0.00  0.00    -0.003 A 
ATOM      4  C5  UNL d   1      -4.997   1.388   0.562  0.00  0.00     0.000 A 
ATOM      5  C6  UNL d   1      -4.214   0.471   1.263  0.00  0.00     0.000 A 
ATOM      6  C7  UNL d   1      -2.811   0.544   1.228  0.00  0.00    -0.073 A 
ATOM      7  C8  UNL d   1      -2.016  -0.475   1.999  0.00  0.00     0.078 C 
ENDROOT
BRANCH   1   8
ATOM      8  C1  UNL d   1      -0.690   1.657   0.324  0.00  0.00     0.053 C 
ATOM      9  C   UNL d   1      -0.028   2.050   1.635  0.00  0.00     0.018 C 
ENDBRANCH   1   8
TORSDOF 1
ENDMDL
