MODEL 1
REMARK minimizedAffinity 1.44588399
REMARK minimizedRMSD -1
REMARK  1 active torsions:
REMARK  status: ('A' for Active; 'I' for Inactive)
REMARK    1  A    between atoms: C1_2  and  C2_3 
ROOT
ATOM      1  C2  UNL d   1      -0.773   0.878   0.668  0.00  0.00    -0.076 A 
ATOM      2  C3  UNL d   1      -1.254   2.015  -0.004  0.00  0.00     0.004 A 
ATOM      3  C4  UNL d   1      -2.621   2.214  -0.189  0.00  0.00    -0.003 A 
ATOM      4  C5  UNL d   1      -3.530   1.280   0.296  0.00  0.00     0.000 A 
ATOM      5  C6  UNL d   1      -3.071   0.156   0.981  0.00  0.00     0.000 A 
ATOM      6  C7  UNL d   1      -1.697  -0.052   1.191  0.00  0.00    -0.073 A 
ATOM      7  C8  UNL d   1      -1.258  -1.285   1.931  0.00  0.00     0.078 C 
ENDROOT
BRANCH   1   8
ATOM      8  C1  UNL d   1       0.721   0.702   0.815  0.00  0.00     0.053 C 
ATOM      9  C   UNL d   1       1.479   1.073  -0.450  0.00  0.00     0.018 C 
ENDBRANCH   1   8
TORSDOF 1
ENDMDL
