MODEL 1
REMARK minimizedAffinity 4.48009777
REMARK minimizedRMSD -1
REMARK  1 active torsions:
REMARK  status: ('A' for Active; 'I' for Inactive)
REMARK    1  A    between atoms: C1_2  and  C2_3 
ROOT
ATOM      1  C2  UNL d   1       0.076   1.528   0.640  0.00  0.00    -0.076 A 
ATOM      2  C3  UNL d   1       1.270   1.072   0.056  0.00  0.00     0.004 A 
ATOM      3  C4  UNL d   1       2.505   1.344   0.642  0.00  0.00    -0.003 A 
ATOM      4  C5  UNL d   1       2.566   2.077   1.822  0.00  0.00     0.000 A 
ATOM      5  C6  UNL d   1       1.390   2.523   2.425  0.00  0.00     0.000 A 
ATOM      6  C7  UNL d   1       0.136   2.243   1.856  0.00  0.00    -0.073 A 
ATOM      7  C8  UNL d   1      -1.100   2.753   2.545  0.00  0.00     0.078 C 
ENDROOT
BRANCH   1   8
ATOM      8  C1  UNL d   1      -1.232   1.226  -0.055  0.00  0.00     0.053 C 
ATOM      9  C   UNL d   1      -1.776  -0.149   0.300  0.00  0.00     0.018 C 
ENDBRANCH   1   8
TORSDOF 1
ENDMDL
