MODEL 1
REMARK minimizedAffinity 4.7131381
REMARK minimizedRMSD -1
REMARK  1 active torsions:
REMARK  status: ('A' for Active; 'I' for Inactive)
REMARK    1  A    between atoms: C1_2  and  C2_3 
ROOT
ATOM      1  C2  UNL d   1       1.361   1.356   0.095  0.00  0.00    -0.076 A 
ATOM      2  C3  UNL d   1      -0.036   1.274  -0.033  0.00  0.00     0.004 A 
ATOM      3  C4  UNL d   1      -0.879   1.818   0.934  0.00  0.00    -0.003 A 
ATOM      4  C5  UNL d   1      -0.338   2.453   2.047  0.00  0.00     0.000 A 
ATOM      5  C6  UNL d   1       1.046   2.559   2.182  0.00  0.00     0.000 A 
ATOM      6  C7  UNL d   1       1.909   2.031   1.207  0.00  0.00    -0.073 A 
ATOM      7  C8  UNL d   1       3.394   2.168   1.407  0.00  0.00     0.078 C 
ENDROOT
BRANCH   1   8
ATOM      8  C1  UNL d   1       2.225   0.724  -0.972  0.00  0.00     0.053 C 
ATOM      9  C   UNL d   1       2.064   1.397  -2.326  0.00  0.00     0.018 C 
ENDBRANCH   1   8
TORSDOF 1
ENDMDL
