MODEL 1
REMARK minimizedAffinity 8.77118492
REMARK minimizedRMSD -1
REMARK  1 active torsions:
REMARK  status: ('A' for Active; 'I' for Inactive)
REMARK    1  A    between atoms: C1_2  and  C2_3 
ROOT
ATOM      1  C2  UNL d   1       0.815   1.757   0.805  0.00  0.00    -0.076 A 
ATOM      2  C3  UNL d   1      -0.534   2.063   1.056  0.00  0.00     0.004 A 
ATOM      3  C4  UNL d   1      -0.904   2.814   2.170  0.00  0.00    -0.003 A 
ATOM      4  C5  UNL d   1       0.069   3.272   3.051  0.00  0.00     0.000 A 
ATOM      5  C6  UNL d   1       1.414   2.993   2.808  0.00  0.00     0.000 A 
ATOM      6  C7  UNL d   1       1.805   2.251   1.681  0.00  0.00    -0.073 A 
ATOM      7  C8  UNL d   1       3.269   1.974   1.471  0.00  0.00     0.078 C 
ENDROOT
BRANCH   1   8
ATOM      8  C1  UNL d   1       1.154   0.915  -0.405  0.00  0.00     0.053 C 
ATOM      9  C   UNL d   1       1.408   1.756  -1.647  0.00  0.00     0.018 C 
ENDBRANCH   1   8
TORSDOF 1
ENDMDL
