MODEL 1
REMARK minimizedAffinity 24.9322147
REMARK minimizedRMSD -1
REMARK  0 active torsions:
REMARK  status: ('A' for Active; 'I' for Inactive)
ROOT
ATOM      1  N1  IND d   1       2.575   1.982   0.951  0.00  0.00    -0.196 N 
ATOM      2  C2  IND d   1       3.530   2.940   0.748  0.00  0.00     0.054 A 
ATOM      3  C3  IND d   1       4.099   2.786  -0.469  0.00  0.00    -0.031 A 
ATOM      4  C4  IND d   1       3.548   1.095  -2.331  0.00  0.00     0.051 A 
ATOM      5  C5  IND d   1       2.776  -0.000  -2.597  0.00  0.00    -0.031 A 
ATOM      6  C6  IND d   1       1.877  -0.500  -1.676  0.00  0.00     0.015 A 
ATOM      7  C7  IND d   1       1.708   0.088  -0.454  0.00  0.00    -0.016 A 
ATOM      8  C8  IND d   1       2.496   1.196  -0.178  0.00  0.00    -0.047 A 
ATOM      9  C9  IND d   1       3.440   1.682  -1.092  0.00  0.00    -0.096 A 
ATOM     10  HN1 IND d   1       2.104   1.887   1.663  0.00  0.00     0.298 HD
ENDROOT
TORSDOF 0
ENDMDL
