MODEL 1
REMARK minimizedAffinity 16.0599823
REMARK minimizedRMSD -1
REMARK  0 active torsions:
REMARK  status: ('A' for Active; 'I' for Inactive)
ROOT
ATOM      1  N1  IND d   1       5.243   5.374   1.967  0.00  0.00    -0.196 N 
ATOM      2  C2  IND d   1       5.228   6.000   0.752  0.00  0.00     0.054 A 
ATOM      3  C3  IND d   1       4.762   5.163  -0.202  0.00  0.00    -0.031 A 
ATOM      4  C4  IND d   1       3.872   2.758   0.025  0.00  0.00     0.051 A 
ATOM      5  C5  IND d   1       3.720   1.746   0.931  0.00  0.00    -0.031 A 
ATOM      6  C6  IND d   1       4.073   1.896   2.257  0.00  0.00     0.015 A 
ATOM      7  C7  IND d   1       4.582   3.073   2.730  0.00  0.00    -0.016 A 
ATOM      8  C8  IND d   1       4.744   4.100   1.810  0.00  0.00    -0.047 A 
ATOM      9  C9  IND d   1       4.427   3.939   0.455  0.00  0.00    -0.096 A 
ATOM     10  HN1 IND d   1       5.517   5.719   2.705  0.00  0.00     0.298 HD
ENDROOT
TORSDOF 0
ENDMDL
