MODEL 1
REMARK minimizedAffinity 13.3979197
REMARK minimizedRMSD -1
REMARK  0 active torsions:
REMARK  status: ('A' for Active; 'I' for Inactive)
ROOT
ATOM      1  N1  IND d   1      -5.151   5.738   1.459  0.00  0.00    -0.196 N 
ATOM      2  C2  IND d   1      -6.000   6.000   0.419  0.00  0.00     0.054 A 
ATOM      3  C3  IND d   1      -5.992   4.975  -0.463  0.00  0.00    -0.031 A 
ATOM      4  C4  IND d   1      -4.742   2.728  -0.350  0.00  0.00     0.051 A 
ATOM      5  C5  IND d   1      -3.818   2.045   0.391  0.00  0.00    -0.031 A 
ATOM      6  C6  IND d   1      -3.283   2.568   1.550  0.00  0.00     0.015 A 
ATOM      7  C7  IND d   1      -3.662   3.794   2.020  0.00  0.00    -0.016 A 
ATOM      8  C8  IND d   1      -4.594   4.493   1.267  0.00  0.00    -0.047 A 
ATOM      9  C9  IND d   1      -5.109   3.986   0.067  0.00  0.00    -0.096 A 
ATOM     10  HN1 IND d   1      -4.992   6.263   2.121  0.00  0.00     0.298 HD
ENDROOT
TORSDOF 0
ENDMDL
