MODEL 1
REMARK minimizedAffinity 15.0283213
REMARK minimizedRMSD -1
REMARK  0 active torsions:
REMARK  status: ('A' for Active; 'I' for Inactive)
ROOT
ATOM      1  N1  IND d   1      -2.785   4.169  -3.465  0.00  0.00    -0.196 N 
ATOM      2  C2  IND d   1      -2.470   2.926  -3.941  0.00  0.00     0.054 A 
ATOM      3  C3  IND d   1      -3.342   2.558  -4.906  0.00  0.00    -0.031 A 
ATOM      4  C4  IND d   1      -5.299   3.879  -5.933  0.00  0.00     0.051 A 
ATOM      5  C5  IND d   1      -5.999   5.045  -5.800  0.00  0.00    -0.031 A 
ATOM      6  C6  IND d   1      -5.655   5.999  -4.864  0.00  0.00     0.015 A 
ATOM      7  C7  IND d   1      -4.586   5.827  -4.031  0.00  0.00    -0.016 A 
ATOM      8  C8  IND d   1      -3.877   4.641  -4.159  0.00  0.00    -0.047 A 
ATOM      9  C9  IND d   1      -4.247   3.650  -5.078  0.00  0.00    -0.096 A 
ATOM     10  HN1 IND d   1      -2.370   4.585  -2.837  0.00  0.00     0.298 HD
ENDROOT
TORSDOF 0
ENDMDL
