MODEL 1
REMARK minimizedAffinity 2.98899031
REMARK minimizedRMSD -1
REMARK  0 active torsions:
REMARK  status: ('A' for Active; 'I' for Inactive)
ROOT
ATOM      1  N1  IND d   1      -1.177  -4.452   3.120  0.00  0.00    -0.196 N 
ATOM      2  C2  IND d   1      -1.809  -3.512   3.886  0.00  0.00     0.054 A 
ATOM      3  C3  IND d   1      -2.085  -2.414   3.148  0.00  0.00    -0.031 A 
ATOM      4  C4  IND d   1      -1.682  -1.982   0.642  0.00  0.00     0.051 A 
ATOM      5  C5  IND d   1      -1.101  -2.532  -0.466  0.00  0.00    -0.031 A 
ATOM      6  C6  IND d   1      -0.506  -3.777  -0.435  0.00  0.00     0.015 A 
ATOM      7  C7  IND d   1      -0.480  -4.526   0.707  0.00  0.00    -0.016 A 
ATOM      8  C8  IND d   1      -1.063  -3.968   1.836  0.00  0.00    -0.047 A 
ATOM      9  C9  IND d   1      -1.631  -2.687   1.821  0.00  0.00    -0.096 A 
ATOM     10  HN1 IND d   1      -0.898  -5.218   3.395  0.00  0.00     0.298 HD
ENDROOT
TORSDOF 0
ENDMDL
