MODEL 1
REMARK minimizedAffinity 12.1728888
REMARK minimizedRMSD -1
REMARK  0 active torsions:
REMARK  status: ('A' for Active; 'I' for Inactive)
ROOT
ATOM      1  N1  IND d   1      -1.135  -4.968   3.404  0.00  0.00    -0.196 N 
ATOM      2  C2  IND d   1      -0.519  -6.000   2.753  0.00  0.00     0.054 A 
ATOM      3  C3  IND d   1      -0.304  -5.678   1.458  0.00  0.00    -0.031 A 
ATOM      4  C4  IND d   1      -0.790  -3.474   0.218  0.00  0.00     0.051 A 
ATOM      5  C5  IND d   1      -1.379  -2.252   0.384  0.00  0.00    -0.031 A 
ATOM      6  C6  IND d   1      -1.926  -1.864   1.590  0.00  0.00     0.015 A 
ATOM      7  C7  IND d   1      -1.893  -2.683   2.683  0.00  0.00    -0.016 A 
ATOM      8  C8  IND d   1      -1.302  -3.927   2.517  0.00  0.00    -0.047 A 
ATOM      9  C9  IND d   1      -0.783  -4.343   1.284  0.00  0.00    -0.096 A 
ATOM     10  HN1 IND d   1      -1.377  -4.968   4.229  0.00  0.00     0.298 HD
ENDROOT
TORSDOF 0
ENDMDL
