MODEL 1
REMARK minimizedAffinity 5.91455603
REMARK minimizedRMSD -1
REMARK  0 active torsions:
REMARK  status: ('A' for Active; 'I' for Inactive)
ROOT
ATOM      1  N1  IND d   1      -2.607   3.491  -4.123  0.00  0.00    -0.196 N 
ATOM      2  C2  IND d   1      -2.755   2.188  -4.506  0.00  0.00     0.054 A 
ATOM      3  C3  IND d   1      -3.885   2.036  -5.232  0.00  0.00    -0.031 A 
ATOM      4  C4  IND d   1      -5.586   3.809  -5.999  0.00  0.00     0.051 A 
ATOM      5  C5  IND d   1      -5.896   5.134  -5.865  0.00  0.00    -0.031 A 
ATOM      6  C6  IND d   1      -5.108   5.996  -5.131  0.00  0.00     0.015 A 
ATOM      7  C7  IND d   1      -3.970   5.567  -4.510  0.00  0.00    -0.016 A 
ATOM      8  C8  IND d   1      -3.656   4.221  -4.638  0.00  0.00    -0.047 A 
ATOM      9  C9  IND d   1      -4.474   3.332  -5.346  0.00  0.00    -0.096 A 
ATOM     10  HN1 IND d   1      -1.967   3.803  -3.641  0.00  0.00     0.298 HD
ENDROOT
TORSDOF 0
ENDMDL
