MODEL 1
REMARK minimizedAffinity 7.02983332
REMARK minimizedRMSD -1
REMARK  0 active torsions:
REMARK  status: ('A' for Active; 'I' for Inactive)
ROOT
ATOM      1  N1  IND d   1      -3.739   2.222  -5.027  0.00  0.00    -0.196 N 
ATOM      2  C2  IND d   1      -2.682   2.428  -4.185  0.00  0.00     0.054 A 
ATOM      3  C3  IND d   1      -2.600   3.733  -3.842  0.00  0.00    -0.031 A 
ATOM      4  C4  IND d   1      -4.156   5.687  -4.463  0.00  0.00     0.051 A 
ATOM      5  C5  IND d   1      -5.237   5.999  -5.239  0.00  0.00    -0.031 A 
ATOM      6  C6  IND d   1      -5.889   5.048  -5.997  0.00  0.00     0.015 A 
ATOM      7  C7  IND d   1      -5.489   3.742  -5.999  0.00  0.00    -0.016 A 
ATOM      8  C8  IND d   1      -4.387   3.423  -5.217  0.00  0.00    -0.047 A 
ATOM      9  C9  IND d   1      -3.696   4.392  -4.479  0.00  0.00    -0.096 A 
ATOM     10  HN1 IND d   1      -3.962   1.470  -5.378  0.00  0.00     0.298 HD
ENDROOT
TORSDOF 0
ENDMDL
