MODEL 1
REMARK minimizedAffinity -1.5549022
REMARK minimizedRMSD -1
REMARK  0 active torsions:
REMARK  status: ('A' for Active; 'I' for Inactive)
ROOT
ATOM      1  N1  IND d   1      -1.466  -0.394   5.623  0.00  0.00    -0.196 N 
ATOM      2  C2  IND d   1      -1.672  -1.744   5.553  0.00  0.00     0.054 A 
ATOM      3  C3  IND d   1      -2.991  -2.024   5.654  0.00  0.00    -0.031 A 
ATOM      4  C4  IND d   1      -4.995  -0.419   5.837  0.00  0.00     0.051 A 
ATOM      5  C5  IND d   1      -5.306   0.905   5.974  0.00  0.00    -0.031 A 
ATOM      6  C6  IND d   1      -4.333   1.883   6.000  0.00  0.00     0.015 A 
ATOM      7  C7  IND d   1      -3.008   1.574   5.876  0.00  0.00    -0.016 A 
ATOM      8  C8  IND d   1      -2.689   0.230   5.744  0.00  0.00    -0.047 A 
ATOM      9  C9  IND d   1      -3.668  -0.771   5.760  0.00  0.00    -0.096 A 
ATOM     10  HN1 IND d   1      -0.702  -0.001   5.597  0.00  0.00     0.298 HD
ENDROOT
TORSDOF 0
ENDMDL
