MODEL 1
REMARK minimizedAffinity 11.157486
REMARK minimizedRMSD -1
REMARK  0 active torsions:
REMARK  status: ('A' for Active; 'I' for Inactive)
ROOT
ATOM      1  N1  IND d   1      -2.638   4.283  -3.785  0.00  0.00    -0.196 N 
ATOM      2  C2  IND d   1      -2.397   2.972  -4.090  0.00  0.00     0.054 A 
ATOM      3  C3  IND d   1      -3.351   2.501  -4.924  0.00  0.00    -0.031 A 
ATOM      4  C4  IND d   1      -5.341   3.732  -5.996  0.00  0.00     0.051 A 
ATOM      5  C5  IND d   1      -5.995   4.932  -5.990  0.00  0.00    -0.031 A 
ATOM      6  C6  IND d   1      -5.552   6.000  -5.236  0.00  0.00     0.015 A 
ATOM      7  C7  IND d   1      -4.428   5.910  -4.464  0.00  0.00    -0.016 A 
ATOM      8  C8  IND d   1      -3.766   4.690  -4.462  0.00  0.00    -0.047 A 
ATOM      9  C9  IND d   1      -4.234   3.591  -5.193  0.00  0.00    -0.096 A 
ATOM     10  HN1 IND d   1      -2.165   4.771  -3.258  0.00  0.00     0.298 HD
ENDROOT
TORSDOF 0
ENDMDL
