MODEL 1
REMARK minimizedAffinity 6.4700551
REMARK minimizedRMSD -1
REMARK  0 active torsions:
REMARK  status: ('A' for Active; 'I' for Inactive)
ROOT
ATOM      1  N1  IND d   1      -3.893   2.818   5.934  0.00  0.00    -0.196 N 
ATOM      2  C2  IND d   1      -5.211   3.176   5.999  0.00  0.00     0.054 A 
ATOM      3  C3  IND d   1      -5.998   2.077   5.995  0.00  0.00    -0.031 A 
ATOM      4  C4  IND d   1      -5.334  -0.410   5.991  0.00  0.00     0.051 A 
ATOM      5  C5  IND d   1      -4.248  -1.235   5.898  0.00  0.00    -0.031 A 
ATOM      6  C6  IND d   1      -2.962  -0.741   5.813  0.00  0.00     0.015 A 
ATOM      7  C7  IND d   1      -2.713   0.602   5.830  0.00  0.00    -0.016 A 
ATOM      8  C8  IND d   1      -3.813   1.442   5.917  0.00  0.00    -0.047 A 
ATOM      9  C9  IND d   1      -5.123   0.948   5.960  0.00  0.00    -0.096 A 
ATOM     10  HN1 IND d   1      -3.226   3.360   5.907  0.00  0.00     0.298 HD
ENDROOT
TORSDOF 0
ENDMDL
