MODEL 1
REMARK minimizedAffinity 12.3925972
REMARK minimizedRMSD -1
REMARK  0 active torsions:
REMARK  status: ('A' for Active; 'I' for Inactive)
ROOT
ATOM      1  N1  IND d   1      -0.305  -5.296  -1.586  0.00  0.00    -0.196 N 
ATOM      2  C2  IND d   1      -0.183  -5.555  -0.249  0.00  0.00     0.054 A 
ATOM      3  C3  IND d   1      -0.268  -4.408   0.462  0.00  0.00    -0.031 A 
ATOM      4  C4  IND d   1      -0.709  -2.007  -0.354  0.00  0.00     0.051 A 
ATOM      5  C5  IND d   1      -0.852  -1.266  -1.493  0.00  0.00    -0.031 A 
ATOM      6  C6  IND d   1      -0.823  -1.842  -2.747  0.00  0.00     0.015 A 
ATOM      7  C7  IND d   1      -0.659  -3.189  -2.908  0.00  0.00    -0.016 A 
ATOM      8  C8  IND d   1      -0.506  -3.944  -1.753  0.00  0.00    -0.047 A 
ATOM      9  C9  IND d   1      -0.493  -3.359  -0.481  0.00  0.00    -0.096 A 
ATOM     10  HN1 IND d   1      -0.264  -5.880  -2.215  0.00  0.00     0.298 HD
ENDROOT
TORSDOF 0
ENDMDL
