MODEL 1
REMARK minimizedAffinity 13.4725018
REMARK minimizedRMSD -1
REMARK  0 active torsions:
REMARK  status: ('A' for Active; 'I' for Inactive)
ROOT
ATOM      1  N1  IND d   1       3.292   2.683   0.630  0.00  0.00    -0.196 N 
ATOM      2  C2  IND d   1       4.185   3.655   0.274  0.00  0.00     0.054 A 
ATOM      3  C3  IND d   1       4.582   3.481  -1.007  0.00  0.00    -0.031 A 
ATOM      4  C4  IND d   1       3.817   1.732  -2.734  0.00  0.00     0.051 A 
ATOM      5  C5  IND d   1       3.042   0.614  -2.864  0.00  0.00    -0.031 A 
ATOM      6  C6  IND d   1       2.293   0.121  -1.815  0.00  0.00     0.015 A 
ATOM      7  C7  IND d   1       2.282   0.736  -0.595  0.00  0.00    -0.016 A 
ATOM      8  C8  IND d   1       3.074   1.867  -0.458  0.00  0.00    -0.047 A 
ATOM      9  C9  IND d   1       3.870   2.348  -1.506  0.00  0.00    -0.096 A 
ATOM     10  HN1 IND d   1       2.927   2.597   1.404  0.00  0.00     0.298 HD
ENDROOT
TORSDOF 0
ENDMDL
