MODEL 1
REMARK minimizedAffinity 14.595047
REMARK minimizedRMSD -1
REMARK  0 active torsions:
REMARK  status: ('A' for Active; 'I' for Inactive)
ROOT
ATOM      1  N1  IND d   1      -3.179   3.005  -5.431  0.00  0.00    -0.196 N 
ATOM      2  C2  IND d   1      -3.741   2.223  -4.460  0.00  0.00     0.054 A 
ATOM      3  C3  IND d   1      -2.781   1.683  -3.677  0.00  0.00    -0.031 A 
ATOM      4  C4  IND d   1      -0.230   2.025  -3.745  0.00  0.00     0.051 A 
ATOM      5  C5  IND d   1       0.757   2.622  -4.477  0.00  0.00    -0.031 A 
ATOM      6  C6  IND d   1       0.477   3.395  -5.586  0.00  0.00     0.015 A 
ATOM      7  C7  IND d   1      -0.807   3.610  -5.998  0.00  0.00    -0.016 A 
ATOM      8  C8  IND d   1      -1.812   2.999  -5.261  0.00  0.00    -0.047 A 
ATOM      9  C9  IND d   1      -1.532   2.179  -4.161  0.00  0.00    -0.096 A 
ATOM     10  HN1 IND d   1      -3.608   3.428  -6.045  0.00  0.00     0.298 HD
ENDROOT
TORSDOF 0
ENDMDL
