MODEL 1
REMARK minimizedAffinity 17.4340954
REMARK minimizedRMSD -1
REMARK  0 active torsions:
REMARK  status: ('A' for Active; 'I' for Inactive)
ROOT
ATOM      1  N1  IND d   1       4.548   2.589   2.729  0.00  0.00    -0.196 N 
ATOM      2  C2  IND d   1       3.805   1.786   3.549  0.00  0.00     0.054 A 
ATOM      3  C3  IND d   1       2.778   1.237   2.863  0.00  0.00    -0.031 A 
ATOM      4  C4  IND d   1       2.186   1.435   0.365  0.00  0.00     0.051 A 
ATOM      5  C5  IND d   1       2.552   2.086  -0.780  0.00  0.00    -0.031 A 
ATOM      6  C6  IND d   1       3.625   2.953  -0.815  0.00  0.00     0.015 A 
ATOM      7  C7  IND d   1       4.382   3.194   0.296  0.00  0.00    -0.016 A 
ATOM      8  C8  IND d   1       4.010   2.540   1.462  0.00  0.00    -0.047 A 
ATOM      9  C9  IND d   1       2.897   1.692   1.514  0.00  0.00    -0.096 A 
ATOM     10  HN1 IND d   1       5.237   3.047   2.965  0.00  0.00     0.298 HD
ENDROOT
TORSDOF 0
ENDMDL
