MODEL 1
REMARK minimizedAffinity 23.7786827
REMARK minimizedRMSD -1
REMARK  0 active torsions:
REMARK  status: ('A' for Active; 'I' for Inactive)
ROOT
ATOM      1  N1  IND d   1       5.886   4.157   5.155  0.00  0.00    -0.196 N 
ATOM      2  C2  IND d   1       4.884   4.587   5.980  0.00  0.00     0.054 A 
ATOM      3  C3  IND d   1       3.697   4.557   5.333  0.00  0.00    -0.031 A 
ATOM      4  C4  IND d   1       3.152   3.743   2.953  0.00  0.00     0.051 A 
ATOM      5  C5  IND d   1       3.744   3.294   1.806  0.00  0.00    -0.031 A 
ATOM      6  C6  IND d   1       5.107   3.103   1.716  0.00  0.00     0.015 A 
ATOM      7  C7  IND d   1       5.932   3.344   2.778  0.00  0.00    -0.016 A 
ATOM      8  C8  IND d   1       5.335   3.808   3.942  0.00  0.00    -0.047 A 
ATOM      9  C9  IND d   1       3.957   4.044   4.026  0.00  0.00    -0.096 A 
ATOM     10  HN1 IND d   1       6.720   4.113   5.360  0.00  0.00     0.298 HD
ENDROOT
TORSDOF 0
ENDMDL
