MODEL 1
REMARK minimizedAffinity 12.1847734
REMARK minimizedRMSD -1
REMARK  0 active torsions:
REMARK  status: ('A' for Active; 'I' for Inactive)
ROOT
ATOM      1  N1  IND d   1      -4.815   4.234   3.170  0.00  0.00    -0.196 N 
ATOM      2  C2  IND d   1      -5.764   5.154   3.519  0.00  0.00     0.054 A 
ATOM      3  C3  IND d   1      -6.000   6.000   2.491  0.00  0.00    -0.031 A 
ATOM      4  C4  IND d   1      -5.016   5.997   0.113  0.00  0.00     0.051 A 
ATOM      5  C5  IND d   1      -4.083   5.371  -0.667  0.00  0.00    -0.031 A 
ATOM      6  C6  IND d   1      -3.334   4.312  -0.198  0.00  0.00     0.015 A 
ATOM      7  C7  IND d   1      -3.498   3.828   1.069  0.00  0.00    -0.016 A 
ATOM      8  C8  IND d   1      -4.439   4.466   1.866  0.00  0.00    -0.047 A 
ATOM      9  C9  IND d   1      -5.172   5.569   1.410  0.00  0.00    -0.096 A 
ATOM     10  HN1 IND d   1      -4.505   3.615   3.680  0.00  0.00     0.298 HD
ENDROOT
TORSDOF 0
ENDMDL
