MODEL 1
REMARK minimizedAffinity 7.28129292
REMARK minimizedRMSD -1
REMARK  0 active torsions:
REMARK  status: ('A' for Active; 'I' for Inactive)
ROOT
ATOM      1  N1  IND d   1      -4.064  -0.721   1.109  0.00  0.00    -0.196 N 
ATOM      2  C2  IND d   1      -4.001  -0.394  -0.217  0.00  0.00     0.054 A 
ATOM      3  C3  IND d   1      -2.946  -1.002  -0.802  0.00  0.00    -0.031 A 
ATOM      4  C4  IND d   1      -1.249  -2.658   0.202  0.00  0.00     0.051 A 
ATOM      5  C5  IND d   1      -0.877  -3.235   1.383  0.00  0.00    -0.031 A 
ATOM      6  C6  IND d   1      -1.563  -3.001   2.557  0.00  0.00     0.015 A 
ATOM      7  C7  IND d   1      -2.660  -2.186   2.591  0.00  0.00    -0.016 A 
ATOM      8  C8  IND d   1      -3.036  -1.593   1.394  0.00  0.00    -0.047 A 
ATOM      9  C9  IND d   1      -2.318  -1.793   0.208  0.00  0.00    -0.096 A 
ATOM     10  HN1 IND d   1      -4.647  -0.431   1.670  0.00  0.00     0.298 HD
ENDROOT
TORSDOF 0
ENDMDL
