MODEL 1
REMARK minimizedAffinity 6.90865183
REMARK minimizedRMSD -1
REMARK  0 active torsions:
REMARK  status: ('A' for Active; 'I' for Inactive)
ROOT
ATOM      1  N1  IND d   1      -2.938   2.383  -3.373  0.00  0.00    -0.196 N 
ATOM      2  C2  IND d   1      -1.991   2.723  -4.299  0.00  0.00     0.054 A 
ATOM      3  C3  IND d   1      -1.039   1.765  -4.371  0.00  0.00    -0.031 A 
ATOM      4  C4  IND d   1      -0.891  -0.489  -3.137  0.00  0.00     0.051 A 
ATOM      5  C5  IND d   1      -1.505  -1.228  -2.165  0.00  0.00    -0.031 A 
ATOM      6  C6  IND d   1      -2.653  -0.792  -1.535  0.00  0.00     0.015 A 
ATOM      7  C7  IND d   1      -3.238   0.398  -1.863  0.00  0.00    -0.016 A 
ATOM      8  C8  IND d   1      -2.613   1.153  -2.845  0.00  0.00    -0.047 A 
ATOM      9  C9  IND d   1      -1.425   0.736  -3.458  0.00  0.00    -0.096 A 
ATOM     10  HN1 IND d   1      -3.622   2.858  -3.158  0.00  0.00     0.298 HD
ENDROOT
TORSDOF 0
ENDMDL
