MODEL 1
REMARK minimizedAffinity 13.0956392
REMARK minimizedRMSD -1
REMARK  1 active torsions:
REMARK  status: ('A' for Active; 'I' for Inactive)
REMARK    1  A    between atoms: N_2  and  C1_3 
ROOT
ATOM      1  C1  UNL d   1      -0.056   3.626  -0.334  0.00  0.00     0.143 A 
ATOM      2  C2  UNL d   1      -0.090   3.076   0.952  0.00  0.00    -0.057 A 
ATOM      3  C3  UNL d   1      -0.924   1.993   1.257  0.00  0.00     0.033 A 
ATOM      4  C4  UNL d   1      -1.762   1.458   0.284  0.00  0.00    -0.042 A 
ATOM      5  C5  UNL d   1      -1.763   2.005  -0.994  0.00  0.00     0.033 A 
ATOM      6  C6  UNL d   1      -0.924   3.082  -1.294  0.00  0.00    -0.057 A 
ENDROOT
BRANCH   1   7
ATOM      7  N   UNL d   1       0.678   4.765  -0.673  0.00  0.00    -0.732 N 
ATOM      8  C   UNL d   1       0.526   5.991   0.081  0.00  0.00     0.284 C 
ATOM      9  H3  UNL d   1       1.640   4.547  -0.923  0.00  0.00     0.395 HD
ENDBRANCH   1   7
TORSDOF 1
ENDMDL
