MODEL 1
REMARK minimizedAffinity 2.01131797
REMARK minimizedRMSD -1
REMARK  1 active torsions:
REMARK  status: ('A' for Active; 'I' for Inactive)
REMARK    1  A    between atoms: N_2  and  C1_3 
ROOT
ATOM      1  C1  UNL d   1      -4.949  -3.581  -4.078  0.00  0.00     0.143 A 
ATOM      2  C2  UNL d   1      -4.848  -4.838  -3.473  0.00  0.00    -0.057 A 
ATOM      3  C3  UNL d   1      -5.287  -5.996  -4.126  0.00  0.00     0.033 A 
ATOM      4  C4  UNL d   1      -5.865  -5.912  -5.389  0.00  0.00    -0.042 A 
ATOM      5  C5  UNL d   1      -5.999  -4.670  -5.999  0.00  0.00     0.033 A 
ATOM      6  C6  UNL d   1      -5.552  -3.518  -5.344  0.00  0.00    -0.057 A 
ENDROOT
BRANCH   1   7
ATOM      7  N   UNL d   1      -4.621  -2.382  -3.440  0.00  0.00    -0.732 N 
ATOM      8  C   UNL d   1      -5.659  -1.481  -2.984  0.00  0.00     0.284 C 
ATOM      9  H3  UNL d   1      -3.847  -2.488  -2.789  0.00  0.00     0.395 HD
ENDBRANCH   1   7
TORSDOF 1
ENDMDL
