MODEL 1
REMARK minimizedAffinity 10.3567753
REMARK minimizedRMSD -1
REMARK  1 active torsions:
REMARK  status: ('A' for Active; 'I' for Inactive)
REMARK    1  A    between atoms: N_2  and  C1_3 
ROOT
ATOM      1  C1  UNL d   1       1.603  -0.304   2.230  0.00  0.00     0.143 A 
ATOM      2  C2  UNL d   1       1.757   1.004   2.702  0.00  0.00    -0.057 A 
ATOM      3  C3  UNL d   1       2.337   1.999   1.905  0.00  0.00     0.033 A 
ATOM      4  C4  UNL d   1       2.800   1.695   0.629  0.00  0.00    -0.042 A 
ATOM      5  C5  UNL d   1       2.680   0.396   0.149  0.00  0.00     0.033 A 
ATOM      6  C6  UNL d   1       2.094  -0.592   0.947  0.00  0.00    -0.057 A 
ENDROOT
BRANCH   1   7
ATOM      7  N   UNL d   1       1.124  -1.360   3.009  0.00  0.00    -0.732 N 
ATOM      8  C   UNL d   1       0.834  -2.645   2.410  0.00  0.00     0.284 C 
ATOM      9  H3  UNL d   1       1.589  -1.418   3.912  0.00  0.00     0.395 HD
ENDBRANCH   1   7
TORSDOF 1
ENDMDL
