MODEL 1
REMARK minimizedAffinity 7.67287397
REMARK minimizedRMSD -1
REMARK  1 active torsions:
REMARK  status: ('A' for Active; 'I' for Inactive)
REMARK    1  A    between atoms: N_2  and  C1_3 
ROOT
ATOM      1  C1  UNL d   1       2.946  -3.475   2.686  0.00  0.00     0.143 A 
ATOM      2  C2  UNL d   1       2.124  -3.532   3.816  0.00  0.00    -0.057 A 
ATOM      3  C3  UNL d   1       0.972  -2.742   3.917  0.00  0.00     0.033 A 
ATOM      4  C4  UNL d   1       0.637  -1.857   2.897  0.00  0.00    -0.042 A 
ATOM      5  C5  UNL d   1       1.454  -1.766   1.775  0.00  0.00     0.033 A 
ATOM      6  C6  UNL d   1       2.599  -2.562   1.678  0.00  0.00    -0.057 A 
ENDROOT
BRANCH   1   7
ATOM      7  N   UNL d   1       4.157  -4.162   2.569  0.00  0.00    -0.732 N 
ATOM      8  C   UNL d   1       5.409  -3.441   2.489  0.00  0.00     0.284 C 
ATOM      9  H3  UNL d   1       4.191  -4.991   3.159  0.00  0.00     0.395 HD
ENDBRANCH   1   7
TORSDOF 1
ENDMDL
