MODEL 1
REMARK minimizedAffinity 5.90579176
REMARK minimizedRMSD -1
REMARK  1 active torsions:
REMARK  status: ('A' for Active; 'I' for Inactive)
REMARK    1  A    between atoms: N_2  and  C1_3 
ROOT
ATOM      1  C1  UNL d   1      -3.656   3.039   1.385  0.00  0.00     0.143 A 
ATOM      2  C2  UNL d   1      -3.530   2.435   0.130  0.00  0.00    -0.057 A 
ATOM      3  C3  UNL d   1      -2.287   2.004  -0.348  0.00  0.00     0.033 A 
ATOM      4  C4  UNL d   1      -1.138   2.198   0.412  0.00  0.00    -0.042 A 
ATOM      5  C5  UNL d   1      -1.235   2.819   1.652  0.00  0.00     0.033 A 
ATOM      6  C6  UNL d   1      -2.481   3.240   2.127  0.00  0.00    -0.057 A 
ENDROOT
BRANCH   1   7
ATOM      7  N   UNL d   1      -4.849   3.577   1.874  0.00  0.00    -0.732 N 
ATOM      8  C   UNL d   1      -5.726   4.333   1.006  0.00  0.00     0.284 C 
ATOM      9  H3  UNL d   1      -5.333   2.940   2.503  0.00  0.00     0.395 HD
ENDBRANCH   1   7
TORSDOF 1
ENDMDL
