MODEL 1
REMARK minimizedAffinity 10.2764282
REMARK minimizedRMSD -1
REMARK  1 active torsions:
REMARK  status: ('A' for Active; 'I' for Inactive)
REMARK    1  A    between atoms: N_2  and  C1_3 
ROOT
ATOM      1  C1  UNL d   1       1.073  -3.516   1.976  0.00  0.00     0.143 A 
ATOM      2  C2  UNL d   1       0.752  -3.770   0.638  0.00  0.00    -0.057 A 
ATOM      3  C3  UNL d   1       1.112  -4.975   0.021  0.00  0.00     0.033 A 
ATOM      4  C4  UNL d   1       1.827  -5.937   0.726  0.00  0.00    -0.042 A 
ATOM      5  C5  UNL d   1       2.179  -5.696   2.049  0.00  0.00     0.033 A 
ATOM      6  C6  UNL d   1       1.810  -4.494   2.662  0.00  0.00    -0.057 A 
ENDROOT
BRANCH   1   7
ATOM      7  N   UNL d   1       0.829  -2.299   2.616  0.00  0.00    -0.732 N 
ATOM      8  C   UNL d   1       1.154  -1.046   1.967  0.00  0.00     0.284 C 
ATOM      9  H3  UNL d   1      -0.059  -2.292   3.112  0.00  0.00     0.395 HD
ENDBRANCH   1   7
TORSDOF 1
ENDMDL
