MODEL 1
REMARK minimizedAffinity 2.49259663
REMARK minimizedRMSD -1
REMARK  1 active torsions:
REMARK  status: ('A' for Active; 'I' for Inactive)
REMARK    1  A    between atoms: N_2  and  C1_3 
ROOT
ATOM      1  C1  UNL d   1       3.440   5.994  -2.770  0.00  0.00     0.143 A 
ATOM      2  C2  UNL d   1       4.603   5.981  -1.993  0.00  0.00    -0.057 A 
ATOM      3  C3  UNL d   1       5.872   5.998  -2.584  0.00  0.00     0.033 A 
ATOM      4  C4  UNL d   1       6.000   6.000  -3.969  0.00  0.00    -0.042 A 
ATOM      5  C5  UNL d   1       4.858   5.988  -4.762  0.00  0.00     0.033 A 
ATOM      6  C6  UNL d   1       3.593   5.977  -4.165  0.00  0.00    -0.057 A 
ENDROOT
BRANCH   1   7
ATOM      7  N   UNL d   1       2.151   5.878  -2.243  0.00  0.00    -0.732 N 
ATOM      8  C   UNL d   1       1.749   4.682  -1.534  0.00  0.00     0.284 C 
ATOM      9  H3  UNL d   1       1.826   6.743  -1.818  0.00  0.00     0.395 HD
ENDBRANCH   1   7
TORSDOF 1
ENDMDL
