MODEL 1
REMARK minimizedAffinity 4.58081627
REMARK minimizedRMSD -1
REMARK  1 active torsions:
REMARK  status: ('A' for Active; 'I' for Inactive)
REMARK    1  A    between atoms: N_2  and  C1_3 
ROOT
ATOM      1  C1  UNL d   1       3.205  -3.650   3.253  0.00  0.00     0.143 A 
ATOM      2  C2  UNL d   1       2.798  -3.671   4.591  0.00  0.00    -0.057 A 
ATOM      3  C3  UNL d   1       1.611  -3.050   4.998  0.00  0.00     0.033 A 
ATOM      4  C4  UNL d   1       0.823  -2.370   4.075  0.00  0.00    -0.042 A 
ATOM      5  C5  UNL d   1       1.221  -2.315   2.744  0.00  0.00     0.033 A 
ATOM      6  C6  UNL d   1       2.404  -2.943   2.343  0.00  0.00    -0.057 A 
ENDROOT
BRANCH   1   7
ATOM      7  N   UNL d   1       4.424  -4.164   2.803  0.00  0.00    -0.732 N 
ATOM      8  C   UNL d   1       5.577  -3.303   2.652  0.00  0.00     0.284 C 
ATOM      9  H3  UNL d   1       4.634  -5.074   3.206  0.00  0.00     0.395 HD
ENDBRANCH   1   7
TORSDOF 1
ENDMDL
