MODEL 1
REMARK minimizedAffinity 1.10438061
REMARK minimizedRMSD -1
REMARK  1 active torsions:
REMARK  status: ('A' for Active; 'I' for Inactive)
REMARK    1  A    between atoms: C1_2  and  C2_3 
ROOT
ATOM      1  C2  UNL d   1      -0.113  -0.127   0.120  0.00  0.00    -0.077 A 
ATOM      2  C3  UNL d   1       0.666   0.199   1.239  0.00  0.00     0.002 A 
ATOM      3  C4  UNL d   1       2.031  -0.090   1.257  0.00  0.00     0.002 A 
ATOM      4  C5  UNL d   1       2.630  -0.703   0.159  0.00  0.00    -0.004 A 
ATOM      5  C6  UNL d   1       1.864  -1.033  -0.958  0.00  0.00     0.002 A 
ATOM      6  C7  UNL d   1       0.498  -0.746  -0.978  0.00  0.00     0.002 A 
ENDROOT
BRANCH   1   7
ATOM      7  C1  UNL d   1      -1.576   0.229   0.078  0.00  0.00     0.055 C 
ATOM      8  C   UNL d   1      -2.442  -1.008  -0.113  0.00  0.00     0.019 C 
ENDBRANCH   1   7
TORSDOF 1
ENDMDL
