MODEL 1
REMARK minimizedAffinity -1.62556672
REMARK minimizedRMSD -1
REMARK  1 active torsions:
REMARK  status: ('A' for Active; 'I' for Inactive)
REMARK    1  A    between atoms: C1_2  and  C2_3 
ROOT
ATOM      1  C2  UNL d   1      -1.630   3.160  -3.454  0.00  0.00    -0.077 A 
ATOM      2  C3  UNL d   1      -0.673   3.524  -4.411  0.00  0.00     0.002 A 
ATOM      3  C4  UNL d   1       0.689   3.454  -4.110  0.00  0.00     0.002 A 
ATOM      4  C5  UNL d   1       1.105   3.016  -2.855  0.00  0.00    -0.004 A 
ATOM      5  C6  UNL d   1       0.160   2.654  -1.895  0.00  0.00     0.002 A 
ATOM      6  C7  UNL d   1      -1.201   2.724  -2.194  0.00  0.00     0.002 A 
ENDROOT
BRANCH   1   7
ATOM      7  C1  UNL d   1      -3.098   3.187  -3.793  0.00  0.00     0.055 C 
ATOM      8  C   UNL d   1      -3.942   3.519  -2.571  0.00  0.00     0.019 C 
ENDBRANCH   1   7
TORSDOF 1
ENDMDL
