MODEL 1
REMARK minimizedAffinity -3.996418
REMARK minimizedRMSD -1
REMARK  1 active torsions:
REMARK  status: ('A' for Active; 'I' for Inactive)
REMARK    1  A    between atoms: C1_2  and  C2_3 
ROOT
ATOM      1  C2  UNL d   1      -1.498  -0.515   1.010  0.00  0.00    -0.077 A 
ATOM      2  C3  UNL d   1      -0.651  -0.069  -0.013  0.00  0.00     0.002 A 
ATOM      3  C4  UNL d   1       0.699   0.177   0.245  0.00  0.00     0.002 A 
ATOM      4  C5  UNL d   1       1.214  -0.025   1.524  0.00  0.00    -0.004 A 
ATOM      5  C6  UNL d   1       0.378  -0.467   2.549  0.00  0.00     0.002 A 
ATOM      6  C7  UNL d   1      -0.971  -0.712   2.293  0.00  0.00     0.002 A 
ENDROOT
BRANCH   1   7
ATOM      7  C1  UNL d   1      -2.944  -0.828   0.722  0.00  0.00     0.055 C 
ATOM      8  C   UNL d   1      -3.124  -1.358  -0.693  0.00  0.00     0.019 C 
ENDBRANCH   1   7
TORSDOF 1
ENDMDL
