MODEL 1
REMARK minimizedAffinity -2.24496078
REMARK minimizedRMSD -1
REMARK  1 active torsions:
REMARK  status: ('A' for Active; 'I' for Inactive)
REMARK    1  A    between atoms: C1_2  and  C2_3 
ROOT
ATOM      1  C2  UNL d   1       0.059   0.846  -0.677  0.00  0.00    -0.077 A 
ATOM      2  C3  UNL d   1       0.686   1.263   0.505  0.00  0.00     0.002 A 
ATOM      3  C4  UNL d   1       1.721   0.508   1.061  0.00  0.00     0.002 A 
ATOM      4  C5  UNL d   1       2.140  -0.667   0.439  0.00  0.00    -0.004 A 
ATOM      5  C6  UNL d   1       1.521  -1.092  -0.736  0.00  0.00     0.002 A 
ATOM      6  C7  UNL d   1       0.486  -0.338  -1.292  0.00  0.00     0.002 A 
ENDROOT
BRANCH   1   7
ATOM      7  C1  UNL d   1      -1.023   1.685  -1.305  0.00  0.00     0.055 C 
ATOM      8  C   UNL d   1      -0.436   2.771  -2.194  0.00  0.00     0.019 C 
ENDBRANCH   1   7
TORSDOF 1
ENDMDL
