MODEL 1
REMARK minimizedAffinity -5.73104954
REMARK minimizedRMSD -1
REMARK  1 active torsions:
REMARK  status: ('A' for Active; 'I' for Inactive)
REMARK    1  A    between atoms: C1_2  and  C2_3 
ROOT
ATOM      1  C2  UNL d   1       0.185  -0.317   0.311  0.00  0.00    -0.077 A 
ATOM      2  C3  UNL d   1       1.517  -0.679   0.559  0.00  0.00     0.002 A 
ATOM      3  C4  UNL d   1       1.932  -1.002   1.853  0.00  0.00     0.002 A 
ATOM      4  C5  UNL d   1       1.021  -0.971   2.907  0.00  0.00    -0.004 A 
ATOM      5  C6  UNL d   1      -0.305  -0.611   2.671  0.00  0.00     0.002 A 
ATOM      6  C7  UNL d   1      -0.722  -0.287   1.379  0.00  0.00     0.002 A 
ENDROOT
BRANCH   1   7
ATOM      7  C1  UNL d   1      -0.276  -0.016  -1.091  0.00  0.00     0.055 C 
ATOM      8  C   UNL d   1      -0.093   1.456  -1.429  0.00  0.00     0.019 C 
ENDBRANCH   1   7
TORSDOF 1
ENDMDL
