MODEL 1
REMARK minimizedAffinity -2.43477011
REMARK minimizedRMSD -1
REMARK  1 active torsions:
REMARK  status: ('A' for Active; 'I' for Inactive)
REMARK    1  A    between atoms: C1_2  and  C2_3 
ROOT
ATOM      1  C2  UNL d   1      -2.978  -1.157  -0.181  0.00  0.00    -0.077 A 
ATOM      2  C3  UNL d   1      -2.103  -0.760  -1.202  0.00  0.00     0.002 A 
ATOM      3  C4  UNL d   1      -0.944  -0.041  -0.899  0.00  0.00     0.002 A 
ATOM      4  C5  UNL d   1      -0.648   0.282   0.423  0.00  0.00    -0.004 A 
ATOM      5  C6  UNL d   1      -1.513  -0.107   1.445  0.00  0.00     0.002 A 
ATOM      6  C7  UNL d   1      -2.672  -0.824   1.145  0.00  0.00     0.002 A 
ENDROOT
BRANCH   1   7
ATOM      7  C1  UNL d   1      -4.202  -1.974  -0.500  0.00  0.00     0.055 C 
ATOM      8  C   UNL d   1      -5.379  -1.573   0.377  0.00  0.00     0.019 C 
ENDBRANCH   1   7
TORSDOF 1
ENDMDL
