MODEL 1
REMARK minimizedAffinity 1.65441251
REMARK minimizedRMSD -1
REMARK  1 active torsions:
REMARK  status: ('A' for Active; 'I' for Inactive)
REMARK    1  A    between atoms: C1_2  and  C2_3 
ROOT
ATOM      1  C2  UNL d   1      -0.387   3.440  -2.731  0.00  0.00    -0.077 A 
ATOM      2  C3  UNL d   1      -0.264   2.624  -3.864  0.00  0.00     0.002 A 
ATOM      3  C4  UNL d   1       0.782   2.822  -4.767  0.00  0.00     0.002 A 
ATOM      4  C5  UNL d   1       1.715   3.832  -4.545  0.00  0.00    -0.004 A 
ATOM      5  C6  UNL d   1       1.600   4.651  -3.422  0.00  0.00     0.002 A 
ATOM      6  C7  UNL d   1       0.554   4.455  -2.519  0.00  0.00     0.002 A 
ENDROOT
BRANCH   1   7
ATOM      7  C1  UNL d   1      -1.487   3.197  -1.730  0.00  0.00     0.055 C 
ATOM      8  C   UNL d   1      -2.851   3.162  -2.404  0.00  0.00     0.019 C 
ENDBRANCH   1   7
TORSDOF 1
ENDMDL
