MODEL 1
REMARK minimizedAffinity -2.7858305
REMARK minimizedRMSD -1
REMARK  0 active torsions:
REMARK  status: ('A' for Active; 'I' for Inactive)
ROOT
ATOM      1  C   UNL d   1       1.828  -2.780  -0.055  0.00  0.00     0.023 A 
ATOM      2  C1  UNL d   1       0.475  -3.120  -0.048  0.00  0.00     0.003 A 
ATOM      3  C2  UNL d   1      -0.478  -2.191   0.376  0.00  0.00     0.048 A 
ATOM      4  C3  UNL d   1      -0.071  -0.924   0.789  0.00  0.00     0.023 A 
ATOM      5  C4  UNL d   1       1.281  -0.578   0.783  0.00  0.00     0.048 A 
ATOM      6  C5  UNL d   1       2.230  -1.510   0.360  0.00  0.00     0.003 A 
ATOM      7  I   UNL d   1      -1.488   0.461   1.420  0.00  0.00    -0.146 I 
ENDROOT
TORSDOF 0
ENDMDL
