MODEL 1
REMARK minimizedAffinity -1.84492028
REMARK minimizedRMSD -1
REMARK  0 active torsions:
REMARK  status: ('A' for Active; 'I' for Inactive)
ROOT
ATOM      1  C   UNL d   1       4.780   6.000   1.581  0.00  0.00     0.023 A 
ATOM      2  C1  UNL d   1       5.598   5.985   0.451  0.00  0.00     0.003 A 
ATOM      3  C2  UNL d   1       5.404   5.020  -0.540  0.00  0.00     0.048 A 
ATOM      4  C3  UNL d   1       4.390   4.074  -0.395  0.00  0.00     0.023 A 
ATOM      5  C4  UNL d   1       3.569   4.086   0.733  0.00  0.00     0.048 A 
ATOM      6  C5  UNL d   1       3.767   5.051   1.722  0.00  0.00     0.003 A 
ATOM      7  I   UNL d   1       4.099   2.638  -1.869  0.00  0.00    -0.146 I 
ENDROOT
TORSDOF 0
ENDMDL
