MODEL 1
REMARK minimizedAffinity -0.148454756
REMARK minimizedRMSD -1
REMARK  0 active torsions:
REMARK  status: ('A' for Active; 'I' for Inactive)
ROOT
ATOM      1  C   UNL d   1       1.689  -2.949  -0.388  0.00  0.00     0.023 A 
ATOM      2  C1  UNL d   1       2.286  -1.729  -0.068  0.00  0.00     0.003 A 
ATOM      3  C2  UNL d   1       1.549  -0.741   0.588  0.00  0.00     0.048 A 
ATOM      4  C3  UNL d   1       0.216  -0.980   0.923  0.00  0.00     0.023 A 
ATOM      5  C4  UNL d   1      -0.384  -2.199   0.605  0.00  0.00     0.048 A 
ATOM      6  C5  UNL d   1       0.356  -3.184  -0.052  0.00  0.00     0.003 A 
ATOM      7  I   UNL d   1      -0.882   0.489   1.900  0.00  0.00    -0.146 I 
ENDROOT
TORSDOF 0
ENDMDL
