MODEL 1
REMARK minimizedAffinity -0.531621516
REMARK minimizedRMSD -1
REMARK  0 active torsions:
REMARK  status: ('A' for Active; 'I' for Inactive)
ROOT
ATOM      1  C   UNL d   1       4.629   5.437   1.592  0.00  0.00     0.023 A 
ATOM      2  C1  UNL d   1       5.373   5.715   0.445  0.00  0.00     0.003 A 
ATOM      3  C2  UNL d   1       5.293   4.870  -0.663  0.00  0.00     0.048 A 
ATOM      4  C3  UNL d   1       4.465   3.748  -0.618  0.00  0.00     0.023 A 
ATOM      5  C4  UNL d   1       3.719   3.466   0.528  0.00  0.00     0.048 A 
ATOM      6  C5  UNL d   1       3.803   4.314   1.633  0.00  0.00     0.003 A 
ATOM      7  I   UNL d   1       4.343   2.488  -2.266  0.00  0.00    -0.146 I 
ENDROOT
TORSDOF 0
ENDMDL
