MODEL 1
REMARK minimizedAffinity 0.880765915
REMARK minimizedRMSD -1
REMARK  0 active torsions:
REMARK  status: ('A' for Active; 'I' for Inactive)
ROOT
ATOM      1  C   UNL d   1       0.511  -0.393   1.804  0.00  0.00     0.023 A 
ATOM      2  C1  UNL d   1      -0.685  -0.899   1.295  0.00  0.00     0.003 A 
ATOM      3  C2  UNL d   1      -0.698  -1.552   0.061  0.00  0.00     0.048 A 
ATOM      4  C3  UNL d   1       0.488  -1.697  -0.658  0.00  0.00     0.023 A 
ATOM      5  C4  UNL d   1       1.687  -1.193  -0.151  0.00  0.00     0.048 A 
ATOM      6  C5  UNL d   1       1.696  -0.540   1.082  0.00  0.00     0.003 A 
ATOM      7  I   UNL d   1       0.470  -2.670  -2.495  0.00  0.00    -0.146 I 
ENDROOT
TORSDOF 0
ENDMDL
