MODEL 1
REMARK minimizedAffinity -1.05157256
REMARK minimizedRMSD -1
REMARK  0 active torsions:
REMARK  status: ('A' for Active; 'I' for Inactive)
ROOT
ATOM      1  C   UNL d   1      -1.399  -1.322   1.385  0.00  0.00     0.023 A 
ATOM      2  C1  UNL d   1      -0.847  -0.797   2.553  0.00  0.00     0.003 A 
ATOM      3  C2  UNL d   1       0.486  -0.379   2.571  0.00  0.00     0.048 A 
ATOM      4  C3  UNL d   1       1.260  -0.489   1.416  0.00  0.00     0.023 A 
ATOM      5  C4  UNL d   1       0.711  -1.013   0.245  0.00  0.00     0.048 A 
ATOM      6  C5  UNL d   1      -0.621  -1.430   0.232  0.00  0.00     0.003 A 
ATOM      7  I   UNL d   1       3.243   0.132   1.440  0.00  0.00    -0.146 I 
ENDROOT
TORSDOF 0
ENDMDL
