MODEL 1
REMARK minimizedAffinity 2.62656951
REMARK minimizedRMSD -1
REMARK  0 active torsions:
REMARK  status: ('A' for Active; 'I' for Inactive)
ROOT
ATOM      1  C   UNL d   1       0.676  -1.904  -0.858  0.00  0.00     0.023 A 
ATOM      2  C1  UNL d   1       1.200  -0.660  -0.507  0.00  0.00     0.003 A 
ATOM      3  C2  UNL d   1       1.222  -0.263   0.832  0.00  0.00     0.048 A 
ATOM      4  C3  UNL d   1       0.719  -1.115   1.814  0.00  0.00     0.023 A 
ATOM      5  C4  UNL d   1       0.194  -2.361   1.468  0.00  0.00     0.048 A 
ATOM      6  C5  UNL d   1       0.173  -2.754   0.128  0.00  0.00     0.003 A 
ATOM      7  I   UNL d   1       0.751  -0.526   3.807  0.00  0.00    -0.146 I 
ENDROOT
TORSDOF 0
ENDMDL
