MODEL 1
REMARK minimizedAffinity 5.12005758
REMARK minimizedRMSD -1
REMARK  0 active torsions:
REMARK  status: ('A' for Active; 'I' for Inactive)
ROOT
ATOM      1  C   UNL d   1      -1.352  -0.775   0.382  0.00  0.00     0.023 A 
ATOM      2  C1  UNL d   1      -1.037   0.069   1.448  0.00  0.00     0.003 A 
ATOM      3  C2  UNL d   1       0.274   0.136   1.924  0.00  0.00     0.048 A 
ATOM      4  C3  UNL d   1       1.266  -0.643   1.329  0.00  0.00     0.023 A 
ATOM      5  C4  UNL d   1       0.956  -1.489   0.262  0.00  0.00     0.048 A 
ATOM      6  C5  UNL d   1      -0.357  -1.553  -0.209  0.00  0.00     0.003 A 
ATOM      7  I   UNL d   1       3.218  -0.545   2.036  0.00  0.00    -0.146 I 
ENDROOT
TORSDOF 0
ENDMDL
