MODEL 1
REMARK minimizedAffinity 0.100349292
REMARK minimizedRMSD -1
REMARK  0 active torsions:
REMARK  status: ('A' for Active; 'I' for Inactive)
ROOT
ATOM      1  C   UNL d   1       3.097  -3.140  -0.526  0.00  0.00     0.023 A 
ATOM      2  C1  UNL d   1       1.851  -3.762  -0.613  0.00  0.00     0.003 A 
ATOM      3  C2  UNL d   1       0.714  -3.121  -0.118  0.00  0.00     0.048 A 
ATOM      4  C3  UNL d   1       0.829  -1.858   0.462  0.00  0.00     0.023 A 
ATOM      5  C4  UNL d   1       2.074  -1.232   0.551  0.00  0.00     0.048 A 
ATOM      6  C5  UNL d   1       3.208  -1.877   0.055  0.00  0.00     0.003 A 
ATOM      7  I   UNL d   1      -0.862  -0.902   1.200  0.00  0.00    -0.146 I 
ENDROOT
TORSDOF 0
ENDMDL
