MODEL 1
REMARK minimizedAffinity 2.3114109
REMARK minimizedRMSD -1
REMARK  0 active torsions:
REMARK  status: ('A' for Active; 'I' for Inactive)
ROOT
ATOM      1  C   UNL d   1      -3.625   1.863   0.421  0.00  0.00     0.023 A 
ATOM      2  C1  UNL d   1      -2.683   1.838   1.450  0.00  0.00     0.003 A 
ATOM      3  C2  UNL d   1      -1.653   0.895   1.432  0.00  0.00     0.048 A 
ATOM      4  C3  UNL d   1      -1.571  -0.020   0.383  0.00  0.00     0.023 A 
ATOM      5  C4  UNL d   1      -2.510   0.002  -0.649  0.00  0.00     0.048 A 
ATOM      6  C5  UNL d   1      -3.539   0.946  -0.627  0.00  0.00     0.003 A 
ATOM      7  I   UNL d   1      -0.039  -1.424   0.355  0.00  0.00    -0.146 I 
ENDROOT
TORSDOF 0
ENDMDL
