MODEL 1
REMARK minimizedAffinity 0.234735668
REMARK minimizedRMSD -1
REMARK  0 active torsions:
REMARK  status: ('A' for Active; 'I' for Inactive)
ROOT
ATOM      1  C   UNL d   1      -0.102  -0.466   0.728  0.00  0.00     0.023 A 
ATOM      2  C1  UNL d   1       1.252  -0.214   0.507  0.00  0.00     0.003 A 
ATOM      3  C2  UNL d   1       2.107  -1.256   0.142  0.00  0.00     0.048 A 
ATOM      4  C3  UNL d   1       1.601  -2.548  -0.000  0.00  0.00     0.023 A 
ATOM      5  C4  UNL d   1       0.246  -2.804   0.220  0.00  0.00     0.048 A 
ATOM      6  C5  UNL d   1      -0.604  -1.759   0.585  0.00  0.00     0.003 A 
ATOM      7  I   UNL d   1       2.871  -4.101  -0.543  0.00  0.00    -0.146 I 
ENDROOT
TORSDOF 0
ENDMDL
