MODEL 1
REMARK minimizedAffinity 3.71669483
REMARK minimizedRMSD -1
REMARK  0 active torsions:
REMARK  status: ('A' for Active; 'I' for Inactive)
ROOT
ATOM      1  C   UNL d   1      -1.091   0.480   2.425  0.00  0.00     0.023 A 
ATOM      2  C1  UNL d   1      -1.841  -0.117   1.411  0.00  0.00     0.003 A 
ATOM      3  C2  UNL d   1      -1.271  -1.107   0.609  0.00  0.00     0.048 A 
ATOM      4  C3  UNL d   1       0.051  -1.496   0.827  0.00  0.00     0.023 A 
ATOM      5  C4  UNL d   1       0.805  -0.902   1.840  0.00  0.00     0.048 A 
ATOM      6  C5  UNL d   1       0.230   0.088   2.639  0.00  0.00     0.003 A 
ATOM      7  I   UNL d   1       0.902  -2.970  -0.366  0.00  0.00    -0.146 I 
ENDROOT
TORSDOF 0
ENDMDL
