MODEL 1
REMARK minimizedAffinity 0.46777758
REMARK minimizedRMSD -1
REMARK  0 active torsions:
REMARK  status: ('A' for Active; 'I' for Inactive)
ROOT
ATOM      1  C   UNL d   1      -0.128  -0.865   0.562  0.00  0.00     0.023 A 
ATOM      2  C1  UNL d   1      -0.446  -2.145   0.108  0.00  0.00     0.003 A 
ATOM      3  C2  UNL d   1       0.571  -3.058  -0.180  0.00  0.00     0.048 A 
ATOM      4  C3  UNL d   1       1.904  -2.684  -0.011  0.00  0.00     0.023 A 
ATOM      5  C4  UNL d   1       2.226  -1.404   0.444  0.00  0.00     0.048 A 
ATOM      6  C5  UNL d   1       1.206  -0.495   0.730  0.00  0.00     0.003 A 
ATOM      7  I   UNL d   1       3.419  -4.040  -0.439  0.00  0.00    -0.146 I 
ENDROOT
TORSDOF 0
ENDMDL
