MODEL 1
REMARK minimizedAffinity -0.923387349
REMARK minimizedRMSD -1
REMARK  0 active torsions:
REMARK  status: ('A' for Active; 'I' for Inactive)
ROOT
ATOM      1  C   UNL d   1       0.130  -0.857   0.527  0.00  0.00     0.023 A 
ATOM      2  C1  UNL d   1       1.456  -0.461   0.349  0.00  0.00     0.003 A 
ATOM      3  C2  UNL d   1       2.436  -1.411   0.054  0.00  0.00     0.048 A 
ATOM      4  C3  UNL d   1       2.083  -2.755  -0.062  0.00  0.00     0.023 A 
ATOM      5  C4  UNL d   1       0.758  -3.156   0.115  0.00  0.00     0.048 A 
ATOM      6  C5  UNL d   1      -0.218  -2.203   0.411  0.00  0.00     0.003 A 
ATOM      7  I   UNL d   1       3.540  -4.171  -0.502  0.00  0.00    -0.146 I 
ENDROOT
TORSDOF 0
ENDMDL
