MODEL 1
REMARK minimizedAffinity 5.22710323
REMARK minimizedRMSD -1
REMARK  0 active torsions:
REMARK  status: ('A' for Active; 'I' for Inactive)
ROOT
ATOM      1  C   UNL d   1       0.002  -2.371  -1.451  0.00  0.00     0.023 A 
ATOM      2  C1  UNL d   1      -0.840  -2.432  -0.341  0.00  0.00     0.003 A 
ATOM      3  C2  UNL d   1      -0.446  -1.856   0.869  0.00  0.00     0.048 A 
ATOM      4  C3  UNL d   1       0.791  -1.219   0.961  0.00  0.00     0.023 A 
ATOM      5  C4  UNL d   1       1.637  -1.155  -0.148  0.00  0.00     0.048 A 
ATOM      6  C5  UNL d   1       1.239  -1.733  -1.355  0.00  0.00     0.003 A 
ATOM      7  I   UNL d   1       1.380  -0.360   2.760  0.00  0.00    -0.146 I 
ENDROOT
TORSDOF 0
ENDMDL
