MODEL 1
REMARK minimizedAffinity 6.88130522
REMARK minimizedRMSD -1
REMARK  0 active torsions:
REMARK  status: ('A' for Active; 'I' for Inactive)
ROOT
ATOM      1  C   UNL d   1       3.978   5.979   3.020  0.00  0.00     0.023 A 
ATOM      2  C1  UNL d   1       5.366   5.975   2.886  0.00  0.00     0.003 A 
ATOM      3  C2  UNL d   1       5.947   5.802   1.628  0.00  0.00     0.048 A 
ATOM      4  C3  UNL d   1       5.134   5.634   0.508  0.00  0.00     0.023 A 
ATOM      5  C4  UNL d   1       3.744   5.638   0.637  0.00  0.00     0.048 A 
ATOM      6  C5  UNL d   1       3.168   5.811   1.897  0.00  0.00     0.003 A 
ATOM      7  I   UNL d   1       5.996   5.376  -1.365  0.00  0.00    -0.146 I 
ENDROOT
TORSDOF 0
ENDMDL
