MODEL 1
REMARK minimizedAffinity 0.317614108
REMARK minimizedRMSD -1
REMARK  0 active torsions:
REMARK  status: ('A' for Active; 'I' for Inactive)
ROOT
ATOM      1  C   UNL d   1      -0.175   6.000  -4.257  0.00  0.00     0.023 A 
ATOM      2  C1  UNL d   1      -0.014   5.137  -3.173  0.00  0.00     0.003 A 
ATOM      3  C2  UNL d   1       1.067   4.253  -3.136  0.00  0.00     0.048 A 
ATOM      4  C3  UNL d   1       1.984   4.239  -4.186  0.00  0.00     0.023 A 
ATOM      5  C4  UNL d   1       1.828   5.102  -5.273  0.00  0.00     0.048 A 
ATOM      6  C5  UNL d   1       0.745   5.983  -5.305  0.00  0.00     0.003 A 
ATOM      7  I   UNL d   1       3.594   2.926  -4.134  0.00  0.00    -0.146 I 
ENDROOT
TORSDOF 0
ENDMDL
