MODEL 1
REMARK minimizedAffinity 6.23246574
REMARK minimizedRMSD -1
REMARK  1 active torsions:
REMARK  status: ('A' for Active; 'I' for Inactive)
REMARK    1  A    between atoms: C3_4  and  O_7 
ROOT
ATOM      1  C   UNL d   1       1.942  -0.408   0.178  0.00  0.00    -0.033 A 
ATOM      2  C1  UNL d   1       2.219   0.930   0.465  0.00  0.00     0.039 A 
ATOM      3  C2  UNL d   1       3.035   1.675  -0.388  0.00  0.00    -0.080 A 
ATOM      4  C3  UNL d   1       3.567   1.072  -1.524  0.00  0.00     0.150 A 
ATOM      5  C4  UNL d   1       3.292  -0.259  -1.819  0.00  0.00    -0.007 A 
ATOM      6  C5  UNL d   1       2.477  -1.002  -0.965  0.00  0.00     0.039 A 
ENDROOT
BRANCH   4   7
ATOM      7  O   UNL d   1       4.372   1.757  -2.384  0.00  0.00    -0.526 OA
ATOM      8  H5  UNL d   1       4.498   2.657  -2.038  0.00  0.00     0.418 HD
ENDBRANCH   4   7
TORSDOF 1
ENDMDL
