MODEL 1
REMARK minimizedAffinity 3.22500181
REMARK minimizedRMSD -1
REMARK  1 active torsions:
REMARK  status: ('A' for Active; 'I' for Inactive)
REMARK    1  A    between atoms: C3_4  and  O_7 
ROOT
ATOM      1  C   UNL d   1      -3.736   0.562   0.067  0.00  0.00    -0.033 A 
ATOM      2  C1  UNL d   1      -2.456   0.144  -0.304  0.00  0.00     0.039 A 
ATOM      3  C2  UNL d   1      -2.117   0.044  -1.655  0.00  0.00    -0.080 A 
ATOM      4  C3  UNL d   1      -3.064   0.365  -2.623  0.00  0.00     0.150 A 
ATOM      5  C4  UNL d   1      -4.340   0.786  -2.261  0.00  0.00    -0.007 A 
ATOM      6  C5  UNL d   1      -4.677   0.884  -0.911  0.00  0.00     0.039 A 
ENDROOT
BRANCH   4   7
ATOM      7  O   UNL d   1      -2.781   0.279  -3.954  0.00  0.00    -0.526 OA
ATOM      8  H5  UNL d   1      -1.872  -0.052  -4.054  0.00  0.00     0.418 HD
ENDBRANCH   4   7
TORSDOF 1
ENDMDL
