MODEL 1
REMARK minimizedAffinity 4.36746073
REMARK minimizedRMSD -1
REMARK  1 active torsions:
REMARK  status: ('A' for Active; 'I' for Inactive)
REMARK    1  A    between atoms: C3_4  and  O_7 
ROOT
ATOM      1  C   UNL d   1      -5.975   3.979   3.883  0.00  0.00    -0.033 A 
ATOM      2  C1  UNL d   1      -4.833   4.117   3.091  0.00  0.00     0.039 A 
ATOM      3  C2  UNL d   1      -3.716   4.794   3.584  0.00  0.00    -0.080 A 
ATOM      4  C3  UNL d   1      -3.753   5.327   4.870  0.00  0.00     0.150 A 
ATOM      5  C4  UNL d   1      -4.885   5.190   5.666  0.00  0.00    -0.007 A 
ATOM      6  C5  UNL d   1      -6.000   4.514   5.172  0.00  0.00     0.039 A 
ENDROOT
BRANCH   4   7
ATOM      7  O   UNL d   1      -2.689   6.000   5.392  0.00  0.00    -0.526 OA
ATOM      8  H5  UNL d   1      -1.989   6.041   4.719  0.00  0.00     0.418 HD
ENDBRANCH   4   7
TORSDOF 1
ENDMDL
