MODEL 1
REMARK minimizedAffinity 13.1474504
REMARK minimizedRMSD -1
REMARK  1 active torsions:
REMARK  status: ('A' for Active; 'I' for Inactive)
REMARK    1  A    between atoms: C3_4  and  O_7 
ROOT
ATOM      1  C   UNL d   1      -5.652   1.679  -2.216  0.00  0.00    -0.033 A 
ATOM      2  C1  UNL d   1      -5.372   0.388  -1.762  0.00  0.00     0.039 A 
ATOM      3  C2  UNL d   1      -4.880   0.192  -0.470  0.00  0.00    -0.080 A 
ATOM      4  C3  UNL d   1      -4.675   1.292   0.357  0.00  0.00     0.150 A 
ATOM      5  C4  UNL d   1      -4.956   2.580  -0.086  0.00  0.00    -0.007 A 
ATOM      6  C5  UNL d   1      -5.445   2.775  -1.377  0.00  0.00     0.039 A 
ENDROOT
BRANCH   4   7
ATOM      7  O   UNL d   1      -4.192   1.150   1.625  0.00  0.00    -0.526 OA
ATOM      8  H5  UNL d   1      -4.017   0.207   1.783  0.00  0.00     0.418 HD
ENDBRANCH   4   7
TORSDOF 1
ENDMDL
