MODEL 1
REMARK minimizedAffinity 7.99346733
REMARK minimizedRMSD -1
REMARK  1 active torsions:
REMARK  status: ('A' for Active; 'I' for Inactive)
REMARK    1  A    between atoms: C3_4  and  O_7 
ROOT
ATOM      1  C   UNL d   1       3.019   0.943  -0.918  0.00  0.00    -0.033 A 
ATOM      2  C1  UNL d   1       2.223  -0.173  -1.182  0.00  0.00     0.039 A 
ATOM      3  C2  UNL d   1       2.225  -1.257  -0.302  0.00  0.00    -0.080 A 
ATOM      4  C3  UNL d   1       3.025  -1.212   0.836  0.00  0.00     0.150 A 
ATOM      5  C4  UNL d   1       3.818  -0.101   1.107  0.00  0.00    -0.007 A 
ATOM      6  C5  UNL d   1       3.815   0.980   0.227  0.00  0.00     0.039 A 
ENDROOT
BRANCH   4   7
ATOM      7  O   UNL d   1       3.064  -2.248   1.722  0.00  0.00    -0.526 OA
ATOM      8  H5  UNL d   1       2.489  -2.957   1.391  0.00  0.00     0.418 HD
ENDBRANCH   4   7
TORSDOF 1
ENDMDL
