MODEL 1
REMARK minimizedAffinity 6.63830614
REMARK minimizedRMSD -1
REMARK  1 active torsions:
REMARK  status: ('A' for Active; 'I' for Inactive)
REMARK    1  A    between atoms: C3_4  and  O_7 
ROOT
ATOM      1  C   UNL d   1       2.442  -1.530   0.030  0.00  0.00    -0.033 A 
ATOM      2  C1  UNL d   1       3.597  -0.891   0.486  0.00  0.00     0.039 A 
ATOM      3  C2  UNL d   1       3.899   0.401   0.053  0.00  0.00    -0.080 A 
ATOM      4  C3  UNL d   1       3.039   1.043  -0.834  0.00  0.00     0.150 A 
ATOM      5  C4  UNL d   1       1.885   0.414  -1.289  0.00  0.00    -0.007 A 
ATOM      6  C5  UNL d   1       1.585  -0.877  -0.856  0.00  0.00     0.039 A 
ENDROOT
BRANCH   4   7
ATOM      7  O   UNL d   1       3.294   2.303  -1.289  0.00  0.00    -0.526 OA
ATOM      8  H5  UNL d   1       4.139   2.600  -0.913  0.00  0.00     0.418 HD
ENDBRANCH   4   7
TORSDOF 1
ENDMDL
