MODEL 1
REMARK minimizedAffinity 5.78955984
REMARK minimizedRMSD -1
REMARK  1 active torsions:
REMARK  status: ('A' for Active; 'I' for Inactive)
REMARK    1  A    between atoms: C3_4  and  O_7 
ROOT
ATOM      1  C   UNL d   1       2.091  -0.562   0.637  0.00  0.00    -0.033 A 
ATOM      2  C1  UNL d   1       3.098   0.258   1.151  0.00  0.00     0.039 A 
ATOM      3  C2  UNL d   1       3.763   1.157   0.316  0.00  0.00    -0.080 A 
ATOM      4  C3  UNL d   1       3.411   1.229  -1.029  0.00  0.00     0.150 A 
ATOM      5  C4  UNL d   1       2.406   0.418  -1.547  0.00  0.00    -0.007 A 
ATOM      6  C5  UNL d   1       1.744  -0.481  -0.712  0.00  0.00     0.039 A 
ENDROOT
BRANCH   4   7
ATOM      7  O   UNL d   1       4.035   2.088  -1.884  0.00  0.00    -0.526 OA
ATOM      8  H5  UNL d   1       4.726   2.563  -1.394  0.00  0.00     0.418 HD
ENDBRANCH   4   7
TORSDOF 1
ENDMDL
