MODEL 1
REMARK minimizedAffinity 13.29035
REMARK minimizedRMSD -1
REMARK  1 active torsions:
REMARK  status: ('A' for Active; 'I' for Inactive)
REMARK    1  A    between atoms: C3_4  and  O_7 
ROOT
ATOM      1  C   UNL d   1       1.338   5.069   3.285  0.00  0.00    -0.033 A 
ATOM      2  C1  UNL d   1       2.375   6.000   3.375  0.00  0.00     0.039 A 
ATOM      3  C2  UNL d   1       3.700   5.567   3.447  0.00  0.00    -0.080 A 
ATOM      4  C3  UNL d   1       3.975   4.202   3.427  0.00  0.00     0.150 A 
ATOM      5  C4  UNL d   1       2.947   3.269   3.333  0.00  0.00    -0.007 A 
ATOM      6  C5  UNL d   1       1.624   3.704   3.263  0.00  0.00     0.039 A 
ENDROOT
BRANCH   4   7
ATOM      7  O   UNL d   1       5.252   3.731   3.499  0.00  0.00    -0.526 OA
ATOM      8  H5  UNL d   1       5.855   4.489   3.589  0.00  0.00     0.418 HD
ENDBRANCH   4   7
TORSDOF 1
ENDMDL
