MODEL 1
REMARK minimizedAffinity 14.3348942
REMARK minimizedRMSD -1
REMARK  1 active torsions:
REMARK  status: ('A' for Active; 'I' for Inactive)
REMARK    1  A    between atoms: C3_4  and  O_7 
ROOT
ATOM      1  C   UNL d   1      -5.474   3.032  -2.467  0.00  0.00    -0.033 A 
ATOM      2  C1  UNL d   1      -4.674   3.345  -1.367  0.00  0.00     0.039 A 
ATOM      3  C2  UNL d   1      -4.279   2.341  -0.481  0.00  0.00    -0.080 A 
ATOM      4  C3  UNL d   1      -4.689   1.030  -0.707  0.00  0.00     0.150 A 
ATOM      5  C4  UNL d   1      -5.484   0.710  -1.803  0.00  0.00    -0.007 A 
ATOM      6  C5  UNL d   1      -5.878   1.715  -2.686  0.00  0.00     0.039 A 
ENDROOT
BRANCH   4   7
ATOM      7  O   UNL d   1      -4.333   0.017   0.133  0.00  0.00    -0.526 OA
ATOM      8  H5  UNL d   1      -3.809   0.391   0.861  0.00  0.00     0.418 HD
ENDBRANCH   4   7
TORSDOF 1
ENDMDL
