MODEL 1
REMARK minimizedAffinity -0.492536932
REMARK minimizedRMSD -1
REMARK  1 active torsions:
REMARK  status: ('A' for Active; 'I' for Inactive)
REMARK    1  A    between atoms: C3_4  and  O_7 
ROOT
ATOM      1  C   UNL d   1      -4.849   5.995   5.939  0.00  0.00    -0.033 A 
ATOM      2  C1  UNL d   1      -3.759   6.000   5.065  0.00  0.00     0.039 A 
ATOM      3  C2  UNL d   1      -3.788   5.221   3.907  0.00  0.00    -0.080 A 
ATOM      4  C3  UNL d   1      -4.909   4.443   3.634  0.00  0.00     0.150 A 
ATOM      5  C4  UNL d   1      -5.999   4.436   4.498  0.00  0.00    -0.007 A 
ATOM      6  C5  UNL d   1      -5.969   5.214   5.654  0.00  0.00     0.039 A 
ENDROOT
BRANCH   4   7
ATOM      7  O   UNL d   1      -4.981   3.662   2.518  0.00  0.00    -0.526 OA
ATOM      8  H5  UNL d   1      -4.144   3.745   2.030  0.00  0.00     0.418 HD
ENDBRANCH   4   7
TORSDOF 1
ENDMDL
