MODEL 1
REMARK minimizedAffinity 0.68386817
REMARK minimizedRMSD -1
REMARK  0 active torsions:
REMARK  status: ('A' for Active; 'I' for Inactive)
ROOT
ATOM      1  C1  BNZ d   1       4.294  -2.857   4.512  0.00  0.00     0.000 A 
ATOM      2  C2  BNZ d   1       3.680  -1.855   3.809  0.00  0.00     0.000 A 
ATOM      3  C3  BNZ d   1       2.349  -1.927   3.505  0.00  0.00     0.000 A 
ATOM      4  C4  BNZ d   1       1.645  -3.018   3.868  0.00  0.00     0.000 A 
ATOM      5  C5  BNZ d   1       2.252  -4.042   4.568  0.00  0.00     0.000 A 
ATOM      6  C6  BNZ d   1       3.582  -3.948   4.907  0.00  0.00     0.000 A 
ENDROOT
TORSDOF 0
ENDMDL
