MODEL 1
REMARK minimizedAffinity 2.02039528
REMARK minimizedRMSD -1
REMARK  0 active torsions:
REMARK  status: ('A' for Active; 'I' for Inactive)
ROOT
ATOM      1  C1  BNZ d   1       1.098  -3.028   3.158  0.00  0.00     0.000 A 
ATOM      2  C2  BNZ d   1       1.815  -3.917   3.914  0.00  0.00     0.000 A 
ATOM      3  C3  BNZ d   1       3.105  -3.646   4.276  0.00  0.00     0.000 A 
ATOM      4  C4  BNZ d   1       3.688  -2.508   3.850  0.00  0.00     0.000 A 
ATOM      5  C5  BNZ d   1       2.982  -1.606   3.079  0.00  0.00     0.000 A 
ATOM      6  C6  BNZ d   1       1.671  -1.863   2.749  0.00  0.00     0.000 A 
ENDROOT
TORSDOF 0
ENDMDL
