MODEL 1
REMARK minimizedAffinity 8.97438908
REMARK minimizedRMSD -1
REMARK  0 active torsions:
REMARK  status: ('A' for Active; 'I' for Inactive)
ROOT
ATOM      1  C1  BNZ d   1      -0.057  -1.630   1.131  0.00  0.00     0.000 A 
ATOM      2  C2  BNZ d   1      -1.358  -1.439   0.749  0.00  0.00     0.000 A 
ATOM      3  C3  BNZ d   1      -1.814  -1.919  -0.447  0.00  0.00     0.000 A 
ATOM      4  C4  BNZ d   1      -0.959  -2.553  -1.276  0.00  0.00     0.000 A 
ATOM      5  C5  BNZ d   1       0.357  -2.746  -0.908  0.00  0.00     0.000 A 
ATOM      6  C6  BNZ d   1       0.803  -2.296   0.313  0.00  0.00     0.000 A 
ENDROOT
TORSDOF 0
ENDMDL
