MODEL 1
REMARK minimizedAffinity -0.0140559999
REMARK minimizedRMSD -1
REMARK  0 active torsions:
REMARK  status: ('A' for Active; 'I' for Inactive)
ROOT
ATOM      1  C1  BNZ d   1       2.559   1.833   0.886  0.00  0.00     0.000 A 
ATOM      2  C2  BNZ d   1       2.732   0.534   1.282  0.00  0.00     0.000 A 
ATOM      3  C3  BNZ d   1       1.788  -0.414   1.004  0.00  0.00     0.000 A 
ATOM      4  C4  BNZ d   1       0.655  -0.055   0.366  0.00  0.00     0.000 A 
ATOM      5  C5  BNZ d   1       0.462   1.253  -0.031  0.00  0.00     0.000 A 
ATOM      6  C6  BNZ d   1       1.432   2.197   0.217  0.00  0.00     0.000 A 
ENDROOT
TORSDOF 0
ENDMDL
