MODEL 1
REMARK minimizedAffinity -0.0478196256
REMARK minimizedRMSD -1
REMARK  0 active torsions:
REMARK  status: ('A' for Active; 'I' for Inactive)
ROOT
ATOM      1  C1  BNZ d   1       0.721   2.078   0.067  0.00  0.00     0.000 A 
ATOM      2  C2  BNZ d   1       1.872   2.115   0.808  0.00  0.00     0.000 A 
ATOM      3  C3  BNZ d   1       2.312   1.005   1.472  0.00  0.00     0.000 A 
ATOM      4  C4  BNZ d   1       1.582  -0.128   1.428  0.00  0.00     0.000 A 
ATOM      5  C5  BNZ d   1       0.414  -0.178   0.693  0.00  0.00     0.000 A 
ATOM      6  C6  BNZ d   1      -0.006   0.930  -0.006  0.00  0.00     0.000 A 
ENDROOT
TORSDOF 0
ENDMDL
