MODEL 1
REMARK minimizedAffinity -1.19706905
REMARK minimizedRMSD -1
REMARK  0 active torsions:
REMARK  status: ('A' for Active; 'I' for Inactive)
ROOT
ATOM      1  C1  BNZ d   1      -1.435  -2.476  -0.563  0.00  0.00     0.000 A 
ATOM      2  C2  BNZ d   1      -0.948  -3.522  -1.300  0.00  0.00     0.000 A 
ATOM      3  C3  BNZ d   1       0.340  -3.952  -1.139  0.00  0.00     0.000 A 
ATOM      4  C4  BNZ d   1       1.149  -3.311  -0.272  0.00  0.00     0.000 A 
ATOM      5  C5  BNZ d   1       0.675  -2.248   0.472  0.00  0.00     0.000 A 
ATOM      6  C6  BNZ d   1      -0.633  -1.843   0.336  0.00  0.00     0.000 A 
ENDROOT
TORSDOF 0
ENDMDL
