MODEL 1
REMARK minimizedAffinity -0.327339947
REMARK minimizedRMSD -1
REMARK  0 active torsions:
REMARK  status: ('A' for Active; 'I' for Inactive)
ROOT
ATOM      1  C1  BNZ d   1       4.867  -3.453  -5.946  0.00  0.00     0.000 A 
ATOM      2  C2  BNZ d   1       5.999  -2.683  -5.950  0.00  0.00     0.000 A 
ATOM      3  C3  BNZ d   1       5.917  -1.318  -5.951  0.00  0.00     0.000 A 
ATOM      4  C4  BNZ d   1       4.706  -0.727  -5.989  0.00  0.00     0.000 A 
ATOM      5  C5  BNZ d   1       3.555  -1.490  -5.995  0.00  0.00     0.000 A 
ATOM      6  C6  BNZ d   1       3.641  -2.863  -5.954  0.00  0.00     0.000 A 
ENDROOT
TORSDOF 0
ENDMDL
