MODEL 1
REMARK minimizedAffinity -0.223749459
REMARK minimizedRMSD -1
REMARK  0 active torsions:
REMARK  status: ('A' for Active; 'I' for Inactive)
ROOT
ATOM      1  C1  BNZ d   1       1.604  -2.396   4.425  0.00  0.00     0.000 A 
ATOM      2  C2  BNZ d   1       2.337  -1.247   4.557  0.00  0.00     0.000 A 
ATOM      3  C3  BNZ d   1       2.335  -0.299   3.573  0.00  0.00     0.000 A 
ATOM      4  C4  BNZ d   1       1.634  -0.518   2.442  0.00  0.00     0.000 A 
ATOM      5  C5  BNZ d   1       0.897  -1.676   2.290  0.00  0.00     0.000 A 
ATOM      6  C6  BNZ d   1       0.870  -2.611   3.299  0.00  0.00     0.000 A 
ENDROOT
TORSDOF 0
ENDMDL
