MODEL 1
REMARK minimizedAffinity -0.430153221
REMARK minimizedRMSD -1
REMARK  0 active torsions:
REMARK  status: ('A' for Active; 'I' for Inactive)
ROOT
ATOM      1  C1  BNZ d   1       2.238   1.103   0.738  0.00  0.00     0.000 A 
ATOM      2  C2  BNZ d   1       1.314   0.139   1.043  0.00  0.00     0.000 A 
ATOM      3  C3  BNZ d   1      -0.008   0.315   0.742  0.00  0.00     0.000 A 
ATOM      4  C4  BNZ d   1      -0.410   1.470   0.174  0.00  0.00     0.000 A 
ATOM      5  C5  BNZ d   1       0.508   2.456  -0.131  0.00  0.00     0.000 A 
ATOM      6  C6  BNZ d   1       1.843   2.259   0.138  0.00  0.00     0.000 A 
ENDROOT
TORSDOF 0
ENDMDL
