MODEL 1
REMARK minimizedAffinity 15.2432795
REMARK minimizedRMSD -1
REMARK  1 active torsions:
REMARK  status: ('A' for Active; 'I' for Inactive)
REMARK    1  A    between atoms: C1_2  and  C2_3 
ROOT
ATOM      1  C2  UNL d   1      -5.796   3.818   3.562  0.00  0.00    -0.076 A 
ATOM      2  C3  UNL d   1      -5.772   3.160   4.804  0.00  0.00     0.004 A 
ATOM      3  C4  UNL d   1      -5.851   3.877   5.997  0.00  0.00    -0.003 A 
ATOM      4  C5  UNL d   1      -5.956   5.264   5.967  0.00  0.00     0.000 A 
ATOM      5  C6  UNL d   1      -6.000   5.931   4.743  0.00  0.00     0.000 A 
ATOM      6  C7  UNL d   1      -5.938   5.221   3.531  0.00  0.00    -0.073 A 
ATOM      7  C8  UNL d   1      -5.983   5.992   2.240  0.00  0.00     0.078 C 
ENDROOT
BRANCH   1   8
ATOM      8  C1  UNL d   1      -5.680   2.990   2.302  0.00  0.00     0.053 C 
ATOM      9  C   UNL d   1      -4.525   3.433   1.418  0.00  0.00     0.018 C 
ENDBRANCH   1   8
TORSDOF 1
ENDMDL
