MODEL 1
REMARK minimizedAffinity 4.21829796
REMARK minimizedRMSD -1
REMARK  1 active torsions:
REMARK  status: ('A' for Active; 'I' for Inactive)
REMARK    1  A    between atoms: C1_2  and  C2_3 
ROOT
ATOM      1  C2  UNL d   1       0.158  -2.706   5.260  0.00  0.00    -0.076 A 
ATOM      2  C3  UNL d   1       1.444  -3.239   5.452  0.00  0.00     0.004 A 
ATOM      3  C4  UNL d   1       1.622  -4.572   5.820  0.00  0.00    -0.003 A 
ATOM      4  C5  UNL d   1       0.515  -5.394   6.000  0.00  0.00     0.000 A 
ATOM      5  C6  UNL d   1      -0.768  -4.887   5.796  0.00  0.00     0.000 A 
ATOM      6  C7  UNL d   1      -0.964  -3.550   5.409  0.00  0.00    -0.073 A 
ATOM      7  C8  UNL d   1      -2.370  -3.055   5.209  0.00  0.00     0.078 C 
ENDROOT
BRANCH   1   8
ATOM      8  C1  UNL d   1       0.026  -1.247   4.888  0.00  0.00     0.053 C 
ATOM      9  C   UNL d   1       0.490  -0.318   6.000  0.00  0.00     0.018 C 
ENDBRANCH   1   8
TORSDOF 1
ENDMDL
