MODEL 1
REMARK minimizedAffinity 9.59654045
REMARK minimizedRMSD -1
REMARK  1 active torsions:
REMARK  status: ('A' for Active; 'I' for Inactive)
REMARK    1  A    between atoms: C1_2  and  C2_3 
ROOT
ATOM      1  C2  UNL d   1      -0.129  -3.232   4.703  0.00  0.00    -0.076 A 
ATOM      2  C3  UNL d   1      -1.318  -3.899   4.359  0.00  0.00     0.004 A 
ATOM      3  C4  UNL d   1      -1.574  -5.191   4.816  0.00  0.00    -0.003 A 
ATOM      4  C5  UNL d   1      -0.645  -5.836   5.625  0.00  0.00     0.000 A 
ATOM      5  C6  UNL d   1       0.531  -5.183   5.991  0.00  0.00     0.000 A 
ATOM      6  C7  UNL d   1       0.797  -3.875   5.551  0.00  0.00    -0.073 A 
ATOM      7  C8  UNL d   1       2.085  -3.220   5.971  0.00  0.00     0.078 C 
ENDROOT
BRANCH   1   8
ATOM      8  C1  UNL d   1       0.105  -1.843   4.155  0.00  0.00     0.053 C 
ATOM      9  C   UNL d   1       1.460  -1.705   3.476  0.00  0.00     0.018 C 
ENDBRANCH   1   8
TORSDOF 1
ENDMDL
