MODEL 1
REMARK minimizedAffinity 6.53863573
REMARK minimizedRMSD -1
REMARK  1 active torsions:
REMARK  status: ('A' for Active; 'I' for Inactive)
REMARK    1  A    between atoms: C1_2  and  C2_3 
ROOT
ATOM      1  C2  UNL d   1      -4.291   5.947   2.278  0.00  0.00    -0.076 A 
ATOM      2  C3  UNL d   1      -5.642   5.967   2.668  0.00  0.00     0.004 A 
ATOM      3  C4  UNL d   1      -5.999   5.984   4.015  0.00  0.00    -0.003 A 
ATOM      4  C5  UNL d   1      -5.011   5.982   4.994  0.00  0.00     0.000 A 
ATOM      5  C6  UNL d   1      -3.667   5.980   4.625  0.00  0.00     0.000 A 
ATOM      6  C7  UNL d   1      -3.289   5.979   3.271  0.00  0.00    -0.073 A 
ATOM      7  C8  UNL d   1      -1.824   5.971   2.930  0.00  0.00     0.078 C 
ENDROOT
BRANCH   1   8
ATOM      8  C1  UNL d   1      -3.965   5.902   0.802  0.00  0.00     0.053 C 
ATOM      9  C   UNL d   1      -4.959   5.067   0.010  0.00  0.00     0.018 C 
ENDBRANCH   1   8
TORSDOF 1
ENDMDL
