MODEL 1
REMARK minimizedAffinity -1.42826962
REMARK minimizedRMSD -1
REMARK  1 active torsions:
REMARK  status: ('A' for Active; 'I' for Inactive)
REMARK    1  A    between atoms: C1_2  and  C2_3 
ROOT
ATOM      1  C2  UNL d   1      -3.381   5.766   3.672  0.00  0.00    -0.076 A 
ATOM      2  C3  UNL d   1      -3.627   5.564   5.042  0.00  0.00     0.004 A 
ATOM      3  C4  UNL d   1      -4.923   5.369   5.517  0.00  0.00    -0.003 A 
ATOM      4  C5  UNL d   1      -5.994   5.372   4.630  0.00  0.00     0.000 A 
ATOM      5  C6  UNL d   1      -5.767   5.553   3.266  0.00  0.00     0.000 A 
ATOM      6  C7  UNL d   1      -4.465   5.734   2.769  0.00  0.00    -0.073 A 
ATOM      7  C8  UNL d   1      -4.279   5.931   1.289  0.00  0.00     0.078 C 
ENDROOT
BRANCH   1   8
ATOM      8  C1  UNL d   1      -1.958   6.000   3.219  0.00  0.00     0.053 C 
ATOM      9  C   UNL d   1      -0.970   5.999   4.375  0.00  0.00     0.018 C 
ENDBRANCH   1   8
TORSDOF 1
ENDMDL
