MODEL 1
REMARK minimizedAffinity 4.13180637
REMARK minimizedRMSD -1
REMARK  1 active torsions:
REMARK  status: ('A' for Active; 'I' for Inactive)
REMARK    1  A    between atoms: C1_2  and  C2_3 
ROOT
ATOM      1  C2  UNL d   1       0.222  -2.999   4.380  0.00  0.00    -0.076 A 
ATOM      2  C3  UNL d   1      -1.004  -3.516   3.928  0.00  0.00     0.004 A 
ATOM      3  C4  UNL d   1      -1.551  -4.665   4.495  0.00  0.00    -0.003 A 
ATOM      4  C5  UNL d   1      -0.881  -5.317   5.524  0.00  0.00     0.000 A 
ATOM      5  C6  UNL d   1       0.328  -4.808   5.997  0.00  0.00     0.000 A 
ATOM      6  C7  UNL d   1       0.886  -3.641   5.447  0.00  0.00    -0.073 A 
ATOM      7  C8  UNL d   1       2.195  -3.141   5.992  0.00  0.00     0.078 C 
ENDROOT
BRANCH   1   8
ATOM      8  C1  UNL d   1       0.780  -1.765   3.708  0.00  0.00     0.053 C 
ATOM      9  C   UNL d   1       1.898  -2.089   2.729  0.00  0.00     0.018 C 
ENDBRANCH   1   8
TORSDOF 1
ENDMDL
