MODEL 1
REMARK minimizedAffinity 3.17727494
REMARK minimizedRMSD -1
REMARK  1 active torsions:
REMARK  status: ('A' for Active; 'I' for Inactive)
REMARK    1  A    between atoms: C1_2  and  C2_3 
ROOT
ATOM      1  C2  UNL d   1      -4.657   1.961  -3.569  0.00  0.00    -0.076 A 
ATOM      2  C3  UNL d   1      -3.494   2.619  -3.133  0.00  0.00     0.004 A 
ATOM      3  C4  UNL d   1      -2.248   1.999  -3.209  0.00  0.00    -0.003 A 
ATOM      4  C5  UNL d   1      -2.144   0.712  -3.724  0.00  0.00     0.000 A 
ATOM      5  C6  UNL d   1      -3.285   0.051  -4.178  0.00  0.00     0.000 A 
ATOM      6  C7  UNL d   1      -4.547   0.667  -4.123  0.00  0.00    -0.073 A 
ATOM      7  C8  UNL d   1      -5.744  -0.095  -4.621  0.00  0.00     0.078 C 
ENDROOT
BRANCH   1   8
ATOM      8  C1  UNL d   1      -5.985   2.672  -3.437  0.00  0.00     0.053 C 
ATOM      9  C   UNL d   1      -5.999   4.016  -4.147  0.00  0.00     0.018 C 
ENDBRANCH   1   8
TORSDOF 1
ENDMDL
