MODEL 1
REMARK minimizedAffinity 4.55466604
REMARK minimizedRMSD -1
REMARK  0 active torsions:
REMARK  status: ('A' for Active; 'I' for Inactive)
ROOT
ATOM      1  N1  IND d   1       0.799  -0.653   2.540  0.00  0.00    -0.196 N 
ATOM      2  C2  IND d   1       1.727   0.010   1.787  0.00  0.00     0.054 A 
ATOM      3  C3  IND d   1       1.116   0.789   0.866  0.00  0.00    -0.031 A 
ATOM      4  C4  IND d   1      -1.396   1.207   0.485  0.00  0.00     0.051 A 
ATOM      5  C5  IND d   1      -2.631   0.797   0.902  0.00  0.00    -0.031 A 
ATOM      6  C6  IND d   1      -2.789  -0.133   1.909  0.00  0.00     0.015 A 
ATOM      7  C7  IND d   1      -1.713  -0.683   2.546  0.00  0.00    -0.016 A 
ATOM      8  C8  IND d   1      -0.457  -0.275   2.121  0.00  0.00    -0.047 A 
ATOM      9  C9  IND d   1      -0.290   0.637   1.071  0.00  0.00    -0.096 A 
ATOM     10  HN1 IND d   1       0.972  -1.213   3.170  0.00  0.00     0.298 HD
ENDROOT
TORSDOF 0
ENDMDL
