MODEL 1
REMARK minimizedAffinity 4.62352371
REMARK minimizedRMSD -1
REMARK  0 active torsions:
REMARK  status: ('A' for Active; 'I' for Inactive)
ROOT
ATOM      1  N1  IND d   1       0.207   1.491   2.990  0.00  0.00    -0.196 N 
ATOM      2  C2  IND d   1       1.092   0.541   2.561  0.00  0.00     0.054 A 
ATOM      3  C3  IND d   1       0.510  -0.264   1.645  0.00  0.00    -0.031 A 
ATOM      4  C4  IND d   1      -1.851  -0.144   0.625  0.00  0.00     0.051 A 
ATOM      5  C5  IND d   1      -3.036   0.530   0.728  0.00  0.00    -0.031 A 
ATOM      6  C6  IND d   1      -3.203   1.581   1.606  0.00  0.00     0.015 A 
ATOM      7  C7  IND d   1      -2.183   2.007   2.409  0.00  0.00    -0.016 A 
ATOM      8  C8  IND d   1      -0.981   1.321   2.313  0.00  0.00    -0.047 A 
ATOM      9  C9  IND d   1      -0.818   0.226   1.454  0.00  0.00    -0.096 A 
ATOM     10  HN1 IND d   1       0.365   2.093   3.583  0.00  0.00     0.298 HD
ENDROOT
TORSDOF 0
ENDMDL
