MODEL 1
REMARK minimizedAffinity 5.5874896
REMARK minimizedRMSD -1
REMARK  0 active torsions:
REMARK  status: ('A' for Active; 'I' for Inactive)
ROOT
ATOM      1  N1  IND d   1       4.262  -0.618   3.143  0.00  0.00    -0.196 N 
ATOM      2  C2  IND d   1       5.589  -0.355   2.948  0.00  0.00     0.054 A 
ATOM      3  C3  IND d   1       5.761   0.400   1.840  0.00  0.00    -0.031 A 
ATOM      4  C4  IND d   1       3.997   1.403   0.255  0.00  0.00     0.051 A 
ATOM      5  C5  IND d   1       2.654   1.409   0.004  0.00  0.00    -0.031 A 
ATOM      6  C6  IND d   1       1.760   0.728   0.804  0.00  0.00     0.015 A 
ATOM      7  C7  IND d   1       2.176   0.022   1.897  0.00  0.00    -0.016 A 
ATOM      8  C8  IND d   1       3.540   0.008   2.151  0.00  0.00    -0.047 A 
ATOM      9  C9  IND d   1       4.457   0.662   1.317  0.00  0.00    -0.096 A 
ATOM     10  HN1 IND d   1       3.934  -1.095   3.779  0.00  0.00     0.298 HD
ENDROOT
TORSDOF 0
ENDMDL
