MODEL 1
REMARK minimizedAffinity 6.40734959
REMARK minimizedRMSD -1
REMARK  0 active torsions:
REMARK  status: ('A' for Active; 'I' for Inactive)
ROOT
ATOM      1  N1  IND d   1      -5.926   4.509   2.254  0.00  0.00    -0.196 N 
ATOM      2  C2  IND d   1      -5.478   3.455   1.508  0.00  0.00     0.054 A 
ATOM      3  C3  IND d   1      -4.973   2.491   2.311  0.00  0.00    -0.031 A 
ATOM      4  C4  IND d   1      -4.874   2.390   4.881  0.00  0.00     0.051 A 
ATOM      5  C5  IND d   1      -5.128   3.134   5.999  0.00  0.00    -0.031 A 
ATOM      6  C6  IND d   1      -5.675   4.398   5.925  0.00  0.00     0.015 A 
ATOM      7  C7  IND d   1      -6.000   4.964   4.724  0.00  0.00    -0.016 A 
ATOM      8  C8  IND d   1      -5.736   4.215   3.587  0.00  0.00    -0.047 A 
ATOM      9  C9  IND d   1      -5.142   2.948   3.654  0.00  0.00    -0.096 A 
ATOM     10  HN1 IND d   1      -6.269   5.233   1.944  0.00  0.00     0.298 HD
ENDROOT
TORSDOF 0
ENDMDL
