MODEL 1
REMARK minimizedAffinity 2.50033331
REMARK minimizedRMSD -1
REMARK  0 active torsions:
REMARK  status: ('A' for Active; 'I' for Inactive)
ROOT
ATOM      1  N1  IND d   1      -5.487  -4.811   3.742  0.00  0.00    -0.196 N 
ATOM      2  C2  IND d   1      -5.247  -4.735   2.398  0.00  0.00     0.054 A 
ATOM      3  C3  IND d   1      -4.501  -3.644   2.114  0.00  0.00    -0.031 A 
ATOM      4  C4  IND d   1      -3.478  -1.902   3.710  0.00  0.00     0.051 A 
ATOM      5  C5  IND d   1      -3.451  -1.531   5.025  0.00  0.00    -0.031 A 
ATOM      6  C6  IND d   1      -4.112  -2.250   6.000  0.00  0.00     0.015 A 
ATOM      7  C7  IND d   1      -4.819  -3.379   5.695  0.00  0.00    -0.016 A 
ATOM      8  C8  IND d   1      -4.854  -3.755   4.360  0.00  0.00    -0.047 A 
ATOM      9  C9  IND d   1      -4.221  -3.005   3.361  0.00  0.00    -0.096 A 
ATOM     10  HN1 IND d   1      -5.954  -5.417   4.134  0.00  0.00     0.298 HD
ENDROOT
TORSDOF 0
ENDMDL
