MODEL 1
REMARK minimizedAffinity 0.831759334
REMARK minimizedRMSD -1
REMARK  0 active torsions:
REMARK  status: ('A' for Active; 'I' for Inactive)
ROOT
ATOM      1  N1  IND d   1      -5.823   4.507   3.774  0.00  0.00    -0.196 N 
ATOM      2  C2  IND d   1      -5.773   5.193   4.956  0.00  0.00     0.054 A 
ATOM      3  C3  IND d   1      -5.800   4.334   6.000  0.00  0.00    -0.031 A 
ATOM      4  C4  IND d   1      -5.821   1.759   5.999  0.00  0.00     0.051 A 
ATOM      5  C5  IND d   1      -5.907   0.683   5.161  0.00  0.00    -0.031 A 
ATOM      6  C6  IND d   1      -5.968   0.829   3.790  0.00  0.00     0.015 A 
ATOM      7  C7  IND d   1      -5.933   2.062   3.203  0.00  0.00    -0.016 A 
ATOM      8  C8  IND d   1      -5.853   3.158   4.051  0.00  0.00    -0.047 A 
ATOM      9  C9  IND d   1      -5.834   3.018   5.445  0.00  0.00    -0.096 A 
ATOM     10  HN1 IND d   1      -5.833   4.859   2.990  0.00  0.00     0.298 HD
ENDROOT
TORSDOF 0
ENDMDL
