MODEL 1
REMARK minimizedAffinity 14.3619223
REMARK minimizedRMSD -1
REMARK  0 active torsions:
REMARK  status: ('A' for Active; 'I' for Inactive)
ROOT
ATOM      1  N1  IND d   1       0.857   5.995  -4.954  0.00  0.00    -0.196 N 
ATOM      2  C2  IND d   1      -0.050   5.847  -3.942  0.00  0.00     0.054 A 
ATOM      3  C3  IND d   1       0.005   4.593  -3.441  0.00  0.00    -0.031 A 
ATOM      4  C4  IND d   1       1.576   2.651  -4.062  0.00  0.00     0.051 A 
ATOM      5  C5  IND d   1       2.550   2.295  -4.953  0.00  0.00    -0.031 A 
ATOM      6  C6  IND d   1       3.020   3.174  -5.908  0.00  0.00     0.015 A 
ATOM      7  C7  IND d   1       2.540   4.450  -6.000  0.00  0.00    -0.016 A 
ATOM      8  C8  IND d   1       1.546   4.812  -5.101  0.00  0.00    -0.047 A 
ATOM      9  C9  IND d   1       1.035   3.911  -4.158  0.00  0.00    -0.096 A 
ATOM     10  HN1 IND d   1       0.976   6.707  -5.421  0.00  0.00     0.298 HD
ENDROOT
TORSDOF 0
ENDMDL
