MODEL 1
REMARK minimizedAffinity 14.4344425
REMARK minimizedRMSD -1
REMARK  0 active torsions:
REMARK  status: ('A' for Active; 'I' for Inactive)
ROOT
ATOM      1  N1  IND d   1       4.722  -0.379   3.380  0.00  0.00    -0.196 N 
ATOM      2  C2  IND d   1       5.999   0.003   3.075  0.00  0.00     0.054 A 
ATOM      3  C3  IND d   1       5.998   0.837   2.010  0.00  0.00    -0.031 A 
ATOM      4  C4  IND d   1       4.010   1.787   0.679  0.00  0.00     0.051 A 
ATOM      5  C5  IND d   1       2.651   1.698   0.561  0.00  0.00    -0.031 A 
ATOM      6  C6  IND d   1       1.898   0.898   1.396  0.00  0.00     0.015 A 
ATOM      7  C7  IND d   1       2.477   0.163   2.391  0.00  0.00    -0.016 A 
ATOM      8  C8  IND d   1       3.857   0.245   2.509  0.00  0.00    -0.047 A 
ATOM      9  C9  IND d   1       4.631   1.022   1.638  0.00  0.00    -0.096 A 
ATOM     10  HN1 IND d   1       4.498  -0.919   4.011  0.00  0.00     0.298 HD
ENDROOT
TORSDOF 0
ENDMDL
