MODEL 1
REMARK minimizedAffinity 2.9749012
REMARK minimizedRMSD -1
REMARK  0 active torsions:
REMARK  status: ('A' for Active; 'I' for Inactive)
ROOT
ATOM      1  N1  IND d   1      -3.366   0.995   1.270  0.00  0.00    -0.196 N 
ATOM      2  C2  IND d   1      -3.686   1.799   2.328  0.00  0.00     0.054 A 
ATOM      3  C3  IND d   1      -2.605   1.993   3.116  0.00  0.00    -0.031 A 
ATOM      4  C4  IND d   1      -0.186   1.171   2.805  0.00  0.00     0.051 A 
ATOM      5  C5  IND d   1       0.587   0.374   2.007  0.00  0.00    -0.031 A 
ATOM      6  C6  IND d   1       0.072  -0.267   0.899  0.00  0.00     0.015 A 
ATOM      7  C7  IND d   1      -1.238  -0.125   0.540  0.00  0.00    -0.016 A 
ATOM      8  C8  IND d   1      -2.028   0.677   1.351  0.00  0.00    -0.047 A 
ATOM      9  C9  IND d   1      -1.521   1.296   2.501  0.00  0.00    -0.096 A 
ATOM     10  HN1 IND d   1      -3.908   0.732   0.657  0.00  0.00     0.298 HD
ENDROOT
TORSDOF 0
ENDMDL
