MODEL 1
REMARK minimizedAffinity -0.657404125
REMARK minimizedRMSD -1
REMARK  0 active torsions:
REMARK  status: ('A' for Active; 'I' for Inactive)
ROOT
ATOM      1  N1  IND d   1      -1.896   2.619   3.056  0.00  0.00    -0.196 N 
ATOM      2  C2  IND d   1      -0.652   2.453   3.597  0.00  0.00     0.054 A 
ATOM      3  C3  IND d   1      -0.001   1.443   2.977  0.00  0.00    -0.031 A 
ATOM      4  C4  IND d   1      -0.748  -0.005   0.985  0.00  0.00     0.051 A 
ATOM      5  C5  IND d   1      -1.820  -0.250   0.173  0.00  0.00    -0.031 A 
ATOM      6  C6  IND d   1      -2.995   0.466   0.281  0.00  0.00     0.015 A 
ATOM      7  C7  IND d   1      -3.138   1.465   1.202  0.00  0.00    -0.016 A 
ATOM      8  C8  IND d   1      -2.054   1.711   2.033  0.00  0.00    -0.047 A 
ATOM      9  C9  IND d   1      -0.875   0.960   1.956  0.00  0.00    -0.096 A 
ATOM     10  HN1 IND d   1      -2.482   3.194   3.313  0.00  0.00     0.298 HD
ENDROOT
TORSDOF 0
ENDMDL
