MODEL 1
REMARK minimizedAffinity 7.85026884
REMARK minimizedRMSD -1
REMARK  0 active torsions:
REMARK  status: ('A' for Active; 'I' for Inactive)
ROOT
ATOM      1  N1  IND d   1      -1.941   1.947   2.219  0.00  0.00    -0.196 N 
ATOM      2  C2  IND d   1      -0.749   1.752   2.859  0.00  0.00     0.054 A 
ATOM      3  C3  IND d   1      -0.237   0.542   2.543  0.00  0.00    -0.031 A 
ATOM      4  C4  IND d   1      -1.135  -1.239   0.915  0.00  0.00     0.051 A 
ATOM      5  C5  IND d   1      -2.209  -1.529   0.121  0.00  0.00    -0.031 A 
ATOM      6  C6  IND d   1      -3.269  -0.656  -0.019  0.00  0.00     0.015 A 
ATOM      7  C7  IND d   1      -3.289   0.550   0.623  0.00  0.00    -0.016 A 
ATOM      8  C8  IND d   1      -2.203   0.844   1.436  0.00  0.00    -0.047 A 
ATOM      9  C9  IND d   1      -1.144  -0.056   1.615  0.00  0.00    -0.096 A 
ATOM     10  HN1 IND d   1      -2.442   2.642   2.292  0.00  0.00     0.298 HD
ENDROOT
TORSDOF 0
ENDMDL
