MODEL 1
REMARK minimizedAffinity 6.47375059
REMARK minimizedRMSD -1
REMARK  0 active torsions:
REMARK  status: ('A' for Active; 'I' for Inactive)
ROOT
ATOM      1  N1  IND d   1       0.322  -0.430   0.657  0.00  0.00    -0.196 N 
ATOM      2  C2  IND d   1       1.626  -0.327   0.259  0.00  0.00     0.054 A 
ATOM      3  C3  IND d   1       2.234   0.696   0.901  0.00  0.00    -0.031 A 
ATOM      4  C4  IND d   1       1.310   2.266   2.720  0.00  0.00     0.051 A 
ATOM      5  C5  IND d   1       0.160   2.583   3.387  0.00  0.00    -0.031 A 
ATOM      6  C6  IND d   1      -1.018   1.895   3.175  0.00  0.00     0.015 A 
ATOM      7  C7  IND d   1      -1.087   0.854   2.294  0.00  0.00    -0.016 A 
ATOM      8  C8  IND d   1       0.077   0.535   1.609  0.00  0.00    -0.047 A 
ATOM      9  C9  IND d   1       1.265   1.256   1.788  0.00  0.00    -0.096 A 
ATOM     10  HN1 IND d   1      -0.248  -1.001   0.361  0.00  0.00     0.298 HD
ENDROOT
TORSDOF 0
ENDMDL
