MODEL 1
REMARK minimizedAffinity 7.37908649
REMARK minimizedRMSD -1
REMARK  0 active torsions:
REMARK  status: ('A' for Active; 'I' for Inactive)
ROOT
ATOM      1  N1  IND d   1       0.478   0.732   2.326  0.00  0.00    -0.196 N 
ATOM      2  C2  IND d   1       0.830   0.036   1.204  0.00  0.00     0.054 A 
ATOM      3  C3  IND d   1      -0.241  -0.123   0.394  0.00  0.00    -0.031 A 
ATOM      4  C4  IND d   1      -2.642   0.765   0.664  0.00  0.00     0.051 A 
ATOM      5  C5  IND d   1      -3.454   1.424   1.544  0.00  0.00    -0.031 A 
ATOM      6  C6  IND d   1      -2.987   1.899   2.753  0.00  0.00     0.015 A 
ATOM      7  C7  IND d   1      -1.682   1.740   3.123  0.00  0.00    -0.016 A 
ATOM      8  C8  IND d   1      -0.856   1.065   2.235  0.00  0.00    -0.047 A 
ATOM      9  C9  IND d   1      -1.335   0.545   1.026  0.00  0.00    -0.096 A 
ATOM     10  HN1 IND d   1       1.001   0.929   2.979  0.00  0.00     0.298 HD
ENDROOT
TORSDOF 0
ENDMDL
