MODEL 1
REMARK minimizedAffinity 6.99750423
REMARK minimizedRMSD -1
REMARK  0 active torsions:
REMARK  status: ('A' for Active; 'I' for Inactive)
ROOT
ATOM      1  N1  IND d   1      -4.150   1.008   1.038  0.00  0.00    -0.196 N 
ATOM      2  C2  IND d   1      -4.565   1.659   2.166  0.00  0.00     0.054 A 
ATOM      3  C3  IND d   1      -3.529   1.835   3.016  0.00  0.00    -0.031 A 
ATOM      4  C4  IND d   1      -1.046   1.226   2.716  0.00  0.00     0.051 A 
ATOM      5  C5  IND d   1      -0.189   0.584   1.867  0.00  0.00    -0.031 A 
ATOM      6  C6  IND d   1      -0.617   0.042   0.672  0.00  0.00     0.015 A 
ATOM      7  C7  IND d   1      -1.922   0.132   0.276  0.00  0.00    -0.016 A 
ATOM      8  C8  IND d   1      -2.796   0.777   1.139  0.00  0.00    -0.047 A 
ATOM      9  C9  IND d   1      -2.375   1.292   2.372  0.00  0.00    -0.096 A 
ATOM     10  HN1 IND d   1      -4.650   0.781   0.377  0.00  0.00     0.298 HD
ENDROOT
TORSDOF 0
ENDMDL
