MODEL 1
REMARK minimizedAffinity 1.51184845
REMARK minimizedRMSD -1
REMARK  0 active torsions:
REMARK  status: ('A' for Active; 'I' for Inactive)
ROOT
ATOM      1  N1  IND d   1       0.459   3.717  -5.426  0.00  0.00    -0.196 N 
ATOM      2  C2  IND d   1      -0.047   4.850  -5.999  0.00  0.00     0.054 A 
ATOM      3  C3  IND d   1       0.065   5.896  -5.150  0.00  0.00    -0.031 A 
ATOM      4  C4  IND d   1       1.139   5.998  -2.813  0.00  0.00     0.051 A 
ATOM      5  C5  IND d   1       1.704   5.208  -1.851  0.00  0.00    -0.031 A 
ATOM      6  C6  IND d   1       1.889   3.853  -2.037  0.00  0.00     0.015 A 
ATOM      7  C7  IND d   1       1.524   3.238  -3.201  0.00  0.00    -0.016 A 
ATOM      8  C8  IND d   1       0.944   4.036  -4.177  0.00  0.00    -0.047 A 
ATOM      9  C9  IND d   1       0.715   5.403  -3.977  0.00  0.00    -0.096 A 
ATOM     10  HN1 IND d   1       0.472   2.936  -5.785  0.00  0.00     0.298 HD
ENDROOT
TORSDOF 0
ENDMDL
