MODEL 1
REMARK minimizedAffinity 6.94148254
REMARK minimizedRMSD -1
REMARK  0 active torsions:
REMARK  status: ('A' for Active; 'I' for Inactive)
ROOT
ATOM      1  N1  IND d   1      -3.047   0.794   0.908  0.00  0.00    -0.196 N 
ATOM      2  C2  IND d   1      -2.311   0.061   0.018  0.00  0.00     0.054 A 
ATOM      3  C3  IND d   1      -1.012   0.035   0.391  0.00  0.00    -0.031 A 
ATOM      4  C4  IND d   1       0.111   1.039   2.479  0.00  0.00     0.051 A 
ATOM      5  C5  IND d   1      -0.145   1.827   3.565  0.00  0.00    -0.031 A 
ATOM      6  C6  IND d   1      -1.407   2.319   3.829  0.00  0.00     0.015 A 
ATOM      7  C7  IND d   1      -2.467   2.030   3.017  0.00  0.00    -0.016 A 
ATOM      8  C8  IND d   1      -2.210   1.236   1.909  0.00  0.00    -0.047 A 
ATOM      9  C9  IND d   1      -0.923   0.769   1.613  0.00  0.00    -0.096 A 
ATOM     10  HN1 IND d   1      -3.890   0.952   0.851  0.00  0.00     0.298 HD
ENDROOT
TORSDOF 0
ENDMDL
