MODEL 1
REMARK minimizedAffinity 4.28315735
REMARK minimizedRMSD -1
REMARK  0 active torsions:
REMARK  status: ('A' for Active; 'I' for Inactive)
ROOT
ATOM      1  N1  IND d   1       2.308   4.535  -5.996  0.00  0.00    -0.196 N 
ATOM      2  C2  IND d   1       1.158   3.834  -5.757  0.00  0.00     0.054 A 
ATOM      3  C3  IND d   1       1.444   2.542  -5.480  0.00  0.00    -0.031 A 
ATOM      4  C4  IND d   1       3.732   1.383  -5.262  0.00  0.00     0.051 A 
ATOM      5  C5  IND d   1       5.071   1.604  -5.425  0.00  0.00    -0.031 A 
ATOM      6  C6  IND d   1       5.567   2.838  -5.792  0.00  0.00     0.015 A 
ATOM      7  C7  IND d   1       4.740   3.905  -5.999  0.00  0.00    -0.016 A 
ATOM      8  C8  IND d   1       3.380   3.684  -5.841  0.00  0.00    -0.047 A 
ATOM      9  C9  IND d   1       2.867   2.423  -5.510  0.00  0.00    -0.096 A 
ATOM     10  HN1 IND d   1       2.353   5.367  -6.208  0.00  0.00     0.298 HD
ENDROOT
TORSDOF 0
ENDMDL
