MODEL 1
REMARK minimizedAffinity -2.12935328
REMARK minimizedRMSD -1
REMARK  0 active torsions:
REMARK  status: ('A' for Active; 'I' for Inactive)
ROOT
ATOM      1  N1  IND d   1      -4.470   1.330   1.854  0.00  0.00    -0.196 N 
ATOM      2  C2  IND d   1      -4.655   1.716   3.152  0.00  0.00     0.054 A 
ATOM      3  C3  IND d   1      -3.496   1.618   3.841  0.00  0.00    -0.031 A 
ATOM      4  C4  IND d   1      -1.153   0.944   3.014  0.00  0.00     0.051 A 
ATOM      5  C5  IND d   1      -0.494   0.472   1.914  0.00  0.00    -0.031 A 
ATOM      6  C6  IND d   1      -1.139   0.260   0.712  0.00  0.00     0.015 A 
ATOM      7  C7  IND d   1      -2.471   0.525   0.563  0.00  0.00    -0.016 A 
ATOM      8  C8  IND d   1      -3.145   0.997   1.680  0.00  0.00    -0.047 A 
ATOM      9  C9  IND d   1      -2.505   1.174   2.913  0.00  0.00    -0.096 A 
ATOM     10  HN1 IND d   1      -5.080   1.300   1.248  0.00  0.00     0.298 HD
ENDROOT
TORSDOF 0
ENDMDL
