MODEL 1
REMARK minimizedAffinity 10.6058216
REMARK minimizedRMSD -1
REMARK  0 active torsions:
REMARK  status: ('A' for Active; 'I' for Inactive)
ROOT
ATOM      1  N1  IND d   1      -3.171   0.642   0.813  0.00  0.00    -0.196 N 
ATOM      2  C2  IND d   1      -1.893   0.717   1.295  0.00  0.00     0.054 A 
ATOM      3  C3  IND d   1      -1.885   1.289   2.519  0.00  0.00    -0.031 A 
ATOM      4  C4  IND d   1      -3.860   2.085   3.966  0.00  0.00     0.051 A 
ATOM      5  C5  IND d   1      -5.215   2.256   3.938  0.00  0.00    -0.031 A 
ATOM      6  C6  IND d   1      -5.974   1.888   2.846  0.00  0.00     0.015 A 
ATOM      7  C7  IND d   1      -5.405   1.322   1.741  0.00  0.00    -0.016 A 
ATOM      8  C8  IND d   1      -4.027   1.154   1.763  0.00  0.00    -0.047 A 
ATOM      9  C9  IND d   1      -3.247   1.564   2.851  0.00  0.00    -0.096 A 
ATOM     10  HN1 IND d   1      -3.400   0.329   0.046  0.00  0.00     0.298 HD
ENDROOT
TORSDOF 0
ENDMDL
