MODEL 1
REMARK minimizedAffinity 5.77109861
REMARK minimizedRMSD -1
REMARK  0 active torsions:
REMARK  status: ('A' for Active; 'I' for Inactive)
ROOT
ATOM      1  C1  DEN d   1       3.600  -3.487   0.606  0.00  0.00     0.130 A 
ATOM      2  C2  DEN d   1       4.726  -2.951  -0.154  0.00  0.00    -0.031 A 
ATOM      3  C3  DEN d   1       4.693  -3.551  -1.503  0.00  0.00     0.027 A 
ATOM      4  C4  DEN d   1       3.014  -5.245  -2.485  0.00  0.00     0.027 A 
ATOM      5  C5  DEN d   1       1.893  -6.000  -2.215  0.00  0.00    -0.003 A 
ATOM      6  C6  DEN d   1       1.288  -5.996  -0.987  0.00  0.00     0.001 A 
ATOM      7  C7  DEN d   1       1.774  -5.187   0.007  0.00  0.00     0.017 A 
ATOM      8  C8  DEN d   1       2.908  -4.429  -0.255  0.00  0.00    -0.094 A 
ATOM      9  C9  DEN d   1       3.498  -4.437  -1.508  0.00  0.00    -0.072 A 
ENDROOT
TORSDOF 0
ENDMDL
