MODEL 1
REMARK minimizedAffinity 8.90973949
REMARK minimizedRMSD -1
REMARK  0 active torsions:
REMARK  status: ('A' for Active; 'I' for Inactive)
ROOT
ATOM      1  C1  DEN d   1       1.530   3.167   1.679  0.00  0.00     0.130 A 
ATOM      2  C2  DEN d   1       0.460   2.190   1.858  0.00  0.00    -0.031 A 
ATOM      3  C3  DEN d   1      -0.645   2.552   0.947  0.00  0.00     0.027 A 
ATOM      4  C4  DEN d   1      -0.800   4.516  -0.717  0.00  0.00     0.027 A 
ATOM      5  C5  DEN d   1      -0.143   5.620  -1.215  0.00  0.00    -0.003 A 
ATOM      6  C6  DEN d   1       1.093   6.000  -0.763  0.00  0.00     0.001 A 
ATOM      7  C7  DEN d   1       1.731   5.244   0.185  0.00  0.00     0.017 A 
ATOM      8  C8  DEN d   1       1.072   4.134   0.697  0.00  0.00    -0.094 A 
ATOM      9  C9  DEN d   1      -0.172   3.759   0.218  0.00  0.00    -0.072 A 
ENDROOT
TORSDOF 0
ENDMDL
