MODEL 1
REMARK minimizedAffinity 8.96931553
REMARK minimizedRMSD -1
REMARK  0 active torsions:
REMARK  status: ('A' for Active; 'I' for Inactive)
ROOT
ATOM      1  C1  DEN d   1       2.302   0.752   2.768  0.00  0.00     0.130 A 
ATOM      2  C2  DEN d   1       1.891   0.056   3.985  0.00  0.00    -0.031 A 
ATOM      3  C3  DEN d   1       0.521   0.496   4.321  0.00  0.00     0.027 A 
ATOM      4  C4  DEN d   1      -0.995   2.173   3.079  0.00  0.00     0.027 A 
ATOM      5  C5  DEN d   1      -1.077   3.028   2.002  0.00  0.00    -0.003 A 
ATOM      6  C6  DEN d   1      -0.035   3.208   1.132  0.00  0.00     0.001 A 
ATOM      7  C7  DEN d   1       1.119   2.489   1.297  0.00  0.00     0.017 A 
ATOM      8  C8  DEN d   1       1.212   1.631   2.385  0.00  0.00    -0.094 A 
ATOM      9  C9  DEN d   1       0.144   1.454   3.247  0.00  0.00    -0.072 A 
ENDROOT
TORSDOF 0
ENDMDL
