MODEL 1
REMARK minimizedAffinity 10.2197475
REMARK minimizedRMSD -1
REMARK  0 active torsions:
REMARK  status: ('A' for Active; 'I' for Inactive)
ROOT
ATOM      1  C1  DEN d   1      -3.293   1.488  -1.349  0.00  0.00     0.130 A 
ATOM      2  C2  DEN d   1      -3.408   0.977   0.014  0.00  0.00    -0.031 A 
ATOM      3  C3  DEN d   1      -2.533  -0.206   0.133  0.00  0.00     0.027 A 
ATOM      4  C4  DEN d   1      -1.015  -1.288  -1.649  0.00  0.00     0.027 A 
ATOM      5  C5  DEN d   1      -0.593  -1.215  -2.959  0.00  0.00    -0.003 A 
ATOM      6  C6  DEN d   1      -1.063  -0.265  -3.826  0.00  0.00     0.001 A 
ATOM      7  C7  DEN d   1      -1.950   0.680  -3.381  0.00  0.00     0.017 A 
ATOM      8  C8  DEN d   1      -2.386   0.609  -2.064  0.00  0.00    -0.094 A 
ATOM      9  C9  DEN d   1      -1.889  -0.352  -1.200  0.00  0.00    -0.072 A 
ENDROOT
TORSDOF 0
ENDMDL
