MODEL 1
REMARK minimizedAffinity 12.4963675
REMARK minimizedRMSD -1
REMARK  0 active torsions:
REMARK  status: ('A' for Active; 'I' for Inactive)
ROOT
ATOM      1  C1  DEN d   1      -1.021   2.973   2.032  0.00  0.00     0.130 A 
ATOM      2  C2  DEN d   1       0.016   1.945   2.022  0.00  0.00    -0.031 A 
ATOM      3  C3  DEN d   1       0.995   2.296   0.974  0.00  0.00     0.027 A 
ATOM      4  C4  DEN d   1       1.010   4.323  -0.621  0.00  0.00     0.027 A 
ATOM      5  C5  DEN d   1       0.331   5.461  -0.996  0.00  0.00    -0.003 A 
ATOM      6  C6  DEN d   1      -0.854   5.829  -0.415  0.00  0.00     0.001 A 
ATOM      7  C7  DEN d   1      -1.374   5.075   0.603  0.00  0.00     0.017 A 
ATOM      8  C8  DEN d   1      -0.699   3.921   0.981  0.00  0.00    -0.094 A 
ATOM      9  C9  DEN d   1       0.504   3.573   0.391  0.00  0.00    -0.072 A 
ENDROOT
TORSDOF 0
ENDMDL
