MODEL 1
REMARK minimizedAffinity 19.3897667
REMARK minimizedRMSD -1
REMARK  0 active torsions:
REMARK  status: ('A' for Active; 'I' for Inactive)
ROOT
ATOM      1  C1  DEN d   1       6.000  -1.897  -1.878  0.00  0.00     0.130 A 
ATOM      2  C2  DEN d   1       5.521  -1.985  -0.502  0.00  0.00    -0.031 A 
ATOM      3  C3  DEN d   1       4.673  -3.189  -0.389  0.00  0.00     0.027 A 
ATOM      4  C4  DEN d   1       4.061  -4.918  -2.202  0.00  0.00     0.027 A 
ATOM      5  C5  DEN d   1       4.220  -5.259  -3.527  0.00  0.00    -0.003 A 
ATOM      6  C6  DEN d   1       4.950  -4.492  -4.396  0.00  0.00     0.001 A 
ATOM      7  C7  DEN d   1       5.585  -3.367  -3.940  0.00  0.00     0.017 A 
ATOM      8  C8  DEN d   1       5.424  -3.013  -2.607  0.00  0.00    -0.094 A 
ATOM      9  C9  DEN d   1       4.692  -3.808  -1.741  0.00  0.00    -0.072 A 
ENDROOT
TORSDOF 0
ENDMDL
