MODEL 1
REMARK minimizedAffinity 9.48215389
REMARK minimizedRMSD -1
REMARK  0 active torsions:
REMARK  status: ('A' for Active; 'I' for Inactive)
ROOT
ATOM      1  C1  DEN d   1      -0.659   6.000   0.790  0.00  0.00     0.130 A 
ATOM      2  C2  DEN d   1       0.240   6.000  -0.361  0.00  0.00    -0.031 A 
ATOM      3  C3  DEN d   1       0.975   4.719  -0.366  0.00  0.00     0.027 A 
ATOM      4  C4  DEN d   1       0.805   2.744   1.284  0.00  0.00     0.027 A 
ATOM      5  C5  DEN d   1       0.188   2.286   2.427  0.00  0.00    -0.003 A 
ATOM      6  C6  DEN d   1      -0.722   3.042   3.118  0.00  0.00     0.001 A 
ATOM      7  C7  DEN d   1      -1.075   4.279   2.647  0.00  0.00     0.017 A 
ATOM      8  C8  DEN d   1      -0.451   4.750   1.499  0.00  0.00    -0.094 A 
ATOM      9  C9  DEN d   1       0.457   3.966   0.808  0.00  0.00    -0.072 A 
ENDROOT
TORSDOF 0
ENDMDL
