MODEL 1
REMARK minimizedAffinity 15.274806
REMARK minimizedRMSD -1
REMARK  0 active torsions:
REMARK  status: ('A' for Active; 'I' for Inactive)
ROOT
ATOM      1  C1  DEN d   1      -0.805   4.030   0.304  0.00  0.00     0.130 A 
ATOM      2  C2  DEN d   1       0.325   4.897  -0.022  0.00  0.00    -0.031 A 
ATOM      3  C3  DEN d   1       1.444   4.545   0.875  0.00  0.00     0.027 A 
ATOM      4  C4  DEN d   1       1.538   2.750   2.725  0.00  0.00     0.027 A 
ATOM      5  C5  DEN d   1       0.820   1.773   3.378  0.00  0.00    -0.003 A 
ATOM      6  C6  DEN d   1      -0.490   1.505   3.078  0.00  0.00     0.001 A 
ATOM      7  C7  DEN d   1      -1.109   2.192   2.068  0.00  0.00     0.017 A 
ATOM      8  C8  DEN d   1      -0.394   3.184   1.409  0.00  0.00    -0.094 A 
ATOM      9  C9  DEN d   1       0.933   3.431   1.719  0.00  0.00    -0.072 A 
ENDROOT
TORSDOF 0
ENDMDL
