MODEL 1
REMARK minimizedAffinity 8.86509705
REMARK minimizedRMSD -1
REMARK  0 active torsions:
REMARK  status: ('A' for Active; 'I' for Inactive)
ROOT
ATOM      1  C1  DEN d   1       2.120  -1.079  -0.797  0.00  0.00     0.130 A 
ATOM      2  C2  DEN d   1       2.100  -0.844   0.644  0.00  0.00    -0.031 A 
ATOM      3  C3  DEN d   1       3.428  -1.199   1.183  0.00  0.00     0.027 A 
ATOM      4  C4  DEN d   1       5.504  -2.081  -0.067  0.00  0.00     0.027 A 
ATOM      5  C5  DEN d   1       5.999  -2.452  -1.298  0.00  0.00    -0.003 A 
ATOM      6  C6  DEN d   1       5.233  -2.424  -2.433  0.00  0.00     0.001 A 
ATOM      7  C7  DEN d   1       3.941  -1.973  -2.368  0.00  0.00     0.017 A 
ATOM      8  C8  DEN d   1       3.432  -1.604  -1.130  0.00  0.00    -0.094 A 
ATOM      9  C9  DEN d   1       4.226  -1.628   0.004  0.00  0.00    -0.072 A 
ENDROOT
TORSDOF 0
ENDMDL
