MODEL 1
REMARK minimizedAffinity 5.55418825
REMARK minimizedRMSD -1
REMARK  0 active torsions:
REMARK  status: ('A' for Active; 'I' for Inactive)
ROOT
ATOM      1  C1  DEN d   1       2.042   1.000   1.858  0.00  0.00     0.130 A 
ATOM      2  C2  DEN d   1       1.688   0.219   3.041  0.00  0.00    -0.031 A 
ATOM      3  C3  DEN d   1       0.345   0.645   3.484  0.00  0.00     0.027 A 
ATOM      4  C4  DEN d   1      -1.215   2.423   2.456  0.00  0.00     0.027 A 
ATOM      5  C5  DEN d   1      -1.345   3.357   1.452  0.00  0.00    -0.003 A 
ATOM      6  C6  DEN d   1      -0.350   3.592   0.540  0.00  0.00     0.001 A 
ATOM      7  C7  DEN d   1       0.803   2.853   0.587  0.00  0.00     0.017 A 
ATOM      8  C8  DEN d   1       0.944   1.915   1.602  0.00  0.00    -0.094 A 
ATOM      9  C9  DEN d   1      -0.078   1.683   2.506  0.00  0.00    -0.072 A 
ENDROOT
TORSDOF 0
ENDMDL
