MODEL 1
REMARK minimizedAffinity -2.14097977
REMARK minimizedRMSD -1
REMARK  0 active torsions:
REMARK  status: ('A' for Active; 'I' for Inactive)
ROOT
ATOM      1  C   UNL d   1      -0.466   2.548   1.962  0.00  0.00     0.078 C 
ATOM      2  C1  UNL d   1      -0.099   1.414   1.052  0.00  0.00    -0.077 A 
ATOM      3  C2  UNL d   1       0.469   0.238   1.558  0.00  0.00    -0.001 A 
ATOM      4  C3  UNL d   1       0.814  -0.806   0.698  0.00  0.00     0.003 A 
ATOM      5  C4  UNL d   1       0.597  -0.684  -0.673  0.00  0.00    -0.005 A 
ATOM      6  C5  UNL d   1       0.035   0.483  -1.186  0.00  0.00     0.003 A 
ATOM      7  C6  UNL d   1      -0.311   1.528  -0.328  0.00  0.00    -0.001 A 
ENDROOT
TORSDOF 0
ENDMDL
