MODEL 1
REMARK minimizedAffinity -1.34110963
REMARK minimizedRMSD -1
REMARK  0 active torsions:
REMARK  status: ('A' for Active; 'I' for Inactive)
ROOT
ATOM      1  C   UNL d   1      -1.733   2.155   1.153  0.00  0.00     0.078 C 
ATOM      2  C1  UNL d   1      -1.066   1.189   0.220  0.00  0.00    -0.077 A 
ATOM      3  C2  UNL d   1      -1.120   1.373  -1.167  0.00  0.00    -0.001 A 
ATOM      4  C3  UNL d   1      -0.503   0.461  -2.025  0.00  0.00     0.003 A 
ATOM      5  C4  UNL d   1       0.172  -0.641  -1.505  0.00  0.00    -0.005 A 
ATOM      6  C5  UNL d   1       0.229  -0.834  -0.127  0.00  0.00     0.003 A 
ATOM      7  C6  UNL d   1      -0.387   0.077   0.733  0.00  0.00    -0.001 A 
ENDROOT
TORSDOF 0
ENDMDL
