MODEL 1
REMARK minimizedAffinity -2.47880507
REMARK minimizedRMSD -1
REMARK  0 active torsions:
REMARK  status: ('A' for Active; 'I' for Inactive)
ROOT
ATOM      1  C   UNL d   1       1.472   3.111   2.690  0.00  0.00     0.078 C 
ATOM      2  C1  UNL d   1       0.551   2.104   2.068  0.00  0.00    -0.077 A 
ATOM      3  C2  UNL d   1      -0.813   2.375   1.907  0.00  0.00    -0.001 A 
ATOM      4  C3  UNL d   1      -1.659   1.424   1.336  0.00  0.00     0.003 A 
ATOM      5  C4  UNL d   1      -1.152   0.195   0.921  0.00  0.00    -0.005 A 
ATOM      6  C5  UNL d   1       0.204  -0.085   1.078  0.00  0.00     0.003 A 
ATOM      7  C6  UNL d   1       1.052   0.864   1.650  0.00  0.00    -0.001 A 
ENDROOT
TORSDOF 0
ENDMDL
