MODEL 1
REMARK minimizedAffinity -4.02043581
REMARK minimizedRMSD -1
REMARK  0 active torsions:
REMARK  status: ('A' for Active; 'I' for Inactive)
ROOT
ATOM      1  C   UNL d   1      -1.105   2.631   1.971  0.00  0.00     0.078 C 
ATOM      2  C1  UNL d   1      -0.512   1.507   1.175  0.00  0.00    -0.077 A 
ATOM      3  C2  UNL d   1       0.057   0.396   1.809  0.00  0.00    -0.001 A 
ATOM      4  C3  UNL d   1       0.614  -0.638   1.055  0.00  0.00     0.003 A 
ATOM      5  C4  UNL d   1       0.609  -0.571  -0.337  0.00  0.00    -0.005 A 
ATOM      6  C5  UNL d   1       0.046   0.532  -0.976  0.00  0.00     0.003 A 
ATOM      7  C6  UNL d   1      -0.511   1.567  -0.224  0.00  0.00    -0.001 A 
ENDROOT
TORSDOF 0
ENDMDL
