MODEL 1
REMARK minimizedAffinity -4.11449909
REMARK minimizedRMSD -1
REMARK  0 active torsions:
REMARK  status: ('A' for Active; 'I' for Inactive)
ROOT
ATOM      1  C   UNL d   1      -1.757   1.975   1.603  0.00  0.00     0.078 C 
ATOM      2  C1  UNL d   1      -0.736   1.198   0.828  0.00  0.00    -0.077 A 
ATOM      3  C2  UNL d   1      -0.654   1.304  -0.566  0.00  0.00    -0.001 A 
ATOM      4  C3  UNL d   1       0.296   0.567  -1.275  0.00  0.00     0.003 A 
ATOM      5  C4  UNL d   1       1.170  -0.282  -0.600  0.00  0.00    -0.005 A 
ATOM      6  C5  UNL d   1       1.095  -0.395   0.787  0.00  0.00     0.003 A 
ATOM      7  C6  UNL d   1       0.146   0.341   1.498  0.00  0.00    -0.001 A 
ENDROOT
TORSDOF 0
ENDMDL
