MODEL 1
REMARK minimizedAffinity -4.530725
REMARK minimizedRMSD -1
REMARK  0 active torsions:
REMARK  status: ('A' for Active; 'I' for Inactive)
ROOT
ATOM      1  C   UNL d   1       0.052  -1.314  -0.867  0.00  0.00     0.078 C 
ATOM      2  C1  UNL d   1      -0.390  -0.051  -0.190  0.00  0.00    -0.077 A 
ATOM      3  C2  UNL d   1      -1.104   0.930  -0.889  0.00  0.00    -0.001 A 
ATOM      4  C3  UNL d   1      -1.501   2.105  -0.248  0.00  0.00     0.003 A 
ATOM      5  C4  UNL d   1      -1.186   2.311   1.094  0.00  0.00    -0.005 A 
ATOM      6  C5  UNL d   1      -0.473   1.342   1.796  0.00  0.00     0.003 A 
ATOM      7  C6  UNL d   1      -0.076   0.166   1.157  0.00  0.00    -0.001 A 
ENDROOT
TORSDOF 0
ENDMDL
