MODEL 1
REMARK minimizedAffinity -2.91596508
REMARK minimizedRMSD -1
REMARK  0 active torsions:
REMARK  status: ('A' for Active; 'I' for Inactive)
ROOT
ATOM      1  C   UNL d   1      -0.560  -3.819  -1.547  0.00  0.00     0.078 C 
ATOM      2  C1  UNL d   1      -0.310  -2.523  -0.835  0.00  0.00    -0.077 A 
ATOM      3  C2  UNL d   1       0.368  -1.473  -1.467  0.00  0.00    -0.001 A 
ATOM      4  C3  UNL d   1       0.602  -0.276  -0.789  0.00  0.00     0.003 A 
ATOM      5  C4  UNL d   1       0.163  -0.117   0.524  0.00  0.00    -0.005 A 
ATOM      6  C5  UNL d   1      -0.511  -1.157   1.161  0.00  0.00     0.003 A 
ATOM      7  C6  UNL d   1      -0.746  -2.356   0.485  0.00  0.00    -0.001 A 
ENDROOT
TORSDOF 0
ENDMDL
