MODEL 1
REMARK minimizedAffinity -2.97050285
REMARK minimizedRMSD -1
REMARK  0 active torsions:
REMARK  status: ('A' for Active; 'I' for Inactive)
ROOT
ATOM      1  C   UNL d   1       1.138  -2.131  -0.685  0.00  0.00     0.078 C 
ATOM      2  C1  UNL d   1       0.548  -0.753  -0.731  0.00  0.00    -0.077 A 
ATOM      3  C2  UNL d   1      -0.273  -0.286   0.302  0.00  0.00    -0.001 A 
ATOM      4  C3  UNL d   1      -0.824   0.996   0.241  0.00  0.00     0.003 A 
ATOM      5  C4  UNL d   1      -0.560   1.819  -0.851  0.00  0.00    -0.005 A 
ATOM      6  C5  UNL d   1       0.254   1.362  -1.885  0.00  0.00     0.003 A 
ATOM      7  C6  UNL d   1       0.806   0.081  -1.826  0.00  0.00    -0.001 A 
ENDROOT
TORSDOF 0
ENDMDL
