MODEL 1
REMARK minimizedAffinity -0.884994388
REMARK minimizedRMSD -1
REMARK  0 active torsions:
REMARK  status: ('A' for Active; 'I' for Inactive)
ROOT
ATOM      1  C   UNL d   1      -0.154   1.156  -1.575  0.00  0.00     0.078 C 
ATOM      2  C1  UNL d   1      -0.211   1.302  -0.084  0.00  0.00    -0.077 A 
ATOM      3  C2  UNL d   1      -0.511   2.534   0.510  0.00  0.00    -0.001 A 
ATOM      4  C3  UNL d   1      -0.550   2.658   1.899  0.00  0.00     0.003 A 
ATOM      5  C4  UNL d   1      -0.289   1.553   2.708  0.00  0.00    -0.005 A 
ATOM      6  C5  UNL d   1       0.012   0.323   2.126  0.00  0.00     0.003 A 
ATOM      7  C6  UNL d   1       0.052   0.198   0.737  0.00  0.00    -0.001 A 
ENDROOT
TORSDOF 0
ENDMDL
