MODEL 1
REMARK minimizedAffinity -5.83911371
REMARK minimizedRMSD -1
REMARK  1 active torsions:
REMARK  status: ('A' for Active; 'I' for Inactive)
REMARK    1  A    between atoms: C1_2  and  C2_3 
ROOT
ATOM      1  C2  UNL d   1       0.815   0.272   0.040  0.00  0.00    -0.076 A 
ATOM      2  C3  UNL d   1       1.886   0.989   0.601  0.00  0.00     0.004 A 
ATOM      3  C4  UNL d   1       3.088   0.356   0.913  0.00  0.00    -0.003 A 
ATOM      4  C5  UNL d   1       3.239  -1.004   0.668  0.00  0.00     0.000 A 
ATOM      5  C6  UNL d   1       2.193  -1.728   0.096  0.00  0.00     0.000 A 
ATOM      6  C7  UNL d   1       0.981  -1.102  -0.239  0.00  0.00    -0.073 A 
ATOM      7  C8  UNL d   1      -0.116  -1.931  -0.849  0.00  0.00     0.078 C 
ENDROOT
BRANCH   1   8
ATOM      8  C1  UNL d   1      -0.474   1.006  -0.251  0.00  0.00     0.053 C 
ATOM      9  C   UNL d   1      -1.563   0.697   0.765  0.00  0.00     0.018 C 
ENDBRANCH   1   8
TORSDOF 1
ENDMDL
