MODEL 1
REMARK minimizedAffinity -4.09864902
REMARK minimizedRMSD -1
REMARK  1 active torsions:
REMARK  status: ('A' for Active; 'I' for Inactive)
REMARK    1  A    between atoms: C1_2  and  C2_3 
ROOT
ATOM      1  C2  UNL d   1       0.387   0.377   0.035  0.00  0.00    -0.076 A 
ATOM      2  C3  UNL d   1       0.269  -1.017  -0.099  0.00  0.00     0.004 A 
ATOM      3  C4  UNL d   1       1.371  -1.851   0.081  0.00  0.00    -0.003 A 
ATOM      4  C5  UNL d   1       2.609  -1.304   0.400  0.00  0.00     0.000 A 
ATOM      5  C6  UNL d   1       2.740   0.076   0.555  0.00  0.00     0.000 A 
ATOM      6  C7  UNL d   1       1.636   0.929   0.392  0.00  0.00    -0.073 A 
ATOM      7  C8  UNL d   1       1.836   2.410   0.565  0.00  0.00     0.078 C 
ENDROOT
BRANCH   1   8
ATOM      8  C1  UNL d   1      -0.837   1.234  -0.199  0.00  0.00     0.053 C 
ATOM      9  C   UNL d   1      -2.107   0.595   0.341  0.00  0.00     0.018 C 
ENDBRANCH   1   8
TORSDOF 1
ENDMDL
