MODEL 1
REMARK minimizedAffinity -5.57778931
REMARK minimizedRMSD -1
REMARK  1 active torsions:
REMARK  status: ('A' for Active; 'I' for Inactive)
REMARK    1  A    between atoms: C1_2  and  C2_3 
ROOT
ATOM      1  C2  UNL d   1       0.158   0.225  -0.054  0.00  0.00    -0.076 A 
ATOM      2  C3  UNL d   1       1.084   1.220   0.304  0.00  0.00     0.004 A 
ATOM      3  C4  UNL d   1       2.403   0.894   0.615  0.00  0.00    -0.003 A 
ATOM      4  C5  UNL d   1       2.818  -0.433   0.572  0.00  0.00     0.000 A 
ATOM      5  C6  UNL d   1       1.918  -1.431   0.202  0.00  0.00     0.000 A 
ATOM      6  C7  UNL d   1       0.588  -1.117  -0.130  0.00  0.00    -0.073 A 
ATOM      7  C8  UNL d   1      -0.342  -2.234  -0.517  0.00  0.00     0.078 C 
ENDROOT
BRANCH   1   8
ATOM      8  C1  UNL d   1      -1.266   0.635  -0.354  0.00  0.00     0.053 C 
ATOM      9  C   UNL d   1      -2.110   0.773   0.903  0.00  0.00     0.018 C 
ENDBRANCH   1   8
TORSDOF 1
ENDMDL
