MODEL 1
REMARK minimizedAffinity -4.1370163
REMARK minimizedRMSD -1
REMARK  1 active torsions:
REMARK  status: ('A' for Active; 'I' for Inactive)
REMARK    1  A    between atoms: C1_2  and  C2_3 
ROOT
ATOM      1  C2  UNL d   1       0.501   0.176  -0.379  0.00  0.00    -0.076 A 
ATOM      2  C3  UNL d   1       1.395   1.108   0.176  0.00  0.00     0.004 A 
ATOM      3  C4  UNL d   1       2.632   0.705   0.677  0.00  0.00    -0.003 A 
ATOM      4  C5  UNL d   1       2.995  -0.637   0.630  0.00  0.00     0.000 A 
ATOM      5  C6  UNL d   1       2.128  -1.572   0.067  0.00  0.00     0.000 A 
ATOM      6  C7  UNL d   1       0.884  -1.180  -0.457  0.00  0.00    -0.073 A 
ATOM      7  C8  UNL d   1      -0.014  -2.233  -1.047  0.00  0.00     0.078 C 
ENDROOT
BRANCH   1   8
ATOM      8  C1  UNL d   1      -0.837   0.667  -0.882  0.00  0.00     0.053 C 
ATOM      9  C   UNL d   1      -1.929   0.566   0.172  0.00  0.00     0.018 C 
ENDBRANCH   1   8
TORSDOF 1
ENDMDL
