MODEL 1
REMARK minimizedAffinity -4.69789028
REMARK minimizedRMSD -1
REMARK  1 active torsions:
REMARK  status: ('A' for Active; 'I' for Inactive)
REMARK    1  A    between atoms: C1_2  and  C2_3 
ROOT
ATOM      1  C2  UNL d   1       0.217   0.024  -0.375  0.00  0.00    -0.076 A 
ATOM      2  C3  UNL d   1       1.091   0.976   0.178  0.00  0.00     0.004 A 
ATOM      3  C4  UNL d   1       2.443   0.689   0.358  0.00  0.00    -0.003 A 
ATOM      4  C5  UNL d   1       2.943  -0.555  -0.012  0.00  0.00     0.000 A 
ATOM      5  C6  UNL d   1       2.093  -1.505  -0.579  0.00  0.00     0.000 A 
ATOM      6  C7  UNL d   1       0.731  -1.226  -0.782  0.00  0.00    -0.073 A 
ATOM      7  C8  UNL d   1      -0.141  -2.289  -1.391  0.00  0.00     0.078 C 
ENDROOT
BRANCH   1   8
ATOM      8  C1  UNL d   1      -1.245   0.382  -0.521  0.00  0.00     0.053 C 
ATOM      9  C   UNL d   1      -1.989   0.346   0.805  0.00  0.00     0.018 C 
ENDBRANCH   1   8
TORSDOF 1
ENDMDL
