MODEL 1
REMARK minimizedAffinity -4.59098005
REMARK minimizedRMSD -1
REMARK  1 active torsions:
REMARK  status: ('A' for Active; 'I' for Inactive)
REMARK    1  A    between atoms: C1_2  and  C2_3 
ROOT
ATOM      1  C2  UNL d   1      -0.491  -0.238   0.126  0.00  0.00    -0.076 A 
ATOM      2  C3  UNL d   1       0.326   0.899   0.248  0.00  0.00     0.004 A 
ATOM      3  C4  UNL d   1       1.704   0.816   0.059  0.00  0.00    -0.003 A 
ATOM      4  C5  UNL d   1       2.288  -0.406  -0.256  0.00  0.00     0.000 A 
ATOM      5  C6  UNL d   1       1.491  -1.542  -0.398  0.00  0.00     0.000 A 
ATOM      6  C7  UNL d   1       0.098  -1.472  -0.227  0.00  0.00    -0.073 A 
ATOM      7  C8  UNL d   1      -0.713  -2.728  -0.386  0.00  0.00     0.078 C 
ENDROOT
BRANCH   1   8
ATOM      8  C1  UNL d   1      -1.976  -0.093   0.369  0.00  0.00     0.053 C 
ATOM      9  C   UNL d   1      -2.286   0.761   1.590  0.00  0.00     0.018 C 
ENDBRANCH   1   8
TORSDOF 1
ENDMDL
