MODEL 1
REMARK minimizedAffinity -2.58087468
REMARK minimizedRMSD -1
REMARK  1 active torsions:
REMARK  status: ('A' for Active; 'I' for Inactive)
REMARK    1  A    between atoms: C1_2  and  C2_3 
ROOT
ATOM      1  C2  UNL d   1       0.068  -0.063  -0.082  0.00  0.00    -0.076 A 
ATOM      2  C3  UNL d   1      -0.011  -1.463  -0.191  0.00  0.00     0.004 A 
ATOM      3  C4  UNL d   1       1.128  -2.257  -0.064  0.00  0.00    -0.003 A 
ATOM      4  C5  UNL d   1       2.363  -1.665   0.175  0.00  0.00     0.000 A 
ATOM      5  C6  UNL d   1       2.456  -0.280   0.304  0.00  0.00     0.000 A 
ATOM      6  C7  UNL d   1       1.316   0.534   0.195  0.00  0.00    -0.073 A 
ATOM      7  C8  UNL d   1       1.475   2.023   0.336  0.00  0.00     0.078 C 
ENDROOT
BRANCH   1   8
ATOM      8  C1  UNL d   1      -1.196   0.748  -0.255  0.00  0.00     0.053 C 
ATOM      9  C   UNL d   1      -2.247   0.423   0.795  0.00  0.00     0.018 C 
ENDBRANCH   1   8
TORSDOF 1
ENDMDL
