MODEL 1
REMARK minimizedAffinity 5.01032019
REMARK minimizedRMSD -1
REMARK  0 active torsions:
REMARK  status: ('A' for Active; 'I' for Inactive)
ROOT
ATOM      1  N1  IND d   1       4.954   3.104  -0.496  0.00  0.00    -0.196 N 
ATOM      2  C2  IND d   1       4.040   2.218   0.001  0.00  0.00     0.054 A 
ATOM      3  C3  IND d   1       3.660   2.583   1.247  0.00  0.00    -0.031 A 
ATOM      4  C4  IND d   1       4.333   4.653   2.620  0.00  0.00     0.051 A 
ATOM      5  C5  IND d   1       5.170   5.733   2.601  0.00  0.00    -0.031 A 
ATOM      6  C6  IND d   1       5.992   6.000   1.525  0.00  0.00     0.015 A 
ATOM      7  C7  IND d   1       6.000   5.198   0.419  0.00  0.00    -0.016 A 
ATOM      8  C8  IND d   1       5.156   4.096   0.438  0.00  0.00    -0.047 A 
ATOM      9  C9  IND d   1       4.351   3.797   1.545  0.00  0.00    -0.096 A 
ATOM     10  HN1 IND d   1       5.337   3.052  -1.264  0.00  0.00     0.298 HD
ENDROOT
TORSDOF 0
ENDMDL
