MODEL 1
REMARK minimizedAffinity 0.400340259
REMARK minimizedRMSD -1
REMARK  0 active torsions:
REMARK  status: ('A' for Active; 'I' for Inactive)
ROOT
ATOM      1  N1  IND d   1       0.251   0.906   0.004  0.00  0.00    -0.196 N 
ATOM      2  C2  IND d   1       0.135  -0.240  -0.733  0.00  0.00     0.054 A 
ATOM      3  C3  IND d   1      -0.758  -1.079  -0.160  0.00  0.00    -0.031 A 
ATOM      4  C4  IND d   1      -2.220  -0.734   1.930  0.00  0.00     0.051 A 
ATOM      5  C5  IND d   1      -2.440   0.139   2.958  0.00  0.00    -0.031 A 
ATOM      6  C6  IND d   1      -1.763   1.338   3.055  0.00  0.00     0.015 A 
ATOM      7  C7  IND d   1      -0.845   1.715   2.116  0.00  0.00    -0.016 A 
ATOM      8  C8  IND d   1      -0.613   0.828   1.075  0.00  0.00    -0.047 A 
ATOM      9  C9  IND d   1      -1.266  -0.409   0.995  0.00  0.00    -0.096 A 
ATOM     10  HN1 IND d   1       0.775   1.564  -0.171  0.00  0.00     0.298 HD
ENDROOT
TORSDOF 0
ENDMDL
