MODEL 1
REMARK minimizedAffinity -4.89036179
REMARK minimizedRMSD -1
REMARK  0 active torsions:
REMARK  status: ('A' for Active; 'I' for Inactive)
ROOT
ATOM      1  N1  IND d   1      -0.347   0.920  -0.196  0.00  0.00    -0.196 N 
ATOM      2  C2  IND d   1      -1.187  -0.041   0.294  0.00  0.00     0.054 A 
ATOM      3  C3  IND d   1      -0.585  -1.251   0.265  0.00  0.00    -0.031 A 
ATOM      4  C4  IND d   1       1.809  -1.870  -0.449  0.00  0.00     0.051 A 
ATOM      5  C5  IND d   1       2.940  -1.338  -1.002  0.00  0.00    -0.031 A 
ATOM      6  C6  IND d   1       3.036   0.002  -1.319  0.00  0.00     0.015 A 
ATOM      7  C7  IND d   1       2.003   0.865  -1.083  0.00  0.00    -0.016 A 
ATOM      8  C8  IND d   1       0.851   0.327  -0.527  0.00  0.00    -0.047 A 
ATOM      9  C9  IND d   1       0.733  -1.040  -0.243  0.00  0.00    -0.096 A 
ATOM     10  HN1 IND d   1      -0.535   1.754  -0.282  0.00  0.00     0.298 HD
ENDROOT
TORSDOF 0
ENDMDL
