MODEL 1
REMARK minimizedAffinity -2.98578119
REMARK minimizedRMSD -1
REMARK  0 active torsions:
REMARK  status: ('A' for Active; 'I' for Inactive)
ROOT
ATOM      1  N1  IND d   1      -0.834   0.296  -0.030  0.00  0.00    -0.196 N 
ATOM      2  C2  IND d   1      -0.603   1.605   0.290  0.00  0.00     0.054 A 
ATOM      3  C3  IND d   1       0.688   1.927   0.049  0.00  0.00    -0.031 A 
ATOM      4  C4  IND d   1       2.570   0.492  -0.964  0.00  0.00     0.051 A 
ATOM      5  C5  IND d   1       2.850  -0.779  -1.382  0.00  0.00    -0.031 A 
ATOM      6  C6  IND d   1       1.896  -1.776  -1.373  0.00  0.00     0.015 A 
ATOM      7  C7  IND d   1       0.618  -1.535  -0.954  0.00  0.00    -0.016 A 
ATOM      8  C8  IND d   1       0.332  -0.248  -0.523  0.00  0.00    -0.047 A 
ATOM      9  C9  IND d   1       1.307   0.758  -0.490  0.00  0.00    -0.096 A 
ATOM     10  HN1 IND d   1      -1.582  -0.118   0.061  0.00  0.00     0.298 HD
ENDROOT
TORSDOF 0
ENDMDL
