MODEL 1
REMARK minimizedAffinity 2.40197492
REMARK minimizedRMSD -1
REMARK  0 active torsions:
REMARK  status: ('A' for Active; 'I' for Inactive)
ROOT
ATOM      1  N1  IND d   1      -0.692  -1.617  -0.546  0.00  0.00    -0.196 N 
ATOM      2  C2  IND d   1      -1.257  -0.936   0.496  0.00  0.00     0.054 A 
ATOM      3  C3  IND d   1      -0.423   0.036   0.929  0.00  0.00    -0.031 A 
ATOM      4  C4  IND d   1       1.873   0.751   0.009  0.00  0.00     0.051 A 
ATOM      5  C5  IND d   1       2.820   0.403  -0.913  0.00  0.00    -0.031 A 
ATOM      6  C6  IND d   1       2.640  -0.656  -1.779  0.00  0.00     0.015 A 
ATOM      7  C7  IND d   1       1.496  -1.403  -1.763  0.00  0.00    -0.016 A 
ATOM      8  C8  IND d   1       0.535  -1.057  -0.823  0.00  0.00    -0.047 A 
ATOM      9  C9  IND d   1       0.730  -0.009   0.086  0.00  0.00    -0.096 A 
ATOM     10  HN1 IND d   1      -1.045  -2.284  -0.959  0.00  0.00     0.298 HD
ENDROOT
TORSDOF 0
ENDMDL
