MODEL 1
REMARK minimizedAffinity -4.82712603
REMARK minimizedRMSD -1
REMARK  0 active torsions:
REMARK  status: ('A' for Active; 'I' for Inactive)
ROOT
ATOM      1  N1  IND d   1       2.568  -1.734  -1.713  0.00  0.00    -0.196 N 
ATOM      2  C2  IND d   1       3.453  -0.767  -2.102  0.00  0.00     0.054 A 
ATOM      3  C3  IND d   1       2.987   0.458  -1.770  0.00  0.00    -0.031 A 
ATOM      4  C4  IND d   1       0.847   1.103  -0.494  0.00  0.00     0.051 A 
ATOM      5  C5  IND d   1      -0.294   0.569   0.036  0.00  0.00    -0.031 A 
ATOM      6  C6  IND d   1      -0.543  -0.788   0.011  0.00  0.00     0.015 A 
ATOM      7  C7  IND d   1       0.349  -1.667  -0.537  0.00  0.00    -0.016 A 
ATOM      8  C8  IND d   1       1.505  -1.127  -1.081  0.00  0.00    -0.047 A 
ATOM      9  C9  IND d   1       1.744   0.254  -1.097  0.00  0.00    -0.096 A 
ATOM     10  HN1 IND d   1       2.660  -2.579  -1.842  0.00  0.00     0.298 HD
ENDROOT
TORSDOF 0
ENDMDL
