MODEL 1
REMARK minimizedAffinity -5.2018733
REMARK minimizedRMSD -1
REMARK  0 active torsions:
REMARK  status: ('A' for Active; 'I' for Inactive)
ROOT
ATOM      1  N1  IND d   1      -3.261  -1.113   4.622  0.00  0.00    -0.196 N 
ATOM      2  C2  IND d   1      -3.560  -2.191   3.836  0.00  0.00     0.054 A 
ATOM      3  C3  IND d   1      -3.170  -1.966   2.561  0.00  0.00    -0.031 A 
ATOM      4  C4  IND d   1      -1.929   0.056   1.563  0.00  0.00     0.051 A 
ATOM      5  C5  IND d   1      -1.472   1.304   1.882  0.00  0.00    -0.031 A 
ATOM      6  C6  IND d   1      -1.588   1.819   3.157  0.00  0.00     0.015 A 
ATOM      7  C7  IND d   1      -2.157   1.098   4.167  0.00  0.00    -0.016 A 
ATOM      8  C8  IND d   1      -2.629  -0.167   3.846  0.00  0.00    -0.047 A 
ATOM      9  C9  IND d   1      -2.552  -0.678   2.544  0.00  0.00    -0.096 A 
ATOM     10  HN1 IND d   1      -3.437  -1.039   5.460  0.00  0.00     0.298 HD
ENDROOT
TORSDOF 0
ENDMDL
