MODEL 1
REMARK minimizedAffinity -4.57968903
REMARK minimizedRMSD -1
REMARK  0 active torsions:
REMARK  status: ('A' for Active; 'I' for Inactive)
ROOT
ATOM      1  N1  IND d   1       1.913  -1.179   0.436  0.00  0.00    -0.196 N 
ATOM      2  C2  IND d   1       2.907  -0.926  -0.468  0.00  0.00     0.054 A 
ATOM      3  C3  IND d   1       2.480  -0.051  -1.405  0.00  0.00    -0.031 A 
ATOM      4  C4  IND d   1       0.221   1.170  -1.593  0.00  0.00     0.051 A 
ATOM      5  C5  IND d   1      -1.018   1.237  -1.021  0.00  0.00    -0.031 A 
ATOM      6  C6  IND d   1      -1.350   0.489   0.090  0.00  0.00     0.015 A 
ATOM      7  C7  IND d   1      -0.446  -0.350   0.679  0.00  0.00    -0.016 A 
ATOM      8  C8  IND d   1       0.811  -0.425   0.097  0.00  0.00    -0.047 A 
ATOM      9  C9  IND d   1       1.140   0.300  -1.056  0.00  0.00    -0.096 A 
ATOM     10  HN1 IND d   1       1.967  -1.719   1.103  0.00  0.00     0.298 HD
ENDROOT
TORSDOF 0
ENDMDL
