MODEL 1
REMARK minimizedAffinity -5.83352518
REMARK minimizedRMSD -1
REMARK  0 active torsions:
REMARK  status: ('A' for Active; 'I' for Inactive)
ROOT
ATOM      1  N1  IND d   1      -1.098   1.914  -1.119  0.00  0.00    -0.196 N 
ATOM      2  C2  IND d   1      -1.732   1.167  -0.166  0.00  0.00     0.054 A 
ATOM      3  C3  IND d   1      -0.915   0.190   0.286  0.00  0.00    -0.031 A 
ATOM      4  C4  IND d   1       1.536  -0.306  -0.326  0.00  0.00     0.051 A 
ATOM      5  C5  IND d   1       2.534   0.082  -1.176  0.00  0.00    -0.031 A 
ATOM      6  C6  IND d   1       2.369   1.123  -2.067  0.00  0.00     0.015 A 
ATOM      7  C7  IND d   1       1.199   1.826  -2.133  0.00  0.00    -0.016 A 
ATOM      8  C8  IND d   1       0.182   1.430  -1.276  0.00  0.00    -0.047 A 
ATOM      9  C9  IND d   1       0.329   0.347  -0.400  0.00  0.00    -0.096 A 
ATOM     10  HN1 IND d   1      -1.442   2.575  -1.549  0.00  0.00     0.298 HD
ENDROOT
TORSDOF 0
ENDMDL
