MODEL 1
REMARK minimizedAffinity -3.30443788
REMARK minimizedRMSD -1
REMARK  0 active torsions:
REMARK  status: ('A' for Active; 'I' for Inactive)
ROOT
ATOM      1  N1  IND d   1      -0.138   0.750  -0.316  0.00  0.00    -0.196 N 
ATOM      2  C2  IND d   1      -0.798  -0.291   0.275  0.00  0.00     0.054 A 
ATOM      3  C3  IND d   1      -0.070  -1.426   0.178  0.00  0.00    -0.031 A 
ATOM      4  C4  IND d   1       2.276  -1.784  -0.820  0.00  0.00     0.051 A 
ATOM      5  C5  IND d   1       3.263  -1.137  -1.509  0.00  0.00    -0.031 A 
ATOM      6  C6  IND d   1       3.167   0.199  -1.839  0.00  0.00     0.015 A 
ATOM      7  C7  IND d   1       2.080   0.945  -1.481  0.00  0.00    -0.016 A 
ATOM      8  C8  IND d   1       1.072   0.290  -0.788  0.00  0.00    -0.047 A 
ATOM      9  C9  IND d   1       1.145  -1.076  -0.487  0.00  0.00    -0.096 A 
ATOM     10  HN1 IND d   1      -0.429   1.557  -0.381  0.00  0.00     0.298 HD
ENDROOT
TORSDOF 0
ENDMDL
