MODEL 1
REMARK minimizedAffinity -5.3932476
REMARK minimizedRMSD -1
REMARK  0 active torsions:
REMARK  status: ('A' for Active; 'I' for Inactive)
ROOT
ATOM      1  N1  IND d   1       0.256  -0.654  -0.171  0.00  0.00    -0.196 N 
ATOM      2  C2  IND d   1       0.947  -1.830  -0.073  0.00  0.00     0.054 A 
ATOM      3  C3  IND d   1       2.077  -1.775  -0.811  0.00  0.00    -0.031 A 
ATOM      4  C4  IND d   1       3.044   0.180  -2.179  0.00  0.00     0.051 A 
ATOM      5  C5  IND d   1       2.754   1.448  -2.600  0.00  0.00    -0.031 A 
ATOM      6  C6  IND d   1       1.594   2.094  -2.222  0.00  0.00     0.015 A 
ATOM      7  C7  IND d   1       0.683   1.498  -1.397  0.00  0.00    -0.016 A 
ATOM      8  C8  IND d   1       0.971   0.208  -0.974  0.00  0.00    -0.047 A 
ATOM      9  C9  IND d   1       2.126  -0.469  -1.388  0.00  0.00    -0.096 A 
ATOM     10  HN1 IND d   1      -0.497  -0.481   0.205  0.00  0.00     0.298 HD
ENDROOT
TORSDOF 0
ENDMDL
