MODEL 1
REMARK minimizedAffinity -6.12905264
REMARK minimizedRMSD -1
REMARK  0 active torsions:
REMARK  status: ('A' for Active; 'I' for Inactive)
ROOT
ATOM      1  N1  IND d   1      -0.859   0.932  -0.504  0.00  0.00    -0.196 N 
ATOM      2  C2  IND d   1      -0.983   0.027   0.514  0.00  0.00     0.054 A 
ATOM      3  C3  IND d   1       0.135  -0.727   0.611  0.00  0.00    -0.031 A 
ATOM      4  C4  IND d   1       2.328  -0.582  -0.730  0.00  0.00     0.051 A 
ATOM      5  C5  IND d   1       2.902   0.063  -1.789  0.00  0.00    -0.031 A 
ATOM      6  C6  IND d   1       2.240   1.052  -2.486  0.00  0.00     0.015 A 
ATOM      7  C7  IND d   1       0.977   1.443  -2.142  0.00  0.00    -0.016 A 
ATOM      8  C8  IND d   1       0.388   0.786  -1.071  0.00  0.00    -0.047 A 
ATOM      9  C9  IND d   1       1.039  -0.249  -0.386  0.00  0.00    -0.096 A 
ATOM     10  HN1 IND d   1      -1.459   1.497  -0.749  0.00  0.00     0.298 HD
ENDROOT
TORSDOF 0
ENDMDL
