MODEL 1
REMARK minimizedAffinity -4.27097893
REMARK minimizedRMSD -1
REMARK  0 active torsions:
REMARK  status: ('A' for Active; 'I' for Inactive)
ROOT
ATOM      1  N1  IND d   1      -0.642   0.763  -0.258  0.00  0.00    -0.196 N 
ATOM      2  C2  IND d   1      -0.935  -0.404   0.390  0.00  0.00     0.054 A 
ATOM      3  C3  IND d   1       0.064  -1.299   0.223  0.00  0.00    -0.031 A 
ATOM      4  C4  IND d   1       2.319  -1.025  -0.989  0.00  0.00     0.051 A 
ATOM      5  C5  IND d   1       3.025  -0.150  -1.766  0.00  0.00    -0.031 A 
ATOM      6  C6  IND d   1       2.536   1.101  -2.084  0.00  0.00     0.015 A 
ATOM      7  C7  IND d   1       1.322   1.529  -1.625  0.00  0.00    -0.016 A 
ATOM      8  C8  IND d   1       0.599   0.640  -0.842  0.00  0.00    -0.047 A 
ATOM      9  C9  IND d   1       1.072  -0.646  -0.552  0.00  0.00    -0.096 A 
ATOM     10  HN1 IND d   1      -1.148   1.457  -0.295  0.00  0.00     0.298 HD
ENDROOT
TORSDOF 0
ENDMDL
