MODEL 1
REMARK minimizedAffinity -4.6312604
REMARK minimizedRMSD -1
REMARK  0 active torsions:
REMARK  status: ('A' for Active; 'I' for Inactive)
ROOT
ATOM      1  N1  IND d   1       3.073  -0.981  -1.022  0.00  0.00    -0.196 N 
ATOM      2  C2  IND d   1       3.545   0.148  -0.413  0.00  0.00     0.054 A 
ATOM      3  C3  IND d   1       2.531   0.827   0.169  0.00  0.00    -0.031 A 
ATOM      4  C4  IND d   1       0.036   0.215   0.336  0.00  0.00     0.051 A 
ATOM      5  C5  IND d   1      -0.879  -0.703  -0.095  0.00  0.00    -0.031 A 
ATOM      6  C6  IND d   1      -0.516  -1.785  -0.871  0.00  0.00     0.015 A 
ATOM      7  C7  IND d   1       0.784  -1.995  -1.237  0.00  0.00    -0.016 A 
ATOM      8  C8  IND d   1       1.715  -1.061  -0.806  0.00  0.00    -0.047 A 
ATOM      9  C9  IND d   1       1.346   0.062  -0.054  0.00  0.00    -0.096 A 
ATOM     10  HN1 IND d   1       3.545  -1.547  -1.465  0.00  0.00     0.298 HD
ENDROOT
TORSDOF 0
ENDMDL
