MODEL 1
REMARK minimizedAffinity -4.71533251
REMARK minimizedRMSD -1
REMARK  0 active torsions:
REMARK  status: ('A' for Active; 'I' for Inactive)
ROOT
ATOM      1  N1  IND d   1      -0.207   1.119   0.513  0.00  0.00    -0.196 N 
ATOM      2  C2  IND d   1      -1.155   0.293   1.049  0.00  0.00     0.054 A 
ATOM      3  C3  IND d   1      -1.030  -0.956   0.545  0.00  0.00    -0.031 A 
ATOM      4  C4  IND d   1       0.723  -1.890  -1.092  0.00  0.00     0.051 A 
ATOM      5  C5  IND d   1       1.771  -1.508  -1.883  0.00  0.00    -0.031 A 
ATOM      6  C6  IND d   1       2.223  -0.205  -1.914  0.00  0.00     0.015 A 
ATOM      7  C7  IND d   1       1.650   0.767  -1.143  0.00  0.00    -0.016 A 
ATOM      8  C8  IND d   1       0.582   0.384  -0.344  0.00  0.00    -0.047 A 
ATOM      9  C9  IND d   1       0.091  -0.928  -0.341  0.00  0.00    -0.096 A 
ATOM     10  HN1 IND d   1      -0.118   1.957   0.683  0.00  0.00     0.298 HD
ENDROOT
TORSDOF 0
ENDMDL
