MODEL 1
REMARK minimizedAffinity -5.59093332
REMARK minimizedRMSD -1
REMARK  0 active torsions:
REMARK  status: ('A' for Active; 'I' for Inactive)
ROOT
ATOM      1  N1  IND d   1      -0.999  -1.366  -0.515  0.00  0.00    -0.196 N 
ATOM      2  C2  IND d   1      -1.480  -0.467   0.394  0.00  0.00     0.054 A 
ATOM      3  C3  IND d   1      -0.476   0.302   0.872  0.00  0.00    -0.031 A 
ATOM      4  C4  IND d   1       2.016   0.325   0.226  0.00  0.00     0.051 A 
ATOM      5  C5  IND d   1       2.938  -0.338  -0.535  0.00  0.00    -0.031 A 
ATOM      6  C6  IND d   1       2.587  -1.398  -1.346  0.00  0.00     0.015 A 
ATOM      7  C7  IND d   1       1.293  -1.828  -1.436  0.00  0.00    -0.016 A 
ATOM      8  C8  IND d   1       0.356  -1.162  -0.660  0.00  0.00    -0.047 A 
ATOM      9  C9  IND d   1       0.713  -0.113   0.198  0.00  0.00    -0.096 A 
ATOM     10  HN1 IND d   1      -1.464  -1.961  -0.927  0.00  0.00     0.298 HD
ENDROOT
TORSDOF 0
ENDMDL
