MODEL 1
REMARK minimizedAffinity 3.02878523
REMARK minimizedRMSD -1
REMARK  0 active torsions:
REMARK  status: ('A' for Active; 'I' for Inactive)
ROOT
ATOM      1  N1  IND d   1      -4.116  -1.121   5.062  0.00  0.00    -0.196 N 
ATOM      2  C2  IND d   1      -4.262  -2.345   4.469  0.00  0.00     0.054 A 
ATOM      3  C3  IND d   1      -3.651  -2.360   3.264  0.00  0.00    -0.031 A 
ATOM      4  C4  IND d   1      -2.266  -0.522   2.109  0.00  0.00     0.051 A 
ATOM      5  C5  IND d   1      -1.882   0.782   2.244  0.00  0.00    -0.031 A 
ATOM      6  C6  IND d   1      -2.228   1.533   3.349  0.00  0.00     0.015 A 
ATOM      7  C7  IND d   1      -2.964   1.002   4.370  0.00  0.00    -0.016 A 
ATOM      8  C8  IND d   1      -3.362  -0.320   4.233  0.00  0.00    -0.047 A 
ATOM      9  C9  IND d   1      -3.050  -1.075   3.094  0.00  0.00    -0.096 A 
ATOM     10  HN1 IND d   1      -4.440  -0.891   5.824  0.00  0.00     0.298 HD
ENDROOT
TORSDOF 0
ENDMDL
