MODEL 1
REMARK minimizedAffinity -0.411046475
REMARK minimizedRMSD -1
REMARK  0 active torsions:
REMARK  status: ('A' for Active; 'I' for Inactive)
ROOT
ATOM      1  C   UNL d   1      -1.621  -0.093   0.555  0.00  0.00     0.124 A 
ATOM      2  C1  UNL d   1      -0.458   0.138  -0.167  0.00  0.00     0.062 A 
ATOM      3  C2  UNL d   1       0.674   0.637   0.471  0.00  0.00     0.162 A 
ATOM      4  C3  UNL d   1       0.649   0.908   1.839  0.00  0.00    -0.034 A 
ATOM      5  C4  UNL d   1      -0.525   0.675   2.558  0.00  0.00     0.162 A 
ATOM      6  C5  UNL d   1      -1.654   0.176   1.916  0.00  0.00     0.062 A 
ATOM      7  F   UNL d   1      -2.777  -0.046   2.615  0.00  0.00    -0.097 F 
ATOM      8  F1  UNL d   1      -0.584   0.925   3.874  0.00  0.00    -0.096 F 
ATOM      9  I   UNL d   1       2.339   1.655   2.796  0.00  0.00    -0.060 I 
ATOM     10  F2  UNL d   1       1.784   0.850  -0.251  0.00  0.00    -0.096 F 
ATOM     11  F3  UNL d   1      -0.425  -0.120  -1.482  0.00  0.00    -0.097 F 
ATOM     12  F4  UNL d   1      -2.709  -0.572  -0.062  0.00  0.00    -0.092 F 
ENDROOT
TORSDOF 0
ENDMDL
