MODEL 1
REMARK minimizedAffinity 5.26426506
REMARK minimizedRMSD -1
REMARK  0 active torsions:
REMARK  status: ('A' for Active; 'I' for Inactive)
ROOT
ATOM      1  C   UNL d   1      -1.293  -0.380   0.496  0.00  0.00     0.124 A 
ATOM      2  C1  UNL d   1      -1.289   0.451   1.608  0.00  0.00     0.062 A 
ATOM      3  C2  UNL d   1      -0.398   1.518   1.681  0.00  0.00     0.162 A 
ATOM      4  C3  UNL d   1       0.497   1.761   0.639  0.00  0.00    -0.034 A 
ATOM      5  C4  UNL d   1       0.487   0.920  -0.476  0.00  0.00     0.162 A 
ATOM      6  C5  UNL d   1      -0.405  -0.144  -0.545  0.00  0.00     0.062 A 
ATOM      7  F   UNL d   1      -0.408  -0.946  -1.620  0.00  0.00    -0.097 F 
ATOM      8  F1  UNL d   1       1.334   1.125  -1.496  0.00  0.00    -0.096 F 
ATOM      9  I   UNL d   1       1.831   3.354   0.745  0.00  0.00    -0.060 I 
ATOM     10  F2  UNL d   1      -0.416   2.304   2.768  0.00  0.00    -0.096 F 
ATOM     11  F3  UNL d   1      -2.145   0.225   2.615  0.00  0.00    -0.097 F 
ATOM     12  F4  UNL d   1      -2.151  -1.406   0.428  0.00  0.00    -0.092 F 
ENDROOT
TORSDOF 0
ENDMDL
