MODEL 1
REMARK minimizedAffinity 2.24173069
REMARK minimizedRMSD -1
REMARK  0 active torsions:
REMARK  status: ('A' for Active; 'I' for Inactive)
ROOT
ATOM      1  C   UNL d   1      -1.806   0.568   1.099  0.00  0.00     0.124 A 
ATOM      2  C1  UNL d   1      -1.438  -0.401   0.177  0.00  0.00     0.062 A 
ATOM      3  C2  UNL d   1      -0.093  -0.631  -0.099  0.00  0.00     0.162 A 
ATOM      4  C3  UNL d   1       0.894   0.110   0.550  0.00  0.00    -0.034 A 
ATOM      5  C4  UNL d   1       0.517   1.084   1.476  0.00  0.00     0.162 A 
ATOM      6  C5  UNL d   1      -0.829   1.310   1.748  0.00  0.00     0.062 A 
ATOM      7  F   UNL d   1      -1.182   2.247   2.640  0.00  0.00    -0.097 F 
ATOM      8  F1  UNL d   1       1.440   1.814   2.119  0.00  0.00    -0.096 F 
ATOM      9  I   UNL d   1       2.907  -0.230   0.141  0.00  0.00    -0.060 I 
ATOM     10  F2  UNL d   1       0.233  -1.574  -0.995  0.00  0.00    -0.096 F 
ATOM     11  F3  UNL d   1      -2.381  -1.118  -0.452  0.00  0.00    -0.097 F 
ATOM     12  F4  UNL d   1      -3.101   0.788   1.362  0.00  0.00    -0.092 F 
ENDROOT
TORSDOF 0
ENDMDL
