MODEL 1
REMARK minimizedAffinity 2.62966418
REMARK minimizedRMSD -1
REMARK  0 active torsions:
REMARK  status: ('A' for Active; 'I' for Inactive)
ROOT
ATOM      1  C   UNL d   1       2.192   0.707   0.899  0.00  0.00     0.124 A 
ATOM      2  C1  UNL d   1       2.458   1.119   2.197  0.00  0.00     0.062 A 
ATOM      3  C2  UNL d   1       1.566   0.820   3.223  0.00  0.00     0.162 A 
ATOM      4  C3  UNL d   1       0.399   0.103   2.955  0.00  0.00    -0.034 A 
ATOM      5  C4  UNL d   1       0.138  -0.307   1.646  0.00  0.00     0.162 A 
ATOM      6  C5  UNL d   1       1.033  -0.006   0.624  0.00  0.00     0.062 A 
ATOM      7  F   UNL d   1       0.775  -0.405  -0.630  0.00  0.00    -0.097 F 
ATOM      8  F1  UNL d   1      -0.973  -0.998   1.353  0.00  0.00    -0.096 F 
ATOM      9  I   UNL d   1      -0.937  -0.346   4.486  0.00  0.00    -0.060 I 
ATOM     10  F2  UNL d   1       1.848   1.231   4.468  0.00  0.00    -0.096 F 
ATOM     11  F3  UNL d   1       3.576   1.808   2.465  0.00  0.00    -0.097 F 
ATOM     12  F4  UNL d   1       3.051   0.997  -0.087  0.00  0.00    -0.092 F 
ENDROOT
TORSDOF 0
ENDMDL
