MODEL 1
REMARK minimizedAffinity -5.86004686
REMARK minimizedRMSD -1
REMARK  0 active torsions:
REMARK  status: ('A' for Active; 'I' for Inactive)
ROOT
ATOM      1  C   UNL d   1      -0.152   0.464   2.538  0.00  0.00     0.124 A 
ATOM      2  C1  UNL d   1      -1.258   0.231   1.733  0.00  0.00     0.062 A 
ATOM      3  C2  UNL d   1      -1.092  -0.078   0.386  0.00  0.00     0.162 A 
ATOM      4  C3  UNL d   1       0.186  -0.156  -0.165  0.00  0.00    -0.034 A 
ATOM      5  C4  UNL d   1       1.295   0.081   0.650  0.00  0.00     0.162 A 
ATOM      6  C5  UNL d   1       1.124   0.389   1.995  0.00  0.00     0.062 A 
ATOM      7  F   UNL d   1       2.194   0.615   2.771  0.00  0.00    -0.097 F 
ATOM      8  F1  UNL d   1       2.538   0.014   0.152  0.00  0.00    -0.096 F 
ATOM      9  I   UNL d   1       0.439  -0.618  -2.179  0.00  0.00    -0.060 I 
ATOM     10  F2  UNL d   1      -2.180  -0.299  -0.367  0.00  0.00    -0.096 F 
ATOM     11  F3  UNL d   1      -2.492   0.303   2.255  0.00  0.00    -0.097 F 
ATOM     12  F4  UNL d   1      -0.314   0.762   3.833  0.00  0.00    -0.092 F 
ENDROOT
TORSDOF 0
ENDMDL
