MODEL 1
REMARK minimizedAffinity -5.6057992
REMARK minimizedRMSD -1
REMARK  0 active torsions:
REMARK  status: ('A' for Active; 'I' for Inactive)
ROOT
ATOM      1  C   UNL d   1      -1.401   0.598   1.213  0.00  0.00     0.124 A 
ATOM      2  C1  UNL d   1      -1.361  -0.309   0.163  0.00  0.00     0.062 A 
ATOM      3  C2  UNL d   1      -0.155  -0.590  -0.473  0.00  0.00     0.162 A 
ATOM      4  C3  UNL d   1       1.021   0.036  -0.060  0.00  0.00    -0.034 A 
ATOM      5  C4  UNL d   1       0.972   0.948   0.996  0.00  0.00     0.162 A 
ATOM      6  C5  UNL d   1      -0.235   1.226   1.629  0.00  0.00     0.062 A 
ATOM      7  F   UNL d   1      -0.273   2.102   2.643  0.00  0.00    -0.097 F 
ATOM      8  F1  UNL d   1       2.084   1.568   1.419  0.00  0.00    -0.096 F 
ATOM      9  I   UNL d   1       2.826  -0.382  -1.008  0.00  0.00    -0.060 I 
ATOM     10  F2  UNL d   1      -0.146  -1.470  -1.485  0.00  0.00    -0.096 F 
ATOM     11  F3  UNL d   1      -2.486  -0.915  -0.241  0.00  0.00    -0.097 F 
ATOM     12  F4  UNL d   1      -2.563   0.868   1.822  0.00  0.00    -0.092 F 
ENDROOT
TORSDOF 0
ENDMDL
