MODEL 1
REMARK minimizedAffinity -1.00423205
REMARK minimizedRMSD -1
REMARK  0 active torsions:
REMARK  status: ('A' for Active; 'I' for Inactive)
ROOT
ATOM      1  C   UNL d   1      -2.355   0.415   1.297  0.00  0.00     0.124 A 
ATOM      2  C1  UNL d   1      -2.102  -0.612   0.397  0.00  0.00     0.062 A 
ATOM      3  C2  UNL d   1      -0.805  -0.849  -0.047  0.00  0.00     0.162 A 
ATOM      4  C3  UNL d   1       0.251  -0.059   0.408  0.00  0.00    -0.034 A 
ATOM      5  C4  UNL d   1      -0.011   0.972   1.313  0.00  0.00     0.162 A 
ATOM      6  C5  UNL d   1      -1.310   1.205   1.754  0.00  0.00     0.062 A 
ATOM      7  F   UNL d   1      -1.552   2.197   2.623  0.00  0.00    -0.097 F 
ATOM      8  F1  UNL d   1       0.980   1.750   1.771  0.00  0.00    -0.096 F 
ATOM      9  I   UNL d   1       2.193  -0.411  -0.254  0.00  0.00    -0.060 I 
ATOM     10  F2  UNL d   1      -0.589  -1.848  -0.917  0.00  0.00    -0.096 F 
ATOM     11  F3  UNL d   1      -3.110  -1.376  -0.046  0.00  0.00    -0.097 F 
ATOM     12  F4  UNL d   1      -3.604   0.642   1.722  0.00  0.00    -0.092 F 
ENDROOT
TORSDOF 0
ENDMDL
