MODEL 1
REMARK minimizedAffinity -2.93990231
REMARK minimizedRMSD -1
REMARK  0 active torsions:
REMARK  status: ('A' for Active; 'I' for Inactive)
ROOT
ATOM      1  C   UNL d   1      -0.098  -0.146   2.573  0.00  0.00     0.124 A 
ATOM      2  C1  UNL d   1       1.097  -0.563   2.001  0.00  0.00     0.062 A 
ATOM      3  C2  UNL d   1       1.205  -0.691   0.620  0.00  0.00     0.162 A 
ATOM      4  C3  UNL d   1       0.115  -0.400  -0.201  0.00  0.00    -0.034 A 
ATOM      5  C4  UNL d   1      -1.083   0.018   0.381  0.00  0.00     0.162 A 
ATOM      6  C5  UNL d   1      -1.186   0.144   1.762  0.00  0.00     0.062 A 
ATOM      7  F   UNL d   1      -2.341   0.547   2.312  0.00  0.00    -0.097 F 
ATOM      8  F1  UNL d   1      -2.150   0.306  -0.379  0.00  0.00    -0.096 F 
ATOM      9  I   UNL d   1       0.273  -0.589  -2.268  0.00  0.00    -0.060 I 
ATOM     10  F2  UNL d   1       2.371  -1.095   0.095  0.00  0.00    -0.096 F 
ATOM     11  F3  UNL d   1       2.150  -0.845   2.782  0.00  0.00    -0.097 F 
ATOM     12  F4  UNL d   1      -0.199  -0.025   3.903  0.00  0.00    -0.092 F 
ENDROOT
TORSDOF 0
ENDMDL
