MODEL 1
REMARK minimizedAffinity -3.1176784
REMARK minimizedRMSD -1
REMARK  0 active torsions:
REMARK  status: ('A' for Active; 'I' for Inactive)
ROOT
ATOM      1  C   UNL d   1       0.181  -0.113   2.609  0.00  0.00     0.124 A 
ATOM      2  C1  UNL d   1      -0.937   0.193   1.846  0.00  0.00     0.062 A 
ATOM      3  C2  UNL d   1      -0.873   0.138   0.457  0.00  0.00     0.162 A 
ATOM      4  C3  UNL d   1       0.314  -0.226  -0.179  0.00  0.00    -0.034 A 
ATOM      5  C4  UNL d   1       1.435  -0.531   0.596  0.00  0.00     0.162 A 
ATOM      6  C5  UNL d   1       1.366  -0.475   1.984  0.00  0.00     0.062 A 
ATOM      7  F   UNL d   1       2.447  -0.771   2.720  0.00  0.00    -0.097 F 
ATOM      8  F1  UNL d   1       2.592  -0.885   0.017  0.00  0.00    -0.096 F 
ATOM      9  I   UNL d   1       0.415  -0.309  -2.256  0.00  0.00    -0.060 I 
ATOM     10  F2  UNL d   1      -1.969   0.439  -0.256  0.00  0.00    -0.096 F 
ATOM     11  F3  UNL d   1      -2.083   0.544   2.448  0.00  0.00    -0.097 F 
ATOM     12  F4  UNL d   1       0.117  -0.058   3.946  0.00  0.00    -0.092 F 
ENDROOT
TORSDOF 0
ENDMDL
