MODEL 1
REMARK minimizedAffinity 5.71763468
REMARK minimizedRMSD -1
REMARK  0 active torsions:
REMARK  status: ('A' for Active; 'I' for Inactive)
ROOT
ATOM      1  C   UNL d   1      -0.663  -0.792   3.764  0.00  0.00     0.124 A 
ATOM      2  C1  UNL d   1      -1.831  -0.432   3.105  0.00  0.00     0.062 A 
ATOM      3  C2  UNL d   1      -1.782   0.016   1.788  0.00  0.00     0.162 A 
ATOM      4  C3  UNL d   1      -0.561   0.106   1.120  0.00  0.00    -0.034 A 
ATOM      5  C4  UNL d   1       0.609  -0.257   1.789  0.00  0.00     0.162 A 
ATOM      6  C5  UNL d   1       0.556  -0.704   3.105  0.00  0.00     0.062 A 
ATOM      7  F   UNL d   1       1.685  -1.051   3.740  0.00  0.00    -0.097 F 
ATOM      8  F1  UNL d   1       1.800  -0.183   1.176  0.00  0.00    -0.096 F 
ATOM      9  I   UNL d   1      -0.484   0.775  -0.849  0.00  0.00    -0.060 I 
ATOM     10  F2  UNL d   1      -2.926   0.357   1.177  0.00  0.00    -0.096 F 
ATOM     11  F3  UNL d   1      -3.009  -0.515   3.740  0.00  0.00    -0.097 F 
ATOM     12  F4  UNL d   1      -0.712  -1.222   5.031  0.00  0.00    -0.092 F 
ENDROOT
TORSDOF 0
ENDMDL
