MODEL 1
REMARK minimizedAffinity -5.18961096
REMARK minimizedRMSD -1
REMARK  1 active torsions:
REMARK  status: ('A' for Active; 'I' for Inactive)
REMARK    1  A    between atoms: C1_2  and  C2_3 
ROOT
ATOM      1  C2  UNL d   1       0.380  -1.378  -0.802  0.00  0.00    -0.073 A 
ATOM      2  C3  UNL d   1       0.156  -0.562  -1.917  0.00  0.00    -0.002 A 
ATOM      3  C4  UNL d   1      -0.044   0.810  -1.757  0.00  0.00     0.004 A 
ATOM      4  C5  UNL d   1      -0.015   1.381  -0.485  0.00  0.00    -0.004 A 
ATOM      5  C6  UNL d   1       0.220   0.584   0.640  0.00  0.00    -0.075 A 
ATOM      6  C7  UNL d   1       0.252   1.182   2.016  0.00  0.00     0.076 C 
ATOM      7  C8  UNL d   1       0.417  -0.793   0.472  0.00  0.00     0.001 A 
ENDROOT
BRANCH   1   8
ATOM      8  C1  UNL d   1       0.603  -2.858  -0.969  0.00  0.00     0.053 C 
ATOM      9  C   UNL d   1      -0.686  -3.596  -1.295  0.00  0.00     0.018 C 
ENDBRANCH   1   8
TORSDOF 1
ENDMDL
