MODEL 1
REMARK minimizedAffinity -2.02451754
REMARK minimizedRMSD -1
REMARK  1 active torsions:
REMARK  status: ('A' for Active; 'I' for Inactive)
REMARK    1  A    between atoms: C1_2  and  C2_3 
ROOT
ATOM      1  C2  UNL d   1       0.421  -0.516  -0.269  0.00  0.00    -0.073 A 
ATOM      2  C3  UNL d   1       0.456  -0.266   1.107  0.00  0.00    -0.002 A 
ATOM      3  C4  UNL d   1       0.155   1.004   1.601  0.00  0.00     0.004 A 
ATOM      4  C5  UNL d   1      -0.190   2.033   0.726  0.00  0.00    -0.004 A 
ATOM      5  C6  UNL d   1      -0.243   1.800  -0.652  0.00  0.00    -0.075 A 
ATOM      6  C7  UNL d   1      -0.610   2.898  -1.607  0.00  0.00     0.076 C 
ATOM      7  C8  UNL d   1       0.064   0.523  -1.140  0.00  0.00     0.001 A 
ENDROOT
BRANCH   1   8
ATOM      8  C1  UNL d   1       0.739  -1.888  -0.807  0.00  0.00     0.053 C 
ATOM      9  C   UNL d   1      -0.463  -2.816  -0.748  0.00  0.00     0.018 C 
ENDBRANCH   1   8
TORSDOF 1
ENDMDL
