MODEL 1
REMARK minimizedAffinity -1.72928023
REMARK minimizedRMSD -1
REMARK  1 active torsions:
REMARK  status: ('A' for Active; 'I' for Inactive)
REMARK    1  A    between atoms: C1_2  and  C2_3 
ROOT
ATOM      1  C2  UNL d   1       0.531  -1.822  -0.880  0.00  0.00    -0.073 A 
ATOM      2  C3  UNL d   1       0.772  -1.618   0.483  0.00  0.00    -0.002 A 
ATOM      3  C4  UNL d   1       0.602  -0.353   1.047  0.00  0.00     0.004 A 
ATOM      4  C5  UNL d   1       0.186   0.718   0.257  0.00  0.00    -0.004 A 
ATOM      5  C6  UNL d   1      -0.071   0.532  -1.106  0.00  0.00    -0.075 A 
ATOM      6  C7  UNL d   1      -0.518   1.674  -1.970  0.00  0.00     0.076 C 
ATOM      7  C8  UNL d   1       0.104  -0.741  -1.665  0.00  0.00     0.001 A 
ENDROOT
BRANCH   1   8
ATOM      8  C1  UNL d   1       0.706  -3.188  -1.493  0.00  0.00     0.053 C 
ATOM      9  C   UNL d   1      -0.627  -3.851  -1.798  0.00  0.00     0.018 C 
ENDBRANCH   1   8
TORSDOF 1
ENDMDL
