MODEL 1
REMARK minimizedAffinity -2.10938764
REMARK minimizedRMSD -1
REMARK  1 active torsions:
REMARK  status: ('A' for Active; 'I' for Inactive)
REMARK    1  A    between atoms: C1_2  and  C2_3 
ROOT
ATOM      1  C2  UNL d   1       0.276  -0.461   0.034  0.00  0.00    -0.073 A 
ATOM      2  C3  UNL d   1       0.221  -0.440   1.432  0.00  0.00    -0.002 A 
ATOM      3  C4  UNL d   1      -0.028   0.754   2.110  0.00  0.00     0.004 A 
ATOM      4  C5  UNL d   1      -0.232   1.936   1.398  0.00  0.00    -0.004 A 
ATOM      5  C6  UNL d   1      -0.192   1.933  -0.000  0.00  0.00    -0.075 A 
ATOM      6  C7  UNL d   1      -0.407   3.196  -0.781  0.00  0.00     0.076 C 
ATOM      7  C8  UNL d   1       0.061   0.730  -0.673  0.00  0.00     0.001 A 
ENDROOT
BRANCH   1   8
ATOM      8  C1  UNL d   1       0.539  -1.750  -0.702  0.00  0.00     0.053 C 
ATOM      9  C   UNL d   1      -0.675  -2.212  -1.493  0.00  0.00     0.018 C 
ENDBRANCH   1   8
TORSDOF 1
ENDMDL
