MODEL 1
REMARK minimizedAffinity -6.26650572
REMARK minimizedRMSD -1
REMARK  1 active torsions:
REMARK  status: ('A' for Active; 'I' for Inactive)
REMARK    1  A    between atoms: C1_2  and  C2_3 
ROOT
ATOM      1  C2  UNL d   1      -0.068   0.368  -0.781  0.00  0.00    -0.073 A 
ATOM      2  C3  UNL d   1      -0.136   1.319  -1.806  0.00  0.00    -0.002 A 
ATOM      3  C4  UNL d   1      -0.693   2.575  -1.565  0.00  0.00     0.004 A 
ATOM      4  C5  UNL d   1      -1.181   2.896  -0.298  0.00  0.00    -0.004 A 
ATOM      5  C6  UNL d   1      -1.110   1.963   0.742  0.00  0.00    -0.075 A 
ATOM      6  C7  UNL d   1      -1.632   2.292   2.110  0.00  0.00     0.076 C 
ATOM      7  C8  UNL d   1      -0.552   0.703   0.491  0.00  0.00     0.001 A 
ENDROOT
BRANCH   1   8
ATOM      8  C1  UNL d   1       0.539  -0.988  -1.035  0.00  0.00     0.053 C 
ATOM      9  C   UNL d   1      -0.494  -1.994  -1.516  0.00  0.00     0.018 C 
ENDBRANCH   1   8
TORSDOF 1
ENDMDL
