MODEL 1
REMARK minimizedAffinity -5.25975752
REMARK minimizedRMSD -1
REMARK  1 active torsions:
REMARK  status: ('A' for Active; 'I' for Inactive)
REMARK    1  A    between atoms: C1_2  and  C2_3 
ROOT
ATOM      1  C2  UNL d   1       0.141  -0.395   0.175  0.00  0.00    -0.073 A 
ATOM      2  C3  UNL d   1       0.060  -0.040   1.526  0.00  0.00    -0.002 A 
ATOM      3  C4  UNL d   1      -0.391   1.228   1.896  0.00  0.00     0.004 A 
ATOM      4  C5  UNL d   1      -0.771   2.150   0.920  0.00  0.00    -0.004 A 
ATOM      5  C6  UNL d   1      -0.708   1.809  -0.435  0.00  0.00    -0.075 A 
ATOM      6  C7  UNL d   1      -1.111   2.790  -1.496  0.00  0.00     0.076 C 
ATOM      7  C8  UNL d   1      -0.252   0.535  -0.798  0.00  0.00     0.001 A 
ENDROOT
BRANCH   1   8
ATOM      8  C1  UNL d   1       0.621  -1.765  -0.229  0.00  0.00     0.053 C 
ATOM      9  C   UNL d   1      -0.444  -2.542  -0.986  0.00  0.00     0.018 C 
ENDBRANCH   1   8
TORSDOF 1
ENDMDL
