MODEL 1
REMARK minimizedAffinity -4.46408653
REMARK minimizedRMSD -1
REMARK  1 active torsions:
REMARK  status: ('A' for Active; 'I' for Inactive)
REMARK    1  A    between atoms: C1_2  and  C2_3 
ROOT
ATOM      1  C2  UNL d   1      -0.456   1.389   1.624  0.00  0.00    -0.073 A 
ATOM      2  C3  UNL d   1      -0.965   2.551   2.214  0.00  0.00    -0.002 A 
ATOM      3  C4  UNL d   1      -1.512   3.562   1.423  0.00  0.00     0.004 A 
ATOM      4  C5  UNL d   1      -1.562   3.419   0.036  0.00  0.00    -0.004 A 
ATOM      5  C6  UNL d   1      -1.069   2.259  -0.571  0.00  0.00    -0.075 A 
ATOM      6  C7  UNL d   1      -1.114   2.090  -2.062  0.00  0.00     0.076 C 
ATOM      7  C8  UNL d   1      -0.519   1.250   0.230  0.00  0.00     0.001 A 
ENDROOT
BRANCH   1   8
ATOM      8  C1  UNL d   1       0.129   0.292   2.475  0.00  0.00     0.053 C 
ATOM      9  C   UNL d   1       1.346  -0.346   1.825  0.00  0.00     0.018 C 
ENDBRANCH   1   8
TORSDOF 1
ENDMDL
