MODEL 1
REMARK minimizedAffinity 5.51071072
REMARK minimizedRMSD -1
REMARK  1 active torsions:
REMARK  status: ('A' for Active; 'I' for Inactive)
REMARK    1  A    between atoms: C1_2  and  C2_3 
ROOT
ATOM      1  C2  UNL d   1       0.149   1.108   1.954  0.00  0.00    -0.073 A 
ATOM      2  C3  UNL d   1       0.370   2.039   2.975  0.00  0.00    -0.002 A 
ATOM      3  C4  UNL d   1       0.515   3.394   2.675  0.00  0.00     0.004 A 
ATOM      4  C5  UNL d   1       0.434   3.833   1.354  0.00  0.00    -0.004 A 
ATOM      5  C6  UNL d   1       0.201   2.920   0.320  0.00  0.00    -0.075 A 
ATOM      6  C7  UNL d   1       0.113   3.376  -1.107  0.00  0.00     0.076 C 
ATOM      7  C8  UNL d   1       0.059   1.560   0.629  0.00  0.00     0.001 A 
ENDROOT
BRANCH   1   8
ATOM      8  C1  UNL d   1      -0.015  -0.355   2.274  0.00  0.00     0.053 C 
ATOM      9  C   UNL d   1       1.298  -0.997   2.692  0.00  0.00     0.018 C 
ENDBRANCH   1   8
TORSDOF 1
ENDMDL
