MODEL 1
REMARK minimizedAffinity -2.80593085
REMARK minimizedRMSD -1
REMARK  1 active torsions:
REMARK  status: ('A' for Active; 'I' for Inactive)
REMARK    1  A    between atoms: C1_2  and  C2_3 
ROOT
ATOM      1  C2  UNL d   1      -0.155   2.495   0.798  0.00  0.00    -0.073 A 
ATOM      2  C3  UNL d   1      -1.022   1.898   1.719  0.00  0.00    -0.002 A 
ATOM      3  C4  UNL d   1      -1.478   0.595   1.516  0.00  0.00     0.004 A 
ATOM      4  C5  UNL d   1      -1.066  -0.126   0.396  0.00  0.00    -0.004 A 
ATOM      5  C6  UNL d   1      -0.190   0.449  -0.530  0.00  0.00    -0.075 A 
ATOM      6  C7  UNL d   1       0.261  -0.313  -1.742  0.00  0.00     0.076 C 
ATOM      7  C8  UNL d   1       0.261   1.759  -0.321  0.00  0.00     0.001 A 
ENDROOT
BRANCH   1   8
ATOM      8  C1  UNL d   1       0.345   3.900   1.016  0.00  0.00     0.053 C 
ATOM      9  C   UNL d   1       1.853   3.945   1.207  0.00  0.00     0.018 C 
ENDBRANCH   1   8
TORSDOF 1
ENDMDL
