MODEL 1
REMARK minimizedAffinity -4.19944096
REMARK minimizedRMSD -1
REMARK  1 active torsions:
REMARK  status: ('A' for Active; 'I' for Inactive)
REMARK    1  A    between atoms: C1_2  and  C2_3 
ROOT
ATOM      1  C2  UNL d   1       0.023  -0.451  -0.879  0.00  0.00    -0.073 A 
ATOM      2  C3  UNL d   1      -0.500  -1.702  -1.225  0.00  0.00    -0.002 A 
ATOM      3  C4  UNL d   1      -1.087  -2.514  -0.253  0.00  0.00     0.004 A 
ATOM      4  C5  UNL d   1      -1.163  -2.081   1.071  0.00  0.00    -0.004 A 
ATOM      5  C6  UNL d   1      -0.656  -0.829   1.434  0.00  0.00    -0.075 A 
ATOM      6  C7  UNL d   1      -0.728  -0.350   2.854  0.00  0.00     0.076 C 
ATOM      7  C8  UNL d   1      -0.066  -0.021   0.453  0.00  0.00     0.001 A 
ENDROOT
BRANCH   1   8
ATOM      8  C1  UNL d   1       0.651   0.432  -1.926  0.00  0.00     0.053 C 
ATOM      9  C   UNL d   1       2.164   0.493  -1.787  0.00  0.00     0.018 C 
ENDBRANCH   1   8
TORSDOF 1
ENDMDL
