MODEL 1
REMARK minimizedAffinity -5.92358351
REMARK minimizedRMSD -1
REMARK  1 active torsions:
REMARK  status: ('A' for Active; 'I' for Inactive)
REMARK    1  A    between atoms: C1_2  and  C2_3 
ROOT
ATOM      1  C2  UNL d   1       0.703   1.199  -0.250  0.00  0.00    -0.073 A 
ATOM      2  C3  UNL d   1       1.085   1.046  -1.587  0.00  0.00    -0.002 A 
ATOM      3  C4  UNL d   1       1.064  -0.215  -2.186  0.00  0.00     0.004 A 
ATOM      4  C5  UNL d   1       0.655  -1.331  -1.457  0.00  0.00    -0.004 A 
ATOM      5  C6  UNL d   1       0.259  -1.197  -0.123  0.00  0.00    -0.075 A 
ATOM      6  C7  UNL d   1      -0.182  -2.388   0.675  0.00  0.00     0.076 C 
ATOM      7  C8  UNL d   1       0.285   0.072   0.472  0.00  0.00     0.001 A 
ENDROOT
BRANCH   1   8
ATOM      8  C1  UNL d   1       0.718   2.559   0.399  0.00  0.00     0.053 C 
ATOM      9  C   UNL d   1       2.131   3.033   0.698  0.00  0.00     0.018 C 
ENDBRANCH   1   8
TORSDOF 1
ENDMDL
