MODEL 1
REMARK minimizedAffinity -5.72901583
REMARK minimizedRMSD -1
REMARK  1 active torsions:
REMARK  status: ('A' for Active; 'I' for Inactive)
REMARK    1  A    between atoms: C1_2  and  C2_3 
ROOT
ATOM      1  C2  UNL d   1      -0.756  -0.514   0.709  0.00  0.00    -0.073 A 
ATOM      2  C3  UNL d   1      -0.903  -1.872   1.012  0.00  0.00    -0.002 A 
ATOM      3  C4  UNL d   1      -0.366  -2.845   0.168  0.00  0.00     0.004 A 
ATOM      4  C5  UNL d   1       0.330  -2.470  -0.981  0.00  0.00    -0.004 A 
ATOM      5  C6  UNL d   1       0.499  -1.118  -1.295  0.00  0.00    -0.075 A 
ATOM      6  C7  UNL d   1       1.242  -0.698  -2.528  0.00  0.00     0.076 C 
ATOM      7  C8  UNL d   1      -0.047  -0.147  -0.444  0.00  0.00     0.001 A 
ENDROOT
BRANCH   1   8
ATOM      8  C1  UNL d   1      -1.329   0.540   1.621  0.00  0.00     0.053 C 
ATOM      9  C   UNL d   1      -1.335   0.095   3.074  0.00  0.00     0.018 C 
ENDBRANCH   1   8
TORSDOF 1
ENDMDL
