MODEL 1
REMARK minimizedAffinity -1.89922738
REMARK minimizedRMSD -1
REMARK  1 active torsions:
REMARK  status: ('A' for Active; 'I' for Inactive)
REMARK    1  A    between atoms: C1_2  and  C2_3 
ROOT
ATOM      1  C2  UNL d   1       0.835   1.861   0.576  0.00  0.00    -0.073 A 
ATOM      2  C3  UNL d   1       0.875   2.971   1.427  0.00  0.00    -0.002 A 
ATOM      3  C4  UNL d   1       2.074   3.650   1.646  0.00  0.00     0.004 A 
ATOM      4  C5  UNL d   1       3.244   3.230   1.012  0.00  0.00    -0.004 A 
ATOM      5  C6  UNL d   1       3.222   2.130   0.149  0.00  0.00    -0.075 A 
ATOM      6  C7  UNL d   1       4.472   1.665  -0.539  0.00  0.00     0.076 C 
ATOM      7  C8  UNL d   1       2.014   1.452  -0.064  0.00  0.00     0.001 A 
ENDROOT
BRANCH   1   8
ATOM      8  C1  UNL d   1      -0.459   1.129   0.332  0.00  0.00     0.053 C 
ATOM      9  C   UNL d   1      -0.839   0.236   1.503  0.00  0.00     0.018 C 
ENDBRANCH   1   8
TORSDOF 1
ENDMDL
