MODEL 1
REMARK minimizedAffinity 1.02843571
REMARK minimizedRMSD -1
REMARK  1 active torsions:
REMARK  status: ('A' for Active; 'I' for Inactive)
REMARK    1  A    between atoms: C1_2  and  C2_3 
ROOT
ATOM      1  C2  UNL d   1       0.227   0.880  -0.357  0.00  0.00    -0.073 A 
ATOM      2  C3  UNL d   1       1.196   1.563   0.387  0.00  0.00    -0.002 A 
ATOM      3  C4  UNL d   1       2.474   1.764  -0.137  0.00  0.00     0.004 A 
ATOM      4  C5  UNL d   1       2.793   1.293  -1.410  0.00  0.00    -0.004 A 
ATOM      5  C6  UNL d   1       1.835   0.618  -2.173  0.00  0.00    -0.075 A 
ATOM      6  C7  UNL d   1       2.163   0.103  -3.544  0.00  0.00     0.076 C 
ATOM      7  C8  UNL d   1       0.555   0.417  -1.640  0.00  0.00     0.001 A 
ENDROOT
BRANCH   1   8
ATOM      8  C1  UNL d   1      -1.156   0.665   0.201  0.00  0.00     0.053 C 
ATOM      9  C   UNL d   1      -1.160  -0.337   1.344  0.00  0.00     0.018 C 
ENDBRANCH   1   8
TORSDOF 1
ENDMDL
