MODEL 1
REMARK minimizedAffinity -4.6848917
REMARK minimizedRMSD -1
REMARK  1 active torsions:
REMARK  status: ('A' for Active; 'I' for Inactive)
REMARK    1  A    between atoms: C1_2  and  C2_3 
ROOT
ATOM      1  C2  UNL d   1       0.506  -1.382  -0.530  0.00  0.00    -0.073 A 
ATOM      2  C3  UNL d   1       1.037  -1.382  -1.825  0.00  0.00    -0.002 A 
ATOM      3  C4  UNL d   1       1.325  -0.178  -2.469  0.00  0.00     0.004 A 
ATOM      4  C5  UNL d   1       1.091   1.037  -1.823  0.00  0.00    -0.004 A 
ATOM      5  C6  UNL d   1       0.572   1.057  -0.525  0.00  0.00    -0.075 A 
ATOM      6  C7  UNL d   1       0.312   2.355   0.182  0.00  0.00     0.076 C 
ATOM      7  C8  UNL d   1       0.283  -0.157   0.114  0.00  0.00     0.001 A 
ENDROOT
BRANCH   1   8
ATOM      8  C1  UNL d   1       0.199  -2.680   0.171  0.00  0.00     0.053 C 
ATOM      9  C   UNL d   1      -1.009  -2.562   1.087  0.00  0.00     0.018 C 
ENDBRANCH   1   8
TORSDOF 1
ENDMDL
