MODEL 1
REMARK minimizedAffinity -5.2299161
REMARK minimizedRMSD -1
REMARK  1 active torsions:
REMARK  status: ('A' for Active; 'I' for Inactive)
REMARK    1  A    between atoms: C1_2  and  C2_3 
ROOT
ATOM      1  C2  UNL d   1       0.923  -0.041  -0.671  0.00  0.00    -0.073 A 
ATOM      2  C3  UNL d   1       0.197   0.774   0.205  0.00  0.00    -0.002 A 
ATOM      3  C4  UNL d   1      -0.649   0.206   1.159  0.00  0.00     0.004 A 
ATOM      4  C5  UNL d   1      -0.771  -1.180   1.252  0.00  0.00    -0.004 A 
ATOM      5  C6  UNL d   1      -0.045  -2.012   0.393  0.00  0.00    -0.075 A 
ATOM      6  C7  UNL d   1      -0.168  -3.505   0.479  0.00  0.00     0.076 C 
ATOM      7  C8  UNL d   1       0.800  -1.434  -0.564  0.00  0.00     0.001 A 
ENDROOT
BRANCH   1   8
ATOM      8  C1  UNL d   1       1.842   0.567  -1.698  0.00  0.00     0.053 C 
ATOM      9  C   UNL d   1       1.750  -0.145  -3.038  0.00  0.00     0.018 C 
ENDBRANCH   1   8
TORSDOF 1
ENDMDL
