MODEL 1
REMARK minimizedAffinity -3.10771942
REMARK minimizedRMSD -1
REMARK  0 active torsions:
REMARK  status: ('A' for Active; 'I' for Inactive)
ROOT
ATOM      1  C1  BNZ d   1      -1.779   0.830   1.186  0.00  0.00     0.000 A 
ATOM      2  C2  BNZ d   1      -2.021   0.835  -0.161  0.00  0.00     0.000 A 
ATOM      3  C3  BNZ d   1      -3.300   0.797  -0.643  0.00  0.00     0.000 A 
ATOM      4  C4  BNZ d   1      -4.331   0.714   0.222  0.00  0.00     0.000 A 
ATOM      5  C5  BNZ d   1      -4.103   0.699   1.583  0.00  0.00     0.000 A 
ATOM      6  C6  BNZ d   1      -2.816   0.777   2.065  0.00  0.00     0.000 A 
ENDROOT
TORSDOF 0
ENDMDL
