MODEL 1
REMARK minimizedAffinity -4.49513435
REMARK minimizedRMSD -1
REMARK  0 active torsions:
REMARK  status: ('A' for Active; 'I' for Inactive)
ROOT
ATOM      1  C1  BNZ d   1       0.239  -1.262  -0.103  0.00  0.00     0.000 A 
ATOM      2  C2  BNZ d   1       1.417  -1.802   0.340  0.00  0.00     0.000 A 
ATOM      3  C3  BNZ d   1       2.305  -1.051   1.059  0.00  0.00     0.000 A 
ATOM      4  C4  BNZ d   1       2.032   0.248   1.299  0.00  0.00     0.000 A 
ATOM      5  C5  BNZ d   1       0.854   0.809   0.851  0.00  0.00     0.000 A 
ATOM      6  C6  BNZ d   1      -0.055   0.040   0.161  0.00  0.00     0.000 A 
ENDROOT
TORSDOF 0
ENDMDL
