MODEL 1
REMARK minimizedAffinity -4.31932163
REMARK minimizedRMSD -1
REMARK  0 active torsions:
REMARK  status: ('A' for Active; 'I' for Inactive)
ROOT
ATOM      1  C1  BNZ d   1       1.127   0.503   0.533  0.00  0.00     0.000 A 
ATOM      2  C2  BNZ d   1       2.236  -0.161   0.984  0.00  0.00     0.000 A 
ATOM      3  C3  BNZ d   1       2.428  -1.482   0.693  0.00  0.00     0.000 A 
ATOM      4  C4  BNZ d   1       1.491  -2.148  -0.014  0.00  0.00     0.000 A 
ATOM      5  C5  BNZ d   1       0.363  -1.495  -0.468  0.00  0.00     0.000 A 
ATOM      6  C6  BNZ d   1       0.192  -0.155  -0.206  0.00  0.00     0.000 A 
ENDROOT
TORSDOF 0
ENDMDL
