MODEL 1
REMARK minimizedAffinity -2.2845366
REMARK minimizedRMSD -1
REMARK  0 active torsions:
REMARK  status: ('A' for Active; 'I' for Inactive)
ROOT
ATOM      1  C1  BNZ d   1       0.772  -1.005  -0.286  0.00  0.00     0.000 A 
ATOM      2  C2  BNZ d   1       1.938  -1.498  -0.808  0.00  0.00     0.000 A 
ATOM      3  C3  BNZ d   1       2.970  -1.867   0.009  0.00  0.00     0.000 A 
ATOM      4  C4  BNZ d   1       2.850  -1.705   1.342  0.00  0.00     0.000 A 
ATOM      5  C5  BNZ d   1       1.685  -1.200   1.883  0.00  0.00     0.000 A 
ATOM      6  C6  BNZ d   1       0.634  -0.866   1.061  0.00  0.00     0.000 A 
ENDROOT
TORSDOF 0
ENDMDL
