MODEL 1
REMARK minimizedAffinity -4.77048635
REMARK minimizedRMSD -1
REMARK  0 active torsions:
REMARK  status: ('A' for Active; 'I' for Inactive)
ROOT
ATOM      1  C1  BNZ d   1       3.383  -1.318   0.201  0.00  0.00     0.000 A 
ATOM      2  C2  BNZ d   1       2.207  -2.019   0.174  0.00  0.00     0.000 A 
ATOM      3  C3  BNZ d   1       1.006  -1.369   0.122  0.00  0.00     0.000 A 
ATOM      4  C4  BNZ d   1       0.981  -0.020   0.136  0.00  0.00     0.000 A 
ATOM      5  C5  BNZ d   1       2.158   0.700   0.173  0.00  0.00     0.000 A 
ATOM      6  C6  BNZ d   1       3.366   0.042   0.186  0.00  0.00     0.000 A 
ENDROOT
TORSDOF 0
ENDMDL
