MODEL 1
REMARK minimizedAffinity -3.90315938
REMARK minimizedRMSD -1
REMARK  0 active torsions:
REMARK  status: ('A' for Active; 'I' for Inactive)
ROOT
ATOM      1  C1  BNZ d   1       1.482   0.429   1.290  0.00  0.00     0.000 A 
ATOM      2  C2  BNZ d   1       2.276  -0.581   1.764  0.00  0.00     0.000 A 
ATOM      3  C3  BNZ d   1       2.383  -1.764   1.088  0.00  0.00     0.000 A 
ATOM      4  C4  BNZ d   1       1.666  -1.951  -0.039  0.00  0.00     0.000 A 
ATOM      5  C5  BNZ d   1       0.854  -0.946  -0.525  0.00  0.00     0.000 A 
ATOM      6  C6  BNZ d   1       0.779   0.258   0.137  0.00  0.00     0.000 A 
ENDROOT
TORSDOF 0
ENDMDL
