MODEL 1
REMARK minimizedAffinity -4.35593176
REMARK minimizedRMSD -1
REMARK  0 active torsions:
REMARK  status: ('A' for Active; 'I' for Inactive)
ROOT
ATOM      1  C1  BNZ d   1       0.904   0.983  -0.352  0.00  0.00     0.000 A 
ATOM      2  C2  BNZ d   1      -0.186   0.740  -1.144  0.00  0.00     0.000 A 
ATOM      3  C3  BNZ d   1      -0.758  -0.501  -1.187  0.00  0.00     0.000 A 
ATOM      4  C4  BNZ d   1      -0.215  -1.506  -0.470  0.00  0.00     0.000 A 
ATOM      5  C5  BNZ d   1       0.890  -1.280   0.326  0.00  0.00     0.000 A 
ATOM      6  C6  BNZ d   1       1.439  -0.020   0.397  0.00  0.00     0.000 A 
ENDROOT
TORSDOF 0
ENDMDL
