MODEL 1
REMARK minimizedAffinity -0.161351249
REMARK minimizedRMSD -1
REMARK  0 active torsions:
REMARK  status: ('A' for Active; 'I' for Inactive)
ROOT
ATOM      1  C1  BNZ d   1      -0.005   2.182  -0.222  0.00  0.00     0.000 A 
ATOM      2  C2  BNZ d   1      -1.067   1.356  -0.479  0.00  0.00     0.000 A 
ATOM      3  C3  BNZ d   1      -0.928  -0.002  -0.415  0.00  0.00     0.000 A 
ATOM      4  C4  BNZ d   1       0.279  -0.533  -0.132  0.00  0.00     0.000 A 
ATOM      5  C5  BNZ d   1       1.361   0.287   0.121  0.00  0.00     0.000 A 
ATOM      6  C6  BNZ d   1       1.209   1.654   0.093  0.00  0.00     0.000 A 
ENDROOT
TORSDOF 0
ENDMDL
