MODEL 1
REMARK minimizedAffinity -4.34723425
REMARK minimizedRMSD -1
REMARK  0 active torsions:
REMARK  status: ('A' for Active; 'I' for Inactive)
ROOT
ATOM      1  C1  BNZ d   1      -0.343  -1.183  -0.772  0.00  0.00     0.000 A 
ATOM      2  C2  BNZ d   1       0.958  -1.223  -0.347  0.00  0.00     0.000 A 
ATOM      3  C3  BNZ d   1       1.579  -0.097   0.115  0.00  0.00     0.000 A 
ATOM      4  C4  BNZ d   1       0.912   1.075   0.115  0.00  0.00     0.000 A 
ATOM      5  C5  BNZ d   1      -0.397   1.134  -0.319  0.00  0.00     0.000 A 
ATOM      6  C6  BNZ d   1      -1.031  -0.009  -0.747  0.00  0.00     0.000 A 
ENDROOT
TORSDOF 0
ENDMDL
