MODEL 1
REMARK minimizedAffinity -3.47301722
REMARK minimizedRMSD -1
REMARK  0 active torsions:
REMARK  status: ('A' for Active; 'I' for Inactive)
ROOT
ATOM      1  O1  BZF d   1      -0.370   1.126  -0.014  0.00  0.00    -0.204 OA
ATOM      2  C2  BZF d   1      -1.448   0.427  -0.522  0.00  0.00     0.174 A 
ATOM      3  C3  BZF d   1      -1.123  -0.865  -0.735  0.00  0.00    -0.012 A 
ATOM      4  C3A BZF d   1       0.215  -1.001  -0.248  0.00  0.00    -0.107 A 
ATOM      5  C4  BZF d   1       1.083  -2.053  -0.170  0.00  0.00     0.055 A 
ATOM      6  C5  BZF d   1       2.343  -1.836   0.291  0.00  0.00    -0.016 A 
ATOM      7  C6  BZF d   1       2.770  -0.582   0.677  0.00  0.00     0.022 A 
ATOM      8  C7  BZF d   1       1.944   0.491   0.621  0.00  0.00     0.029 A 
ATOM      9  C7A BZF d   1       0.659   0.269   0.187  0.00  0.00     0.058 A 
ENDROOT
TORSDOF 0
ENDMDL
