MODEL 1
REMARK minimizedAffinity -1.18697035
REMARK minimizedRMSD -1
REMARK  0 active torsions:
REMARK  status: ('A' for Active; 'I' for Inactive)
ROOT
ATOM      1  O1  BZF d   1      -0.463   0.963  -0.308  0.00  0.00    -0.204 OA
ATOM      2  C2  BZF d   1      -1.188  -0.213  -0.307  0.00  0.00     0.174 A 
ATOM      3  C3  BZF d   1      -0.372  -1.278  -0.440  0.00  0.00    -0.012 A 
ATOM      4  C3A BZF d   1       0.954  -0.740  -0.436  0.00  0.00    -0.107 A 
ATOM      5  C4  BZF d   1       2.196  -1.301  -0.520  0.00  0.00     0.055 A 
ATOM      6  C5  BZF d   1       3.286  -0.491  -0.561  0.00  0.00    -0.016 A 
ATOM      7  C6  BZF d   1       3.170   0.884  -0.525  0.00  0.00     0.022 A 
ATOM      8  C7  BZF d   1       1.960   1.487  -0.437  0.00  0.00     0.029 A 
ATOM      9  C7A BZF d   1       0.858   0.669  -0.362  0.00  0.00     0.058 A 
ENDROOT
TORSDOF 0
ENDMDL
