MODEL 1
REMARK minimizedAffinity -4.6018157
REMARK minimizedRMSD -1
REMARK  0 active torsions:
REMARK  status: ('A' for Active; 'I' for Inactive)
ROOT
ATOM      1  O1  BZF d   1       3.044   0.384  -0.130  0.00  0.00    -0.204 OA
ATOM      2  C2  BZF d   1       3.456  -0.934  -0.129  0.00  0.00     0.174 A 
ATOM      3  C3  BZF d   1       2.396  -1.767  -0.127  0.00  0.00    -0.012 A 
ATOM      4  C3A BZF d   1       1.249  -0.917  -0.220  0.00  0.00    -0.107 A 
ATOM      5  C4  BZF d   1      -0.095  -1.155  -0.277  0.00  0.00     0.055 A 
ATOM      6  C5  BZF d   1      -0.952  -0.101  -0.289  0.00  0.00    -0.016 A 
ATOM      7  C6  BZF d   1      -0.502   1.202  -0.241  0.00  0.00     0.022 A 
ATOM      8  C7  BZF d   1       0.822   1.489  -0.189  0.00  0.00     0.029 A 
ATOM      9  C7A BZF d   1       1.692   0.426  -0.210  0.00  0.00     0.058 A 
ENDROOT
TORSDOF 0
ENDMDL
