MODEL 1
REMARK minimizedAffinity -3.48937225
REMARK minimizedRMSD -1
REMARK  0 active torsions:
REMARK  status: ('A' for Active; 'I' for Inactive)
ROOT
ATOM      1  O1  BZF d   1      -0.283  -0.667  -1.495  0.00  0.00    -0.204 OA
ATOM      2  C2  BZF d   1      -1.133   0.345  -1.092  0.00  0.00     0.174 A 
ATOM      3  C3  BZF d   1      -0.717   0.884   0.072  0.00  0.00    -0.012 A 
ATOM      4  C3A BZF d   1       0.518   0.227   0.371  0.00  0.00    -0.107 A 
ATOM      5  C4  BZF d   1       1.420   0.341   1.390  0.00  0.00     0.055 A 
ATOM      6  C5  BZF d   1       2.487  -0.500   1.425  0.00  0.00    -0.016 A 
ATOM      7  C6  BZF d   1       2.681  -1.468   0.461  0.00  0.00     0.022 A 
ATOM      8  C7  BZF d   1       1.816  -1.616  -0.572  0.00  0.00     0.029 A 
ATOM      9  C7A BZF d   1       0.754  -0.746  -0.628  0.00  0.00     0.058 A 
ENDROOT
TORSDOF 0
ENDMDL
