MODEL 1
REMARK minimizedAffinity -4.09971476
REMARK minimizedRMSD -1
REMARK  0 active torsions:
REMARK  status: ('A' for Active; 'I' for Inactive)
ROOT
ATOM      1  O1  BZF d   1       2.198  -1.941  -0.062  0.00  0.00    -0.204 OA
ATOM      2  C2  BZF d   1       2.927  -1.148   0.803  0.00  0.00     0.174 A 
ATOM      3  C3  BZF d   1       2.281   0.009   1.051  0.00  0.00    -0.012 A 
ATOM      4  C3A BZF d   1       1.029  -0.105   0.367  0.00  0.00    -0.107 A 
ATOM      5  C4  BZF d   1      -0.055   0.718   0.249  0.00  0.00     0.055 A 
ATOM      6  C5  BZF d   1      -1.086   0.341  -0.552  0.00  0.00    -0.016 A 
ATOM      7  C6  BZF d   1      -1.065  -0.848  -1.252  0.00  0.00     0.022 A 
ATOM      8  C7  BZF d   1      -0.014  -1.699  -1.163  0.00  0.00     0.029 A 
ATOM      9  C7A BZF d   1       1.015  -1.336  -0.329  0.00  0.00     0.058 A 
ENDROOT
TORSDOF 0
ENDMDL
