MODEL 1
REMARK minimizedAffinity -1.24861383
REMARK minimizedRMSD -1
REMARK  0 active torsions:
REMARK  status: ('A' for Active; 'I' for Inactive)
ROOT
ATOM      1  O1  BZF d   1       0.580  -2.175  -0.211  0.00  0.00    -0.204 OA
ATOM      2  C2  BZF d   1       1.938  -2.085   0.028  0.00  0.00     0.174 A 
ATOM      3  C3  BZF d   1       2.322  -0.797   0.130  0.00  0.00    -0.012 A 
ATOM      4  C3A BZF d   1       1.115  -0.035   0.034  0.00  0.00    -0.107 A 
ATOM      5  C4  BZF d   1       0.842   1.302   0.082  0.00  0.00     0.055 A 
ATOM      6  C5  BZF d   1      -0.435   1.723  -0.118  0.00  0.00    -0.016 A 
ATOM      7  C6  BZF d   1      -1.461   0.836  -0.371  0.00  0.00     0.022 A 
ATOM      8  C7  BZF d   1      -1.240  -0.500  -0.423  0.00  0.00     0.029 A 
ATOM      9  C7A BZF d   1       0.043  -0.931  -0.190  0.00  0.00     0.058 A 
ENDROOT
TORSDOF 0
ENDMDL
