MODEL 1
REMARK minimizedAffinity -3.385638
REMARK minimizedRMSD -1
REMARK  0 active torsions:
REMARK  status: ('A' for Active; 'I' for Inactive)
ROOT
ATOM      1  O1  BZF d   1       2.241   1.923  -0.086  0.00  0.00    -0.204 OA
ATOM      2  C2  BZF d   1       3.590   1.624  -0.057  0.00  0.00     0.174 A 
ATOM      3  C3  BZF d   1       3.784   0.289  -0.063  0.00  0.00    -0.012 A 
ATOM      4  C3A BZF d   1       2.478  -0.280  -0.191  0.00  0.00    -0.107 A 
ATOM      5  C4  BZF d   1       2.017  -1.563  -0.270  0.00  0.00     0.055 A 
ATOM      6  C5  BZF d   1       0.676  -1.782  -0.315  0.00  0.00    -0.016 A 
ATOM      7  C6  BZF d   1      -0.231  -0.743  -0.277  0.00  0.00     0.022 A 
ATOM      8  C7  BZF d   1       0.179   0.547  -0.204  0.00  0.00     0.029 A 
ATOM      9  C7A BZF d   1       1.534   0.773  -0.192  0.00  0.00     0.058 A 
ENDROOT
TORSDOF 0
ENDMDL
