MODEL 1
REMARK minimizedAffinity -3.32440686
REMARK minimizedRMSD -1
REMARK  0 active torsions:
REMARK  status: ('A' for Active; 'I' for Inactive)
ROOT
ATOM      1  O1  BZF d   1      -0.150   0.953  -0.179  0.00  0.00    -0.204 OA
ATOM      2  C2  BZF d   1      -0.839  -0.188  -0.542  0.00  0.00     0.174 A 
ATOM      3  C3  BZF d   1      -0.014  -1.255  -0.577  0.00  0.00    -0.012 A 
ATOM      4  C3A BZF d   1       1.252  -0.766  -0.124  0.00  0.00    -0.107 A 
ATOM      5  C4  BZF d   1       2.468  -1.354   0.075  0.00  0.00     0.055 A 
ATOM      6  C5  BZF d   1       3.521  -0.582   0.454  0.00  0.00    -0.016 A 
ATOM      7  C6  BZF d   1       3.393   0.779   0.638  0.00  0.00     0.022 A 
ATOM      8  C7  BZF d   1       2.205   1.406   0.458  0.00  0.00     0.029 A 
ATOM      9  C7A BZF d   1       1.133   0.624   0.107  0.00  0.00     0.058 A 
ENDROOT
TORSDOF 0
ENDMDL
