MODEL 1
REMARK minimizedAffinity -4.70795918
REMARK minimizedRMSD -1
REMARK  0 active torsions:
REMARK  status: ('A' for Active; 'I' for Inactive)
ROOT
ATOM      1  O1  BZF d   1      -0.102   1.319  -0.411  0.00  0.00    -0.204 OA
ATOM      2  C2  BZF d   1       0.593   2.395   0.107  0.00  0.00     0.174 A 
ATOM      3  C3  BZF d   1       1.691   1.980   0.771  0.00  0.00    -0.012 A 
ATOM      4  C3A BZF d   1       1.732   0.562   0.583  0.00  0.00    -0.107 A 
ATOM      5  C4  BZF d   1       2.596  -0.414   0.989  0.00  0.00     0.055 A 
ATOM      6  C5  BZF d   1       2.310  -1.711   0.699  0.00  0.00    -0.016 A 
ATOM      7  C6  BZF d   1       1.168  -2.067   0.011  0.00  0.00     0.022 A 
ATOM      8  C7  BZF d   1       0.284  -1.133  -0.417  0.00  0.00     0.029 A 
ATOM      9  C7A BZF d   1       0.587   0.181  -0.154  0.00  0.00     0.058 A 
ENDROOT
TORSDOF 0
ENDMDL
