MODEL 1
REMARK minimizedAffinity -4.94373226
REMARK minimizedRMSD -1
REMARK  0 active torsions:
REMARK  status: ('A' for Active; 'I' for Inactive)
ROOT
ATOM      1  C   UNL d   1      -1.154   3.044  -0.274  0.00  0.00     0.020 A 
ATOM      2  C1  UNL d   1      -1.098   3.148   1.115  0.00  0.00     0.020 A 
ATOM      3  C2  UNL d   1      -0.669   2.061   1.880  0.00  0.00     0.034 A 
ATOM      4  C3  UNL d   1      -0.295   0.865   1.255  0.00  0.00     0.017 A 
ATOM      5  C4  UNL d   1      -0.352   0.762  -0.139  0.00  0.00     0.017 A 
ATOM      6  C5  UNL d   1      -0.782   1.854  -0.900  0.00  0.00     0.034 A 
ATOM      7 Cl   UNL d   1       0.094  -0.680  -0.981  0.00  0.00    -0.070 Cl
ATOM      8 Cl1  UNL d   1       0.226  -0.439   2.263  0.00  0.00    -0.070 Cl
ENDROOT
TORSDOF 0
ENDMDL
