MODEL 1
REMARK minimizedAffinity -4.43418074
REMARK minimizedRMSD -1
REMARK  0 active torsions:
REMARK  status: ('A' for Active; 'I' for Inactive)
ROOT
ATOM      1  C   UNL d   1      -1.361   2.882   0.672  0.00  0.00     0.020 A 
ATOM      2  C1  UNL d   1      -0.542   3.209   1.752  0.00  0.00     0.020 A 
ATOM      3  C2  UNL d   1       0.378   2.277   2.237  0.00  0.00     0.034 A 
ATOM      4  C3  UNL d   1       0.481   1.014   1.642  0.00  0.00     0.017 A 
ATOM      5  C4  UNL d   1      -0.342   0.687   0.558  0.00  0.00     0.017 A 
ATOM      6  C5  UNL d   1      -1.261   1.624   0.076  0.00  0.00     0.034 A 
ATOM      7 Cl   UNL d   1      -0.273  -0.851  -0.227  0.00  0.00    -0.070 Cl
ATOM      8 Cl1  UNL d   1       1.640  -0.089   2.294  0.00  0.00    -0.070 Cl
ENDROOT
TORSDOF 0
ENDMDL
