MODEL 1
REMARK minimizedAffinity -5.26347637
REMARK minimizedRMSD -1
REMARK  0 active torsions:
REMARK  status: ('A' for Active; 'I' for Inactive)
ROOT
ATOM      1  C   UNL d   1      -1.266   3.020  -0.365  0.00  0.00     0.020 A 
ATOM      2  C1  UNL d   1      -1.344   3.060   1.027  0.00  0.00     0.020 A 
ATOM      3  C2  UNL d   1      -0.819   2.012   1.785  0.00  0.00     0.034 A 
ATOM      4  C3  UNL d   1      -0.215   0.919   1.153  0.00  0.00     0.017 A 
ATOM      5  C4  UNL d   1      -0.138   0.880  -0.244  0.00  0.00     0.017 A 
ATOM      6  C5  UNL d   1      -0.664   1.933  -0.999  0.00  0.00     0.034 A 
ATOM      7 Cl   UNL d   1       0.593  -0.435  -1.095  0.00  0.00    -0.070 Cl
ATOM      8 Cl1  UNL d   1       0.413  -0.342   2.154  0.00  0.00    -0.070 Cl
ENDROOT
TORSDOF 0
ENDMDL
