MODEL 1
REMARK minimizedAffinity -5.26442289
REMARK minimizedRMSD -1
REMARK  0 active torsions:
REMARK  status: ('A' for Active; 'I' for Inactive)
ROOT
ATOM      1  C   UNL d   1      -1.403   3.104   1.314  0.00  0.00     0.020 A 
ATOM      2  C1  UNL d   1      -1.593   3.103  -0.068  0.00  0.00     0.020 A 
ATOM      3  C2  UNL d   1      -1.033   2.089  -0.849  0.00  0.00     0.034 A 
ATOM      4  C3  UNL d   1      -0.280   1.073  -0.249  0.00  0.00     0.017 A 
ATOM      5  C4  UNL d   1      -0.090   1.075   1.138  0.00  0.00     0.017 A 
ATOM      6  C5  UNL d   1      -0.653   2.092   1.915  0.00  0.00     0.034 A 
ATOM      7 Cl   UNL d   1       0.825  -0.145   1.950  0.00  0.00    -0.070 Cl
ATOM      8 Cl1  UNL d   1       0.382  -0.149  -1.275  0.00  0.00    -0.070 Cl
ENDROOT
TORSDOF 0
ENDMDL
