MODEL 1
REMARK minimizedAffinity -3.06865454
REMARK minimizedRMSD -1
REMARK  0 active torsions:
REMARK  status: ('A' for Active; 'I' for Inactive)
ROOT
ATOM      1  C   UNL d   1      -1.381   2.693   0.749  0.00  0.00     0.020 A 
ATOM      2  C1  UNL d   1      -1.209   3.226  -0.528  0.00  0.00     0.020 A 
ATOM      3  C2  UNL d   1      -0.595   2.464  -1.525  0.00  0.00     0.034 A 
ATOM      4  C3  UNL d   1      -0.152   1.166  -1.246  0.00  0.00     0.017 A 
ATOM      5  C4  UNL d   1      -0.326   0.633   0.036  0.00  0.00     0.017 A 
ATOM      6  C5  UNL d   1      -0.941   1.400   1.030  0.00  0.00     0.034 A 
ATOM      7 Cl   UNL d   1       0.195  -0.961   0.455  0.00  0.00    -0.070 Cl
ATOM      8 Cl1  UNL d   1       0.598   0.281  -2.527  0.00  0.00    -0.070 Cl
ENDROOT
TORSDOF 0
ENDMDL
