MODEL 1
REMARK minimizedAffinity -5.25139904
REMARK minimizedRMSD -1
REMARK  0 active torsions:
REMARK  status: ('A' for Active; 'I' for Inactive)
ROOT
ATOM      1  C   UNL d   1      -0.944   3.006   1.402  0.00  0.00     0.020 A 
ATOM      2  C1  UNL d   1      -1.311   2.896   0.061  0.00  0.00     0.020 A 
ATOM      3  C2  UNL d   1      -0.960   1.758  -0.668  0.00  0.00     0.034 A 
ATOM      4  C3  UNL d   1      -0.240   0.725  -0.058  0.00  0.00     0.017 A 
ATOM      5  C4  UNL d   1       0.129   0.836   1.288  0.00  0.00     0.017 A 
ATOM      6  C5  UNL d   1      -0.225   1.978   2.014  0.00  0.00     0.034 A 
ATOM      7 Cl   UNL d   1       1.018  -0.397   2.110  0.00  0.00    -0.070 Cl
ATOM      8 Cl1  UNL d   1       0.160  -0.653  -1.020  0.00  0.00    -0.070 Cl
ENDROOT
TORSDOF 0
ENDMDL
