MODEL 1
REMARK minimizedAffinity -4.53865862
REMARK minimizedRMSD -1
REMARK  0 active torsions:
REMARK  status: ('A' for Active; 'I' for Inactive)
ROOT
ATOM      1  C   UNL d   1      -1.017   3.254  -0.562  0.00  0.00     0.020 A 
ATOM      2  C1  UNL d   1      -0.994   3.342   0.829  0.00  0.00     0.020 A 
ATOM      3  C2  UNL d   1      -0.604   2.239   1.592  0.00  0.00     0.034 A 
ATOM      4  C3  UNL d   1      -0.235   1.044   0.964  0.00  0.00     0.017 A 
ATOM      5  C4  UNL d   1      -0.259   0.956  -0.432  0.00  0.00     0.017 A 
ATOM      6  C5  UNL d   1      -0.650   2.064  -1.191  0.00  0.00     0.034 A 
ATOM      7 Cl   UNL d   1       0.182  -0.485  -1.279  0.00  0.00    -0.070 Cl
ATOM      8 Cl1  UNL d   1       0.237  -0.280   1.970  0.00  0.00    -0.070 Cl
ENDROOT
TORSDOF 0
ENDMDL
