MODEL 1
REMARK minimizedAffinity -4.59383488
REMARK minimizedRMSD -1
REMARK  0 active torsions:
REMARK  status: ('A' for Active; 'I' for Inactive)
ROOT
ATOM      1  C   UNL d   1      -0.941   2.963   1.461  0.00  0.00     0.020 A 
ATOM      2  C1  UNL d   1      -0.781   1.755   2.139  0.00  0.00     0.020 A 
ATOM      3  C2  UNL d   1      -0.316   0.629   1.457  0.00  0.00     0.034 A 
ATOM      4  C3  UNL d   1      -0.009   0.708   0.094  0.00  0.00     0.017 A 
ATOM      5  C4  UNL d   1      -0.170   1.921  -0.585  0.00  0.00     0.017 A 
ATOM      6  C5  UNL d   1      -0.636   3.046   0.102  0.00  0.00     0.034 A 
ATOM      7 Cl   UNL d   1       0.187   2.095  -2.267  0.00  0.00    -0.070 Cl
ATOM      8 Cl1  UNL d   1       0.561  -0.725  -0.685  0.00  0.00    -0.070 Cl
ENDROOT
TORSDOF 0
ENDMDL
