MODEL 1
REMARK minimizedAffinity -4.6488018
REMARK minimizedRMSD -1
REMARK  0 active torsions:
REMARK  status: ('A' for Active; 'I' for Inactive)
ROOT
ATOM      1  C   UNL d   1      -0.971   3.288  -0.186  0.00  0.00     0.020 A 
ATOM      2  C1  UNL d   1      -0.940   3.158   1.201  0.00  0.00     0.020 A 
ATOM      3  C2  UNL d   1      -0.367   2.025   1.784  0.00  0.00     0.034 A 
ATOM      4  C3  UNL d   1       0.177   1.019   0.978  0.00  0.00     0.017 A 
ATOM      5  C4  UNL d   1       0.145   1.150  -0.415  0.00  0.00     0.017 A 
ATOM      6  C5  UNL d   1      -0.430   2.286  -0.993  0.00  0.00     0.034 A 
ATOM      7 Cl   UNL d   1       0.796  -0.050  -1.475  0.00  0.00    -0.070 Cl
ATOM      8 Cl1  UNL d   1       0.870  -0.354   1.766  0.00  0.00    -0.070 Cl
ENDROOT
TORSDOF 0
ENDMDL
