MODEL 1
REMARK minimizedAffinity -5.86223698
REMARK minimizedRMSD -1
REMARK  0 active torsions:
REMARK  status: ('A' for Active; 'I' for Inactive)
ROOT
ATOM      1  C   UNL d   1      -0.967   3.070   0.648  0.00  0.00     0.020 A 
ATOM      2  C1  UNL d   1      -1.040   1.989   1.526  0.00  0.00     0.020 A 
ATOM      3  C2  UNL d   1      -0.685   0.711   1.090  0.00  0.00     0.034 A 
ATOM      4  C3  UNL d   1      -0.255   0.510  -0.226  0.00  0.00     0.017 A 
ATOM      5  C4  UNL d   1      -0.181   1.595  -1.107  0.00  0.00     0.017 A 
ATOM      6  C5  UNL d   1      -0.538   2.873  -0.665  0.00  0.00     0.034 A 
ATOM      7 Cl   UNL d   1       0.341   1.426  -2.746  0.00  0.00    -0.070 Cl
ATOM      8 Cl1  UNL d   1       0.169  -1.098  -0.696  0.00  0.00    -0.070 Cl
ENDROOT
TORSDOF 0
ENDMDL
