MODEL 1
REMARK minimizedAffinity -3.84167171
REMARK minimizedRMSD -1
REMARK  0 active torsions:
REMARK  status: ('A' for Active; 'I' for Inactive)
ROOT
ATOM      1  C   UNL d   1      -1.490   2.713   1.501  0.00  0.00     0.020 A 
ATOM      2  C1  UNL d   1      -1.252   3.541   0.404  0.00  0.00     0.020 A 
ATOM      3  C2  UNL d   1      -0.649   3.024  -0.744  0.00  0.00     0.034 A 
ATOM      4  C3  UNL d   1      -0.281   1.674  -0.799  0.00  0.00     0.017 A 
ATOM      5  C4  UNL d   1      -0.520   0.844   0.302  0.00  0.00     0.017 A 
ATOM      6  C5  UNL d   1      -1.125   1.367   1.449  0.00  0.00     0.034 A 
ATOM      7 Cl   UNL d   1      -0.095  -0.831   0.309  0.00  0.00    -0.070 Cl
ATOM      8 Cl1  UNL d   1       0.460   1.102  -2.251  0.00  0.00    -0.070 Cl
ENDROOT
TORSDOF 0
ENDMDL
