MODEL 1
REMARK minimizedAffinity -2.67151403
REMARK minimizedRMSD -1
REMARK  2 active torsions:
REMARK  status: ('A' for Active; 'I' for Inactive)
REMARK    1  A    between atoms: C2'_3  and  C1'_4 
REMARK    2  A    between atoms: C1'_4  and  C1_5 
ROOT
ATOM      1  C1  I4B d   1       0.822   0.507   0.551  0.00  0.00    -0.075 A 
ATOM      2  C2  I4B d   1       1.064  -0.796   0.909  0.00  0.00     0.003 A 
ATOM      3  C3  I4B d   1       0.004  -1.620   1.358  0.00  0.00     0.002 A 
ATOM      4  C4  I4B d   1      -1.264  -1.090   1.481  0.00  0.00    -0.004 A 
ATOM      5  C5  I4B d   1      -1.512   0.224   1.096  0.00  0.00     0.002 A 
ATOM      6  C6  I4B d   1      -0.465   1.025   0.616  0.00  0.00     0.003 A 
ENDROOT
BRANCH   1   7
ATOM      7  C1' I4B d   1       1.971   1.359   0.112  0.00  0.00     0.060 C 
BRANCH   7   8
ATOM      8  C2' I4B d   1       1.897   2.668   0.871  0.00  0.00    -0.013 C 
ATOM      9  C4' I4B d   1       2.568   2.558   2.215  0.00  0.00     0.013 C 
ATOM     10  C3' I4B d   1       2.542   3.728   0.030  0.00  0.00     0.013 C 
ENDBRANCH   7   8
ENDBRANCH   1   7
TORSDOF 2
ENDMDL
