MODEL 1
REMARK minimizedAffinity -3.18952537
REMARK minimizedRMSD -1
REMARK  2 active torsions:
REMARK  status: ('A' for Active; 'I' for Inactive)
REMARK    1  A    between atoms: C2'_3  and  C1'_4 
REMARK    2  A    between atoms: C1'_4  and  C1_5 
ROOT
ATOM      1  C1  I4B d   1       0.319   0.262   0.044  0.00  0.00    -0.075 A 
ATOM      2  C2  I4B d   1      -0.118   0.729  -1.170  0.00  0.00     0.003 A 
ATOM      3  C3  I4B d   1      -1.393   0.355  -1.660  0.00  0.00     0.002 A 
ATOM      4  C4  I4B d   1      -2.172  -0.521  -0.931  0.00  0.00    -0.004 A 
ATOM      5  C5  I4B d   1      -1.736  -0.974   0.311  0.00  0.00     0.002 A 
ATOM      6  C6  I4B d   1      -0.488  -0.571   0.808  0.00  0.00     0.003 A 
ENDROOT
BRANCH   1   7
ATOM      7  C1' I4B d   1       1.685   0.650   0.516  0.00  0.00     0.060 C 
BRANCH   7   8
ATOM      8  C2' I4B d   1       1.732   2.161   0.616  0.00  0.00    -0.013 C 
ATOM      9  C4' I4B d   1       2.002   2.605   2.030  0.00  0.00     0.013 C 
ATOM     10  C3' I4B d   1       2.796   2.655  -0.319  0.00  0.00     0.013 C 
ENDBRANCH   7   8
ENDBRANCH   1   7
TORSDOF 2
ENDMDL
