MODEL 1
REMARK minimizedAffinity -4.14669418
REMARK minimizedRMSD -1
REMARK  2 active torsions:
REMARK  status: ('A' for Active; 'I' for Inactive)
REMARK    1  A    between atoms: C2'_3  and  C1'_4 
REMARK    2  A    between atoms: C1'_4  and  C1_5 
ROOT
ATOM      1  C1  I4B d   1      -0.703  -0.053  -0.396  0.00  0.00    -0.075 A 
ATOM      2  C2  I4B d   1      -1.550  -0.730   0.446  0.00  0.00     0.003 A 
ATOM      3  C3  I4B d   1      -2.894  -0.965   0.066  0.00  0.00     0.002 A 
ATOM      4  C4  I4B d   1      -3.360  -0.463  -1.132  0.00  0.00    -0.004 A 
ATOM      5  C5  I4B d   1      -2.493   0.203  -1.994  0.00  0.00     0.002 A 
ATOM      6  C6  I4B d   1      -1.153   0.399  -1.629  0.00  0.00     0.003 A 
ENDROOT
BRANCH   1   7
ATOM      7  C1' I4B d   1       0.701   0.205   0.051  0.00  0.00     0.060 C 
BRANCH   7   8
ATOM      8  C2' I4B d   1       0.866   1.701   0.229  0.00  0.00    -0.013 C 
ATOM      9  C4' I4B d   1       0.331   2.154   1.562  0.00  0.00     0.013 C 
ATOM     10  C3' I4B d   1       2.324   2.025   0.092  0.00  0.00     0.013 C 
ENDBRANCH   7   8
ENDBRANCH   1   7
TORSDOF 2
ENDMDL
