MODEL 1
REMARK minimizedAffinity -1.32577848
REMARK minimizedRMSD -1
REMARK  2 active torsions:
REMARK  status: ('A' for Active; 'I' for Inactive)
REMARK    1  A    between atoms: C2'_3  and  C1'_4 
REMARK    2  A    between atoms: C1'_4  and  C1_5 
ROOT
ATOM      1  C1  I4B d   1      -0.738  -0.162  -1.139  0.00  0.00    -0.075 A 
ATOM      2  C2  I4B d   1      -1.364   0.666  -0.241  0.00  0.00     0.003 A 
ATOM      3  C3  I4B d   1      -0.868   0.790   1.079  0.00  0.00     0.002 A 
ATOM      4  C4  I4B d   1       0.219   0.035   1.471  0.00  0.00    -0.004 A 
ATOM      5  C5  I4B d   1       0.866  -0.786   0.552  0.00  0.00     0.002 A 
ATOM      6  C6  I4B d   1       0.392  -0.876  -0.765  0.00  0.00     0.003 A 
ENDROOT
BRANCH   1   7
ATOM      7  C1' I4B d   1      -1.309  -0.294  -2.516  0.00  0.00     0.060 C 
BRANCH   7   8
ATOM      8  C2' I4B d   1      -2.498  -1.230  -2.440  0.00  0.00    -0.013 C 
ATOM      9  C4' I4B d   1      -2.087  -2.655  -2.702  0.00  0.00     0.013 C 
ATOM     10  C3' I4B d   1      -3.116  -1.085  -1.082  0.00  0.00     0.013 C 
ENDBRANCH   7   8
ENDBRANCH   1   7
TORSDOF 2
ENDMDL
