MODEL 1
REMARK minimizedAffinity -3.97821283
REMARK minimizedRMSD -1
REMARK  2 active torsions:
REMARK  status: ('A' for Active; 'I' for Inactive)
REMARK    1  A    between atoms: C2'_3  and  C1'_4 
REMARK    2  A    between atoms: C1'_4  and  C1_5 
ROOT
ATOM      1  C1  I4B d   1      -0.383  -0.405  -0.134  0.00  0.00    -0.075 A 
ATOM      2  C2  I4B d   1      -0.478   0.252  -1.336  0.00  0.00     0.003 A 
ATOM      3  C3  I4B d   1      -1.509  -0.078  -2.249  0.00  0.00     0.002 A 
ATOM      4  C4  I4B d   1      -2.386  -1.099  -1.943  0.00  0.00    -0.004 A 
ATOM      5  C5  I4B d   1      -2.302  -1.748  -0.715  0.00  0.00     0.002 A 
ATOM      6  C6  I4B d   1      -1.302  -1.391   0.201  0.00  0.00     0.003 A 
ENDROOT
BRANCH   1   7
ATOM      7  C1' I4B d   1       0.738  -0.054   0.792  0.00  0.00     0.060 C 
BRANCH   7   8
ATOM      8  C2' I4B d   1       0.934   1.447   0.740  0.00  0.00    -0.013 C 
ATOM      9  C4' I4B d   1      -0.017   2.154   1.670  0.00  0.00     0.013 C 
ATOM     10  C3' I4B d   1       2.360   1.740   1.099  0.00  0.00     0.013 C 
ENDBRANCH   7   8
ENDBRANCH   1   7
TORSDOF 2
ENDMDL
