MODEL 1
REMARK minimizedAffinity -5.01765966
REMARK minimizedRMSD -1
REMARK  2 active torsions:
REMARK  status: ('A' for Active; 'I' for Inactive)
REMARK    1  A    between atoms: C2'_3  and  C1'_4 
REMARK    2  A    between atoms: C1'_4  and  C1_5 
ROOT
ATOM      1  C1  I4B d   1      -0.680   0.150  -0.672  0.00  0.00    -0.075 A 
ATOM      2  C2  I4B d   1      -1.299  -0.683  -1.571  0.00  0.00     0.003 A 
ATOM      3  C3  I4B d   1      -2.637  -1.094  -1.356  0.00  0.00     0.002 A 
ATOM      4  C4  I4B d   1      -3.297  -0.693  -0.212  0.00  0.00    -0.004 A 
ATOM      5  C5  I4B d   1      -2.675   0.169   0.686  0.00  0.00     0.002 A 
ATOM      6  C6  I4B d   1      -1.363   0.604   0.449  0.00  0.00     0.003 A 
ENDROOT
BRANCH   1   7
ATOM      7  C1' I4B d   1       0.744   0.538  -0.912  0.00  0.00     0.060 C 
BRANCH   7   8
ATOM      8  C2' I4B d   1       1.469   0.500   0.418  0.00  0.00    -0.013 C 
ATOM      9  C4' I4B d   1       1.903  -0.901   0.762  0.00  0.00     0.013 C 
ATOM     10  C3' I4B d   1       2.646   1.425   0.330  0.00  0.00     0.013 C 
ENDBRANCH   7   8
ENDBRANCH   1   7
TORSDOF 2
ENDMDL
