MODEL 1
REMARK minimizedAffinity -0.511588335
REMARK minimizedRMSD -1
REMARK  2 active torsions:
REMARK  status: ('A' for Active; 'I' for Inactive)
REMARK    1  A    between atoms: C2'_3  and  C1'_4 
REMARK    2  A    between atoms: C1'_4  and  C1_5 
ROOT
ATOM      1  C1  I4B d   1      -0.654  -0.659  -0.014  0.00  0.00    -0.075 A 
ATOM      2  C2  I4B d   1       0.590  -1.086   0.377  0.00  0.00     0.003 A 
ATOM      3  C3  I4B d   1       1.740  -0.698  -0.354  0.00  0.00     0.002 A 
ATOM      4  C4  I4B d   1       1.595   0.071  -1.490  0.00  0.00    -0.004 A 
ATOM      5  C5  I4B d   1       0.334   0.522  -1.872  0.00  0.00     0.002 A 
ATOM      6  C6  I4B d   1      -0.796   0.166  -1.122  0.00  0.00     0.003 A 
ENDROOT
BRANCH   1   7
ATOM      7  C1' I4B d   1      -1.849  -1.114   0.762  0.00  0.00     0.060 C 
BRANCH   7   8
ATOM      8  C2' I4B d   1      -2.985  -1.332  -0.217  0.00  0.00    -0.013 C 
ATOM      9  C4' I4B d   1      -2.524  -2.106  -1.423  0.00  0.00     0.013 C 
ATOM     10  C3' I4B d   1      -4.084  -2.056   0.504  0.00  0.00     0.013 C 
ENDBRANCH   7   8
ENDBRANCH   1   7
TORSDOF 2
ENDMDL
