MODEL 1
REMARK minimizedAffinity 3.77359629
REMARK minimizedRMSD -1
REMARK  2 active torsions:
REMARK  status: ('A' for Active; 'I' for Inactive)
REMARK    1  A    between atoms: C2'_3  and  C1'_4 
REMARK    2  A    between atoms: C1'_4  and  C1_5 
ROOT
ATOM      1  C1  I4B d   1      -0.411  -0.596   0.517  0.00  0.00    -0.075 A 
ATOM      2  C2  I4B d   1      -0.012  -1.410   1.547  0.00  0.00     0.003 A 
ATOM      3  C3  I4B d   1      -0.910  -1.727   2.595  0.00  0.00     0.002 A 
ATOM      4  C4  I4B d   1      -2.173  -1.170   2.600  0.00  0.00    -0.004 A 
ATOM      5  C5  I4B d   1      -2.584  -0.363   1.543  0.00  0.00     0.002 A 
ATOM      6  C6  I4B d   1      -1.702  -0.084   0.488  0.00  0.00     0.003 A 
ENDROOT
BRANCH   1   7
ATOM      7  C1' I4B d   1       0.573  -0.255  -0.556  0.00  0.00     0.060 C 
BRANCH   7   8
ATOM      8  C2' I4B d   1      -0.189   0.367  -1.708  0.00  0.00    -0.013 C 
ATOM      9  C4' I4B d   1      -0.460   1.827  -1.458  0.00  0.00     0.013 C 
ATOM     10  C3' I4B d   1       0.619   0.173  -2.957  0.00  0.00     0.013 C 
ENDBRANCH   7   8
ENDBRANCH   1   7
TORSDOF 2
ENDMDL
