MODEL 1
REMARK minimizedAffinity -6.57220459
REMARK minimizedRMSD -1
REMARK  2 active torsions:
REMARK  status: ('A' for Active; 'I' for Inactive)
REMARK    1  A    between atoms: C2'_3  and  C1'_4 
REMARK    2  A    between atoms: C1'_4  and  C1_5 
ROOT
ATOM      1  C1  I4B d   1       0.012   0.391  -0.352  0.00  0.00    -0.075 A 
ATOM      2  C2  I4B d   1      -0.934  -0.379   0.278  0.00  0.00     0.003 A 
ATOM      3  C3  I4B d   1      -2.115  -0.758  -0.404  0.00  0.00     0.002 A 
ATOM      4  C4  I4B d   1      -2.332  -0.306  -1.690  0.00  0.00    -0.004 A 
ATOM      5  C5  I4B d   1      -1.362   0.456  -2.335  0.00  0.00     0.002 A 
ATOM      6  C6  I4B d   1      -0.177   0.796  -1.667  0.00  0.00     0.003 A 
ENDROOT
BRANCH   1   7
ATOM      7  C1' I4B d   1       1.232   0.800   0.409  0.00  0.00     0.060 C 
BRANCH   7   8
ATOM      8  C2' I4B d   1       1.029   2.224   0.887  0.00  0.00    -0.013 C 
ATOM      9  C4' I4B d   1       0.458   2.255   2.280  0.00  0.00     0.013 C 
ATOM     10  C3' I4B d   1       2.354   2.925   0.829  0.00  0.00     0.013 C 
ENDBRANCH   7   8
ENDBRANCH   1   7
TORSDOF 2
ENDMDL
