MODEL 1
REMARK minimizedAffinity -3.45845175
REMARK minimizedRMSD -1
REMARK  2 active torsions:
REMARK  status: ('A' for Active; 'I' for Inactive)
REMARK    1  A    between atoms: C2'_3  and  C1'_4 
REMARK    2  A    between atoms: C1'_4  and  C1_5 
ROOT
ATOM      1  C1  I4B d   1       0.454   0.236  -0.161  0.00  0.00    -0.075 A 
ATOM      2  C2  I4B d   1       0.637  -0.220  -1.442  0.00  0.00     0.003 A 
ATOM      3  C3  I4B d   1      -0.466  -0.337  -2.322  0.00  0.00     0.002 A 
ATOM      4  C4  I4B d   1      -1.733  -0.035  -1.866  0.00  0.00    -0.004 A 
ATOM      5  C5  I4B d   1      -1.914   0.449  -0.574  0.00  0.00     0.002 A 
ATOM      6  C6  I4B d   1      -0.812   0.598   0.281  0.00  0.00     0.003 A 
ENDROOT
BRANCH   1   7
ATOM      7  C1' I4B d   1       1.637   0.315   0.752  0.00  0.00     0.060 C 
BRANCH   7   8
ATOM      8  C2' I4B d   1       2.053   1.768   0.851  0.00  0.00    -0.013 C 
ATOM      9  C4' I4B d   1       2.428   2.133   2.263  0.00  0.00     0.013 C 
ATOM     10  C3' I4B d   1       3.203   1.985  -0.087  0.00  0.00     0.013 C 
ENDBRANCH   7   8
ENDBRANCH   1   7
TORSDOF 2
ENDMDL
