MODEL 1
REMARK minimizedAffinity -2.71750188
REMARK minimizedRMSD -1
REMARK  2 active torsions:
REMARK  status: ('A' for Active; 'I' for Inactive)
REMARK    1  A    between atoms: C2'_3  and  C1'_4 
REMARK    2  A    between atoms: C1'_4  and  C1_5 
ROOT
ATOM      1  C1  I4B d   1       0.688   0.820   0.362  0.00  0.00    -0.075 A 
ATOM      2  C2  I4B d   1       1.824   0.733  -0.404  0.00  0.00     0.003 A 
ATOM      3  C3  I4B d   1       2.840   1.712  -0.285  0.00  0.00     0.002 A 
ATOM      4  C4  I4B d   1       2.658   2.780   0.570  0.00  0.00    -0.004 A 
ATOM      5  C5  I4B d   1       1.516   2.854   1.362  0.00  0.00     0.002 A 
ATOM      6  C6  I4B d   1       0.530   1.861   1.266  0.00  0.00     0.003 A 
ENDROOT
BRANCH   1   7
ATOM      7  C1' I4B d   1      -0.379  -0.213   0.186  0.00  0.00     0.060 C 
BRANCH   7   8
ATOM      8  C2' I4B d   1      -0.978  -0.037  -1.194  0.00  0.00    -0.013 C 
ATOM      9  C4' I4B d   1      -1.981  -1.119  -1.497  0.00  0.00     0.013 C 
ATOM     10  C3' I4B d   1      -1.612   1.321  -1.254  0.00  0.00     0.013 C 
ENDBRANCH   7   8
ENDBRANCH   1   7
TORSDOF 2
ENDMDL
