MODEL 1
REMARK minimizedAffinity -5.84681368
REMARK minimizedRMSD -1
REMARK  2 active torsions:
REMARK  status: ('A' for Active; 'I' for Inactive)
REMARK    1  A    between atoms: C2'_3  and  C1'_4 
REMARK    2  A    between atoms: C1'_4  and  C1_5 
ROOT
ATOM      1  C1  I4B d   1      -0.744   0.737   0.119  0.00  0.00    -0.075 A 
ATOM      2  C2  I4B d   1      -0.514   0.301  -1.162  0.00  0.00     0.003 A 
ATOM      3  C3  I4B d   1      -1.483  -0.483  -1.833  0.00  0.00     0.002 A 
ATOM      4  C4  I4B d   1      -2.639  -0.846  -1.173  0.00  0.00    -0.004 A 
ATOM      5  C5  I4B d   1      -2.881  -0.384   0.117  0.00  0.00     0.002 A 
ATOM      6  C6  I4B d   1      -1.934   0.423   0.763  0.00  0.00     0.003 A 
ENDROOT
BRANCH   1   7
ATOM      7  C1' I4B d   1       0.315   1.535   0.811  0.00  0.00     0.060 C 
BRANCH   7   8
ATOM      8  C2' I4B d   1       1.663   0.995   0.378  0.00  0.00    -0.013 C 
ATOM      9  C4' I4B d   1       2.751   2.016   0.584  0.00  0.00     0.013 C 
ATOM     10  C3' I4B d   1       1.936  -0.253   1.165  0.00  0.00     0.013 C 
ENDBRANCH   7   8
ENDBRANCH   1   7
TORSDOF 2
ENDMDL
