MODEL 1
REMARK minimizedAffinity -3.39734912
REMARK minimizedRMSD -1
REMARK  2 active torsions:
REMARK  status: ('A' for Active; 'I' for Inactive)
REMARK    1  A    between atoms: C2'_3  and  C1'_4 
REMARK    2  A    between atoms: C1'_4  and  C1_5 
ROOT
ATOM      1  C1  I4B d   1       0.715   0.437   0.162  0.00  0.00    -0.075 A 
ATOM      2  C2  I4B d   1       1.781   1.296   0.065  0.00  0.00     0.003 A 
ATOM      3  C3  I4B d   1       2.225   2.011   1.203  0.00  0.00     0.002 A 
ATOM      4  C4  I4B d   1       1.548   1.877   2.398  0.00  0.00    -0.004 A 
ATOM      5  C5  I4B d   1       0.481   0.988   2.500  0.00  0.00     0.002 A 
ATOM      6  C6  I4B d   1       0.069   0.254   1.378  0.00  0.00     0.003 A 
ENDROOT
BRANCH   1   7
ATOM      7  C1' I4B d   1       0.251  -0.277  -1.068  0.00  0.00     0.060 C 
BRANCH   7   8
ATOM      8  C2' I4B d   1      -1.058   0.348  -1.506  0.00  0.00    -0.013 C 
ATOM      9  C4' I4B d   1      -0.913   1.045  -2.833  0.00  0.00     0.013 C 
ATOM     10  C3' I4B d   1      -2.090  -0.738  -1.575  0.00  0.00     0.013 C 
ENDBRANCH   7   8
ENDBRANCH   1   7
TORSDOF 2
ENDMDL
