MODEL 1
REMARK minimizedAffinity -2.48416615
REMARK minimizedRMSD -1
REMARK  1 active torsions:
REMARK  status: ('A' for Active; 'I' for Inactive)
REMARK    1  A    between atoms: N_2  and  C1_3 
ROOT
ATOM      1  C1  UNL d   1      -2.186  -4.366   0.898  0.00  0.00     0.143 A 
ATOM      2  C2  UNL d   1      -1.093  -3.607   0.467  0.00  0.00    -0.057 A 
ATOM      3  C3  UNL d   1      -0.424  -3.908  -0.725  0.00  0.00     0.033 A 
ATOM      4  C4  UNL d   1      -0.820  -4.997  -1.496  0.00  0.00    -0.042 A 
ATOM      5  C5  UNL d   1      -1.888  -5.780  -1.074  0.00  0.00     0.033 A 
ATOM      6  C6  UNL d   1      -2.556  -5.470   0.114  0.00  0.00    -0.057 A 
ENDROOT
BRANCH   1   7
ATOM      7  N   UNL d   1      -2.830  -4.177   2.123  0.00  0.00    -0.732 N 
ATOM      8  C   UNL d   1      -3.078  -5.296   3.006  0.00  0.00     0.284 C 
ATOM      9  H3  UNL d   1      -2.519  -3.333   2.599  0.00  0.00     0.395 HD
ENDBRANCH   1   7
TORSDOF 1
ENDMDL
