MODEL 1
REMARK minimizedAffinity 2.39448619
REMARK minimizedRMSD -1
REMARK  1 active torsions:
REMARK  status: ('A' for Active; 'I' for Inactive)
REMARK    1  A    between atoms: N_2  and  C1_3 
ROOT
ATOM      1  C1  UNL d   1       1.285  -1.098   1.201  0.00  0.00     0.143 A 
ATOM      2  C2  UNL d   1       0.615  -2.283   0.879  0.00  0.00    -0.057 A 
ATOM      3  C3  UNL d   1      -0.188  -2.375  -0.265  0.00  0.00     0.033 A 
ATOM      4  C4  UNL d   1      -0.358  -1.271  -1.093  0.00  0.00    -0.042 A 
ATOM      5  C5  UNL d   1       0.279  -0.076  -0.779  0.00  0.00     0.033 A 
ATOM      6  C6  UNL d   1       1.084   0.008   0.360  0.00  0.00    -0.057 A 
ENDROOT
BRANCH   1   7
ATOM      7  N   UNL d   1       2.018  -0.913   2.376  0.00  0.00    -0.732 N 
ATOM      8  C   UNL d   1       3.419  -1.272   2.434  0.00  0.00     0.284 C 
ATOM      9  H3  UNL d   1       1.794  -0.036   2.840  0.00  0.00     0.395 HD
ENDBRANCH   1   7
TORSDOF 1
ENDMDL
