MODEL 1
REMARK minimizedAffinity -4.19815779
REMARK minimizedRMSD -1
REMARK  1 active torsions:
REMARK  status: ('A' for Active; 'I' for Inactive)
REMARK    1  A    between atoms: N_2  and  C1_3 
ROOT
ATOM      1  C1  UNL d   1       1.201  -3.862   4.363  0.00  0.00     0.143 A 
ATOM      2  C2  UNL d   1       2.278  -2.989   4.551  0.00  0.00    -0.057 A 
ATOM      3  C3  UNL d   1       2.440  -1.852   3.751  0.00  0.00     0.033 A 
ATOM      4  C4  UNL d   1       1.541  -1.582   2.725  0.00  0.00    -0.042 A 
ATOM      5  C5  UNL d   1       0.477  -2.449   2.503  0.00  0.00     0.033 A 
ATOM      6  C6  UNL d   1       0.316  -3.580   3.310  0.00  0.00    -0.057 A 
ENDROOT
BRANCH   1   7
ATOM      7  N   UNL d   1       1.040  -5.061   5.061  0.00  0.00    -0.732 N 
ATOM      8  C   UNL d   1       2.185  -5.885   5.384  0.00  0.00     0.284 C 
ATOM      9  H3  UNL d   1       0.358  -4.984   5.812  0.00  0.00     0.395 HD
ENDBRANCH   1   7
TORSDOF 1
ENDMDL
