MODEL 1
REMARK minimizedAffinity -2.18813705
REMARK minimizedRMSD -1
REMARK  1 active torsions:
REMARK  status: ('A' for Active; 'I' for Inactive)
REMARK    1  A    between atoms: N_2  and  C1_3 
ROOT
ATOM      1  C1  UNL d   1       2.024  -3.597   3.962  0.00  0.00     0.143 A 
ATOM      2  C2  UNL d   1       2.611  -4.754   3.439  0.00  0.00    -0.057 A 
ATOM      3  C3  UNL d   1       2.636  -5.949   4.168  0.00  0.00     0.033 A 
ATOM      4  C4  UNL d   1       2.099  -6.000   5.450  0.00  0.00    -0.042 A 
ATOM      5  C5  UNL d   1       1.532  -4.855   6.000  0.00  0.00     0.033 A 
ATOM      6  C6  UNL d   1       1.504  -3.667   5.264  0.00  0.00    -0.057 A 
ENDROOT
BRANCH   1   7
ATOM      7  N   UNL d   1       2.054  -2.354   3.326  0.00  0.00    -0.732 N 
ATOM      8  C   UNL d   1       1.861  -2.252   1.895  0.00  0.00     0.284 C 
ATOM      9  H3  UNL d   1       1.578  -1.631   3.861  0.00  0.00     0.395 HD
ENDBRANCH   1   7
TORSDOF 1
ENDMDL
