MODEL 1
REMARK minimizedAffinity -2.95615101
REMARK minimizedRMSD -1
REMARK  1 active torsions:
REMARK  status: ('A' for Active; 'I' for Inactive)
REMARK    1  A    between atoms: N_2  and  C1_3 
ROOT
ATOM      1  C1  UNL d   1       1.910  -3.605   3.741  0.00  0.00     0.143 A 
ATOM      2  C2  UNL d   1       1.775  -3.590   5.134  0.00  0.00    -0.057 A 
ATOM      3  C3  UNL d   1       2.090  -4.714   5.906  0.00  0.00     0.033 A 
ATOM      4  C4  UNL d   1       2.520  -5.887   5.295  0.00  0.00    -0.042 A 
ATOM      5  C5  UNL d   1       2.638  -5.933   3.910  0.00  0.00     0.033 A 
ATOM      6  C6  UNL d   1       2.328  -4.805   3.145  0.00  0.00    -0.057 A 
ENDROOT
BRANCH   1   7
ATOM      7  N   UNL d   1       1.519  -2.552   2.911  0.00  0.00    -0.732 N 
ATOM      8  C   UNL d   1       2.327  -1.356   2.806  0.00  0.00     0.284 C 
ATOM      9  H3  UNL d   1       1.141  -2.877   2.024  0.00  0.00     0.395 HD
ENDBRANCH   1   7
TORSDOF 1
ENDMDL
