MODEL 1
REMARK minimizedAffinity -3.767627
REMARK minimizedRMSD -1
REMARK  1 active torsions:
REMARK  status: ('A' for Active; 'I' for Inactive)
REMARK    1  A    between atoms: N_2  and  C1_3 
ROOT
ATOM      1  C1  UNL d   1       1.273  -3.903   4.040  0.00  0.00     0.143 A 
ATOM      2  C2  UNL d   1       0.649  -3.627   2.819  0.00  0.00    -0.057 A 
ATOM      3  C3  UNL d   1       1.010  -2.511   2.055  0.00  0.00     0.033 A 
ATOM      4  C4  UNL d   1       1.985  -1.632   2.515  0.00  0.00    -0.042 A 
ATOM      5  C5  UNL d   1       2.601  -1.873   3.737  0.00  0.00     0.033 A 
ATOM      6  C6  UNL d   1       2.241  -2.993   4.493  0.00  0.00    -0.057 A 
ENDROOT
BRANCH   1   7
ATOM      7  N   UNL d   1       0.889  -4.942   4.892  0.00  0.00    -0.732 N 
ATOM      8  C   UNL d   1       1.818  -5.999   5.230  0.00  0.00     0.284 C 
ATOM      9  H3  UNL d   1       0.329  -4.615   5.676  0.00  0.00     0.395 HD
ENDBRANCH   1   7
TORSDOF 1
ENDMDL
