MODEL 1
REMARK minimizedAffinity -2.18198252
REMARK minimizedRMSD -1
REMARK  1 active torsions:
REMARK  status: ('A' for Active; 'I' for Inactive)
REMARK    1  A    between atoms: N_2  and  C1_3 
ROOT
ATOM      1  C1  UNL d   1      -2.568  -5.999  -4.179  0.00  0.00     0.143 A 
ATOM      2  C2  UNL d   1      -2.173  -5.904  -5.518  0.00  0.00    -0.057 A 
ATOM      3  C3  UNL d   1      -0.820  -5.858  -5.875  0.00  0.00     0.033 A 
ATOM      4  C4  UNL d   1       0.165  -5.877  -4.893  0.00  0.00    -0.042 A 
ATOM      5  C5  UNL d   1      -0.204  -5.946  -3.554  0.00  0.00     0.033 A 
ATOM      6  C6  UNL d   1      -1.557  -5.998  -3.205  0.00  0.00    -0.057 A 
ENDROOT
BRANCH   1   7
ATOM      7  N   UNL d   1      -3.898  -5.949  -3.755  0.00  0.00    -0.732 N 
ATOM      8  C   UNL d   1      -4.225  -5.998  -2.346  0.00  0.00     0.284 C 
ATOM      9  H3  UNL d   1      -4.450  -5.280  -4.286  0.00  0.00     0.395 HD
ENDBRANCH   1   7
TORSDOF 1
ENDMDL
