MODEL 1
REMARK minimizedAffinity -3.61610556
REMARK minimizedRMSD -1
REMARK  1 active torsions:
REMARK  status: ('A' for Active; 'I' for Inactive)
REMARK    1  A    between atoms: N_2  and  C1_3 
ROOT
ATOM      1  C1  UNL d   1      -0.220  -5.411  -4.040  0.00  0.00     0.143 A 
ATOM      2  C2  UNL d   1       0.601  -5.957  -3.048  0.00  0.00    -0.057 A 
ATOM      3  C3  UNL d   1       1.996  -5.938  -3.168  0.00  0.00     0.033 A 
ATOM      4  C4  UNL d   1       2.595  -5.396  -4.300  0.00  0.00    -0.042 A 
ATOM      5  C5  UNL d   1       1.798  -4.870  -5.310  0.00  0.00     0.033 A 
ATOM      6  C6  UNL d   1       0.406  -4.886  -5.182  0.00  0.00    -0.057 A 
ENDROOT
BRANCH   1   7
ATOM      7  N   UNL d   1      -1.615  -5.488  -4.025  0.00  0.00    -0.732 N 
ATOM      8  C   UNL d   1      -2.313  -5.994  -2.863  0.00  0.00     0.284 C 
ATOM      9  H3  UNL d   1      -2.053  -4.675  -4.452  0.00  0.00     0.395 HD
ENDBRANCH   1   7
TORSDOF 1
ENDMDL
