MODEL 1
REMARK minimizedAffinity -3.88650417
REMARK minimizedRMSD -1
REMARK  1 active torsions:
REMARK  status: ('A' for Active; 'I' for Inactive)
REMARK    1  A    between atoms: N_2  and  C1_3 
ROOT
ATOM      1  C1  UNL d   1      -1.195  -5.591  -3.301  0.00  0.00     0.143 A 
ATOM      2  C2  UNL d   1      -2.438  -5.988  -3.806  0.00  0.00    -0.057 A 
ATOM      3  C3  UNL d   1      -3.581  -5.998  -2.997  0.00  0.00     0.033 A 
ATOM      4  C4  UNL d   1      -3.494  -5.639  -1.656  0.00  0.00    -0.042 A 
ATOM      5  C5  UNL d   1      -2.264  -5.266  -1.126  0.00  0.00     0.033 A 
ATOM      6  C6  UNL d   1      -1.128  -5.251  -1.941  0.00  0.00    -0.057 A 
ENDROOT
BRANCH   1   7
ATOM      7  N   UNL d   1      -0.004  -5.654  -4.028  0.00  0.00    -0.732 N 
ATOM      8  C   UNL d   1       0.035  -5.244  -5.416  0.00  0.00     0.284 C 
ATOM      9  H3  UNL d   1       0.800  -5.352  -3.483  0.00  0.00     0.395 HD
ENDBRANCH   1   7
TORSDOF 1
ENDMDL
