MODEL 1
REMARK minimizedAffinity -3.54340315
REMARK minimizedRMSD -1
REMARK  1 active torsions:
REMARK  status: ('A' for Active; 'I' for Inactive)
REMARK    1  A    between atoms: N_2  and  C1_3 
ROOT
ATOM      1  C1  UNL d   1      -1.563  -5.796  -4.150  0.00  0.00     0.143 A 
ATOM      2  C2  UNL d   1      -0.848  -5.771  -2.947  0.00  0.00    -0.057 A 
ATOM      3  C3  UNL d   1      -1.500  -5.876  -1.713  0.00  0.00     0.033 A 
ATOM      4  C4  UNL d   1      -2.886  -5.980  -1.657  0.00  0.00    -0.042 A 
ATOM      5  C5  UNL d   1      -3.619  -5.982  -2.839  0.00  0.00     0.033 A 
ATOM      6  C6  UNL d   1      -2.962  -5.883  -4.069  0.00  0.00    -0.057 A 
ENDROOT
BRANCH   1   7
ATOM      7  N   UNL d   1      -0.983  -5.596  -5.404  0.00  0.00    -0.732 N 
ATOM      8  C   UNL d   1       0.455  -5.625  -5.564  0.00  0.00     0.284 C 
ATOM      9  H3  UNL d   1      -1.493  -6.067  -6.148  0.00  0.00     0.395 HD
ENDBRANCH   1   7
TORSDOF 1
ENDMDL
