MODEL 1
REMARK minimizedAffinity -1.25253916
REMARK minimizedRMSD -1
REMARK  1 active torsions:
REMARK  status: ('A' for Active; 'I' for Inactive)
REMARK    1  A    between atoms: N_2  and  C1_3 
ROOT
ATOM      1  C1  UNL d   1      -4.000   0.657  -2.561  0.00  0.00     0.143 A 
ATOM      2  C2  UNL d   1      -4.027  -0.716  -2.830  0.00  0.00    -0.057 A 
ATOM      3  C3  UNL d   1      -4.370  -1.643  -1.839  0.00  0.00     0.033 A 
ATOM      4  C4  UNL d   1      -4.665  -1.215  -0.549  0.00  0.00    -0.042 A 
ATOM      5  C5  UNL d   1      -4.620   0.143  -0.252  0.00  0.00     0.033 A 
ATOM      6  C6  UNL d   1      -4.283   1.065  -1.248  0.00  0.00    -0.057 A 
ENDROOT
BRANCH   1   7
ATOM      7  N   UNL d   1      -3.572   1.620  -3.477  0.00  0.00    -0.732 N 
ATOM      8  C   UNL d   1      -2.212   2.115  -3.445  0.00  0.00     0.284 C 
ATOM      9  H3  UNL d   1      -3.931   1.452  -4.414  0.00  0.00     0.395 HD
ENDBRANCH   1   7
TORSDOF 1
ENDMDL
