MODEL 1
REMARK minimizedAffinity 6.30230045
REMARK minimizedRMSD -1
REMARK  1 active torsions:
REMARK  status: ('A' for Active; 'I' for Inactive)
REMARK    1  A    between atoms: N_2  and  C1_3 
ROOT
ATOM      1  C1  UNL d   1       2.899  -1.059   2.086  0.00  0.00     0.143 A 
ATOM      2  C2  UNL d   1       2.923  -1.396   3.444  0.00  0.00    -0.057 A 
ATOM      3  C3  UNL d   1       4.104  -1.316   4.191  0.00  0.00     0.033 A 
ATOM      4  C4  UNL d   1       5.293  -0.924   3.585  0.00  0.00    -0.042 A 
ATOM      5  C5  UNL d   1       5.298  -0.608   2.231  0.00  0.00     0.033 A 
ATOM      6  C6  UNL d   1       4.114  -0.684   1.491  0.00  0.00    -0.057 A 
ENDROOT
BRANCH   1   7
ATOM      7  N   UNL d   1       1.779  -1.212   1.266  0.00  0.00    -0.732 N 
ATOM      8  C   UNL d   1       1.014  -0.060   0.839  0.00  0.00     0.284 C 
ATOM      9  H3  UNL d   1       1.922  -1.908   0.538  0.00  0.00     0.395 HD
ENDBRANCH   1   7
TORSDOF 1
ENDMDL
