MODEL 1
REMARK minimizedAffinity -3.65428758
REMARK minimizedRMSD -1
REMARK  0 active torsions:
REMARK  status: ('A' for Active; 'I' for Inactive)
ROOT
ATOM      1  N1  IND d   1       2.224   0.269   0.843  0.00  0.00    -0.196 N 
ATOM      2  C2  IND d   1       1.697  -0.861   0.281  0.00  0.00     0.054 A 
ATOM      3  C3  IND d   1       0.366  -0.716   0.095  0.00  0.00    -0.031 A 
ATOM      4  C4  IND d   1      -1.136   1.326   0.546  0.00  0.00     0.051 A 
ATOM      5  C5  IND d   1      -1.115   2.579   1.090  0.00  0.00    -0.031 A 
ATOM      6  C6  IND d   1       0.044   3.139   1.587  0.00  0.00     0.015 A 
ATOM      7  C7  IND d   1       1.233   2.467   1.548  0.00  0.00    -0.016 A 
ATOM      8  C8  IND d   1       1.214   1.192   1.003  0.00  0.00    -0.047 A 
ATOM      9  C9  IND d   1       0.033   0.602   0.536  0.00  0.00    -0.096 A 
ATOM     10  HN1 IND d   1       3.048   0.383   1.060  0.00  0.00     0.298 HD
ENDROOT
TORSDOF 0
ENDMDL
