MODEL 1
REMARK minimizedAffinity -5.69948626
REMARK minimizedRMSD -1
REMARK  0 active torsions:
REMARK  status: ('A' for Active; 'I' for Inactive)
ROOT
ATOM      1  N1  IND d   1      -1.435  -0.245   1.617  0.00  0.00    -0.196 N 
ATOM      2  C2  IND d   1      -0.504  -1.245   1.566  0.00  0.00     0.054 A 
ATOM      3  C3  IND d   1       0.498  -0.913   0.721  0.00  0.00    -0.031 A 
ATOM      4  C4  IND d   1       0.864   1.264  -0.604  0.00  0.00     0.051 A 
ATOM      5  C5  IND d   1       0.266   2.455  -0.907  0.00  0.00    -0.031 A 
ATOM      6  C6  IND d   1      -0.953   2.815  -0.371  0.00  0.00     0.015 A 
ATOM      7  C7  IND d   1      -1.617   1.999   0.501  0.00  0.00    -0.016 A 
ATOM      8  C8  IND d   1      -1.016   0.786   0.805  0.00  0.00    -0.047 A 
ATOM      9  C9  IND d   1       0.201   0.396   0.231  0.00  0.00    -0.096 A 
ATOM     10  HN1 IND d   1      -2.160  -0.258   2.079  0.00  0.00     0.298 HD
ENDROOT
TORSDOF 0
ENDMDL
