MODEL 1
REMARK minimizedAffinity -3.94683433
REMARK minimizedRMSD -1
REMARK  0 active torsions:
REMARK  status: ('A' for Active; 'I' for Inactive)
ROOT
ATOM      1  N1  IND d   1       2.090   0.579   0.854  0.00  0.00    -0.196 N 
ATOM      2  C2  IND d   1       1.894  -0.725   0.492  0.00  0.00     0.054 A 
ATOM      3  C3  IND d   1       0.582  -0.959   0.268  0.00  0.00    -0.031 A 
ATOM      4  C4  IND d   1      -1.406   0.675   0.337  0.00  0.00     0.051 A 
ATOM      5  C5  IND d   1      -1.730   1.964   0.654  0.00  0.00    -0.031 A 
ATOM      6  C6  IND d   1      -0.778   2.877   1.058  0.00  0.00     0.015 A 
ATOM      7  C7  IND d   1       0.542   2.536   1.152  0.00  0.00    -0.016 A 
ATOM      8  C8  IND d   1       0.874   1.225   0.838  0.00  0.00    -0.047 A 
ATOM      9  C9  IND d   1      -0.095   0.283   0.467  0.00  0.00    -0.096 A 
ATOM     10  HN1 IND d   1       2.846   0.935   1.058  0.00  0.00     0.298 HD
ENDROOT
TORSDOF 0
ENDMDL
