MODEL 1
REMARK minimizedAffinity -0.241401851
REMARK minimizedRMSD -1
REMARK  0 active torsions:
REMARK  status: ('A' for Active; 'I' for Inactive)
ROOT
ATOM      1  N1  IND d   1      -0.385  -1.335   0.465  0.00  0.00    -0.196 N 
ATOM      2  C2  IND d   1       0.757  -0.676   0.105  0.00  0.00     0.054 A 
ATOM      3  C3  IND d   1       1.244  -1.177  -1.052  0.00  0.00    -0.031 A 
ATOM      4  C4  IND d   1       0.273  -3.008  -2.579  0.00  0.00     0.051 A 
ATOM      5  C5  IND d   1      -0.737  -3.926  -2.652  0.00  0.00    -0.031 A 
ATOM      6  C6  IND d   1      -1.701  -4.028  -1.670  0.00  0.00     0.015 A 
ATOM      7  C7  IND d   1      -1.699  -3.204  -0.581  0.00  0.00    -0.016 A 
ATOM      8  C8  IND d   1      -0.672  -2.275  -0.500  0.00  0.00    -0.047 A 
ATOM      9  C9  IND d   1       0.334  -2.195  -1.472  0.00  0.00    -0.096 A 
ATOM     10  HN1 IND d   1      -0.847  -1.187   1.175  0.00  0.00     0.298 HD
ENDROOT
TORSDOF 0
ENDMDL
