MODEL 1
REMARK minimizedAffinity -3.6162591
REMARK minimizedRMSD -1
REMARK  0 active torsions:
REMARK  status: ('A' for Active; 'I' for Inactive)
ROOT
ATOM      1  N1  IND d   1      -1.313  -0.751   0.966  0.00  0.00    -0.196 N 
ATOM      2  C2  IND d   1      -0.369  -1.679   0.623  0.00  0.00     0.054 A 
ATOM      3  C3  IND d   1       0.702  -1.076   0.062  0.00  0.00    -0.031 A 
ATOM      4  C4  IND d   1       1.165   1.431  -0.300  0.00  0.00     0.051 A 
ATOM      5  C5  IND d   1       0.583   2.662  -0.182  0.00  0.00    -0.031 A 
ATOM      6  C6  IND d   1      -0.685   2.821   0.339  0.00  0.00     0.015 A 
ATOM      7  C7  IND d   1      -1.417   1.753   0.772  0.00  0.00    -0.016 A 
ATOM      8  C8  IND d   1      -0.832   0.500   0.647  0.00  0.00    -0.047 A 
ATOM      9  C9  IND d   1       0.437   0.328   0.080  0.00  0.00    -0.096 A 
ATOM     10  HN1 IND d   1      -2.077  -0.920   1.321  0.00  0.00     0.298 HD
ENDROOT
TORSDOF 0
ENDMDL
