MODEL 1
REMARK minimizedAffinity -4.74158287
REMARK minimizedRMSD -1
REMARK  0 active torsions:
REMARK  status: ('A' for Active; 'I' for Inactive)
ROOT
ATOM      1  N1  IND d   1       0.389  -1.208   0.464  0.00  0.00    -0.196 N 
ATOM      2  C2  IND d   1      -0.125  -0.039  -0.023  0.00  0.00     0.054 A 
ATOM      3  C3  IND d   1      -1.197   0.343   0.707  0.00  0.00    -0.031 A 
ATOM      4  C4  IND d   1      -2.219  -0.743   2.805  0.00  0.00     0.051 A 
ATOM      5  C5  IND d   1      -2.116  -1.846   3.605  0.00  0.00    -0.031 A 
ATOM      6  C6  IND d   1      -1.151  -2.811   3.397  0.00  0.00     0.015 A 
ATOM      7  C7  IND d   1      -0.243  -2.702   2.383  0.00  0.00    -0.016 A 
ATOM      8  C8  IND d   1      -0.349  -1.587   1.564  0.00  0.00    -0.047 A 
ATOM      9  C9  IND d   1      -1.352  -0.626   1.744  0.00  0.00    -0.096 A 
ATOM     10  HN1 IND d   1       1.061  -1.635   0.138  0.00  0.00     0.298 HD
ENDROOT
TORSDOF 0
ENDMDL
