MODEL 1
REMARK minimizedAffinity -3.26278448
REMARK minimizedRMSD -1
REMARK  0 active torsions:
REMARK  status: ('A' for Active; 'I' for Inactive)
ROOT
ATOM      1  N1  IND d   1       0.722  -0.239  -0.815  0.00  0.00    -0.196 N 
ATOM      2  C2  IND d   1      -0.134  -1.264  -0.522  0.00  0.00     0.054 A 
ATOM      3  C3  IND d   1      -1.164  -0.816   0.230  0.00  0.00    -0.031 A 
ATOM      4  C4  IND d   1      -1.700   1.577   1.011  0.00  0.00     0.051 A 
ATOM      5  C5  IND d   1      -1.193   2.846   1.021  0.00  0.00    -0.031 A 
ATOM      6  C6  IND d   1       0.002   3.159   0.405  0.00  0.00     0.015 A 
ATOM      7  C7  IND d   1       0.731   2.212  -0.257  0.00  0.00    -0.016 A 
ATOM      8  C8  IND d   1       0.222   0.921  -0.263  0.00  0.00    -0.047 A 
ATOM      9  C9  IND d   1      -0.968   0.589   0.396  0.00  0.00    -0.096 A 
ATOM     10  HN1 IND d   1       1.450  -0.306  -1.267  0.00  0.00     0.298 HD
ENDROOT
TORSDOF 0
ENDMDL
