MODEL 1
REMARK minimizedAffinity -4.78410339
REMARK minimizedRMSD -1
REMARK  0 active torsions:
REMARK  status: ('A' for Active; 'I' for Inactive)
ROOT
ATOM      1  N1  IND d   1       0.139  -0.873   0.806  0.00  0.00    -0.196 N 
ATOM      2  C2  IND d   1      -0.040   0.204  -0.016  0.00  0.00     0.054 A 
ATOM      3  C3  IND d   1      -1.265   0.744   0.176  0.00  0.00    -0.031 A 
ATOM      4  C4  IND d   1      -3.098   0.084   1.859  0.00  0.00     0.051 A 
ATOM      5  C5  IND d   1      -3.409  -0.860   2.797  0.00  0.00    -0.031 A 
ATOM      6  C6  IND d   1      -2.536  -1.876   3.127  0.00  0.00     0.015 A 
ATOM      7  C7  IND d   1      -1.307  -1.979   2.538  0.00  0.00    -0.016 A 
ATOM      8  C8  IND d   1      -0.990  -1.026   1.580  0.00  0.00    -0.047 A 
ATOM      9  C9  IND d   1      -1.890  -0.018   1.210  0.00  0.00    -0.096 A 
ATOM     10  HN1 IND d   1       0.839  -1.372   0.834  0.00  0.00     0.298 HD
ENDROOT
TORSDOF 0
ENDMDL
