MODEL 1
REMARK minimizedAffinity -2.67215276
REMARK minimizedRMSD -1
REMARK  0 active torsions:
REMARK  status: ('A' for Active; 'I' for Inactive)
ROOT
ATOM      1  N1  IND d   1       0.081  -2.197  -2.741  0.00  0.00    -0.196 N 
ATOM      2  C2  IND d   1      -1.011  -3.019  -2.748  0.00  0.00     0.054 A 
ATOM      3  C3  IND d   1      -1.722  -2.866  -1.609  0.00  0.00    -0.031 A 
ATOM      4  C4  IND d   1      -1.333  -1.251   0.358  0.00  0.00     0.051 A 
ATOM      5  C5  IND d   1      -0.444  -0.329   0.835  0.00  0.00    -0.031 A 
ATOM      6  C6  IND d   1       0.687   0.026   0.129  0.00  0.00     0.015 A 
ATOM      7  C7  IND d   1       0.966  -0.521  -1.091  0.00  0.00    -0.016 A 
ATOM      8  C8  IND d   1       0.070  -1.462  -1.576  0.00  0.00    -0.047 A 
ATOM      9  C9  IND d   1      -1.058  -1.859  -0.844  0.00  0.00    -0.096 A 
ATOM     10  HN1 IND d   1       0.676  -2.147  -3.360  0.00  0.00     0.298 HD
ENDROOT
TORSDOF 0
ENDMDL
