MODEL 1
REMARK minimizedAffinity 1.47830343
REMARK minimizedRMSD -1
REMARK  0 active torsions:
REMARK  status: ('A' for Active; 'I' for Inactive)
ROOT
ATOM      1  N1  IND d   1       1.285   2.021   2.220  0.00  0.00    -0.196 N 
ATOM      2  C2  IND d   1       2.286   2.312   1.337  0.00  0.00     0.054 A 
ATOM      3  C3  IND d   1       2.744   3.568   1.542  0.00  0.00    -0.031 A 
ATOM      4  C4  IND d   1       2.066   5.283   3.338  0.00  0.00     0.051 A 
ATOM      5  C5  IND d   1       1.168   5.486   4.349  0.00  0.00    -0.031 A 
ATOM      6  C6  IND d   1       0.247   4.524   4.711  0.00  0.00     0.015 A 
ATOM      7  C7  IND d   1       0.197   3.313   4.080  0.00  0.00    -0.016 A 
ATOM      8  C8  IND d   1       1.102   3.106   3.049  0.00  0.00    -0.047 A 
ATOM      9  C9  IND d   1       2.010   4.094   2.649  0.00  0.00    -0.096 A 
ATOM     10  HN1 IND d   1       0.844   1.283   2.253  0.00  0.00     0.298 HD
ENDROOT
TORSDOF 0
ENDMDL
