MODEL 1
REMARK minimizedAffinity -3.05723238
REMARK minimizedRMSD -1
REMARK  0 active torsions:
REMARK  status: ('A' for Active; 'I' for Inactive)
ROOT
ATOM      1  N1  IND d   1       0.020   2.701   2.408  0.00  0.00    -0.196 N 
ATOM      2  C2  IND d   1       0.863   3.722   2.747  0.00  0.00     0.054 A 
ATOM      3  C3  IND d   1       1.451   4.232   1.641  0.00  0.00    -0.031 A 
ATOM      4  C4  IND d   1       1.099   3.612  -0.833  0.00  0.00     0.051 A 
ATOM      5  C5  IND d   1       0.454   2.715  -1.637  0.00  0.00    -0.031 A 
ATOM      6  C6  IND d   1      -0.388   1.749  -1.124  0.00  0.00     0.015 A 
ATOM      7  C7  IND d   1      -0.626   1.652   0.218  0.00  0.00    -0.016 A 
ATOM      8  C8  IND d   1       0.033   2.557   1.038  0.00  0.00    -0.047 A 
ATOM      9  C9  IND d   1       0.921   3.511   0.527  0.00  0.00    -0.096 A 
ATOM     10  HN1 IND d   1      -0.441   2.227   2.959  0.00  0.00     0.298 HD
ENDROOT
TORSDOF 0
ENDMDL
