MODEL 1
REMARK minimizedAffinity 1.72787464
REMARK minimizedRMSD -1
REMARK  0 active torsions:
REMARK  status: ('A' for Active; 'I' for Inactive)
ROOT
ATOM      1  N1  IND d   1       0.444   3.962  -5.996  0.00  0.00    -0.196 N 
ATOM      2  C2  IND d   1      -0.778   3.349  -5.991  0.00  0.00     0.054 A 
ATOM      3  C3  IND d   1      -0.630   2.005  -6.000  0.00  0.00    -0.031 A 
ATOM      4  C4  IND d   1       1.523   0.596  -5.919  0.00  0.00     0.051 A 
ATOM      5  C5  IND d   1       2.885   0.707  -5.949  0.00  0.00    -0.031 A 
ATOM      6  C6  IND d   1       3.515   1.933  -5.994  0.00  0.00     0.015 A 
ATOM      7  C7  IND d   1       2.805   3.100  -6.000  0.00  0.00    -0.016 A 
ATOM      8  C8  IND d   1       1.422   2.991  -5.977  0.00  0.00    -0.047 A 
ATOM      9  C9  IND d   1       0.775   1.748  -5.973  0.00  0.00    -0.096 A 
ATOM     10  HN1 IND d   1       0.580   4.811  -6.008  0.00  0.00     0.298 HD
ENDROOT
TORSDOF 0
ENDMDL
