MODEL 1
REMARK minimizedAffinity 11.8620186
REMARK minimizedRMSD -1
REMARK  0 active torsions:
REMARK  status: ('A' for Active; 'I' for Inactive)
ROOT
ATOM      1  N1  IND d   1       0.206   3.001  -6.000  0.00  0.00    -0.196 N 
ATOM      2  C2  IND d   1       1.148   3.167  -5.023  0.00  0.00     0.054 A 
ATOM      3  C3  IND d   1       0.555   3.422  -3.835  0.00  0.00    -0.031 A 
ATOM      4  C4  IND d   1      -1.949   3.511  -3.243  0.00  0.00     0.051 A 
ATOM      5  C5  IND d   1      -3.192   3.458  -3.809  0.00  0.00    -0.031 A 
ATOM      6  C6  IND d   1      -3.370   3.243  -5.160  0.00  0.00     0.015 A 
ATOM      7  C7  IND d   1      -2.306   3.061  -5.999  0.00  0.00    -0.016 A 
ATOM      8  C8  IND d   1      -1.042   3.121  -5.429  0.00  0.00    -0.047 A 
ATOM      9  C9  IND d   1      -0.854   3.381  -4.065  0.00  0.00    -0.096 A 
ATOM     10  HN1 IND d   1       0.366   2.847  -6.830  0.00  0.00     0.298 HD
ENDROOT
TORSDOF 0
ENDMDL
