MODEL 1
REMARK minimizedAffinity 0.899961531
REMARK minimizedRMSD -1
REMARK  0 active torsions:
REMARK  status: ('A' for Active; 'I' for Inactive)
ROOT
ATOM      1  N1  IND d   1      -2.613   2.355  -5.896  0.00  0.00    -0.196 N 
ATOM      2  C2  IND d   1      -1.340   2.854  -5.926  0.00  0.00     0.054 A 
ATOM      3  C3  IND d   1      -1.367   4.204  -5.999  0.00  0.00    -0.031 A 
ATOM      4  C4  IND d   1      -3.383   5.804  -5.980  0.00  0.00     0.051 A 
ATOM      5  C5  IND d   1      -4.750   5.815  -6.000  0.00  0.00    -0.031 A 
ATOM      6  C6  IND d   1      -5.489   4.650  -5.983  0.00  0.00     0.015 A 
ATOM      7  C7  IND d   1      -4.886   3.425  -5.934  0.00  0.00    -0.016 A 
ATOM      8  C8  IND d   1      -3.498   3.410  -5.921  0.00  0.00    -0.047 A 
ATOM      9  C9  IND d   1      -2.743   4.588  -5.981  0.00  0.00    -0.096 A 
ATOM     10  HN1 IND d   1      -2.824   1.522  -5.867  0.00  0.00     0.298 HD
ENDROOT
TORSDOF 0
ENDMDL
