MODEL 1
REMARK minimizedAffinity -2.42570186
REMARK minimizedRMSD -1
REMARK  0 active torsions:
REMARK  status: ('A' for Active; 'I' for Inactive)
ROOT
ATOM      1  N1  IND d   1       3.029   1.866  -5.967  0.00  0.00    -0.196 N 
ATOM      2  C2  IND d   1       3.934   1.655  -4.964  0.00  0.00     0.054 A 
ATOM      3  C3  IND d   1       3.378   1.932  -3.763  0.00  0.00    -0.031 A 
ATOM      4  C4  IND d   1       0.970   2.648  -3.202  0.00  0.00     0.051 A 
ATOM      5  C5  IND d   1      -0.212   3.006  -3.788  0.00  0.00    -0.031 A 
ATOM      6  C6  IND d   1      -0.378   3.000  -5.158  0.00  0.00     0.015 A 
ATOM      7  C7  IND d   1       0.633   2.623  -5.996  0.00  0.00    -0.016 A 
ATOM      8  C8  IND d   1       1.837   2.265  -5.405  0.00  0.00    -0.047 A 
ATOM      9  C9  IND d   1       2.024   2.310  -4.017  0.00  0.00    -0.096 A 
ATOM     10  HN1 IND d   1       3.180   1.767  -6.808  0.00  0.00     0.298 HD
ENDROOT
TORSDOF 0
ENDMDL
