MODEL 1
REMARK minimizedAffinity 2.97330785
REMARK minimizedRMSD -1
REMARK  0 active torsions:
REMARK  status: ('A' for Active; 'I' for Inactive)
ROOT
ATOM      1  C1  DEN d   1      -2.517   0.107   1.577  0.00  0.00     0.130 A 
ATOM      2  C2  DEN d   1      -2.146   0.616   0.260  0.00  0.00    -0.031 A 
ATOM      3  C3  DEN d   1      -0.687   0.450   0.101  0.00  0.00     0.027 A 
ATOM      4  C4  DEN d   1       1.022  -0.546   1.755  0.00  0.00     0.027 A 
ATOM      5  C5  DEN d   1       1.182  -1.101   3.006  0.00  0.00    -0.003 A 
ATOM      6  C6  DEN d   1       0.134  -1.259   3.874  0.00  0.00     0.001 A 
ATOM      7  C7  DEN d   1      -1.129  -0.900   3.485  0.00  0.00     0.017 A 
ATOM      8  C8  DEN d   1      -1.297  -0.333   2.229  0.00  0.00    -0.094 A 
ATOM      9  C9  DEN d   1      -0.227  -0.193   1.361  0.00  0.00    -0.072 A 
ENDROOT
TORSDOF 0
ENDMDL
