MODEL 1
REMARK minimizedAffinity 7.56661367
REMARK minimizedRMSD -1
REMARK  0 active torsions:
REMARK  status: ('A' for Active; 'I' for Inactive)
ROOT
ATOM      1  C1  DEN d   1       2.953   2.784  -1.386  0.00  0.00     0.130 A 
ATOM      2  C2  DEN d   1       3.395   3.011  -0.012  0.00  0.00    -0.031 A 
ATOM      3  C3  DEN d   1       2.607   2.129   0.872  0.00  0.00     0.027 A 
ATOM      4  C4  DEN d   1       0.759   0.439   0.251  0.00  0.00     0.027 A 
ATOM      5  C5  DEN d   1       0.031  -0.095  -0.789  0.00  0.00    -0.003 A 
ATOM      6  C6  DEN d   1       0.200   0.313  -2.085  0.00  0.00     0.001 A 
ATOM      7  C7  DEN d   1       1.152   1.253  -2.382  0.00  0.00     0.017 A 
ATOM      8  C8  DEN d   1       1.885   1.802  -1.338  0.00  0.00    -0.094 A 
ATOM      9  C9  DEN d   1       1.708   1.367  -0.036  0.00  0.00    -0.072 A 
ENDROOT
TORSDOF 0
ENDMDL
