MODEL 1
REMARK minimizedAffinity -4.4527545
REMARK minimizedRMSD -1
REMARK  0 active torsions:
REMARK  status: ('A' for Active; 'I' for Inactive)
ROOT
ATOM      1  C1  DEN d   1      -1.766   0.818   1.381  0.00  0.00     0.130 A 
ATOM      2  C2  DEN d   1      -0.816   0.073   0.560  0.00  0.00    -0.031 A 
ATOM      3  C3  DEN d   1       0.311  -0.335   1.422  0.00  0.00     0.027 A 
ATOM      4  C4  DEN d   1       0.674   0.109   3.937  0.00  0.00     0.027 A 
ATOM      5  C5  DEN d   1       0.145   0.709   5.059  0.00  0.00    -0.003 A 
ATOM      6  C6  DEN d   1      -1.031   1.410   5.026  0.00  0.00     0.001 A 
ATOM      7  C7  DEN d   1      -1.741   1.491   3.857  0.00  0.00     0.017 A 
ATOM      8  C8  DEN d   1      -1.211   0.895   2.720  0.00  0.00    -0.094 A 
ATOM      9  C9  DEN d   1      -0.026   0.180   2.776  0.00  0.00    -0.072 A 
ENDROOT
TORSDOF 0
ENDMDL
