MODEL 1
REMARK minimizedAffinity 10.6695414
REMARK minimizedRMSD -1
REMARK  0 active torsions:
REMARK  status: ('A' for Active; 'I' for Inactive)
ROOT
ATOM      1  C1  DEN d   1       0.716  -0.052   1.283  0.00  0.00     0.130 A 
ATOM      2  C2  DEN d   1       1.296  -0.185  -0.051  0.00  0.00    -0.031 A 
ATOM      3  C3  DEN d   1       0.190  -0.194  -1.030  0.00  0.00     0.027 A 
ATOM      4  C4  DEN d   1      -2.349  -0.013  -0.612  0.00  0.00     0.027 A 
ATOM      5  C5  DEN d   1      -3.322   0.103   0.356  0.00  0.00    -0.003 A 
ATOM      6  C6  DEN d   1      -3.021   0.142   1.692  0.00  0.00     0.001 A 
ATOM      7  C7  DEN d   1      -1.713   0.108   2.095  0.00  0.00     0.017 A 
ATOM      8  C8  DEN d   1      -0.726  -0.017   1.125  0.00  0.00    -0.094 A 
ATOM      9  C9  DEN d   1      -1.049  -0.042  -0.221  0.00  0.00    -0.072 A 
ENDROOT
TORSDOF 0
ENDMDL
