MODEL 1
REMARK minimizedAffinity 0.70601064
REMARK minimizedRMSD -1
REMARK  0 active torsions:
REMARK  status: ('A' for Active; 'I' for Inactive)
ROOT
ATOM      1  C1  DEN d   1       0.144  -0.168  -0.173  0.00  0.00     0.130 A 
ATOM      2  C2  DEN d   1      -1.023   0.306  -0.913  0.00  0.00    -0.031 A 
ATOM      3  C3  DEN d   1      -2.124   0.506   0.051  0.00  0.00     0.027 A 
ATOM      4  C4  DEN d   1      -2.135   0.133   2.603  0.00  0.00     0.027 A 
ATOM      5  C5  DEN d   1      -1.381  -0.275   3.681  0.00  0.00    -0.003 A 
ATOM      6  C6  DEN d   1      -0.087  -0.704   3.546  0.00  0.00     0.001 A 
ATOM      7  C7  DEN d   1       0.507  -0.693   2.312  0.00  0.00     0.017 A 
ATOM      8  C8  DEN d   1      -0.249  -0.290   1.219  0.00  0.00    -0.094 A 
ATOM      9  C9  DEN d   1      -1.552   0.152   1.378  0.00  0.00    -0.072 A 
ENDROOT
TORSDOF 0
ENDMDL
