MODEL 1
REMARK minimizedAffinity 3.14049578
REMARK minimizedRMSD -1
REMARK  0 active torsions:
REMARK  status: ('A' for Active; 'I' for Inactive)
ROOT
ATOM      1  C1  DEN d   1       1.147  -0.827   2.687  0.00  0.00     0.130 A 
ATOM      2  C2  DEN d   1       0.791  -0.987   4.094  0.00  0.00    -0.031 A 
ATOM      3  C3  DEN d   1      -0.644  -0.668   4.241  0.00  0.00     0.027 A 
ATOM      4  C4  DEN d   1      -2.340   0.048   2.435  0.00  0.00     0.027 A 
ATOM      5  C5  DEN d   1      -2.503   0.332   1.097  0.00  0.00    -0.003 A 
ATOM      6  C6  DEN d   1      -1.462   0.282   0.208  0.00  0.00     0.001 A 
ATOM      7  C7  DEN d   1      -0.219  -0.103   0.639  0.00  0.00     0.017 A 
ATOM      8  C8  DEN d   1      -0.046  -0.383   1.988  0.00  0.00    -0.094 A 
ATOM      9  C9  DEN d   1      -1.114  -0.339   2.868  0.00  0.00    -0.072 A 
ENDROOT
TORSDOF 0
ENDMDL
