MODEL 1
REMARK minimizedAffinity 2.84839654
REMARK minimizedRMSD -1
REMARK  0 active torsions:
REMARK  status: ('A' for Active; 'I' for Inactive)
ROOT
ATOM      1  C1  DEN d   1       4.877   2.482   3.850  0.00  0.00     0.130 A 
ATOM      2  C2  DEN d   1       5.702   3.011   4.932  0.00  0.00    -0.031 A 
ATOM      3  C3  DEN d   1       5.634   4.485   4.879  0.00  0.00     0.027 A 
ATOM      4  C4  DEN d   1       4.334   5.992   3.239  0.00  0.00     0.027 A 
ATOM      5  C5  DEN d   1       3.501   6.000   2.142  0.00  0.00    -0.003 A 
ATOM      6  C6  DEN d   1       3.099   4.847   1.521  0.00  0.00     0.001 A 
ATOM      7  C7  DEN d   1       3.494   3.634   2.022  0.00  0.00     0.017 A 
ATOM      8  C8  DEN d   1       4.339   3.618   3.123  0.00  0.00    -0.094 A 
ATOM      9  C9  DEN d   1       4.725   4.794   3.743  0.00  0.00    -0.072 A 
ENDROOT
TORSDOF 0
ENDMDL
