MODEL 1
REMARK minimizedAffinity 0.441539645
REMARK minimizedRMSD -1
REMARK  0 active torsions:
REMARK  status: ('A' for Active; 'I' for Inactive)
ROOT
ATOM      1  C1  DEN d   1      -0.173  -0.929  -0.471  0.00  0.00     0.130 A 
ATOM      2  C2  DEN d   1      -1.305  -0.560  -1.316  0.00  0.00    -0.031 A 
ATOM      3  C3  DEN d   1      -2.371  -0.027  -0.444  0.00  0.00     0.027 A 
ATOM      4  C4  DEN d   1      -2.377   0.264   2.119  0.00  0.00     0.027 A 
ATOM      5  C5  DEN d   1      -1.645   0.080   3.271  0.00  0.00    -0.003 A 
ATOM      6  C6  DEN d   1      -0.395  -0.479   3.261  0.00  0.00     0.001 A 
ATOM      7  C7  DEN d   1       0.180  -0.834   2.069  0.00  0.00     0.017 A 
ATOM      8  C8  DEN d   1      -0.555  -0.659   0.904  0.00  0.00    -0.094 A 
ATOM      9  C9  DEN d   1      -1.812  -0.080   0.934  0.00  0.00    -0.072 A 
ENDROOT
TORSDOF 0
ENDMDL
