MODEL 1
REMARK minimizedAffinity 0.537540257
REMARK minimizedRMSD -1
REMARK  2 active torsions:
REMARK  status: ('A' for Active; 'I' for Inactive)
REMARK    1  A    between atoms: C1_2  and  C2_3 
REMARK    2  A    between atoms: C2_3  and  C3_4 
ROOT
ATOM      1  C3  UNL d   1       4.150  -2.841  -1.353  0.00  0.00    -0.075 A 
ATOM      2  C4  UNL d   1       3.568  -2.787  -2.628  0.00  0.00     0.002 A 
ATOM      3  C5  UNL d   1       3.790  -3.808  -3.552  0.00  0.00     0.002 A 
ATOM      4  C6  UNL d   1       4.603  -4.888  -3.219  0.00  0.00    -0.004 A 
ATOM      5  C7  UNL d   1       5.200  -4.945  -1.961  0.00  0.00     0.002 A 
ATOM      6  C8  UNL d   1       4.976  -3.927  -1.033  0.00  0.00     0.002 A 
ENDROOT
BRANCH   1   7
ATOM      7  C2  UNL d   1       3.890  -1.754  -0.338  0.00  0.00     0.056 C 
BRANCH   7   8
ATOM      8  C1  UNL d   1       2.522  -1.853   0.345  0.00  0.00     0.007 C 
ATOM      9  C   UNL d   1       1.916  -3.249   0.275  0.00  0.00     0.009 C 
ENDBRANCH   7   8
ENDBRANCH   1   7
TORSDOF 2
ENDMDL
