MODEL 1
REMARK minimizedAffinity 0.476554126
REMARK minimizedRMSD -1
REMARK  2 active torsions:
REMARK  status: ('A' for Active; 'I' for Inactive)
REMARK    1  A    between atoms: C1_2  and  C2_3 
REMARK    2  A    between atoms: C2_3  and  C3_4 
ROOT
ATOM      1  C3  UNL d   1       3.735  -3.168  -2.305  0.00  0.00    -0.075 A 
ATOM      2  C4  UNL d   1       2.833  -4.142  -2.757  0.00  0.00     0.002 A 
ATOM      3  C5  UNL d   1       3.206  -5.486  -2.804  0.00  0.00     0.002 A 
ATOM      4  C6  UNL d   1       4.486  -5.870  -2.411  0.00  0.00    -0.004 A 
ATOM      5  C7  UNL d   1       5.396  -4.909  -1.976  0.00  0.00     0.002 A 
ATOM      6  C8  UNL d   1       5.023  -3.564  -1.923  0.00  0.00     0.002 A 
ENDROOT
BRANCH   1   7
ATOM      7  C2  UNL d   1       3.327  -1.716  -2.224  0.00  0.00     0.056 C 
BRANCH   7   8
ATOM      8  C1  UNL d   1       2.888  -1.269  -0.826  0.00  0.00     0.007 C 
ATOM      9  C   UNL d   1       2.088  -2.329  -0.080  0.00  0.00     0.009 C 
ENDBRANCH   7   8
ENDBRANCH   1   7
TORSDOF 2
ENDMDL
