MODEL 1
REMARK minimizedAffinity 3.99676514
REMARK minimizedRMSD -1
REMARK  2 active torsions:
REMARK  status: ('A' for Active; 'I' for Inactive)
REMARK    1  A    between atoms: C1_2  and  C2_3 
REMARK    2  A    between atoms: C2_3  and  C3_4 
ROOT
ATOM      1  C3  UNL d   1       0.218   2.743   1.350  0.00  0.00    -0.075 A 
ATOM      2  C4  UNL d   1       1.568   3.000   1.633  0.00  0.00     0.002 A 
ATOM      3  C5  UNL d   1       2.067   2.820   2.924  0.00  0.00     0.002 A 
ATOM      4  C6  UNL d   1       1.224   2.393   3.947  0.00  0.00    -0.004 A 
ATOM      5  C7  UNL d   1      -0.122   2.150   3.680  0.00  0.00     0.002 A 
ATOM      6  C8  UNL d   1      -0.623   2.325   2.389  0.00  0.00     0.002 A 
ENDROOT
BRANCH   1   7
ATOM      7  C2  UNL d   1      -0.322   2.907  -0.051  0.00  0.00     0.056 C 
BRANCH   7   8
ATOM      8  C1  UNL d   1       0.298   4.075  -0.825  0.00  0.00     0.007 C 
ATOM      9  C   UNL d   1      -0.738   5.046  -1.377  0.00  0.00     0.009 C 
ENDBRANCH   7   8
ENDBRANCH   1   7
TORSDOF 2
ENDMDL
