MODEL 1
REMARK minimizedAffinity 9.72409725
REMARK minimizedRMSD -1
REMARK  2 active torsions:
REMARK  status: ('A' for Active; 'I' for Inactive)
REMARK    1  A    between atoms: C1_2  and  C2_3 
REMARK    2  A    between atoms: C2_3  and  C3_4 
ROOT
ATOM      1  C3  UNL d   1      -1.194   5.042  -1.749  0.00  0.00    -0.075 A 
ATOM      2  C4  UNL d   1       0.118   5.464  -1.488  0.00  0.00     0.002 A 
ATOM      3  C5  UNL d   1       1.063   4.570  -0.984  0.00  0.00     0.002 A 
ATOM      4  C6  UNL d   1       0.707   3.249  -0.724  0.00  0.00    -0.004 A 
ATOM      5  C7  UNL d   1      -0.598   2.822  -0.964  0.00  0.00     0.002 A 
ATOM      6  C8  UNL d   1      -1.544   3.713  -1.473  0.00  0.00     0.002 A 
ENDROOT
BRANCH   1   7
ATOM      7  C2  UNL d   1      -2.213   5.996  -2.324  0.00  0.00     0.056 C 
BRANCH   7   8
ATOM      8  C1  UNL d   1      -3.299   5.317  -3.165  0.00  0.00     0.007 C 
ATOM      9  C   UNL d   1      -4.521   4.909  -2.353  0.00  0.00     0.009 C 
ENDBRANCH   7   8
ENDBRANCH   1   7
TORSDOF 2
ENDMDL
