MODEL 1
REMARK minimizedAffinity -0.158187717
REMARK minimizedRMSD -1
REMARK  2 active torsions:
REMARK  status: ('A' for Active; 'I' for Inactive)
REMARK    1  A    between atoms: C1_2  and  C2_3 
REMARK    2  A    between atoms: C2_3  and  C3_4 
ROOT
ATOM      1  C3  UNL d   1       4.959  -3.539  -1.777  0.00  0.00    -0.075 A 
ATOM      2  C4  UNL d   1       4.430  -3.228  -3.038  0.00  0.00     0.002 A 
ATOM      3  C5  UNL d   1       3.932  -4.236  -3.864  0.00  0.00     0.002 A 
ATOM      4  C6  UNL d   1       3.966  -5.565  -3.446  0.00  0.00    -0.004 A 
ATOM      5  C7  UNL d   1       4.505  -5.886  -2.202  0.00  0.00     0.002 A 
ATOM      6  C8  UNL d   1       5.000  -4.880  -1.371  0.00  0.00     0.002 A 
ENDROOT
BRANCH   1   7
ATOM      7  C2  UNL d   1       5.473  -2.450  -0.865  0.00  0.00     0.056 C 
BRANCH   7   8
ATOM      8  C1  UNL d   1       4.372  -1.701  -0.106  0.00  0.00     0.007 C 
ATOM      9  C   UNL d   1       3.094  -2.513   0.053  0.00  0.00     0.009 C 
ENDBRANCH   7   8
ENDBRANCH   1   7
TORSDOF 2
ENDMDL
