MODEL 1
REMARK minimizedAffinity 3.55404758
REMARK minimizedRMSD -1
REMARK  2 active torsions:
REMARK  status: ('A' for Active; 'I' for Inactive)
REMARK    1  A    between atoms: C1_2  and  C2_3 
REMARK    2  A    between atoms: C2_3  and  C3_4 
ROOT
ATOM      1  C3  UNL d   1       3.498  -4.341  -1.876  0.00  0.00    -0.075 A 
ATOM      2  C4  UNL d   1       4.089  -4.358  -0.605  0.00  0.00     0.002 A 
ATOM      3  C5  UNL d   1       4.608  -3.188  -0.049  0.00  0.00     0.002 A 
ATOM      4  C6  UNL d   1       4.550  -1.991  -0.758  0.00  0.00    -0.004 A 
ATOM      5  C7  UNL d   1       3.980  -1.965  -2.029  0.00  0.00     0.002 A 
ATOM      6  C8  UNL d   1       3.456  -3.133  -2.586  0.00  0.00     0.002 A 
ENDROOT
BRANCH   1   7
ATOM      7  C2  UNL d   1       2.908  -5.597  -2.472  0.00  0.00     0.056 C 
BRANCH   7   8
ATOM      8  C1  UNL d   1       1.469  -5.882  -2.029  0.00  0.00     0.007 C 
ATOM      9  C   UNL d   1       0.495  -6.000  -3.193  0.00  0.00     0.009 C 
ENDBRANCH   7   8
ENDBRANCH   1   7
TORSDOF 2
ENDMDL
