MODEL 1
REMARK minimizedAffinity -4.14059114
REMARK minimizedRMSD -1
REMARK  0 active torsions:
REMARK  status: ('A' for Active; 'I' for Inactive)
ROOT
ATOM      1  C4' PXY d   1       0.442  -0.335  -2.312  0.00  0.00     0.077 C 
ATOM      2  C1' PXY d   1      -1.459   0.593   3.068  0.00  0.00     0.077 C 
ATOM      3  C1  PXY d   1      -0.948   0.354   1.660  0.00  0.00    -0.082 A 
ATOM      4  C2  PXY d   1      -1.801   0.340   0.649  0.00  0.00     0.003 A 
ATOM      5  C3  PXY d   1      -1.361   0.094  -0.626  0.00  0.00     0.003 A 
ATOM      6  C4  PXY d   1      -0.027  -0.088  -0.876  0.00  0.00    -0.082 A 
ATOM      7  C5  PXY d   1       0.851  -0.065   0.150  0.00  0.00     0.003 A 
ATOM      8  C6  PXY d   1       0.378   0.146   1.442  0.00  0.00     0.003 A 
ENDROOT
TORSDOF 0
ENDMDL
