MODEL 1
REMARK minimizedAffinity -5.31811333
REMARK minimizedRMSD -1
REMARK  0 active torsions:
REMARK  status: ('A' for Active; 'I' for Inactive)
ROOT
ATOM      1  C4' PXY d   1       0.252  -1.006  -2.119  0.00  0.00     0.077 C 
ATOM      2  C1' PXY d   1      -0.783   1.563   2.954  0.00  0.00     0.077 C 
ATOM      3  C1  PXY d   1      -0.499   0.891   1.626  0.00  0.00    -0.082 A 
ATOM      4  C2  PXY d   1      -1.422   0.897   0.678  0.00  0.00     0.003 A 
ATOM      5  C3  PXY d   1      -1.194   0.267  -0.517  0.00  0.00     0.003 A 
ATOM      6  C4  PXY d   1       0.012  -0.331  -0.766  0.00  0.00    -0.082 A 
ATOM      7  C5  PXY d   1       0.964  -0.333   0.192  0.00  0.00     0.003 A 
ATOM      8  C6  PXY d   1       0.697   0.277   1.414  0.00  0.00     0.003 A 
ENDROOT
TORSDOF 0
ENDMDL
