MODEL 1
REMARK minimizedAffinity -4.58682632
REMARK minimizedRMSD -1
REMARK  0 active torsions:
REMARK  status: ('A' for Active; 'I' for Inactive)
ROOT
ATOM      1  C4' PXY d   1       0.330  -1.305  -1.583  0.00  0.00     0.077 C 
ATOM      2  C1' PXY d   1      -0.625   1.792   3.204  0.00  0.00     0.077 C 
ATOM      3  C1  PXY d   1      -0.363   0.984   1.948  0.00  0.00    -0.082 A 
ATOM      4  C2  PXY d   1      -1.378   0.608   1.187  0.00  0.00     0.003 A 
ATOM      5  C3  PXY d   1      -1.161  -0.149   0.065  0.00  0.00     0.003 A 
ATOM      6  C4  PXY d   1       0.113  -0.481  -0.311  0.00  0.00    -0.082 A 
ATOM      7  C5  PXY d   1       1.155  -0.092   0.454  0.00  0.00     0.003 A 
ATOM      8  C6  PXY d   1       0.910   0.642   1.611  0.00  0.00     0.003 A 
ENDROOT
TORSDOF 0
ENDMDL
