MODEL 1
REMARK minimizedAffinity -4.11926317
REMARK minimizedRMSD -1
REMARK  0 active torsions:
REMARK  status: ('A' for Active; 'I' for Inactive)
ROOT
ATOM      1  C4' PXY d   1       0.956  -0.778  -1.429  0.00  0.00     0.077 C 
ATOM      2  C1' PXY d   1      -1.174   1.704   3.338  0.00  0.00     0.077 C 
ATOM      3  C1  PXY d   1      -0.626   1.045   2.087  0.00  0.00    -0.082 A 
ATOM      4  C2  PXY d   1       0.678   1.056   1.860  0.00  0.00     0.003 A 
ATOM      5  C3  PXY d   1       1.187   0.493   0.718  0.00  0.00     0.003 A 
ATOM      6  C4  PXY d   1       0.359  -0.133  -0.175  0.00  0.00    -0.082 A 
ATOM      7  C5  PXY d   1      -0.971  -0.158   0.055  0.00  0.00     0.003 A 
ATOM      8  C6  PXY d   1      -1.472   0.455   1.200  0.00  0.00     0.003 A 
ENDROOT
TORSDOF 0
ENDMDL
