MODEL 1
REMARK minimizedAffinity -3.70342231
REMARK minimizedRMSD -1
REMARK  0 active torsions:
REMARK  status: ('A' for Active; 'I' for Inactive)
ROOT
ATOM      1  C4' PXY d   1       0.332  -1.176  -1.533  0.00  0.00     0.077 C 
ATOM      2  C1' PXY d   1      -0.713   1.737   3.350  0.00  0.00     0.077 C 
ATOM      3  C1  PXY d   1      -0.427   0.979   2.069  0.00  0.00    -0.082 A 
ATOM      4  C2  PXY d   1      -1.433   0.536   1.333  0.00  0.00     0.003 A 
ATOM      5  C3  PXY d   1      -1.193  -0.179   0.188  0.00  0.00     0.003 A 
ATOM      6  C4  PXY d   1       0.090  -0.398  -0.236  0.00  0.00    -0.082 A 
ATOM      7  C5  PXY d   1       1.122   0.060   0.504  0.00  0.00     0.003 A 
ATOM      8  C6  PXY d   1       0.858   0.749   1.684  0.00  0.00     0.003 A 
ENDROOT
TORSDOF 0
ENDMDL
