MODEL 1
REMARK minimizedAffinity -4.39433765
REMARK minimizedRMSD -1
REMARK  0 active torsions:
REMARK  status: ('A' for Active; 'I' for Inactive)
ROOT
ATOM      1  C4' PXY d   1      -0.754   1.644   3.783  0.00  0.00     0.077 C 
ATOM      2  C1' PXY d   1       0.275  -1.014  -1.247  0.00  0.00     0.077 C 
ATOM      3  C1  PXY d   1      -0.007  -0.315   0.068  0.00  0.00    -0.082 A 
ATOM      4  C2  PXY d   1       0.995   0.193   0.767  0.00  0.00     0.003 A 
ATOM      5  C3  PXY d   1       0.761   0.801   1.974  0.00  0.00     0.003 A 
ATOM      6  C4  PXY d   1      -0.517   0.937   2.445  0.00  0.00    -0.082 A 
ATOM      7  C5  PXY d   1      -1.546   0.431   1.733  0.00  0.00     0.003 A 
ATOM      8  C6  PXY d   1      -1.283  -0.219   0.530  0.00  0.00     0.003 A 
ENDROOT
TORSDOF 0
ENDMDL
