MODEL 1
REMARK minimizedAffinity -4.35936069
REMARK minimizedRMSD -1
REMARK  0 active torsions:
REMARK  status: ('A' for Active; 'I' for Inactive)
ROOT
ATOM      1  C4' PXY d   1       0.002  -0.688  -1.261  0.00  0.00     0.077 C 
ATOM      2  C1' PXY d   1      -0.627   1.825   3.906  0.00  0.00     0.077 C 
ATOM      3  C1  PXY d   1      -0.474   1.161   2.552  0.00  0.00    -0.082 A 
ATOM      4  C2  PXY d   1       0.736   0.911   2.079  0.00  0.00     0.003 A 
ATOM      5  C3  PXY d   1       0.893   0.340   0.843  0.00  0.00     0.003 A 
ATOM      6  C4  PXY d   1      -0.200  -0.028   0.105  0.00  0.00    -0.082 A 
ATOM      7  C5  PXY d   1      -1.438   0.214   0.586  0.00  0.00     0.003 A 
ATOM      8  C6  PXY d   1      -1.576   0.832   1.825  0.00  0.00     0.003 A 
ENDROOT
TORSDOF 0
ENDMDL
