MODEL 1
REMARK minimizedAffinity -3.13696432
REMARK minimizedRMSD -1
REMARK  0 active torsions:
REMARK  status: ('A' for Active; 'I' for Inactive)
ROOT
ATOM      1  C4' PXY d   1       2.687  -0.071   2.630  0.00  0.00     0.077 C 
ATOM      2  C1' PXY d   1      -3.011   0.650   1.974  0.00  0.00     0.077 C 
ATOM      3  C1  PXY d   1      -1.517   0.454   2.135  0.00  0.00    -0.082 A 
ATOM      4  C2  PXY d   1      -0.977   0.498   3.342  0.00  0.00     0.003 A 
ATOM      5  C3  PXY d   1       0.377   0.355   3.503  0.00  0.00     0.003 A 
ATOM      6  C4  PXY d   1       1.181   0.112   2.421  0.00  0.00    -0.082 A 
ATOM      7  C5  PXY d   1       0.637   0.055   1.187  0.00  0.00     0.003 A 
ATOM      8  C6  PXY d   1      -0.734   0.243   1.041  0.00  0.00     0.003 A 
ENDROOT
TORSDOF 0
ENDMDL
