MODEL 1
REMARK minimizedAffinity -3.06541967
REMARK minimizedRMSD -1
REMARK  0 active torsions:
REMARK  status: ('A' for Active; 'I' for Inactive)
ROOT
ATOM      1  C4' PXY d   1      -0.526   1.650   3.474  0.00  0.00     0.077 C 
ATOM      2  C1' PXY d   1       0.626  -0.486  -1.773  0.00  0.00     0.077 C 
ATOM      3  C1  PXY d   1       0.335   0.069  -0.392  0.00  0.00    -0.082 A 
ATOM      4  C2  PXY d   1      -0.914   0.331  -0.043  0.00  0.00     0.003 A 
ATOM      5  C3  PXY d   1      -1.192   0.863   1.190  0.00  0.00     0.003 A 
ATOM      6  C4  PXY d   1      -0.187   1.080   2.094  0.00  0.00    -0.082 A 
ATOM      7  C5  PXY d   1       1.089   0.805   1.748  0.00  0.00     0.003 A 
ATOM      8  C6  PXY d   1       1.355   0.304   0.477  0.00  0.00     0.003 A 
ENDROOT
TORSDOF 0
ENDMDL
