MODEL 1
REMARK minimizedAffinity -2.41978097
REMARK minimizedRMSD -1
REMARK  0 active torsions:
REMARK  status: ('A' for Active; 'I' for Inactive)
ROOT
ATOM      1  C4' PXY d   1       0.327  -1.217  -0.817  0.00  0.00     0.077 C 
ATOM      2  C1' PXY d   1      -0.959   2.515   3.406  0.00  0.00     0.077 C 
ATOM      3  C1  PXY d   1      -0.611   1.543   2.296  0.00  0.00    -0.082 A 
ATOM      4  C2  PXY d   1      -1.578   0.905   1.657  0.00  0.00     0.003 A 
ATOM      5  C3  PXY d   1      -1.279  -0.001   0.673  0.00  0.00     0.003 A 
ATOM      6  C4  PXY d   1       0.021  -0.219   0.303  0.00  0.00    -0.082 A 
ATOM      7  C5  PXY d   1       1.013   0.436   0.943  0.00  0.00     0.003 A 
ATOM      8  C6  PXY d   1       0.691   1.321   1.967  0.00  0.00     0.003 A 
ENDROOT
TORSDOF 0
ENDMDL
