MODEL 1
REMARK minimizedAffinity 12.4561119
REMARK minimizedRMSD -1
REMARK  0 active torsions:
REMARK  status: ('A' for Active; 'I' for Inactive)
ROOT
ATOM      1  C2' OXE d   1      -5.253  -2.999  -4.342  0.00  0.00     0.078 C 
ATOM      2  C1' OXE d   1      -2.788  -3.008  -2.999  0.00  0.00     0.078 C 
ATOM      3  C1  OXE d   1      -3.793  -4.071  -2.632  0.00  0.00    -0.078 A 
ATOM      4  C2  OXE d   1      -5.014  -4.031  -3.260  0.00  0.00    -0.078 A 
ATOM      5  C3  OXE d   1      -5.957  -5.021  -2.999  0.00  0.00     0.003 A 
ATOM      6  C4  OXE d   1      -5.731  -5.966  -1.990  0.00  0.00    -0.002 A 
ATOM      7  C5  OXE d   1      -4.509  -6.000  -1.310  0.00  0.00    -0.002 A 
ATOM      8  C6  OXE d   1      -3.516  -5.088  -1.648  0.00  0.00     0.003 A 
ENDROOT
TORSDOF 0
ENDMDL
