MODEL 1
REMARK minimizedAffinity 9.12901211
REMARK minimizedRMSD -1
REMARK  0 active torsions:
REMARK  status: ('A' for Active; 'I' for Inactive)
ROOT
ATOM      1  C2' OXE d   1       4.552   1.566  -2.418  0.00  0.00     0.078 C 
ATOM      2  C1' OXE d   1       4.447   0.627  -5.061  0.00  0.00     0.078 C 
ATOM      3  C1  OXE d   1       3.863   1.987  -4.774  0.00  0.00    -0.078 A 
ATOM      4  C2  OXE d   1       3.877   2.419  -3.470  0.00  0.00    -0.078 A 
ATOM      5  C3  OXE d   1       3.400   3.689  -3.159  0.00  0.00     0.003 A 
ATOM      6  C4  OXE d   1       2.768   4.468  -4.136  0.00  0.00    -0.002 A 
ATOM      7  C5  OXE d   1       2.707   4.030  -5.463  0.00  0.00    -0.002 A 
ATOM      8  C6  OXE d   1       3.287   2.813  -5.806  0.00  0.00     0.003 A 
ENDROOT
TORSDOF 0
ENDMDL
