MODEL 1
REMARK minimizedAffinity 14.2128048
REMARK minimizedRMSD -1
REMARK  0 active torsions:
REMARK  status: ('A' for Active; 'I' for Inactive)
ROOT
ATOM      1  C2' OXE d   1      -1.498  -4.651  -2.914  0.00  0.00     0.078 C 
ATOM      2  C1' OXE d   1      -2.535  -2.043  -2.967  0.00  0.00     0.078 C 
ATOM      3  C1  OXE d   1      -3.487  -3.173  -2.665  0.00  0.00    -0.078 A 
ATOM      4  C2  OXE d   1      -2.981  -4.450  -2.686  0.00  0.00    -0.078 A 
ATOM      5  C3  OXE d   1      -3.804  -5.524  -2.360  0.00  0.00     0.003 A 
ATOM      6  C4  OXE d   1      -5.176  -5.330  -2.161  0.00  0.00    -0.002 A 
ATOM      7  C5  OXE d   1      -5.721  -4.041  -2.174  0.00  0.00    -0.002 A 
ATOM      8  C6  OXE d   1      -4.884  -2.950  -2.381  0.00  0.00     0.003 A 
ENDROOT
TORSDOF 0
ENDMDL
