MODEL 1
REMARK minimizedAffinity 8.20510197
REMARK minimizedRMSD -1
REMARK  0 active torsions:
REMARK  status: ('A' for Active; 'I' for Inactive)
ROOT
ATOM      1  C2' OXE d   1      -0.545  -2.279  -5.465  0.00  0.00     0.078 C 
ATOM      2  C1' OXE d   1      -0.418  -4.831  -4.303  0.00  0.00     0.078 C 
ATOM      3  C1  OXE d   1      -1.208  -3.768  -3.581  0.00  0.00    -0.078 A 
ATOM      4  C2  OXE d   1      -1.226  -2.510  -4.133  0.00  0.00    -0.078 A 
ATOM      5  C3  OXE d   1      -1.985  -1.507  -3.538  0.00  0.00     0.003 A 
ATOM      6  C4  OXE d   1      -2.604  -1.726  -2.301  0.00  0.00    -0.002 A 
ATOM      7  C5  OXE d   1      -2.565  -2.989  -1.701  0.00  0.00    -0.002 A 
ATOM      8  C6  OXE d   1      -1.908  -4.030  -2.348  0.00  0.00     0.003 A 
ENDROOT
TORSDOF 0
ENDMDL
