MODEL 1
REMARK minimizedAffinity 4.9161067
REMARK minimizedRMSD -1
REMARK  0 active torsions:
REMARK  status: ('A' for Active; 'I' for Inactive)
ROOT
ATOM      1  C2' OXE d   1       3.519   1.816  -5.145  0.00  0.00     0.078 C 
ATOM      2  C1' OXE d   1       3.955   3.005  -2.639  0.00  0.00     0.078 C 
ATOM      3  C1  OXE d   1       3.373   3.864  -3.734  0.00  0.00    -0.078 A 
ATOM      4  C2  OXE d   1       3.207   3.286  -4.970  0.00  0.00    -0.078 A 
ATOM      5  C3  OXE d   1       2.623   4.018  -6.000  0.00  0.00     0.003 A 
ATOM      6  C4  OXE d   1       2.346   5.381  -5.833  0.00  0.00    -0.002 A 
ATOM      7  C5  OXE d   1       2.545   5.998  -4.594  0.00  0.00    -0.002 A 
ATOM      8  C6  OXE d   1       3.016   5.245  -3.524  0.00  0.00     0.003 A 
ENDROOT
TORSDOF 0
ENDMDL
