MODEL 1
REMARK minimizedAffinity 10.748786
REMARK minimizedRMSD -1
REMARK  0 active torsions:
REMARK  status: ('A' for Active; 'I' for Inactive)
ROOT
ATOM      1  C2' OXE d   1      -5.969  -5.948  -2.367  0.00  0.00     0.078 C 
ATOM      2  C1' OXE d   1      -5.966  -3.280  -3.241  0.00  0.00     0.078 C 
ATOM      3  C1  OXE d   1      -4.637  -3.985  -3.129  0.00  0.00    -0.078 A 
ATOM      4  C2  OXE d   1      -4.644  -5.275  -2.656  0.00  0.00    -0.078 A 
ATOM      5  C3  OXE d   1      -3.452  -5.990  -2.585  0.00  0.00     0.003 A 
ATOM      6  C4  OXE d   1      -2.230  -5.358  -2.845  0.00  0.00    -0.002 A 
ATOM      7  C5  OXE d   1      -2.197  -4.032  -3.290  0.00  0.00    -0.002 A 
ATOM      8  C6  OXE d   1      -3.392  -3.347  -3.478  0.00  0.00     0.003 A 
ENDROOT
TORSDOF 0
ENDMDL
