MODEL 1
REMARK minimizedAffinity 10.0755644
REMARK minimizedRMSD -1
REMARK  0 active torsions:
REMARK  status: ('A' for Active; 'I' for Inactive)
ROOT
ATOM      1  C2' OXE d   1      -5.881  -2.995  -3.364  0.00  0.00     0.078 C 
ATOM      2  C1' OXE d   1      -5.999  -5.653  -2.469  0.00  0.00     0.078 C 
ATOM      3  C1  OXE d   1      -4.645  -4.992  -2.535  0.00  0.00    -0.078 A 
ATOM      4  C2  OXE d   1      -4.591  -3.707  -3.019  0.00  0.00    -0.078 A 
ATOM      5  C3  OXE d   1      -3.374  -3.032  -3.049  0.00  0.00     0.003 A 
ATOM      6  C4  OXE d   1      -2.185  -3.701  -2.737  0.00  0.00    -0.002 A 
ATOM      7  C5  OXE d   1      -2.212  -5.023  -2.281  0.00  0.00    -0.002 A 
ATOM      8  C6  OXE d   1      -3.436  -5.668  -2.134  0.00  0.00     0.003 A 
ENDROOT
TORSDOF 0
ENDMDL
