MODEL 1
REMARK minimizedAffinity 10.3146563
REMARK minimizedRMSD -1
REMARK  0 active torsions:
REMARK  status: ('A' for Active; 'I' for Inactive)
ROOT
ATOM      1  C2' OXE d   1       2.520   1.957   0.732  0.00  0.00     0.078 C 
ATOM      2  C1' OXE d   1       4.364   2.749  -1.231  0.00  0.00     0.078 C 
ATOM      3  C1  OXE d   1       4.633   1.462  -0.491  0.00  0.00    -0.078 A 
ATOM      4  C2  OXE d   1       3.750   1.107   0.500  0.00  0.00    -0.078 A 
ATOM      5  C3  OXE d   1       3.921  -0.098   1.176  0.00  0.00     0.003 A 
ATOM      6  C4  OXE d   1       5.067  -0.874   0.963  0.00  0.00    -0.002 A 
ATOM      7  C5  OXE d   1       5.999  -0.509  -0.014  0.00  0.00    -0.002 A 
ATOM      8  C6  OXE d   1       5.776   0.631  -0.778  0.00  0.00     0.003 A 
ENDROOT
TORSDOF 0
ENDMDL
