MODEL 1
REMARK minimizedAffinity 10.0094185
REMARK minimizedRMSD -1
REMARK  0 active torsions:
REMARK  status: ('A' for Active; 'I' for Inactive)
ROOT
ATOM      1  C2' OXE d   1      -5.122  -5.999   1.207  0.00  0.00     0.078 C 
ATOM      2  C1' OXE d   1      -4.072  -5.979  -1.397  0.00  0.00     0.078 C 
ATOM      3  C1  OXE d   1      -3.098  -5.981  -0.245  0.00  0.00    -0.078 A 
ATOM      4  C2  OXE d   1      -3.620  -5.943   1.025  0.00  0.00    -0.078 A 
ATOM      5  C3  OXE d   1      -2.767  -5.998   2.123  0.00  0.00     0.003 A 
ATOM      6  C4  OXE d   1      -1.379  -5.936   1.947  0.00  0.00    -0.002 A 
ATOM      7  C5  OXE d   1      -0.827  -5.933   0.661  0.00  0.00    -0.002 A 
ATOM      8  C6  OXE d   1      -1.669  -5.998  -0.443  0.00  0.00     0.003 A 
ENDROOT
TORSDOF 0
ENDMDL
