MODEL 1
REMARK minimizedAffinity 13.6667366
REMARK minimizedRMSD -1
REMARK  0 active torsions:
REMARK  status: ('A' for Active; 'I' for Inactive)
ROOT
ATOM      1  C2' OXE d   1      -2.269  -3.251  -3.729  0.00  0.00     0.078 C 
ATOM      2  C1' OXE d   1      -2.207  -5.636  -2.249  0.00  0.00     0.078 C 
ATOM      3  C1  OXE d   1      -3.555  -5.090  -2.647  0.00  0.00    -0.078 A 
ATOM      4  C2  OXE d   1      -3.578  -3.898  -3.331  0.00  0.00    -0.078 A 
ATOM      5  C3  OXE d   1      -4.792  -3.379  -3.771  0.00  0.00     0.003 A 
ATOM      6  C4  OXE d   1      -5.999  -3.978  -3.390  0.00  0.00    -0.002 A 
ATOM      7  C5  OXE d   1      -5.999  -5.171  -2.660  0.00  0.00    -0.002 A 
ATOM      8  C6  OXE d   1      -4.788  -5.762  -2.318  0.00  0.00     0.003 A 
ENDROOT
TORSDOF 0
ENDMDL
