MODEL 1
REMARK minimizedAffinity 12.5761509
REMARK minimizedRMSD -1
REMARK  0 active torsions:
REMARK  status: ('A' for Active; 'I' for Inactive)
ROOT
ATOM      1  C2' OXE d   1      -5.270  -4.183  -5.108  0.00  0.00     0.078 C 
ATOM      2  C1' OXE d   1      -2.631  -4.190  -4.149  0.00  0.00     0.078 C 
ATOM      3  C1  OXE d   1      -3.692  -4.840  -3.296  0.00  0.00    -0.078 A 
ATOM      4  C2  OXE d   1      -4.987  -4.791  -3.751  0.00  0.00    -0.078 A 
ATOM      5  C3  OXE d   1      -5.996  -5.423  -3.029  0.00  0.00     0.003 A 
ATOM      6  C4  OXE d   1      -5.728  -5.974  -1.770  0.00  0.00    -0.002 A 
ATOM      7  C5  OXE d   1      -4.421  -5.999  -1.269  0.00  0.00    -0.002 A 
ATOM      8  C6  OXE d   1      -3.387  -5.476  -2.038  0.00  0.00     0.003 A 
ENDROOT
TORSDOF 0
ENDMDL
