MODEL 1
REMARK minimizedAffinity 9.08482456
REMARK minimizedRMSD -1
REMARK  0 active torsions:
REMARK  status: ('A' for Active; 'I' for Inactive)
ROOT
ATOM      1  C2' OXE d   1      -0.540  -4.798  -3.441  0.00  0.00     0.078 C 
ATOM      2  C1' OXE d   1      -1.875  -2.350  -3.113  0.00  0.00     0.078 C 
ATOM      3  C1  OXE d   1      -2.624  -3.612  -2.764  0.00  0.00    -0.078 A 
ATOM      4  C2  OXE d   1      -1.979  -4.807  -2.972  0.00  0.00    -0.078 A 
ATOM      5  C3  OXE d   1      -2.605  -5.999  -2.616  0.00  0.00     0.003 A 
ATOM      6  C4  OXE d   1      -3.940  -6.000  -2.193  0.00  0.00    -0.002 A 
ATOM      7  C5  OXE d   1      -4.628  -4.795  -2.012  0.00  0.00    -0.002 A 
ATOM      8  C6  OXE d   1      -3.972  -3.593  -2.252  0.00  0.00     0.003 A 
ENDROOT
TORSDOF 0
ENDMDL
