MODEL 1
REMARK minimizedAffinity 4.55610895
REMARK minimizedRMSD -1
REMARK  0 active torsions:
REMARK  status: ('A' for Active; 'I' for Inactive)
ROOT
ATOM      1  C2' OXE d   1      -1.881  -2.812  -1.532  0.00  0.00     0.078 C 
ATOM      2  C1' OXE d   1      -3.809  -4.477  -2.712  0.00  0.00     0.078 C 
ATOM      3  C1  OXE d   1      -2.358  -4.751  -3.020  0.00  0.00    -0.078 A 
ATOM      4  C2  OXE d   1      -1.424  -3.903  -2.476  0.00  0.00    -0.078 A 
ATOM      5  C3  OXE d   1      -0.069  -4.144  -2.684  0.00  0.00     0.003 A 
ATOM      6  C4  OXE d   1       0.344  -5.149  -3.567  0.00  0.00    -0.002 A 
ATOM      7  C5  OXE d   1      -0.592  -6.000  -4.163  0.00  0.00    -0.002 A 
ATOM      8  C6  OXE d   1      -1.942  -5.842  -3.867  0.00  0.00     0.003 A 
ENDROOT
TORSDOF 0
ENDMDL
