MODEL 1
REMARK minimizedAffinity 9.08688164
REMARK minimizedRMSD -1
REMARK  0 active torsions:
REMARK  status: ('A' for Active; 'I' for Inactive)
ROOT
ATOM      1  C2' OXE d   1      -1.033  -2.155  -2.887  0.00  0.00     0.078 C 
ATOM      2  C1' OXE d   1      -3.404  -3.399  -2.044  0.00  0.00     0.078 C 
ATOM      3  C1  OXE d   1      -2.420  -2.969  -0.985  0.00  0.00    -0.078 A 
ATOM      4  C2  OXE d   1      -1.242  -2.404  -1.408  0.00  0.00    -0.078 A 
ATOM      5  C3  OXE d   1      -0.323  -1.940  -0.471  0.00  0.00     0.003 A 
ATOM      6  C4  OXE d   1      -0.520  -2.183   0.894  0.00  0.00    -0.002 A 
ATOM      7  C5  OXE d   1      -1.695  -2.793   1.345  0.00  0.00    -0.002 A 
ATOM      8  C6  OXE d   1      -2.672  -3.153   0.423  0.00  0.00     0.003 A 
ENDROOT
TORSDOF 0
ENDMDL
