MODEL 1
REMARK minimizedAffinity 6.02676296
REMARK minimizedRMSD -1
REMARK  0 active torsions:
REMARK  status: ('A' for Active; 'I' for Inactive)
ROOT
ATOM      1  C2' OXE d   1      -3.750  -5.711   0.034  0.00  0.00     0.078 C 
ATOM      2  C1' OXE d   1      -3.000  -3.008  -0.067  0.00  0.00     0.078 C 
ATOM      3  C1  OXE d   1      -2.439  -3.853   1.050  0.00  0.00    -0.078 A 
ATOM      4  C2  OXE d   1      -2.849  -5.163   1.119  0.00  0.00    -0.078 A 
ATOM      5  C3  OXE d   1      -2.320  -6.000   2.097  0.00  0.00     0.003 A 
ATOM      6  C4  OXE d   1      -1.494  -5.482   3.103  0.00  0.00    -0.002 A 
ATOM      7  C5  OXE d   1      -1.097  -4.141   3.075  0.00  0.00    -0.002 A 
ATOM      8  C6  OXE d   1      -1.526  -3.325   2.033  0.00  0.00     0.003 A 
ENDROOT
TORSDOF 0
ENDMDL
