MODEL 1
REMARK minimizedAffinity -0.0289785136
REMARK minimizedRMSD -1
REMARK  0 active torsions:
REMARK  status: ('A' for Active; 'I' for Inactive)
ROOT
ATOM      1  C2' OXE d   1      -2.598  -2.673  -1.927  0.00  0.00     0.078 C 
ATOM      2  C1' OXE d   1      -1.786  -4.713  -3.676  0.00  0.00     0.078 C 
ATOM      3  C1  OXE d   1      -3.265  -4.535  -3.442  0.00  0.00    -0.078 A 
ATOM      4  C2  OXE d   1      -3.651  -3.565  -2.548  0.00  0.00    -0.078 A 
ATOM      5  C3  OXE d   1      -5.005  -3.323  -2.337  0.00  0.00     0.003 A 
ATOM      6  C4  OXE d   1      -5.973  -4.159  -2.907  0.00  0.00    -0.002 A 
ATOM      7  C5  OXE d   1      -5.599  -5.178  -3.790  0.00  0.00    -0.002 A 
ATOM      8  C6  OXE d   1      -4.255  -5.352  -4.100  0.00  0.00     0.003 A 
ENDROOT
TORSDOF 0
ENDMDL
