MODEL 1
REMARK minimizedAffinity 11.7196684
REMARK minimizedRMSD -1
REMARK  0 active torsions:
REMARK  status: ('A' for Active; 'I' for Inactive)
ROOT
ATOM      1  C2' OXE d   1      -0.486  -2.695   1.016  0.00  0.00     0.078 C 
ATOM      2  C1' OXE d   1      -2.878  -3.003  -0.421  0.00  0.00     0.078 C 
ATOM      3  C1  OXE d   1      -2.589  -3.988   0.684  0.00  0.00    -0.078 A 
ATOM      4  C2  OXE d   1      -1.394  -3.858   1.351  0.00  0.00    -0.078 A 
ATOM      5  C3  OXE d   1      -1.103  -4.706   2.415  0.00  0.00     0.003 A 
ATOM      6  C4  OXE d   1      -1.944  -5.785   2.712  0.00  0.00    -0.002 A 
ATOM      7  C5  OXE d   1      -3.146  -5.960   2.020  0.00  0.00    -0.002 A 
ATOM      8  C6  OXE d   1      -3.503  -5.047   1.033  0.00  0.00     0.003 A 
ENDROOT
TORSDOF 0
ENDMDL
