MODEL 1
REMARK minimizedAffinity 20.304285
REMARK minimizedRMSD -1
REMARK  0 active torsions:
REMARK  status: ('A' for Active; 'I' for Inactive)
ROOT
ATOM      1  C2' OXE d   1      -0.543  -5.998  -3.787  0.00  0.00     0.078 C 
ATOM      2  C1' OXE d   1      -2.907  -6.000  -2.273  0.00  0.00     0.078 C 
ATOM      3  C1  OXE d   1      -2.280  -4.667  -2.597  0.00  0.00    -0.078 A 
ATOM      4  C2  OXE d   1      -1.099  -4.678  -3.299  0.00  0.00    -0.078 A 
ATOM      5  C3  OXE d   1      -0.507  -3.474  -3.671  0.00  0.00     0.003 A 
ATOM      6  C4  OXE d   1      -1.022  -2.258  -3.206  0.00  0.00    -0.002 A 
ATOM      7  C5  OXE d   1      -2.202  -2.226  -2.457  0.00  0.00    -0.002 A 
ATOM      8  C6  OXE d   1      -2.866  -3.417  -2.180  0.00  0.00     0.003 A 
ENDROOT
TORSDOF 0
ENDMDL
