MODEL 1
REMARK minimizedAffinity 15.0422049
REMARK minimizedRMSD -1
REMARK  0 active torsions:
REMARK  status: ('A' for Active; 'I' for Inactive)
ROOT
ATOM      1  C2' OXE d   1      -0.962  -2.189   2.809  0.00  0.00     0.078 C 
ATOM      2  C1' OXE d   1      -2.945  -2.253   0.823  0.00  0.00     0.078 C 
ATOM      3  C1  OXE d   1      -2.526  -3.563   1.441  0.00  0.00    -0.078 A 
ATOM      4  C2  OXE d   1      -1.522  -3.528   2.379  0.00  0.00    -0.078 A 
ATOM      5  C3  OXE d   1      -1.135  -4.701   3.020  0.00  0.00     0.003 A 
ATOM      6  C4  OXE d   1      -1.650  -5.936   2.609  0.00  0.00    -0.002 A 
ATOM      7  C5  OXE d   1      -2.645  -5.999   1.627  0.00  0.00    -0.002 A 
ATOM      8  C6  OXE d   1      -3.124  -4.821   1.065  0.00  0.00     0.003 A 
ENDROOT
TORSDOF 0
ENDMDL
