MODEL 1
REMARK minimizedAffinity -1.42061698
REMARK minimizedRMSD -1
REMARK  0 active torsions:
REMARK  status: ('A' for Active; 'I' for Inactive)
ROOT
ATOM      1  C   UNL d   1       0.565   1.865   0.896  0.00  0.00     0.020 A 
ATOM      2  C1  UNL d   1       0.644   0.484   0.720  0.00  0.00     0.020 A 
ATOM      3  C2  UNL d   1      -0.344  -0.346   1.255  0.00  0.00     0.034 A 
ATOM      4  C3  UNL d   1      -1.415   0.205   1.968  0.00  0.00     0.017 A 
ATOM      5  C4  UNL d   1      -1.493   1.591   2.145  0.00  0.00     0.017 A 
ATOM      6  C5  UNL d   1      -0.501   2.417   1.607  0.00  0.00     0.034 A 
ATOM      7 Cl   UNL d   1      -2.784   2.343   3.013  0.00  0.00    -0.070 Cl
ATOM      8 Cl1  UNL d   1      -2.601  -0.881   2.602  0.00  0.00    -0.070 Cl
ENDROOT
TORSDOF 0
ENDMDL
