MODEL 1
REMARK minimizedAffinity 5.25780725
REMARK minimizedRMSD -1
REMARK  0 active torsions:
REMARK  status: ('A' for Active; 'I' for Inactive)
ROOT
ATOM      1  C   UNL d   1      -0.643   1.095   1.570  0.00  0.00     0.020 A 
ATOM      2  C1  UNL d   1      -1.282   2.334   1.598  0.00  0.00     0.020 A 
ATOM      3  C2  UNL d   1      -2.495   2.480   2.275  0.00  0.00     0.034 A 
ATOM      4  C3  UNL d   1      -3.073   1.384   2.926  0.00  0.00     0.017 A 
ATOM      5  C4  UNL d   1      -2.431   0.141   2.898  0.00  0.00     0.017 A 
ATOM      6  C5  UNL d   1      -1.217   0.001   2.218  0.00  0.00     0.034 A 
ATOM      7 Cl   UNL d   1      -3.083  -1.257   3.678  0.00  0.00    -0.070 Cl
ATOM      8 Cl1  UNL d   1      -4.574   1.637   3.744  0.00  0.00    -0.070 Cl
ENDROOT
TORSDOF 0
ENDMDL
