MODEL 1
REMARK minimizedAffinity 1.7405107
REMARK minimizedRMSD -1
REMARK  0 active torsions:
REMARK  status: ('A' for Active; 'I' for Inactive)
ROOT
ATOM      1  C   UNL d   1       0.873   1.414   0.740  0.00  0.00     0.020 A 
ATOM      2  C1  UNL d   1       0.414   2.650   1.195  0.00  0.00     0.020 A 
ATOM      3  C2  UNL d   1      -0.834   2.745   1.815  0.00  0.00     0.034 A 
ATOM      4  C3  UNL d   1      -1.627   1.604   1.981  0.00  0.00     0.017 A 
ATOM      5  C4  UNL d   1      -1.165   0.365   1.523  0.00  0.00     0.017 A 
ATOM      6  C5  UNL d   1       0.085   0.274   0.903  0.00  0.00     0.034 A 
ATOM      7 Cl   UNL d   1      -2.087  -1.088   1.692  0.00  0.00    -0.070 Cl
ATOM      8 Cl1  UNL d   1      -3.159   1.796   2.756  0.00  0.00    -0.070 Cl
ENDROOT
TORSDOF 0
ENDMDL
