MODEL 1
REMARK minimizedAffinity -5.13462543
REMARK minimizedRMSD -1
REMARK  0 active torsions:
REMARK  status: ('A' for Active; 'I' for Inactive)
ROOT
ATOM      1  C   UNL d   1       1.092   1.876   0.620  0.00  0.00     0.020 A 
ATOM      2  C1  UNL d   1       0.386   2.868   1.300  0.00  0.00     0.020 A 
ATOM      3  C2  UNL d   1      -0.812   2.554   1.946  0.00  0.00     0.034 A 
ATOM      4  C3  UNL d   1      -1.308   1.246   1.912  0.00  0.00     0.017 A 
ATOM      5  C4  UNL d   1      -0.599   0.251   1.229  0.00  0.00     0.017 A 
ATOM      6  C5  UNL d   1       0.600   0.571   0.585  0.00  0.00     0.034 A 
ATOM      7 Cl   UNL d   1      -1.148  -1.385   1.144  0.00  0.00    -0.070 Cl
ATOM      8 Cl1  UNL d   1      -2.795   0.930   2.732  0.00  0.00    -0.070 Cl
ENDROOT
TORSDOF 0
ENDMDL
