MODEL 1
REMARK minimizedAffinity 6.50900984
REMARK minimizedRMSD -1
REMARK  0 active torsions:
REMARK  status: ('A' for Active; 'I' for Inactive)
ROOT
ATOM      1  C   UNL d   1      -0.118   0.946   1.027  0.00  0.00     0.020 A 
ATOM      2  C1  UNL d   1      -0.175   2.312   1.302  0.00  0.00     0.020 A 
ATOM      3  C2  UNL d   1      -1.254   2.836   2.017  0.00  0.00     0.034 A 
ATOM      4  C3  UNL d   1      -2.280   1.993   2.460  0.00  0.00     0.017 A 
ATOM      5  C4  UNL d   1      -2.222   0.622   2.183  0.00  0.00     0.017 A 
ATOM      6  C5  UNL d   1      -1.140   0.103   1.467  0.00  0.00     0.034 A 
ATOM      7 Cl   UNL d   1      -3.451  -0.480   2.696  0.00  0.00    -0.070 Cl
ATOM      8 Cl1  UNL d   1      -3.584   2.709   3.339  0.00  0.00    -0.070 Cl
ENDROOT
TORSDOF 0
ENDMDL
