MODEL 1
REMARK minimizedAffinity 7.75875711
REMARK minimizedRMSD -1
REMARK  0 active torsions:
REMARK  status: ('A' for Active; 'I' for Inactive)
ROOT
ATOM      1  C   UNL d   1      -6.000   1.902   6.000  0.00  0.00     0.020 A 
ATOM      2  C1  UNL d   1      -5.185   3.019   5.820  0.00  0.00     0.020 A 
ATOM      3  C2  UNL d   1      -4.238   3.035   4.794  0.00  0.00     0.034 A 
ATOM      4  C3  UNL d   1      -4.103   1.931   3.944  0.00  0.00     0.017 A 
ATOM      5  C4  UNL d   1      -4.922   0.811   4.125  0.00  0.00     0.017 A 
ATOM      6  C5  UNL d   1      -5.868   0.800   5.154  0.00  0.00     0.034 A 
ATOM      7 Cl   UNL d   1      -4.814  -0.588   3.116  0.00  0.00    -0.070 Cl
ATOM      8 Cl1  UNL d   1      -2.911   2.019   2.696  0.00  0.00    -0.070 Cl
ENDROOT
TORSDOF 0
ENDMDL
