MODEL 1
REMARK minimizedAffinity 2.90234399
REMARK minimizedRMSD -1
REMARK  0 active torsions:
REMARK  status: ('A' for Active; 'I' for Inactive)
ROOT
ATOM      1  C   UNL d   1       0.315   1.738   0.350  0.00  0.00     0.020 A 
ATOM      2  C1  UNL d   1       0.399   0.348   0.429  0.00  0.00     0.020 A 
ATOM      3  C2  UNL d   1      -0.428  -0.353   1.309  0.00  0.00     0.034 A 
ATOM      4  C3  UNL d   1      -1.344   0.336   2.114  0.00  0.00     0.017 A 
ATOM      5  C4  UNL d   1      -1.427   1.730   2.034  0.00  0.00     0.017 A 
ATOM      6  C5  UNL d   1      -0.597   2.427   1.151  0.00  0.00     0.034 A 
ATOM      7 Cl   UNL d   1      -2.532   2.649   2.995  0.00  0.00    -0.070 Cl
ATOM      8 Cl1  UNL d   1      -2.336  -0.595   3.179  0.00  0.00    -0.070 Cl
ENDROOT
TORSDOF 0
ENDMDL
