MODEL 1
REMARK minimizedAffinity 1.88140631
REMARK minimizedRMSD -1
REMARK  0 active torsions:
REMARK  status: ('A' for Active; 'I' for Inactive)
ROOT
ATOM      1  C   UNL d   1       0.824   1.759   0.727  0.00  0.00     0.020 A 
ATOM      2  C1  UNL d   1       0.962   0.374   0.799  0.00  0.00     0.020 A 
ATOM      3  C2  UNL d   1      -0.022  -0.394   1.426  0.00  0.00     0.034 A 
ATOM      4  C3  UNL d   1      -1.148   0.224   1.984  0.00  0.00     0.017 A 
ATOM      5  C4  UNL d   1      -1.285   1.615   1.911  0.00  0.00     0.017 A 
ATOM      6  C5  UNL d   1      -0.296   2.378   1.282  0.00  0.00     0.034 A 
ATOM      7 Cl   UNL d   1      -2.645   2.448   2.575  0.00  0.00    -0.070 Cl
ATOM      8 Cl1  UNL d   1      -2.325  -0.787   2.744  0.00  0.00    -0.070 Cl
ENDROOT
TORSDOF 0
ENDMDL
