MODEL 1
REMARK minimizedAffinity 1.18706346
REMARK minimizedRMSD -1
REMARK  0 active torsions:
REMARK  status: ('A' for Active; 'I' for Inactive)
ROOT
ATOM      1  C   UNL d   1       0.650  -0.528   0.642  0.00  0.00     0.020 A 
ATOM      2  C1  UNL d   1       0.836   0.821   0.342  0.00  0.00     0.020 A 
ATOM      3  C2  UNL d   1      -0.017   1.781   0.890  0.00  0.00     0.034 A 
ATOM      4  C3  UNL d   1      -1.059   1.395   1.740  0.00  0.00     0.017 A 
ATOM      5  C4  UNL d   1      -1.244   0.041   2.041  0.00  0.00     0.017 A 
ATOM      6  C5  UNL d   1      -0.388  -0.917   1.490  0.00  0.00     0.034 A 
ATOM      7 Cl   UNL d   1      -2.508  -0.513   3.082  0.00  0.00    -0.070 Cl
ATOM      8 Cl1  UNL d   1      -2.075   2.636   2.381  0.00  0.00    -0.070 Cl
ENDROOT
TORSDOF 0
ENDMDL
