MODEL 1
REMARK minimizedAffinity 7.61060143
REMARK minimizedRMSD -1
REMARK  0 active torsions:
REMARK  status: ('A' for Active; 'I' for Inactive)
ROOT
ATOM      1  C   UNL d   1      -5.310   4.984   0.807  0.00  0.00     0.020 A 
ATOM      2  C1  UNL d   1      -4.117   4.761   0.121  0.00  0.00     0.020 A 
ATOM      3  C2  UNL d   1      -3.059   4.106   0.755  0.00  0.00     0.034 A 
ATOM      4  C3  UNL d   1      -3.192   3.671   2.079  0.00  0.00     0.017 A 
ATOM      5  C4  UNL d   1      -4.390   3.896   2.766  0.00  0.00     0.017 A 
ATOM      6  C5  UNL d   1      -5.446   4.552   2.126  0.00  0.00     0.034 A 
ATOM      7 Cl   UNL d   1      -4.629   3.389   4.401  0.00  0.00    -0.070 Cl
ATOM      8 Cl1  UNL d   1      -1.843   2.868   2.800  0.00  0.00    -0.070 Cl
ENDROOT
TORSDOF 0
ENDMDL
