MODEL 1
REMARK minimizedAffinity -1.28366542
REMARK minimizedRMSD -1
REMARK  0 active torsions:
REMARK  status: ('A' for Active; 'I' for Inactive)
ROOT
ATOM      1  C   UNL d   1       1.473   0.309   0.453  0.00  0.00     0.020 A 
ATOM      2  C1  UNL d   1       1.547   1.639   0.866  0.00  0.00     0.020 A 
ATOM      3  C2  UNL d   1       0.474   2.219   1.545  0.00  0.00     0.034 A 
ATOM      4  C3  UNL d   1      -0.678   1.471   1.813  0.00  0.00     0.017 A 
ATOM      5  C4  UNL d   1      -0.751   0.136   1.398  0.00  0.00     0.017 A 
ATOM      6  C5  UNL d   1       0.326  -0.441   0.718  0.00  0.00     0.034 A 
ATOM      7 Cl   UNL d   1      -2.139  -0.851   1.692  0.00  0.00    -0.070 Cl
ATOM      8 Cl1  UNL d   1      -1.966   2.253   2.658  0.00  0.00    -0.070 Cl
ENDROOT
TORSDOF 0
ENDMDL
