MODEL 1
REMARK minimizedAffinity -2.56451821
REMARK minimizedRMSD -1
REMARK  0 active torsions:
REMARK  status: ('A' for Active; 'I' for Inactive)
ROOT
ATOM      1  C   UNL d   1      -1.287   3.422   1.089  0.00  0.00     0.020 A 
ATOM      2  C1  UNL d   1       0.073   3.462   0.785  0.00  0.00     0.020 A 
ATOM      3  C2  UNL d   1       0.823   2.285   0.783  0.00  0.00     0.034 A 
ATOM      4  C3  UNL d   1       0.215   1.061   1.086  0.00  0.00     0.017 A 
ATOM      5  C4  UNL d   1      -1.151   1.022   1.391  0.00  0.00     0.017 A 
ATOM      6  C5  UNL d   1      -1.898   2.204   1.392  0.00  0.00     0.034 A 
ATOM      7 Cl   UNL d   1      -1.972  -0.450   1.775  0.00  0.00    -0.070 Cl
ATOM      8 Cl1  UNL d   1       1.203  -0.355   1.065  0.00  0.00    -0.070 Cl
ENDROOT
TORSDOF 0
ENDMDL
