MODEL 1
REMARK minimizedAffinity -2.83682966
REMARK minimizedRMSD -1
REMARK  0 active torsions:
REMARK  status: ('A' for Active; 'I' for Inactive)
ROOT
ATOM      1  C   UNL d   1      -1.099   1.242   1.708  0.00  0.00     0.020 A 
ATOM      2  C1  UNL d   1      -1.002  -0.148   1.679  0.00  0.00     0.020 A 
ATOM      3  C2  UNL d   1       0.141  -0.757   1.156  0.00  0.00     0.034 A 
ATOM      4  C3  UNL d   1       1.191   0.024   0.660  0.00  0.00     0.017 A 
ATOM      5  C4  UNL d   1       1.093   1.420   0.690  0.00  0.00     0.017 A 
ATOM      6  C5  UNL d   1      -0.054   2.025   1.215  0.00  0.00     0.034 A 
ATOM      7 Cl   UNL d   1       2.347   2.450   0.096  0.00  0.00    -0.070 Cl
ATOM      8 Cl1  UNL d   1       2.574  -0.797   0.028  0.00  0.00    -0.070 Cl
ENDROOT
TORSDOF 0
ENDMDL
