MODEL 1
REMARK minimizedAffinity 2.34580541
REMARK minimizedRMSD -1
REMARK  0 active torsions:
REMARK  status: ('A' for Active; 'I' for Inactive)
ROOT
ATOM      1  C   UNL d   1       0.883   0.006   0.621  0.00  0.00     0.020 A 
ATOM      2  C1  UNL d   1       0.862   1.384   0.407  0.00  0.00     0.020 A 
ATOM      3  C2  UNL d   1      -0.243   2.136   0.812  0.00  0.00     0.034 A 
ATOM      4  C3  UNL d   1      -1.330   1.511   1.433  0.00  0.00     0.017 A 
ATOM      5  C4  UNL d   1      -1.308   0.128   1.648  0.00  0.00     0.017 A 
ATOM      6  C5  UNL d   1      -0.199  -0.620   1.240  0.00  0.00     0.034 A 
ATOM      7 Cl   UNL d   1      -2.612  -0.713   2.408  0.00  0.00    -0.070 Cl
ATOM      8 Cl1  UNL d   1      -2.662   2.504   1.909  0.00  0.00    -0.070 Cl
ENDROOT
TORSDOF 0
ENDMDL
