MODEL 1
REMARK minimizedAffinity -0.225577399
REMARK minimizedRMSD -1
REMARK  0 active torsions:
REMARK  status: ('A' for Active; 'I' for Inactive)
ROOT
ATOM      1  C   UNL d   1      -0.782   2.981   1.983  0.00  0.00     0.020 A 
ATOM      2  C1  UNL d   1       0.289   2.457   1.260  0.00  0.00     0.020 A 
ATOM      3  C2  UNL d   1       0.304   1.103   0.917  0.00  0.00     0.034 A 
ATOM      4  C3  UNL d   1      -0.754   0.269   1.296  0.00  0.00     0.017 A 
ATOM      5  C4  UNL d   1      -1.829   0.796   2.021  0.00  0.00     0.017 A 
ATOM      6  C5  UNL d   1      -1.839   2.152   2.362  0.00  0.00     0.034 A 
ATOM      7 Cl   UNL d   1      -3.170  -0.171   2.524  0.00  0.00    -0.070 Cl
ATOM      8 Cl1  UNL d   1      -0.669  -1.395   0.836  0.00  0.00    -0.070 Cl
ENDROOT
TORSDOF 0
ENDMDL
