MODEL 1
REMARK minimizedAffinity 4.89558268
REMARK minimizedRMSD -1
REMARK  0 active torsions:
REMARK  status: ('A' for Active; 'I' for Inactive)
ROOT
ATOM      1  C   UNL d   1      -2.994  -5.466  -0.995  0.00  0.00     0.020 A 
ATOM      2  C1  UNL d   1      -3.947  -4.735  -0.287  0.00  0.00     0.020 A 
ATOM      3  C2  UNL d   1      -4.305  -3.455  -0.716  0.00  0.00     0.034 A 
ATOM      4  C3  UNL d   1      -3.709  -2.902  -1.855  0.00  0.00     0.017 A 
ATOM      5  C4  UNL d   1      -2.752  -3.637  -2.565  0.00  0.00     0.017 A 
ATOM      6  C5  UNL d   1      -2.398  -4.918  -2.131  0.00  0.00     0.034 A 
ATOM      7 Cl   UNL d   1      -1.973  -3.021  -3.980  0.00  0.00    -0.070 Cl
ATOM      8 Cl1  UNL d   1      -4.200  -1.314  -2.329  0.00  0.00    -0.070 Cl
ENDROOT
TORSDOF 0
ENDMDL
