MODEL 1
REMARK minimizedAffinity -2.10040951
REMARK minimizedRMSD -1
REMARK  0 active torsions:
REMARK  status: ('A' for Active; 'I' for Inactive)
ROOT
ATOM      1  C   UNL d   1      -0.394  -0.865   1.202  0.00  0.00     0.020 A 
ATOM      2  C1  UNL d   1       0.576   0.059   0.816  0.00  0.00     0.020 A 
ATOM      3  C2  UNL d   1       0.337   1.426   0.969  0.00  0.00     0.034 A 
ATOM      4  C3  UNL d   1      -0.874   1.873   1.509  0.00  0.00     0.017 A 
ATOM      5  C4  UNL d   1      -1.847   0.945   1.896  0.00  0.00     0.017 A 
ATOM      6  C5  UNL d   1      -1.603  -0.423   1.741  0.00  0.00     0.034 A 
ATOM      7 Cl   UNL d   1      -3.366   1.420   2.570  0.00  0.00    -0.070 Cl
ATOM      8 Cl1  UNL d   1      -1.101   3.579   1.669  0.00  0.00    -0.070 Cl
ENDROOT
TORSDOF 0
ENDMDL
