MODEL 1
REMARK minimizedAffinity -0.895407677
REMARK minimizedRMSD -1
REMARK  0 active torsions:
REMARK  status: ('A' for Active; 'I' for Inactive)
ROOT
ATOM      1  C   UNL d   1       1.024   0.349   1.041  0.00  0.00     0.020 A 
ATOM      2  C1  UNL d   1       1.041   1.743   1.057  0.00  0.00     0.020 A 
ATOM      3  C2  UNL d   1      -0.094   2.450   1.459  0.00  0.00     0.034 A 
ATOM      4  C3  UNL d   1      -1.250   1.763   1.848  0.00  0.00     0.017 A 
ATOM      5  C4  UNL d   1      -1.266   0.364   1.832  0.00  0.00     0.017 A 
ATOM      6  C5  UNL d   1      -0.126  -0.339   1.428  0.00  0.00     0.034 A 
ATOM      7 Cl   UNL d   1      -2.655  -0.553   2.297  0.00  0.00    -0.070 Cl
ATOM      8 Cl1  UNL d   1      -2.617   2.702   2.334  0.00  0.00    -0.070 Cl
ENDROOT
TORSDOF 0
ENDMDL
