MODEL 1
REMARK minimizedAffinity -4.62342548
REMARK minimizedRMSD -1
REMARK  1 active torsions:
REMARK  status: ('A' for Active; 'I' for Inactive)
REMARK    1  A    between atoms: C1_2  and  C2_3 
ROOT
ATOM      1  C2  UNL d   1       0.277   0.182   1.496  0.00  0.00    -0.081 A 
ATOM      2  C3  UNL d   1       1.162   1.077   0.882  0.00  0.00     0.006 A 
ATOM      3  C4  UNL d   1       1.438   0.974  -0.483  0.00  0.00     0.002 A 
ATOM      4  C5  UNL d   1       0.829  -0.018  -1.258  0.00  0.00    -0.080 A 
ATOM      5  C6  UNL d   1       1.094  -0.120  -2.731  0.00  0.00     0.076 C 
ATOM      6  C7  UNL d   1      -0.042  -0.923  -0.641  0.00  0.00     0.002 A 
ATOM      7  C8  UNL d   1      -0.318  -0.821   0.724  0.00  0.00     0.006 A 
ENDROOT
BRANCH   1   8
ATOM      8  C1  UNL d   1      -0.074   0.330   2.955  0.00  0.00     0.054 C 
ATOM      9  C   UNL d   1      -1.532  -0.020   3.212  0.00  0.00     0.018 C 
ENDBRANCH   1   8
TORSDOF 1
ENDMDL
