MODEL 1
REMARK minimizedAffinity -3.80023623
REMARK minimizedRMSD -1
REMARK  1 active torsions:
REMARK  status: ('A' for Active; 'I' for Inactive)
REMARK    1  A    between atoms: C1_2  and  C2_3 
ROOT
ATOM      1  C2  UNL d   1      -0.048   0.763   1.504  0.00  0.00    -0.081 A 
ATOM      2  C3  UNL d   1      -1.024   0.296   0.615  0.00  0.00     0.006 A 
ATOM      3  C4  UNL d   1      -0.722   0.117  -0.737  0.00  0.00     0.002 A 
ATOM      4  C5  UNL d   1       0.561   0.393  -1.221  0.00  0.00    -0.080 A 
ATOM      5  C6  UNL d   1       0.906   0.176  -2.664  0.00  0.00     0.076 C 
ATOM      6  C7  UNL d   1       1.531   0.876  -0.337  0.00  0.00     0.002 A 
ATOM      7  C8  UNL d   1       1.230   1.056   1.015  0.00  0.00     0.006 A 
ENDROOT
BRANCH   1   8
ATOM      8  C1  UNL d   1      -0.351   0.895   2.975  0.00  0.00     0.054 C 
ATOM      9  C   UNL d   1      -0.059   2.303   3.475  0.00  0.00     0.018 C 
ENDBRANCH   1   8
TORSDOF 1
ENDMDL
