MODEL 1
REMARK minimizedAffinity -1.89710712
REMARK minimizedRMSD -1
REMARK  1 active torsions:
REMARK  status: ('A' for Active; 'I' for Inactive)
REMARK    1  A    between atoms: C1_2  and  C2_3 
ROOT
ATOM      1  C2  UNL d   1       0.553  -0.098  -1.920  0.00  0.00    -0.081 A 
ATOM      2  C3  UNL d   1       1.018   1.105  -1.375  0.00  0.00     0.006 A 
ATOM      3  C4  UNL d   1       0.905   1.352  -0.005  0.00  0.00     0.002 A 
ATOM      4  C5  UNL d   1       0.332   0.398   0.843  0.00  0.00    -0.080 A 
ATOM      5  C6  UNL d   1       0.231   0.638   2.320  0.00  0.00     0.076 C 
ATOM      6  C7  UNL d   1      -0.149  -0.796   0.296  0.00  0.00     0.002 A 
ATOM      7  C8  UNL d   1      -0.036  -1.044  -1.074  0.00  0.00     0.006 A 
ENDROOT
BRANCH   1   8
ATOM      8  C1  UNL d   1       0.733  -0.395  -3.387  0.00  0.00     0.054 C 
ATOM      9  C   UNL d   1       1.709  -1.543  -3.604  0.00  0.00     0.018 C 
ENDBRANCH   1   8
TORSDOF 1
ENDMDL
