MODEL 1
REMARK minimizedAffinity -2.31950903
REMARK minimizedRMSD -1
REMARK  1 active torsions:
REMARK  status: ('A' for Active; 'I' for Inactive)
REMARK    1  A    between atoms: C1_2  and  C2_3 
ROOT
ATOM      1  C2  UNL d   1      -0.700  -0.335   1.518  0.00  0.00    -0.081 A 
ATOM      2  C3  UNL d   1      -0.108   0.296   2.620  0.00  0.00     0.006 A 
ATOM      3  C4  UNL d   1       1.167   0.856   2.514  0.00  0.00     0.002 A 
ATOM      4  C5  UNL d   1       1.868   0.802   1.305  0.00  0.00    -0.080 A 
ATOM      5  C6  UNL d   1       3.225   1.426   1.170  0.00  0.00     0.076 C 
ATOM      6  C7  UNL d   1       1.285   0.157   0.210  0.00  0.00     0.002 A 
ATOM      7  C8  UNL d   1       0.010  -0.404   0.315  0.00  0.00     0.006 A 
ENDROOT
BRANCH   1   8
ATOM      8  C1  UNL d   1      -2.101  -0.883   1.610  0.00  0.00     0.054 C 
ATOM      9  C   UNL d   1      -2.882  -0.624   0.330  0.00  0.00     0.018 C 
ENDBRANCH   1   8
TORSDOF 1
ENDMDL
