MODEL 1
REMARK minimizedAffinity -2.75694585
REMARK minimizedRMSD -1
REMARK  1 active torsions:
REMARK  status: ('A' for Active; 'I' for Inactive)
REMARK    1  A    between atoms: C1_2  and  C2_3 
ROOT
ATOM      1  C2  UNL d   1       0.796  -0.267  -1.375  0.00  0.00    -0.081 A 
ATOM      2  C3  UNL d   1      -0.416   0.429  -1.275  0.00  0.00     0.006 A 
ATOM      3  C4  UNL d   1      -1.001   0.654  -0.027  0.00  0.00     0.002 A 
ATOM      4  C5  UNL d   1      -0.382   0.196   1.141  0.00  0.00    -0.080 A 
ATOM      5  C6  UNL d   1      -0.985   0.458   2.489  0.00  0.00     0.076 C 
ATOM      6  C7  UNL d   1       0.819  -0.514   1.040  0.00  0.00     0.002 A 
ATOM      7  C8  UNL d   1       1.405  -0.740  -0.208  0.00  0.00     0.006 A 
ENDROOT
BRANCH   1   8
ATOM      8  C1  UNL d   1       1.463  -0.455  -2.714  0.00  0.00     0.054 C 
ATOM      9  C   UNL d   1       1.228  -1.857  -3.256  0.00  0.00     0.018 C 
ENDBRANCH   1   8
TORSDOF 1
ENDMDL
