MODEL 1
REMARK minimizedAffinity 0.65162915
REMARK minimizedRMSD -1
REMARK  1 active torsions:
REMARK  status: ('A' for Active; 'I' for Inactive)
REMARK    1  A    between atoms: C1_2  and  C2_3 
ROOT
ATOM      1  C2  UNL d   1      -0.222   0.426   1.677  0.00  0.00    -0.081 A 
ATOM      2  C3  UNL d   1      -1.237   0.199   0.740  0.00  0.00     0.006 A 
ATOM      3  C4  UNL d   1      -0.921  -0.151  -0.575  0.00  0.00     0.002 A 
ATOM      4  C5  UNL d   1       0.414  -0.287  -0.972  0.00  0.00    -0.080 A 
ATOM      5  C6  UNL d   1       0.766  -0.692  -2.373  0.00  0.00     0.076 C 
ATOM      6  C7  UNL d   1       1.428  -0.044  -0.040  0.00  0.00     0.002 A 
ATOM      7  C8  UNL d   1       1.113   0.306   1.274  0.00  0.00     0.006 A 
ENDROOT
BRANCH   1   8
ATOM      8  C1  UNL d   1      -0.560   0.740   3.112  0.00  0.00     0.054 C 
ATOM      9  C   UNL d   1      -1.178  -0.463   3.811  0.00  0.00     0.018 C 
ENDBRANCH   1   8
TORSDOF 1
ENDMDL
