MODEL 1
REMARK minimizedAffinity -3.4587028
REMARK minimizedRMSD -1
REMARK  1 active torsions:
REMARK  status: ('A' for Active; 'I' for Inactive)
REMARK    1  A    between atoms: C1_2  and  C2_3 
ROOT
ATOM      1  C2  UNL d   1       0.561  -0.303  -1.096  0.00  0.00    -0.081 A 
ATOM      2  C3  UNL d   1      -0.755   0.021  -0.742  0.00  0.00     0.006 A 
ATOM      3  C4  UNL d   1      -1.075   0.334   0.581  0.00  0.00     0.002 A 
ATOM      4  C5  UNL d   1      -0.086   0.338   1.570  0.00  0.00    -0.080 A 
ATOM      5  C6  UNL d   1      -0.411   0.702   2.988  0.00  0.00     0.076 C 
ATOM      6  C7  UNL d   1       1.225  -0.003   1.220  0.00  0.00     0.002 A 
ATOM      7  C8  UNL d   1       1.547  -0.317  -0.103  0.00  0.00     0.006 A 
ENDROOT
BRANCH   1   8
ATOM      8  C1  UNL d   1       0.922  -0.578  -2.533  0.00  0.00     0.054 C 
ATOM      9  C   UNL d   1       0.318  -1.890  -3.014  0.00  0.00     0.018 C 
ENDBRANCH   1   8
TORSDOF 1
ENDMDL
