MODEL 1
REMARK minimizedAffinity -4.21416378
REMARK minimizedRMSD -1
REMARK  0 active torsions:
REMARK  status: ('A' for Active; 'I' for Inactive)
ROOT
ATOM      1  C   UNL d   1       0.255  -1.735  -0.313  0.00  0.00     0.078 C 
ATOM      2  C1  UNL d   1      -0.134  -0.316  -0.022  0.00  0.00    -0.077 A 
ATOM      3  C2  UNL d   1      -1.266  -0.022   0.748  0.00  0.00    -0.001 A 
ATOM      4  C3  UNL d   1      -1.621   1.303   1.003  0.00  0.00     0.003 A 
ATOM      5  C4  UNL d   1      -0.851   2.345   0.491  0.00  0.00    -0.005 A 
ATOM      6  C5  UNL d   1       0.276   2.062  -0.278  0.00  0.00     0.003 A 
ATOM      7  C6  UNL d   1       0.633   0.738  -0.534  0.00  0.00    -0.001 A 
ENDROOT
TORSDOF 0
ENDMDL
