MODEL 1
REMARK minimizedAffinity -4.19790411
REMARK minimizedRMSD -1
REMARK  0 active torsions:
REMARK  status: ('A' for Active; 'I' for Inactive)
ROOT
ATOM      1  C   UNL d   1       1.960   1.654   0.883  0.00  0.00     0.078 C 
ATOM      2  C1  UNL d   1       0.554   1.276   0.527  0.00  0.00    -0.077 A 
ATOM      3  C2  UNL d   1       0.196  -0.063   0.326  0.00  0.00    -0.001 A 
ATOM      4  C3  UNL d   1      -1.115  -0.400  -0.015  0.00  0.00     0.003 A 
ATOM      5  C4  UNL d   1      -2.079   0.596  -0.158  0.00  0.00    -0.005 A 
ATOM      6  C5  UNL d   1      -1.732   1.931   0.039  0.00  0.00     0.003 A 
ATOM      7  C6  UNL d   1      -0.421   2.270   0.379  0.00  0.00    -0.001 A 
ENDROOT
TORSDOF 0
ENDMDL
