MODEL 1
REMARK minimizedAffinity -3.40014338
REMARK minimizedRMSD -1
REMARK  0 active torsions:
REMARK  status: ('A' for Active; 'I' for Inactive)
ROOT
ATOM      1  C   UNL d   1      -0.725   2.999   0.375  0.00  0.00     0.078 C 
ATOM      2  C1  UNL d   1      -0.236   1.582   0.429  0.00  0.00    -0.077 A 
ATOM      3  C2  UNL d   1      -1.134   0.513   0.531  0.00  0.00    -0.001 A 
ATOM      4  C3  UNL d   1      -0.665  -0.801   0.591  0.00  0.00     0.003 A 
ATOM      5  C4  UNL d   1       0.704  -1.057   0.550  0.00  0.00    -0.005 A 
ATOM      6  C5  UNL d   1       1.606   0.001   0.451  0.00  0.00     0.003 A 
ATOM      7  C6  UNL d   1       1.138   1.315   0.391  0.00  0.00    -0.001 A 
ENDROOT
TORSDOF 0
ENDMDL
