MODEL 1
REMARK minimizedAffinity -2.10791612
REMARK minimizedRMSD -1
REMARK  0 active torsions:
REMARK  status: ('A' for Active; 'I' for Inactive)
ROOT
ATOM      1  C   UNL d   1       0.002   2.902   0.683  0.00  0.00     0.078 C 
ATOM      2  C1  UNL d   1       0.244   1.437   0.475  0.00  0.00    -0.077 A 
ATOM      3  C2  UNL d   1       1.543   0.936   0.319  0.00  0.00    -0.001 A 
ATOM      4  C3  UNL d   1       1.753  -0.429   0.116  0.00  0.00     0.003 A 
ATOM      5  C4  UNL d   1       0.670  -1.304   0.066  0.00  0.00    -0.005 A 
ATOM      6  C5  UNL d   1      -0.626  -0.815   0.218  0.00  0.00     0.003 A 
ATOM      7  C6  UNL d   1      -0.838   0.550   0.421  0.00  0.00    -0.001 A 
ENDROOT
TORSDOF 0
ENDMDL
