MODEL 1
REMARK minimizedAffinity -4.84064388
REMARK minimizedRMSD -1
REMARK  0 active torsions:
REMARK  status: ('A' for Active; 'I' for Inactive)
ROOT
ATOM      1  C   UNL d   1       0.330  -1.718   0.308  0.00  0.00     0.078 C 
ATOM      2  C1  UNL d   1      -0.005  -0.257   0.292  0.00  0.00    -0.077 A 
ATOM      3  C2  UNL d   1      -1.296   0.191   0.596  0.00  0.00    -0.001 A 
ATOM      4  C3  UNL d   1      -1.595   1.554   0.568  0.00  0.00     0.003 A 
ATOM      5  C4  UNL d   1      -0.609   2.480   0.234  0.00  0.00    -0.005 A 
ATOM      6  C5  UNL d   1       0.678   2.044  -0.073  0.00  0.00     0.003 A 
ATOM      7  C6  UNL d   1       0.979   0.682  -0.045  0.00  0.00    -0.001 A 
ENDROOT
TORSDOF 0
ENDMDL
