MODEL 1
REMARK minimizedAffinity -3.76914406
REMARK minimizedRMSD -1
REMARK  0 active torsions:
REMARK  status: ('A' for Active; 'I' for Inactive)
ROOT
ATOM      1  C   UNL d   1      -0.397  -2.276  -0.125  0.00  0.00     0.078 C 
ATOM      2  C1  UNL d   1      -0.403  -0.802   0.150  0.00  0.00    -0.077 A 
ATOM      3  C2  UNL d   1      -1.551  -0.164   0.638  0.00  0.00    -0.001 A 
ATOM      4  C3  UNL d   1      -1.545   1.210   0.880  0.00  0.00     0.003 A 
ATOM      5  C4  UNL d   1      -0.395   1.959   0.637  0.00  0.00    -0.005 A 
ATOM      6  C5  UNL d   1       0.751   1.333   0.149  0.00  0.00     0.003 A 
ATOM      7  C6  UNL d   1       0.747  -0.041  -0.093  0.00  0.00    -0.001 A 
ENDROOT
TORSDOF 0
ENDMDL
