MODEL 1
REMARK minimizedAffinity -4.72200394
REMARK minimizedRMSD -1
REMARK  0 active torsions:
REMARK  status: ('A' for Active; 'I' for Inactive)
ROOT
ATOM      1  C   UNL d   1       0.137  -0.930  -0.238  0.00  0.00     0.078 C 
ATOM      2  C1  UNL d   1       0.766   0.366   0.177  0.00  0.00    -0.077 A 
ATOM      3  C2  UNL d   1       2.134   0.443   0.468  0.00  0.00    -0.001 A 
ATOM      4  C3  UNL d   1       2.704   1.655   0.862  0.00  0.00     0.003 A 
ATOM      5  C4  UNL d   1       1.914   2.797   0.971  0.00  0.00    -0.005 A 
ATOM      6  C5  UNL d   1       0.552   2.730   0.686  0.00  0.00     0.003 A 
ATOM      7  C6  UNL d   1      -0.020   1.519   0.292  0.00  0.00    -0.001 A 
ENDROOT
TORSDOF 0
ENDMDL
