MODEL 1
REMARK minimizedAffinity -5.54648113
REMARK minimizedRMSD -1
REMARK  0 active torsions:
REMARK  status: ('A' for Active; 'I' for Inactive)
ROOT
ATOM      1  C   UNL d   1      -0.001  -1.230  -0.029  0.00  0.00     0.078 C 
ATOM      2  C1  UNL d   1       0.181   0.257   0.027  0.00  0.00    -0.077 A 
ATOM      3  C2  UNL d   1       1.405   0.847  -0.313  0.00  0.00    -0.001 A 
ATOM      4  C3  UNL d   1       1.564   2.232  -0.247  0.00  0.00     0.003 A 
ATOM      5  C4  UNL d   1       0.503   3.039   0.159  0.00  0.00    -0.005 A 
ATOM      6  C5  UNL d   1      -0.718   2.462   0.500  0.00  0.00     0.003 A 
ATOM      7  C6  UNL d   1      -0.879   1.077   0.435  0.00  0.00    -0.001 A 
ENDROOT
TORSDOF 0
ENDMDL
