MODEL 1
REMARK minimizedAffinity -2.34204984
REMARK minimizedRMSD -1
REMARK  0 active torsions:
REMARK  status: ('A' for Active; 'I' for Inactive)
ROOT
ATOM      1  C   UNL d   1       2.047  -0.004   0.406  0.00  0.00     0.078 C 
ATOM      2  C1  UNL d   1       0.704   0.661   0.455  0.00  0.00    -0.077 A 
ATOM      3  C2  UNL d   1       0.590   2.056   0.457  0.00  0.00    -0.001 A 
ATOM      4  C3  UNL d   1      -0.667   2.662   0.513  0.00  0.00     0.003 A 
ATOM      5  C4  UNL d   1      -1.818   1.879   0.569  0.00  0.00    -0.005 A 
ATOM      6  C5  UNL d   1      -1.715   0.490   0.571  0.00  0.00     0.003 A 
ATOM      7  C6  UNL d   1      -0.459  -0.117   0.515  0.00  0.00    -0.001 A 
ENDROOT
TORSDOF 0
ENDMDL
