MODEL 1
REMARK minimizedAffinity -2.67757106
REMARK minimizedRMSD -1
REMARK  0 active torsions:
REMARK  status: ('A' for Active; 'I' for Inactive)
ROOT
ATOM      1  C   UNL d   1      -0.333  -0.670   0.411  0.00  0.00     0.078 C 
ATOM      2  C1  UNL d   1      -0.524  -1.740  -0.622  0.00  0.00    -0.077 A 
ATOM      3  C2  UNL d   1      -1.636  -2.591  -0.582  0.00  0.00    -0.001 A 
ATOM      4  C3  UNL d   1      -1.795  -3.589  -1.544  0.00  0.00     0.003 A 
ATOM      5  C4  UNL d   1      -0.847  -3.748  -2.552  0.00  0.00    -0.005 A 
ATOM      6  C5  UNL d   1       0.264  -2.908  -2.599  0.00  0.00     0.003 A 
ATOM      7  C6  UNL d   1       0.426  -1.909  -1.638  0.00  0.00    -0.001 A 
ENDROOT
TORSDOF 0
ENDMDL
