MODEL 1
REMARK minimizedAffinity 11.6580877
REMARK minimizedRMSD -1
REMARK  1 active torsions:
REMARK  status: ('A' for Active; 'I' for Inactive)
REMARK    1  A    between atoms: C1_2  and  C2_3 
ROOT
ATOM      1  C2  UNL d   1      -1.989   0.388  -1.062  0.00  0.00    -0.076 A 
ATOM      2  C3  UNL d   1      -2.013  -0.917  -1.584  0.00  0.00     0.004 A 
ATOM      3  C4  UNL d   1      -0.855  -1.513  -2.079  0.00  0.00    -0.003 A 
ATOM      4  C5  UNL d   1       0.348  -0.815  -2.059  0.00  0.00     0.000 A 
ATOM      5  C6  UNL d   1       0.394   0.474  -1.528  0.00  0.00     0.000 A 
ATOM      6  C7  UNL d   1      -0.762   1.084  -1.011  0.00  0.00    -0.073 A 
ATOM      7  C8  UNL d   1      -0.655   2.478  -0.456  0.00  0.00     0.078 C 
ENDROOT
BRANCH   1   8
ATOM      8  C1  UNL d   1      -3.282   0.994  -0.565  0.00  0.00     0.053 C 
ATOM      9  C   UNL d   1      -4.103   1.614  -1.684  0.00  0.00     0.018 C 
ENDBRANCH   1   8
TORSDOF 1
ENDMDL
