MODEL 1
REMARK minimizedAffinity 9.40129948
REMARK minimizedRMSD -1
REMARK  1 active torsions:
REMARK  status: ('A' for Active; 'I' for Inactive)
REMARK    1  A    between atoms: C1_2  and  C2_3 
ROOT
ATOM      1  C2  UNL d   1      -0.100   1.784   2.162  0.00  0.00    -0.076 A 
ATOM      2  C3  UNL d   1      -0.905   1.631   1.020  0.00  0.00     0.004 A 
ATOM      3  C4  UNL d   1      -0.766   2.482  -0.075  0.00  0.00    -0.003 A 
ATOM      4  C5  UNL d   1       0.180   3.500  -0.046  0.00  0.00     0.000 A 
ATOM      5  C6  UNL d   1       1.000   3.655   1.071  0.00  0.00     0.000 A 
ATOM      6  C7  UNL d   1       0.884   2.796   2.177  0.00  0.00    -0.073 A 
ATOM      7  C8  UNL d   1       1.790   3.013   3.358  0.00  0.00     0.078 C 
ENDROOT
BRANCH   1   8
ATOM      8  C1  UNL d   1      -0.314   0.848   3.330  0.00  0.00     0.053 C 
ATOM      9  C   UNL d   1       0.487  -0.438   3.200  0.00  0.00     0.018 C 
ENDBRANCH   1   8
TORSDOF 1
ENDMDL
