MODEL 1
REMARK minimizedAffinity 13.2795782
REMARK minimizedRMSD -1
REMARK  1 active torsions:
REMARK  status: ('A' for Active; 'I' for Inactive)
REMARK    1  A    between atoms: C1_2  and  C2_3 
ROOT
ATOM      1  C2  UNL d   1       0.179   3.415   0.528  0.00  0.00    -0.076 A 
ATOM      2  C3  UNL d   1       0.497   4.783   0.491  0.00  0.00     0.004 A 
ATOM      3  C4  UNL d   1       0.176   5.566  -0.617  0.00  0.00    -0.003 A 
ATOM      4  C5  UNL d   1      -0.470   4.992  -1.706  0.00  0.00     0.000 A 
ATOM      5  C6  UNL d   1      -0.809   3.639  -1.680  0.00  0.00     0.000 A 
ATOM      6  C7  UNL d   1      -0.507   2.841  -0.564  0.00  0.00    -0.073 A 
ATOM      7  C8  UNL d   1      -0.891   1.386  -0.592  0.00  0.00     0.078 C 
ENDROOT
BRANCH   1   8
ATOM      8  C1  UNL d   1       0.577   2.611   1.745  0.00  0.00     0.053 C 
ATOM      9  C   UNL d   1      -0.575   2.422   2.720  0.00  0.00     0.018 C 
ENDBRANCH   1   8
TORSDOF 1
ENDMDL
