MODEL 1
REMARK minimizedAffinity 12.6164942
REMARK minimizedRMSD -1
REMARK  1 active torsions:
REMARK  status: ('A' for Active; 'I' for Inactive)
REMARK    1  A    between atoms: C1_2  and  C2_3 
ROOT
ATOM      1  C2  UNL d   1      -1.688   0.429  -1.262  0.00  0.00    -0.076 A 
ATOM      2  C3  UNL d   1      -2.765   1.257  -0.900  0.00  0.00     0.004 A 
ATOM      3  C4  UNL d   1      -4.078   0.793  -0.961  0.00  0.00    -0.003 A 
ATOM      4  C5  UNL d   1      -4.335  -0.507  -1.384  0.00  0.00     0.000 A 
ATOM      5  C6  UNL d   1      -3.277  -1.347  -1.730  0.00  0.00     0.000 A 
ATOM      6  C7  UNL d   1      -1.946  -0.900  -1.659  0.00  0.00    -0.073 A 
ATOM      7  C8  UNL d   1      -0.845  -1.847  -2.049  0.00  0.00     0.078 C 
ENDROOT
BRANCH   1   8
ATOM      8  C1  UNL d   1      -0.287   0.996  -1.202  0.00  0.00     0.053 C 
ATOM      9  C   UNL d   1      -0.214   2.285  -0.399  0.00  0.00     0.018 C 
ENDBRANCH   1   8
TORSDOF 1
ENDMDL
