MODEL 1
REMARK minimizedAffinity 14.5943403
REMARK minimizedRMSD -1
REMARK  1 active torsions:
REMARK  status: ('A' for Active; 'I' for Inactive)
REMARK    1  A    between atoms: C1_2  and  C2_3 
ROOT
ATOM      1  C2  UNL d   1      -1.414   0.890  -1.122  0.00  0.00    -0.076 A 
ATOM      2  C3  UNL d   1      -2.784   1.157  -0.950  0.00  0.00     0.004 A 
ATOM      3  C4  UNL d   1      -3.742   0.173  -1.187  0.00  0.00    -0.003 A 
ATOM      4  C5  UNL d   1      -3.346  -1.095  -1.600  0.00  0.00     0.000 A 
ATOM      5  C6  UNL d   1      -1.991  -1.382  -1.758  0.00  0.00     0.000 A 
ATOM      6  C7  UNL d   1      -1.011  -0.406  -1.508  0.00  0.00    -0.073 A 
ATOM      7  C8  UNL d   1       0.436  -0.770  -1.700  0.00  0.00     0.078 C 
ENDROOT
BRANCH   1   8
ATOM      8  C1  UNL d   1      -0.422   2.005  -0.876  0.00  0.00     0.053 C 
ATOM      9  C   UNL d   1      -0.707   2.765   0.410  0.00  0.00     0.018 C 
ENDBRANCH   1   8
TORSDOF 1
ENDMDL
