MODEL 1
REMARK minimizedAffinity 5.09036541
REMARK minimizedRMSD -1
REMARK  1 active torsions:
REMARK  status: ('A' for Active; 'I' for Inactive)
REMARK    1  A    between atoms: C1_2  and  C2_3 
ROOT
ATOM      1  C2  UNL d   1      -1.068   0.919  -1.042  0.00  0.00    -0.076 A 
ATOM      2  C3  UNL d   1       0.281   0.563  -1.212  0.00  0.00     0.004 A 
ATOM      3  C4  UNL d   1       0.654  -0.766  -1.406  0.00  0.00    -0.003 A 
ATOM      4  C5  UNL d   1      -0.318  -1.760  -1.435  0.00  0.00     0.000 A 
ATOM      5  C6  UNL d   1      -1.663  -1.423  -1.286  0.00  0.00     0.000 A 
ATOM      6  C7  UNL d   1      -2.056  -0.086  -1.105  0.00  0.00    -0.073 A 
ATOM      7  C8  UNL d   1      -3.520   0.220  -0.944  0.00  0.00     0.078 C 
ENDROOT
BRANCH   1   8
ATOM      8  C1  UNL d   1      -1.409   2.374  -0.808  0.00  0.00     0.053 C 
ATOM      9  C   UNL d   1      -0.233   3.167  -0.259  0.00  0.00     0.018 C 
ENDBRANCH   1   8
TORSDOF 1
ENDMDL
