MODEL 1
REMARK minimizedAffinity 3.87035584
REMARK minimizedRMSD -1
REMARK  0 active torsions:
REMARK  status: ('A' for Active; 'I' for Inactive)
ROOT
ATOM      1  C   UNL d   1       1.884  -3.398   0.434  0.00  0.00     0.077 C 
ATOM      2  C1  UNL d   1       1.264  -2.672   1.591  0.00  0.00    -0.074 A 
ATOM      3  C2  UNL d   1       1.275  -1.275   1.652  0.00  0.00    -0.005 A 
ATOM      4  C3  UNL d   1       0.686  -0.614   2.730  0.00  0.00     0.006 A 
ATOM      5  C4  UNL d   1       0.081  -1.342   3.755  0.00  0.00    -0.005 A 
ATOM      6  C5  UNL d   1       0.059  -2.739   3.710  0.00  0.00    -0.074 A 
ATOM      7  C6  UNL d   1      -0.596  -3.537   4.799  0.00  0.00     0.077 C 
ATOM      8  C7  UNL d   1       0.647  -3.396   2.621  0.00  0.00    -0.001 A 
ENDROOT
TORSDOF 0
ENDMDL
