MODEL 1
REMARK minimizedAffinity 10.6556273
REMARK minimizedRMSD -1
REMARK  0 active torsions:
REMARK  status: ('A' for Active; 'I' for Inactive)
ROOT
ATOM      1  C   UNL d   1       0.976  -0.789   1.481  0.00  0.00     0.077 C 
ATOM      2  C1  UNL d   1      -0.118  -1.124   2.451  0.00  0.00    -0.074 A 
ATOM      3  C2  UNL d   1       0.046  -0.903   3.823  0.00  0.00    -0.005 A 
ATOM      4  C3  UNL d   1      -0.985  -1.210   4.712  0.00  0.00     0.006 A 
ATOM      5  C4  UNL d   1      -2.186  -1.739   4.239  0.00  0.00    -0.005 A 
ATOM      6  C5  UNL d   1      -2.368  -1.965   2.871  0.00  0.00    -0.074 A 
ATOM      7  C6  UNL d   1      -3.657  -2.524   2.346  0.00  0.00     0.077 C 
ATOM      8  C7  UNL d   1      -1.331  -1.648   1.983  0.00  0.00    -0.001 A 
ENDROOT
TORSDOF 0
ENDMDL
