MODEL 1
REMARK minimizedAffinity 3.72826505
REMARK minimizedRMSD -1
REMARK  0 active torsions:
REMARK  status: ('A' for Active; 'I' for Inactive)
ROOT
ATOM      1  C   UNL d   1      -0.358  -0.752   4.903  0.00  0.00     0.077 C 
ATOM      2  C1  UNL d   1      -0.725  -1.203   3.520  0.00  0.00    -0.074 A 
ATOM      3  C2  UNL d   1       0.113  -0.939   2.432  0.00  0.00    -0.005 A 
ATOM      4  C3  UNL d   1      -0.236  -1.373   1.153  0.00  0.00     0.006 A 
ATOM      5  C4  UNL d   1      -1.426  -2.073   0.950  0.00  0.00    -0.005 A 
ATOM      6  C5  UNL d   1      -2.276  -2.347   2.026  0.00  0.00    -0.074 A 
ATOM      7  C6  UNL d   1      -3.553  -3.107   1.826  0.00  0.00     0.077 C 
ATOM      8  C7  UNL d   1      -1.915  -1.914   3.309  0.00  0.00    -0.001 A 
ENDROOT
TORSDOF 0
ENDMDL
