MODEL 1
REMARK minimizedAffinity 16.5956039
REMARK minimizedRMSD -1
REMARK  0 active torsions:
REMARK  status: ('A' for Active; 'I' for Inactive)
ROOT
ATOM      1  C   UNL d   1       0.860  -5.751   3.305  0.00  0.00     0.077 C 
ATOM      2  C1  UNL d   1       0.747  -4.614   2.334  0.00  0.00    -0.074 A 
ATOM      3  C2  UNL d   1       1.276  -4.716   1.043  0.00  0.00    -0.005 A 
ATOM      4  C3  UNL d   1       1.154  -3.654   0.147  0.00  0.00     0.006 A 
ATOM      5  C4  UNL d   1       0.505  -2.481   0.532  0.00  0.00    -0.005 A 
ATOM      6  C5  UNL d   1      -0.031  -2.360   1.818  0.00  0.00    -0.074 A 
ATOM      7  C6  UNL d   1      -0.741  -1.110   2.245  0.00  0.00     0.077 C 
ATOM      8  C7  UNL d   1       0.089  -3.435   2.710  0.00  0.00    -0.001 A 
ENDROOT
TORSDOF 0
ENDMDL
