MODEL 1
REMARK minimizedAffinity 14.1960258
REMARK minimizedRMSD -1
REMARK  0 active torsions:
REMARK  status: ('A' for Active; 'I' for Inactive)
ROOT
ATOM      1  C   UNL d   1       0.953   2.919  -0.660  0.00  0.00     0.077 C 
ATOM      2  C1  UNL d   1       1.591   1.798   0.105  0.00  0.00    -0.074 A 
ATOM      3  C2  UNL d   1       2.915   1.889   0.544  0.00  0.00    -0.005 A 
ATOM      4  C3  UNL d   1       3.492   0.842   1.263  0.00  0.00     0.006 A 
ATOM      5  C4  UNL d   1       2.751  -0.305   1.549  0.00  0.00    -0.005 A 
ATOM      6  C5  UNL d   1       1.425  -0.414   1.119  0.00  0.00    -0.074 A 
ATOM      7  C6  UNL d   1       0.612  -1.636   1.427  0.00  0.00     0.077 C 
ATOM      8  C7  UNL d   1       0.850   0.645   0.404  0.00  0.00    -0.001 A 
ENDROOT
TORSDOF 0
ENDMDL
