MODEL 1
REMARK minimizedAffinity 14.0287304
REMARK minimizedRMSD -1
REMARK  0 active torsions:
REMARK  status: ('A' for Active; 'I' for Inactive)
ROOT
ATOM      1  C   UNL d   1       3.662   0.111   2.165  0.00  0.00     0.077 C 
ATOM      2  C1  UNL d   1       2.446  -0.684   1.793  0.00  0.00    -0.074 A 
ATOM      3  C2  UNL d   1       2.548  -1.810   0.969  0.00  0.00    -0.005 A 
ATOM      4  C3  UNL d   1       1.410  -2.546   0.639  0.00  0.00     0.006 A 
ATOM      5  C4  UNL d   1       0.160  -2.164   1.128  0.00  0.00    -0.005 A 
ATOM      6  C5  UNL d   1       0.039  -1.041   1.954  0.00  0.00    -0.074 A 
ATOM      7  C6  UNL d   1      -1.296  -0.623   2.496  0.00  0.00     0.077 C 
ATOM      8  C7  UNL d   1       1.188  -0.312   2.286  0.00  0.00    -0.001 A 
ENDROOT
TORSDOF 0
ENDMDL
