MODEL 1
REMARK minimizedAffinity 14.4842691
REMARK minimizedRMSD -1
REMARK  0 active torsions:
REMARK  status: ('A' for Active; 'I' for Inactive)
ROOT
ATOM      1  C   UNL d   1       0.223  -5.206   2.342  0.00  0.00     0.077 C 
ATOM      2  C1  UNL d   1      -0.055  -3.740   2.196  0.00  0.00    -0.074 A 
ATOM      3  C2  UNL d   1      -1.339  -3.227   2.408  0.00  0.00    -0.005 A 
ATOM      4  C3  UNL d   1      -1.581  -1.860   2.279  0.00  0.00     0.006 A 
ATOM      5  C4  UNL d   1      -0.544  -0.992   1.937  0.00  0.00    -0.005 A 
ATOM      6  C5  UNL d   1       0.747  -1.486   1.722  0.00  0.00    -0.074 A 
ATOM      7  C6  UNL d   1       1.876  -0.566   1.363  0.00  0.00     0.077 C 
ATOM      8  C7  UNL d   1       0.984  -2.860   1.860  0.00  0.00    -0.001 A 
ENDROOT
TORSDOF 0
ENDMDL
