MODEL 1
REMARK minimizedAffinity 9.75646687
REMARK minimizedRMSD -1
REMARK  0 active torsions:
REMARK  status: ('A' for Active; 'I' for Inactive)
ROOT
ATOM      1  C   UNL d   1      -3.085  -2.793   2.074  0.00  0.00     0.077 C 
ATOM      2  C1  UNL d   1      -1.762  -2.088   2.118  0.00  0.00    -0.074 A 
ATOM      3  C2  UNL d   1      -0.979  -1.955   0.967  0.00  0.00    -0.005 A 
ATOM      4  C3  UNL d   1       0.245  -1.288   1.021  0.00  0.00     0.006 A 
ATOM      5  C4  UNL d   1       0.697  -0.747   2.225  0.00  0.00    -0.005 A 
ATOM      6  C5  UNL d   1      -0.073  -0.869   3.387  0.00  0.00    -0.074 A 
ATOM      7  C6  UNL d   1       0.394  -0.285   4.687  0.00  0.00     0.077 C 
ATOM      8  C7  UNL d   1      -1.304  -1.535   3.322  0.00  0.00    -0.001 A 
ENDROOT
TORSDOF 0
ENDMDL
