MODEL 1
REMARK minimizedAffinity 16.0105
REMARK minimizedRMSD -1
REMARK  0 active torsions:
REMARK  status: ('A' for Active; 'I' for Inactive)
ROOT
ATOM      1  C   UNL d   1       6.000   1.730  -3.113  0.00  0.00     0.077 C 
ATOM      2  C1  UNL d   1       5.307   0.701  -2.271  0.00  0.00    -0.074 A 
ATOM      3  C2  UNL d   1       5.276  -0.642  -2.658  0.00  0.00    -0.005 A 
ATOM      4  C3  UNL d   1       4.636  -1.590  -1.859  0.00  0.00     0.006 A 
ATOM      5  C4  UNL d   1       4.021  -1.204  -0.667  0.00  0.00    -0.005 A 
ATOM      6  C5  UNL d   1       4.042   0.135  -0.264  0.00  0.00    -0.074 A 
ATOM      7  C6  UNL d   1       3.394   0.565   1.019  0.00  0.00     0.077 C 
ATOM      8  C7  UNL d   1       4.693   1.080  -1.068  0.00  0.00    -0.001 A 
ENDROOT
TORSDOF 0
ENDMDL
