MODEL 1
REMARK minimizedAffinity 16.8680038
REMARK minimizedRMSD -1
REMARK  0 active torsions:
REMARK  status: ('A' for Active; 'I' for Inactive)
ROOT
ATOM      1  C   UNL d   1      -1.786  -0.845   3.062  0.00  0.00     0.077 C 
ATOM      2  C1  UNL d   1      -0.463  -1.163   2.432  0.00  0.00    -0.074 A 
ATOM      3  C2  UNL d   1      -0.229  -2.411   1.844  0.00  0.00    -0.005 A 
ATOM      4  C3  UNL d   1       1.004  -2.689   1.253  0.00  0.00     0.006 A 
ATOM      5  C4  UNL d   1       2.013  -1.725   1.245  0.00  0.00    -0.005 A 
ATOM      6  C5  UNL d   1       1.796  -0.472   1.827  0.00  0.00    -0.074 A 
ATOM      7  C6  UNL d   1       2.867   0.578   1.818  0.00  0.00     0.077 C 
ATOM      8  C7  UNL d   1       0.553  -0.198   2.412  0.00  0.00    -0.001 A 
ENDROOT
TORSDOF 0
ENDMDL
