MODEL 1
REMARK minimizedAffinity 12.9069757
REMARK minimizedRMSD -1
REMARK  0 active torsions:
REMARK  status: ('A' for Active; 'I' for Inactive)
ROOT
ATOM      1  C   UNL d   1      -0.810  -1.137   3.018  0.00  0.00     0.077 C 
ATOM      2  C1  UNL d   1      -0.014  -2.206   2.330  0.00  0.00    -0.074 A 
ATOM      3  C2  UNL d   1       0.615  -1.959   1.106  0.00  0.00    -0.005 A 
ATOM      4  C3  UNL d   1       1.360  -2.960   0.483  0.00  0.00     0.006 A 
ATOM      5  C4  UNL d   1       1.483  -4.217   1.076  0.00  0.00    -0.005 A 
ATOM      6  C5  UNL d   1       0.862  -4.483   2.301  0.00  0.00    -0.074 A 
ATOM      7  C6  UNL d   1       0.992  -5.825   2.957  0.00  0.00     0.077 C 
ATOM      8  C7  UNL d   1       0.121  -3.469   2.924  0.00  0.00    -0.001 A 
ENDROOT
TORSDOF 0
ENDMDL
