MODEL 1
REMARK minimizedAffinity 11.5985889
REMARK minimizedRMSD -1
REMARK  0 active torsions:
REMARK  status: ('A' for Active; 'I' for Inactive)
ROOT
ATOM      1  C   UNL d   1      -3.351  -3.229   2.653  0.00  0.00     0.077 C 
ATOM      2  C1  UNL d   1      -2.081  -2.431   2.658  0.00  0.00    -0.074 A 
ATOM      3  C2  UNL d   1      -1.983  -1.241   3.386  0.00  0.00    -0.005 A 
ATOM      4  C3  UNL d   1      -0.792  -0.515   3.389  0.00  0.00     0.006 A 
ATOM      5  C4  UNL d   1       0.311  -0.970   2.665  0.00  0.00    -0.005 A 
ATOM      6  C5  UNL d   1       0.231  -2.158   1.932  0.00  0.00    -0.074 A 
ATOM      7  C6  UNL d   1       1.410  -2.667   1.156  0.00  0.00     0.077 C 
ATOM      8  C7  UNL d   1      -0.966  -2.886   1.939  0.00  0.00    -0.001 A 
ENDROOT
TORSDOF 0
ENDMDL
