MODEL 1
REMARK minimizedAffinity 11.2090731
REMARK minimizedRMSD -1
REMARK  0 active torsions:
REMARK  status: ('A' for Active; 'I' for Inactive)
ROOT
ATOM      1  C   UNL d   1      -4.503   2.978  -1.954  0.00  0.00     0.077 C 
ATOM      2  C1  UNL d   1      -3.578   3.985  -2.570  0.00  0.00    -0.074 A 
ATOM      3  C2  UNL d   1      -3.109   5.076  -1.832  0.00  0.00    -0.005 A 
ATOM      4  C3  UNL d   1      -2.241   5.999  -2.416  0.00  0.00     0.006 A 
ATOM      5  C4  UNL d   1      -1.835   5.841  -3.741  0.00  0.00    -0.005 A 
ATOM      6  C5  UNL d   1      -2.294   4.755  -4.495  0.00  0.00    -0.074 A 
ATOM      7  C6  UNL d   1      -1.859   4.565  -5.918  0.00  0.00     0.077 C 
ATOM      8  C7  UNL d   1      -3.160   3.828  -3.899  0.00  0.00    -0.001 A 
ENDROOT
TORSDOF 0
ENDMDL
