MODEL 1
REMARK minimizedAffinity 9.93285275
REMARK minimizedRMSD -1
REMARK  0 active torsions:
REMARK  status: ('A' for Active; 'I' for Inactive)
ROOT
ATOM      1  C   UNL d   1      -0.363  -4.457  -4.316  0.00  0.00     0.077 C 
ATOM      2  C1  UNL d   1       1.012  -4.600  -4.896  0.00  0.00    -0.074 A 
ATOM      3  C2  UNL d   1       1.529  -5.858  -5.220  0.00  0.00    -0.005 A 
ATOM      4  C3  UNL d   1       2.806  -5.975  -5.768  0.00  0.00     0.006 A 
ATOM      5  C4  UNL d   1       3.579  -4.835  -5.997  0.00  0.00    -0.005 A 
ATOM      6  C5  UNL d   1       3.079  -3.568  -5.680  0.00  0.00    -0.074 A 
ATOM      7  C6  UNL d   1       3.892  -2.333  -5.930  0.00  0.00     0.077 C 
ATOM      8  C7  UNL d   1       1.792  -3.459  -5.137  0.00  0.00    -0.001 A 
ENDROOT
TORSDOF 0
ENDMDL
