MODEL 1
REMARK minimizedAffinity 10.1774511
REMARK minimizedRMSD -1
REMARK  0 active torsions:
REMARK  status: ('A' for Active; 'I' for Inactive)
ROOT
ATOM      1  C   UNL d   1      -1.504   5.428  -6.000  0.00  0.00     0.077 C 
ATOM      2  C1  UNL d   1      -2.086   5.072  -4.664  0.00  0.00    -0.074 A 
ATOM      3  C2  UNL d   1      -2.103   6.000  -3.617  0.00  0.00    -0.005 A 
ATOM      4  C3  UNL d   1      -2.656   5.658  -2.383  0.00  0.00     0.006 A 
ATOM      5  C4  UNL d   1      -3.197   4.387  -2.184  0.00  0.00    -0.005 A 
ATOM      6  C5  UNL d   1      -3.190   3.447  -3.219  0.00  0.00    -0.074 A 
ATOM      7  C6  UNL d   1      -3.777   2.081  -3.024  0.00  0.00     0.077 C 
ATOM      8  C7  UNL d   1      -2.639   3.801  -4.458  0.00  0.00    -0.001 A 
ENDROOT
TORSDOF 0
ENDMDL
