MODEL 1
REMARK minimizedAffinity 14.9584322
REMARK minimizedRMSD -1
REMARK  0 active torsions:
REMARK  status: ('A' for Active; 'I' for Inactive)
ROOT
ATOM      1  C   UNL d   1      -4.315   2.893  -2.226  0.00  0.00     0.077 C 
ATOM      2  C1  UNL d   1      -3.385   3.925  -2.791  0.00  0.00    -0.074 A 
ATOM      3  C2  UNL d   1      -3.025   5.053  -2.045  0.00  0.00    -0.005 A 
ATOM      4  C3  UNL d   1      -2.152   6.000  -2.580  0.00  0.00     0.006 A 
ATOM      5  C4  UNL d   1      -1.631   5.830  -3.863  0.00  0.00    -0.005 A 
ATOM      6  C5  UNL d   1      -1.979   4.708  -4.623  0.00  0.00    -0.074 A 
ATOM      7  C6  UNL d   1      -1.420   4.505  -6.000  0.00  0.00     0.077 C 
ATOM      8  C7  UNL d   1      -2.851   3.757  -4.076  0.00  0.00    -0.001 A 
ENDROOT
TORSDOF 0
ENDMDL
