MODEL 1
REMARK minimizedAffinity 3.76872253
REMARK minimizedRMSD -1
REMARK  0 active torsions:
REMARK  status: ('A' for Active; 'I' for Inactive)
ROOT
ATOM      1  C   UNL d   1      -3.878  -4.877  -0.513  0.00  0.00     0.077 C 
ATOM      2  C1  UNL d   1      -3.992  -4.621   0.961  0.00  0.00    -0.074 A 
ATOM      3  C2  UNL d   1      -3.243  -3.612   1.575  0.00  0.00    -0.005 A 
ATOM      4  C3  UNL d   1      -3.366  -3.379   2.944  0.00  0.00     0.006 A 
ATOM      5  C4  UNL d   1      -4.237  -4.152   3.713  0.00  0.00    -0.005 A 
ATOM      6  C5  UNL d   1      -4.995  -5.165   3.116  0.00  0.00    -0.074 A 
ATOM      7  C6  UNL d   1      -5.943  -5.998   3.926  0.00  0.00     0.077 C 
ATOM      8  C7  UNL d   1      -4.871  -5.388   1.738  0.00  0.00    -0.001 A 
ENDROOT
TORSDOF 0
ENDMDL
