MODEL 1
REMARK minimizedAffinity 1.20034933
REMARK minimizedRMSD -1
REMARK  0 active torsions:
REMARK  status: ('A' for Active; 'I' for Inactive)
ROOT
ATOM      1  C   UNL d   1      -5.649  -5.435  -2.045  0.00  0.00     0.077 C 
ATOM      2  C1  UNL d   1      -5.055  -5.446  -0.668  0.00  0.00    -0.074 A 
ATOM      3  C2  UNL d   1      -3.791  -5.997  -0.435  0.00  0.00    -0.005 A 
ATOM      4  C3  UNL d   1      -3.246  -5.991   0.849  0.00  0.00     0.006 A 
ATOM      5  C4  UNL d   1      -3.960  -5.435   1.912  0.00  0.00    -0.005 A 
ATOM      6  C5  UNL d   1      -5.224  -4.878   1.698  0.00  0.00    -0.074 A 
ATOM      7  C6  UNL d   1      -6.000  -4.267   2.827  0.00  0.00     0.077 C 
ATOM      8  C7  UNL d   1      -5.762  -4.882   0.403  0.00  0.00    -0.001 A 
ENDROOT
TORSDOF 0
ENDMDL
