MODEL 1
REMARK minimizedAffinity -4.13968468
REMARK minimizedRMSD -1
REMARK  0 active torsions:
REMARK  status: ('A' for Active; 'I' for Inactive)
ROOT
ATOM      1  C1  BNZ d   1       1.151  -1.067  -1.349  0.00  0.00     0.000 A 
ATOM      2  C2  BNZ d   1       0.351  -0.762  -0.280  0.00  0.00     0.000 A 
ATOM      3  C3  BNZ d   1       0.371   0.487   0.275  0.00  0.00     0.000 A 
ATOM      4  C4  BNZ d   1       1.218   1.416  -0.213  0.00  0.00     0.000 A 
ATOM      5  C5  BNZ d   1       2.037   1.121  -1.284  0.00  0.00     0.000 A 
ATOM      6  C6  BNZ d   1       1.986  -0.125  -1.865  0.00  0.00     0.000 A 
ENDROOT
TORSDOF 0
ENDMDL
