MODEL 1
REMARK minimizedAffinity -1.16456878
REMARK minimizedRMSD -1
REMARK  0 active torsions:
REMARK  status: ('A' for Active; 'I' for Inactive)
ROOT
ATOM      1  C1  BNZ d   1       0.549  -0.819  -2.048  0.00  0.00     0.000 A 
ATOM      2  C2  BNZ d   1       1.485   0.071  -2.503  0.00  0.00     0.000 A 
ATOM      3  C3  BNZ d   1       1.849   1.151  -1.748  0.00  0.00     0.000 A 
ATOM      4  C4  BNZ d   1       1.248   1.361  -0.559  0.00  0.00     0.000 A 
ATOM      5  C5  BNZ d   1       0.296   0.478  -0.091  0.00  0.00     0.000 A 
ATOM      6  C6  BNZ d   1      -0.040  -0.629  -0.836  0.00  0.00     0.000 A 
ENDROOT
TORSDOF 0
ENDMDL
