MODEL 1
REMARK minimizedAffinity -3.23176885
REMARK minimizedRMSD -1
REMARK  0 active torsions:
REMARK  status: ('A' for Active; 'I' for Inactive)
ROOT
ATOM      1  C1  BNZ d   1       0.064  -0.165   0.760  0.00  0.00     0.000 A 
ATOM      2  C2  BNZ d   1       0.482   1.117   0.998  0.00  0.00     0.000 A 
ATOM      3  C3  BNZ d   1       1.278   1.772   0.100  0.00  0.00     0.000 A 
ATOM      4  C4  BNZ d   1       1.687   1.131  -1.014  0.00  0.00     0.000 A 
ATOM      5  C5  BNZ d   1       1.282  -0.165  -1.264  0.00  0.00     0.000 A 
ATOM      6  C6  BNZ d   1       0.449  -0.807  -0.377  0.00  0.00     0.000 A 
ENDROOT
TORSDOF 0
ENDMDL
