MODEL 1
REMARK minimizedAffinity -2.65203881
REMARK minimizedRMSD -1
REMARK  0 active torsions:
REMARK  status: ('A' for Active; 'I' for Inactive)
ROOT
ATOM      1  C1  BNZ d   1      -5.485   3.311  -6.000  0.00  0.00     0.000 A 
ATOM      2  C2  BNZ d   1      -4.335   2.567  -6.000  0.00  0.00     0.000 A 
ATOM      3  C3  BNZ d   1      -3.110   3.173  -5.969  0.00  0.00     0.000 A 
ATOM      4  C4  BNZ d   1      -3.035   4.519  -5.978  0.00  0.00     0.000 A 
ATOM      5  C5  BNZ d   1      -4.185   5.283  -5.988  0.00  0.00     0.000 A 
ATOM      6  C6  BNZ d   1      -5.417   4.670  -5.979  0.00  0.00     0.000 A 
ENDROOT
TORSDOF 0
ENDMDL
