MODEL 1
REMARK minimizedAffinity -3.71720529
REMARK minimizedRMSD -1
REMARK  0 active torsions:
REMARK  status: ('A' for Active; 'I' for Inactive)
ROOT
ATOM      1  C1  BNZ d   1       2.119   0.470  -2.225  0.00  0.00     0.000 A 
ATOM      2  C2  BNZ d   1       0.805   0.108  -2.090  0.00  0.00     0.000 A 
ATOM      3  C3  BNZ d   1       0.055   0.572  -1.046  0.00  0.00     0.000 A 
ATOM      4  C4  BNZ d   1       0.629   1.364  -0.118  0.00  0.00     0.000 A 
ATOM      5  C5  BNZ d   1       1.955   1.730  -0.235  0.00  0.00     0.000 A 
ATOM      6  C6  BNZ d   1       2.696   1.293  -1.308  0.00  0.00     0.000 A 
ENDROOT
TORSDOF 0
ENDMDL
