MODEL 1
REMARK minimizedAffinity -1.80566478
REMARK minimizedRMSD -1
REMARK  0 active torsions:
REMARK  status: ('A' for Active; 'I' for Inactive)
ROOT
ATOM      1  C1  BNZ d   1       1.449  -0.574  -1.446  0.00  0.00     0.000 A 
ATOM      2  C2  BNZ d   1       0.628  -1.341  -0.664  0.00  0.00     0.000 A 
ATOM      3  C3  BNZ d   1      -0.130  -0.774   0.321  0.00  0.00     0.000 A 
ATOM      4  C4  BNZ d   1      -0.037   0.552   0.549  0.00  0.00     0.000 A 
ATOM      5  C5  BNZ d   1       0.793   1.338  -0.225  0.00  0.00     0.000 A 
ATOM      6  C6  BNZ d   1       1.526   0.769  -1.241  0.00  0.00     0.000 A 
ENDROOT
TORSDOF 0
ENDMDL
