MODEL 1
REMARK minimizedAffinity -3.45362115
REMARK minimizedRMSD -1
REMARK  0 active torsions:
REMARK  status: ('A' for Active; 'I' for Inactive)
ROOT
ATOM      1  C1  BNZ d   1       0.678  -1.400  -1.311  0.00  0.00     0.000 A 
ATOM      2  C2  BNZ d   1       1.402  -0.453  -1.986  0.00  0.00     0.000 A 
ATOM      3  C3  BNZ d   1       1.569   0.801  -1.468  0.00  0.00     0.000 A 
ATOM      4  C4  BNZ d   1       0.979   1.119  -0.297  0.00  0.00     0.000 A 
ATOM      5  C5  BNZ d   1       0.238   0.178   0.390  0.00  0.00     0.000 A 
ATOM      6  C6  BNZ d   1       0.104  -1.095  -0.115  0.00  0.00     0.000 A 
ENDROOT
TORSDOF 0
ENDMDL
