MODEL 1
REMARK minimizedAffinity -2.2799685
REMARK minimizedRMSD -1
REMARK  0 active torsions:
REMARK  status: ('A' for Active; 'I' for Inactive)
ROOT
ATOM      1  C1  BNZ d   1       0.465  -1.574  -1.253  0.00  0.00     0.000 A 
ATOM      2  C2  BNZ d   1       0.158  -2.303  -0.135  0.00  0.00     0.000 A 
ATOM      3  C3  BNZ d   1      -0.377  -1.700   0.969  0.00  0.00     0.000 A 
ATOM      4  C4  BNZ d   1      -0.565  -0.365   0.969  0.00  0.00     0.000 A 
ATOM      5  C5  BNZ d   1      -0.251   0.386  -0.146  0.00  0.00     0.000 A 
ATOM      6  C6  BNZ d   1       0.250  -0.230  -1.270  0.00  0.00     0.000 A 
ENDROOT
TORSDOF 0
ENDMDL
