MODEL 1
REMARK minimizedAffinity -3.92786002
REMARK minimizedRMSD -1
REMARK  0 active torsions:
REMARK  status: ('A' for Active; 'I' for Inactive)
ROOT
ATOM      1  C1  BNZ d   1       0.549  -1.564  -1.381  0.00  0.00     0.000 A 
ATOM      2  C2  BNZ d   1       0.791  -0.483  -2.186  0.00  0.00     0.000 A 
ATOM      3  C3  BNZ d   1       0.985   0.760  -1.650  0.00  0.00     0.000 A 
ATOM      4  C4  BNZ d   1       0.896   0.927  -0.315  0.00  0.00     0.000 A 
ATOM      5  C5  BNZ d   1       0.642  -0.152   0.509  0.00  0.00     0.000 A 
ATOM      6  C6  BNZ d   1       0.487  -1.408  -0.031  0.00  0.00     0.000 A 
ENDROOT
TORSDOF 0
ENDMDL
