MODEL 1
REMARK minimizedAffinity -2.29745364
REMARK minimizedRMSD -1
REMARK  0 active torsions:
REMARK  status: ('A' for Active; 'I' for Inactive)
ROOT
ATOM      1  C1  BNZ d   1       0.182  -0.016   0.431  0.00  0.00     0.000 A 
ATOM      2  C2  BNZ d   1       0.063  -1.379   0.487  0.00  0.00     0.000 A 
ATOM      3  C3  BNZ d   1       0.174  -2.138  -0.644  0.00  0.00     0.000 A 
ATOM      4  C4  BNZ d   1       0.364  -1.532  -1.834  0.00  0.00     0.000 A 
ATOM      5  C5  BNZ d   1       0.477  -0.158  -1.908  0.00  0.00     0.000 A 
ATOM      6  C6  BNZ d   1       0.403   0.601  -0.762  0.00  0.00     0.000 A 
ENDROOT
TORSDOF 0
ENDMDL
