MODEL 1
REMARK minimizedAffinity -4.78095245
REMARK minimizedRMSD -1
REMARK  0 active torsions:
REMARK  status: ('A' for Active; 'I' for Inactive)
ROOT
ATOM      1  C1  BNZ d   1      -0.058  -0.713  -1.519  0.00  0.00     0.000 A 
ATOM      2  C2  BNZ d   1       0.805  -0.722  -2.582  0.00  0.00     0.000 A 
ATOM      3  C3  BNZ d   1       1.947   0.029  -2.563  0.00  0.00     0.000 A 
ATOM      4  C4  BNZ d   1       2.203   0.818  -1.501  0.00  0.00     0.000 A 
ATOM      5  C5  BNZ d   1       1.338   0.846  -0.425  0.00  0.00     0.000 A 
ATOM      6  C6  BNZ d   1       0.210   0.059  -0.431  0.00  0.00     0.000 A 
ENDROOT
TORSDOF 0
ENDMDL
