MODEL 1
REMARK minimizedAffinity -2.37677741
REMARK minimizedRMSD -1
REMARK  0 active torsions:
REMARK  status: ('A' for Active; 'I' for Inactive)
ROOT
ATOM      1  C1  BNZ d   1      -0.045  -1.778  -0.348  0.00  0.00     0.000 A 
ATOM      2  C2  BNZ d   1      -0.253  -1.266   0.906  0.00  0.00     0.000 A 
ATOM      3  C3  BNZ d   1       0.014   0.046   1.179  0.00  0.00     0.000 A 
ATOM      4  C4  BNZ d   1       0.526   0.834   0.211  0.00  0.00     0.000 A 
ATOM      5  C5  BNZ d   1       0.749   0.331  -1.055  0.00  0.00     0.000 A 
ATOM      6  C6  BNZ d   1       0.442  -0.980  -1.337  0.00  0.00     0.000 A 
ENDROOT
TORSDOF 0
ENDMDL
