MODEL 1
REMARK minimizedAffinity -2.94093466
REMARK minimizedRMSD -1
REMARK  0 active torsions:
REMARK  status: ('A' for Active; 'I' for Inactive)
ROOT
ATOM      1  C1  BNZ d   1      -6.000   2.856  -5.999  0.00  0.00     0.000 A 
ATOM      2  C2  BNZ d   1      -5.693   4.188  -5.913  0.00  0.00     0.000 A 
ATOM      3  C3  BNZ d   1      -4.393   4.603  -5.839  0.00  0.00     0.000 A 
ATOM      4  C4  BNZ d   1      -3.405   3.686  -5.810  0.00  0.00     0.000 A 
ATOM      5  C5  BNZ d   1      -3.698   2.339  -5.886  0.00  0.00     0.000 A 
ATOM      6  C6  BNZ d   1      -5.006   1.926  -6.000  0.00  0.00     0.000 A 
ENDROOT
TORSDOF 0
ENDMDL
