MODEL 1
REMARK minimizedAffinity 1.4505893
REMARK minimizedRMSD -1
REMARK  0 active torsions:
REMARK  status: ('A' for Active; 'I' for Inactive)
ROOT
ATOM      1  C1  BNZ d   1      -4.035   4.946  -5.999  0.00  0.00     0.000 A 
ATOM      2  C2  BNZ d   1      -5.146   4.145  -5.999  0.00  0.00     0.000 A 
ATOM      3  C3  BNZ d   1      -5.037   2.798  -5.789  0.00  0.00     0.000 A 
ATOM      4  C4  BNZ d   1      -3.817   2.250  -5.618  0.00  0.00     0.000 A 
ATOM      5  C5  BNZ d   1      -2.687   3.043  -5.625  0.00  0.00     0.000 A 
ATOM      6  C6  BNZ d   1      -2.803   4.403  -5.799  0.00  0.00     0.000 A 
ENDROOT
TORSDOF 0
ENDMDL
