MODEL 1
REMARK minimizedAffinity 2.6265471
REMARK minimizedRMSD -1
REMARK  1 active torsions:
REMARK  status: ('A' for Active; 'I' for Inactive)
REMARK    1  A    between atoms: C1_2  and  C2_3 
ROOT
ATOM      1  C2  UNL d   1      -1.773   1.044   2.697  0.00  0.00    -0.073 A 
ATOM      2  C3  UNL d   1      -1.593   2.290   2.087  0.00  0.00    -0.002 A 
ATOM      3  C4  UNL d   1      -0.413   2.574   1.398  0.00  0.00     0.004 A 
ATOM      4  C5  UNL d   1       0.594   1.614   1.306  0.00  0.00    -0.004 A 
ATOM      5  C6  UNL d   1       0.428   0.358   1.899  0.00  0.00    -0.075 A 
ATOM      6  C7  UNL d   1       1.503  -0.685   1.811  0.00  0.00     0.076 C 
ATOM      7  C8  UNL d   1      -0.759   0.082   2.591  0.00  0.00     0.001 A 
ENDROOT
BRANCH   1   8
ATOM      8  C1  UNL d   1      -3.048   0.731   3.437  0.00  0.00     0.053 C 
ATOM      9  C   UNL d   1      -3.654   1.969   4.077  0.00  0.00     0.018 C 
ENDBRANCH   1   8
TORSDOF 1
ENDMDL
