MODEL 1
REMARK minimizedAffinity 0.518413067
REMARK minimizedRMSD -1
REMARK  1 active torsions:
REMARK  status: ('A' for Active; 'I' for Inactive)
REMARK    1  A    between atoms: C1_2  and  C2_3 
ROOT
ATOM      1  C2  UNL d   1      -3.703   2.133   4.128  0.00  0.00    -0.073 A 
ATOM      2  C3  UNL d   1      -4.090   0.814   3.863  0.00  0.00    -0.002 A 
ATOM      3  C4  UNL d   1      -3.349   0.025   2.982  0.00  0.00     0.004 A 
ATOM      4  C5  UNL d   1      -2.211   0.543   2.363  0.00  0.00    -0.004 A 
ATOM      5  C6  UNL d   1      -1.802   1.855   2.624  0.00  0.00    -0.075 A 
ATOM      6  C7  UNL d   1      -0.581   2.428   1.965  0.00  0.00     0.076 C 
ATOM      7  C8  UNL d   1      -2.553   2.642   3.508  0.00  0.00     0.001 A 
ENDROOT
BRANCH   1   8
ATOM      8  C1  UNL d   1      -4.497   2.986   5.083  0.00  0.00     0.053 C 
ATOM      9  C   UNL d   1      -5.375   2.149   6.000  0.00  0.00     0.018 C 
ENDBRANCH   1   8
TORSDOF 1
ENDMDL
