MODEL 1
REMARK minimizedAffinity 3.08642268
REMARK minimizedRMSD -1
REMARK  1 active torsions:
REMARK  status: ('A' for Active; 'I' for Inactive)
REMARK    1  A    between atoms: C1_2  and  C2_3 
ROOT
ATOM      1  C2  UNL d   1      -1.953  -4.901  -0.206  0.00  0.00    -0.073 A 
ATOM      2  C3  UNL d   1      -2.819  -6.000  -0.236  0.00  0.00    -0.002 A 
ATOM      3  C4  UNL d   1      -4.143  -5.842  -0.647  0.00  0.00     0.004 A 
ATOM      4  C5  UNL d   1      -4.612  -4.588  -1.039  0.00  0.00    -0.004 A 
ATOM      5  C6  UNL d   1      -3.759  -3.481  -1.027  0.00  0.00    -0.075 A 
ATOM      6  C7  UNL d   1      -4.249  -2.125  -1.444  0.00  0.00     0.076 C 
ATOM      7  C8  UNL d   1      -2.431  -3.646  -0.610  0.00  0.00     0.001 A 
ENDROOT
BRANCH   1   8
ATOM      8  C1  UNL d   1      -0.521  -5.067   0.232  0.00  0.00     0.053 C 
ATOM      9  C   UNL d   1       0.252  -5.999  -0.689  0.00  0.00     0.018 C 
ENDBRANCH   1   8
TORSDOF 1
ENDMDL
