MODEL 1
REMARK minimizedAffinity 3.95896745
REMARK minimizedRMSD -1
REMARK  1 active torsions:
REMARK  status: ('A' for Active; 'I' for Inactive)
REMARK    1  A    between atoms: C1_2  and  C2_3 
ROOT
ATOM      1  C2  UNL d   1       1.062   0.641   0.654  0.00  0.00    -0.073 A 
ATOM      2  C3  UNL d   1       0.704  -0.521   1.346  0.00  0.00    -0.002 A 
ATOM      3  C4  UNL d   1      -0.386  -0.516   2.218  0.00  0.00     0.004 A 
ATOM      4  C5  UNL d   1      -1.132   0.649   2.402  0.00  0.00    -0.004 A 
ATOM      5  C6  UNL d   1      -0.797   1.817   1.710  0.00  0.00    -0.075 A 
ATOM      6  C7  UNL d   1      -1.588   3.079   1.898  0.00  0.00     0.076 C 
ATOM      7  C8  UNL d   1       0.300   1.804   0.838  0.00  0.00     0.001 A 
ENDROOT
BRANCH   1   8
ATOM      8  C1  UNL d   1       2.233   0.638  -0.293  0.00  0.00     0.053 C 
ATOM      9  C   UNL d   1       2.963  -0.696  -0.294  0.00  0.00     0.018 C 
ENDBRANCH   1   8
TORSDOF 1
ENDMDL
