MODEL 1
REMARK minimizedAffinity 0.25030306
REMARK minimizedRMSD -1
REMARK  1 active torsions:
REMARK  status: ('A' for Active; 'I' for Inactive)
REMARK    1  A    between atoms: C1_2  and  C2_3 
ROOT
ATOM      1  C2  UNL d   1      -1.253   1.691   1.711  0.00  0.00    -0.073 A 
ATOM      2  C3  UNL d   1      -0.135   1.955   0.912  0.00  0.00    -0.002 A 
ATOM      3  C4  UNL d   1       0.716   0.919   0.526  0.00  0.00     0.004 A 
ATOM      4  C5  UNL d   1       0.455  -0.391   0.929  0.00  0.00    -0.004 A 
ATOM      5  C6  UNL d   1      -0.664  -0.676   1.718  0.00  0.00    -0.075 A 
ATOM      6  C7  UNL d   1      -0.958  -2.079   2.161  0.00  0.00     0.076 C 
ATOM      7  C8  UNL d   1      -1.512   0.370   2.104  0.00  0.00     0.001 A 
ENDROOT
BRANCH   1   8
ATOM      8  C1  UNL d   1      -2.179   2.806   2.125  0.00  0.00     0.053 C 
ATOM      9  C   UNL d   1      -3.085   2.397   3.275  0.00  0.00     0.018 C 
ENDBRANCH   1   8
TORSDOF 1
ENDMDL
