MODEL 1
REMARK minimizedAffinity -2.31203461
REMARK minimizedRMSD -1
REMARK  1 active torsions:
REMARK  status: ('A' for Active; 'I' for Inactive)
REMARK    1  A    between atoms: C1_2  and  C2_3 
ROOT
ATOM      1  C2  UNL d   1      -1.584   1.528   2.403  0.00  0.00    -0.073 A 
ATOM      2  C3  UNL d   1      -0.601   2.132   1.612  0.00  0.00    -0.002 A 
ATOM      3  C4  UNL d   1       0.446   1.374   1.087  0.00  0.00     0.004 A 
ATOM      4  C5  UNL d   1       0.517   0.005   1.340  0.00  0.00    -0.004 A 
ATOM      5  C6  UNL d   1      -0.462  -0.620   2.118  0.00  0.00    -0.075 A 
ATOM      6  C7  UNL d   1      -0.399  -2.092   2.402  0.00  0.00     0.076 C 
ATOM      7  C8  UNL d   1      -1.509   0.148   2.645  0.00  0.00     0.001 A 
ENDROOT
BRANCH   1   8
ATOM      8  C1  UNL d   1      -2.720   2.341   2.967  0.00  0.00     0.053 C 
ATOM      9  C   UNL d   1      -3.528   1.559   3.990  0.00  0.00     0.018 C 
ENDBRANCH   1   8
TORSDOF 1
ENDMDL
