MODEL 1
REMARK minimizedAffinity -0.796509564
REMARK minimizedRMSD -1
REMARK  1 active torsions:
REMARK  status: ('A' for Active; 'I' for Inactive)
REMARK    1  A    between atoms: C1_2  and  C2_3 
ROOT
ATOM      1  C2  UNL d   1      -1.976   1.438   2.578  0.00  0.00    -0.073 A 
ATOM      2  C3  UNL d   1      -2.526   0.155   2.681  0.00  0.00    -0.002 A 
ATOM      3  C4  UNL d   1      -1.888  -0.936   2.089  0.00  0.00     0.004 A 
ATOM      4  C5  UNL d   1      -0.692  -0.757   1.395  0.00  0.00    -0.004 A 
ATOM      5  C6  UNL d   1      -0.120   0.515   1.291  0.00  0.00    -0.075 A 
ATOM      6  C7  UNL d   1       1.166   0.724   0.546  0.00  0.00     0.076 C 
ATOM      7  C8  UNL d   1      -0.768   1.606   1.886  0.00  0.00     0.001 A 
ENDROOT
BRANCH   1   8
ATOM      8  C1  UNL d   1      -2.657   2.617   3.221  0.00  0.00     0.053 C 
ATOM      9  C   UNL d   1      -3.942   2.217   3.929  0.00  0.00     0.018 C 
ENDBRANCH   1   8
TORSDOF 1
ENDMDL
