MODEL 1
REMARK minimizedAffinity 6.89328671
REMARK minimizedRMSD -1
REMARK  1 active torsions:
REMARK  status: ('A' for Active; 'I' for Inactive)
REMARK    1  A    between atoms: C1_2  and  C2_3 
ROOT
ATOM      1  C2  UNL d   1      -0.603   1.879   1.834  0.00  0.00    -0.073 A 
ATOM      2  C3  UNL d   1       0.453   1.914   0.916  0.00  0.00    -0.002 A 
ATOM      3  C4  UNL d   1       1.139   0.745   0.586  0.00  0.00     0.004 A 
ATOM      4  C5  UNL d   1       0.774  -0.471   1.165  0.00  0.00    -0.004 A 
ATOM      5  C6  UNL d   1      -0.286  -0.528   2.076  0.00  0.00    -0.075 A 
ATOM      6  C7  UNL d   1      -0.690  -1.827   2.708  0.00  0.00     0.076 C 
ATOM      7  C8  UNL d   1      -0.969   0.651   2.403  0.00  0.00     0.001 A 
ENDROOT
BRANCH   1   8
ATOM      8  C1  UNL d   1      -1.352   3.138   2.188  0.00  0.00     0.053 C 
ATOM      9  C   UNL d   1      -2.236   2.951   3.411  0.00  0.00     0.018 C 
ENDBRANCH   1   8
TORSDOF 1
ENDMDL
