MODEL 1
REMARK minimizedAffinity -0.635355294
REMARK minimizedRMSD -1
REMARK  1 active torsions:
REMARK  status: ('A' for Active; 'I' for Inactive)
REMARK    1  A    between atoms: C1_2  and  C2_3 
ROOT
ATOM      1  C2  UNL d   1      -1.630   1.717   2.240  0.00  0.00    -0.073 A 
ATOM      2  C3  UNL d   1      -0.552   2.313   1.576  0.00  0.00    -0.002 A 
ATOM      3  C4  UNL d   1       0.490   1.530   1.078  0.00  0.00     0.004 A 
ATOM      4  C5  UNL d   1       0.462   0.144   1.232  0.00  0.00    -0.004 A 
ATOM      5  C6  UNL d   1      -0.612  -0.472   1.882  0.00  0.00    -0.075 A 
ATOM      6  C7  UNL d   1      -0.657  -1.961   2.058  0.00  0.00     0.076 C 
ATOM      7  C8  UNL d   1      -1.654   0.322   2.382  0.00  0.00     0.001 A 
ENDROOT
BRANCH   1   8
ATOM      8  C1  UNL d   1      -2.760   2.558   2.774  0.00  0.00     0.053 C 
ATOM      9  C   UNL d   1      -3.659   1.773   3.717  0.00  0.00     0.018 C 
ENDBRANCH   1   8
TORSDOF 1
ENDMDL
