MODEL 1
REMARK minimizedAffinity -4.93682575
REMARK minimizedRMSD -1
REMARK  2 active torsions:
REMARK  status: ('A' for Active; 'I' for Inactive)
REMARK    1  A    between atoms: C2'_3  and  C1'_4 
REMARK    2  A    between atoms: C1'_4  and  C1_5 
ROOT
ATOM      1  C1  I4B d   1      -0.222   0.287  -0.236  0.00  0.00    -0.075 A 
ATOM      2  C2  I4B d   1      -0.831   0.327   0.993  0.00  0.00     0.003 A 
ATOM      3  C3  I4B d   1      -1.364  -0.854   1.564  0.00  0.00     0.002 A 
ATOM      4  C4  I4B d   1      -1.312  -2.035   0.853  0.00  0.00    -0.004 A 
ATOM      5  C5  I4B d   1      -0.675  -2.079  -0.384  0.00  0.00     0.002 A 
ATOM      6  C6  I4B d   1      -0.115  -0.913  -0.927  0.00  0.00     0.003 A 
ENDROOT
BRANCH   1   7
ATOM      7  C1' I4B d   1       0.301   1.560  -0.824  0.00  0.00     0.060 C 
BRANCH   7   8
ATOM      8  C2' I4B d   1       0.702   2.471   0.319  0.00  0.00    -0.013 C 
ATOM      9  C4' I4B d   1       2.194   2.673   0.356  0.00  0.00     0.013 C 
ATOM     10  C3' I4B d   1      -0.017   3.775   0.145  0.00  0.00     0.013 C 
ENDBRANCH   7   8
ENDBRANCH   1   7
TORSDOF 2
ENDMDL
