MODEL 1
REMARK minimizedAffinity -5.81727552
REMARK minimizedRMSD -1
REMARK  2 active torsions:
REMARK  status: ('A' for Active; 'I' for Inactive)
REMARK    1  A    between atoms: C2'_3  and  C1'_4 
REMARK    2  A    between atoms: C1'_4  and  C1_5 
ROOT
ATOM      1  C1  I4B d   1       0.466   1.099   0.147  0.00  0.00    -0.075 A 
ATOM      2  C2  I4B d   1       1.791   1.013   0.497  0.00  0.00     0.003 A 
ATOM      3  C3  I4B d   1       2.516   2.181   0.834  0.00  0.00     0.002 A 
ATOM      4  C4  I4B d   1       1.896   3.412   0.760  0.00  0.00    -0.004 A 
ATOM      5  C5  I4B d   1       0.547   3.495   0.428  0.00  0.00     0.002 A 
ATOM      6  C6  I4B d   1      -0.176   2.330   0.131  0.00  0.00     0.003 A 
ENDROOT
BRANCH   1   7
ATOM      7  C1' I4B d   1      -0.261  -0.151  -0.235  0.00  0.00     0.060 C 
BRANCH   7   8
ATOM      8  C2' I4B d   1      -1.057  -0.614   0.968  0.00  0.00    -0.013 C 
ATOM      9  C4' I4B d   1      -2.276   0.245   1.179  0.00  0.00     0.013 C 
ATOM     10  C3' I4B d   1      -1.437  -2.048   0.747  0.00  0.00     0.013 C 
ENDBRANCH   7   8
ENDBRANCH   1   7
TORSDOF 2
ENDMDL
