MODEL 1
REMARK minimizedAffinity -4.38811302
REMARK minimizedRMSD -1
REMARK  2 active torsions:
REMARK  status: ('A' for Active; 'I' for Inactive)
REMARK    1  A    between atoms: C2'_3  and  C1'_4 
REMARK    2  A    between atoms: C1'_4  and  C1_5 
ROOT
ATOM      1  C1  I4B d   1      -0.262  -0.648   0.845  0.00  0.00    -0.075 A 
ATOM      2  C2  I4B d   1      -1.439  -1.355   0.881  0.00  0.00     0.003 A 
ATOM      3  C3  I4B d   1      -1.446  -2.742   0.597  0.00  0.00     0.002 A 
ATOM      4  C4  I4B d   1      -0.271  -3.367   0.234  0.00  0.00    -0.004 A 
ATOM      5  C5  I4B d   1       0.925  -2.654   0.220  0.00  0.00     0.002 A 
ATOM      6  C6  I4B d   1       0.931  -1.289   0.540  0.00  0.00     0.003 A 
ENDROOT
BRANCH   1   7
ATOM      7  C1' I4B d   1      -0.296   0.822   1.119  0.00  0.00     0.060 C 
BRANCH   7   8
ATOM      8  C2' I4B d   1       0.364   1.529  -0.048  0.00  0.00    -0.013 C 
ATOM      9  C4' I4B d   1      -0.414   1.324  -1.321  0.00  0.00     0.013 C 
ATOM     10  C3' I4B d   1       0.469   2.986   0.294  0.00  0.00     0.013 C 
ENDBRANCH   7   8
ENDBRANCH   1   7
TORSDOF 2
ENDMDL
