MODEL 1
REMARK minimizedAffinity -5.96799469
REMARK minimizedRMSD -1
REMARK  2 active torsions:
REMARK  status: ('A' for Active; 'I' for Inactive)
REMARK    1  A    between atoms: C2'_3  and  C1'_4 
REMARK    2  A    between atoms: C1'_4  and  C1_5 
ROOT
ATOM      1  C1  I4B d   1       0.374  -1.177  -0.593  0.00  0.00    -0.075 A 
ATOM      2  C2  I4B d   1       0.506  -1.441  -1.934  0.00  0.00     0.003 A 
ATOM      3  C3  I4B d   1       0.202  -0.442  -2.890  0.00  0.00     0.002 A 
ATOM      4  C4  I4B d   1      -0.274   0.782  -2.467  0.00  0.00    -0.004 A 
ATOM      5  C5  I4B d   1      -0.385   1.055  -1.106  0.00  0.00     0.002 A 
ATOM      6  C6  I4B d   1      -0.047   0.074  -0.163  0.00  0.00     0.003 A 
ENDROOT
BRANCH   1   7
ATOM      7  C1' I4B d   1       0.671  -2.266   0.389  0.00  0.00     0.060 C 
BRANCH   7   8
ATOM      8  C2' I4B d   1      -0.583  -3.100   0.555  0.00  0.00    -0.013 C 
ATOM      9  C4' I4B d   1      -1.571  -2.421   1.467  0.00  0.00     0.013 C 
ATOM     10  C3' I4B d   1      -1.170  -3.329  -0.806  0.00  0.00     0.013 C 
ENDBRANCH   7   8
ENDBRANCH   1   7
TORSDOF 2
ENDMDL
