MODEL 1
REMARK minimizedAffinity -3.97655582
REMARK minimizedRMSD -1
REMARK  2 active torsions:
REMARK  status: ('A' for Active; 'I' for Inactive)
REMARK    1  A    between atoms: C2'_3  and  C1'_4 
REMARK    2  A    between atoms: C1'_4  and  C1_5 
ROOT
ATOM      1  C1  I4B d   1       0.121  -0.322  -0.301  0.00  0.00    -0.075 A 
ATOM      2  C2  I4B d   1       1.018  -1.250  -0.768  0.00  0.00     0.003 A 
ATOM      3  C3  I4B d   1       0.970  -2.586  -0.300  0.00  0.00     0.002 A 
ATOM      4  C4  I4B d   1       0.048  -2.935   0.665  0.00  0.00    -0.004 A 
ATOM      5  C5  I4B d   1      -0.876  -1.998   1.120  0.00  0.00     0.002 A 
ATOM      6  C6  I4B d   1      -0.847  -0.686   0.625  0.00  0.00     0.003 A 
ENDROOT
BRANCH   1   7
ATOM      7  C1' I4B d   1       0.222   1.088  -0.792  0.00  0.00     0.060 C 
BRANCH   7   8
ATOM      8  C2' I4B d   1       0.827   1.926   0.316  0.00  0.00    -0.013 C 
ATOM      9  C4' I4B d   1       2.270   2.248   0.029  0.00  0.00     0.013 C 
ATOM     10  C3' I4B d   1       0.010   3.176   0.450  0.00  0.00     0.013 C 
ENDBRANCH   7   8
ENDBRANCH   1   7
TORSDOF 2
ENDMDL
