MODEL 1
REMARK minimizedAffinity -2.57896543
REMARK minimizedRMSD -1
REMARK  2 active torsions:
REMARK  status: ('A' for Active; 'I' for Inactive)
REMARK    1  A    between atoms: C2'_3  and  C1'_4 
REMARK    2  A    between atoms: C1'_4  and  C1_5 
ROOT
ATOM      1  C1  I4B d   1       0.062   0.323   0.060  0.00  0.00    -0.075 A 
ATOM      2  C2  I4B d   1       0.521  -0.690  -0.744  0.00  0.00     0.003 A 
ATOM      3  C3  I4B d   1       0.223  -2.039  -0.430  0.00  0.00     0.002 A 
ATOM      4  C4  I4B d   1      -0.489  -2.329   0.716  0.00  0.00    -0.004 A 
ATOM      5  C5  I4B d   1      -0.973  -1.299   1.517  0.00  0.00     0.002 A 
ATOM      6  C6  I4B d   1      -0.706   0.037   1.180  0.00  0.00     0.003 A 
ENDROOT
BRANCH   1   7
ATOM      7  C1' I4B d   1       0.423   1.734  -0.283  0.00  0.00     0.060 C 
BRANCH   7   8
ATOM      8  C2' I4B d   1       1.537   2.170   0.647  0.00  0.00    -0.013 C 
ATOM      9  C4' I4B d   1       2.858   2.229  -0.074  0.00  0.00     0.013 C 
ATOM     10  C3' I4B d   1       1.169   3.508   1.215  0.00  0.00     0.013 C 
ENDBRANCH   7   8
ENDBRANCH   1   7
TORSDOF 2
ENDMDL
