MODEL 1
REMARK minimizedAffinity -4.17772722
REMARK minimizedRMSD -1
REMARK  2 active torsions:
REMARK  status: ('A' for Active; 'I' for Inactive)
REMARK    1  A    between atoms: C2'_3  and  C1'_4 
REMARK    2  A    between atoms: C1'_4  and  C1_5 
ROOT
ATOM      1  C1  I4B d   1      -0.256  -1.281   0.571  0.00  0.00    -0.075 A 
ATOM      2  C2  I4B d   1      -1.119  -2.330   0.374  0.00  0.00     0.003 A 
ATOM      3  C3  I4B d   1      -0.622  -3.652   0.270  0.00  0.00     0.002 A 
ATOM      4  C4  I4B d   1       0.740  -3.872   0.318  0.00  0.00    -0.004 A 
ATOM      5  C5  I4B d   1       1.611  -2.810   0.541  0.00  0.00     0.002 A 
ATOM      6  C6  I4B d   1       1.110  -1.508   0.681  0.00  0.00     0.003 A 
ENDROOT
BRANCH   1   7
ATOM      7  C1' I4B d   1      -0.812   0.106   0.643  0.00  0.00     0.060 C 
BRANCH   7   8
ATOM      8  C2' I4B d   1      -0.240   0.899  -0.514  0.00  0.00    -0.013 C 
ATOM      9  C4' I4B d   1       1.064   1.552  -0.137  0.00  0.00     0.013 C 
ATOM     10  C3' I4B d   1      -0.062  -0.036  -1.673  0.00  0.00     0.013 C 
ENDBRANCH   7   8
ENDBRANCH   1   7
TORSDOF 2
ENDMDL
