MODEL 1
REMARK minimizedAffinity 1.41852725
REMARK minimizedRMSD -1
REMARK  2 active torsions:
REMARK  status: ('A' for Active; 'I' for Inactive)
REMARK    1  A    between atoms: C2'_3  and  C1'_4 
REMARK    2  A    between atoms: C1'_4  and  C1_5 
ROOT
ATOM      1  C1  I4B d   1      -0.320   0.704   0.389  0.00  0.00    -0.075 A 
ATOM      2  C2  I4B d   1       0.363  -0.135  -0.455  0.00  0.00     0.003 A 
ATOM      3  C3  I4B d   1       0.205  -1.538  -0.347  0.00  0.00     0.002 A 
ATOM      4  C4  I4B d   1      -0.601  -2.056   0.646  0.00  0.00    -0.004 A 
ATOM      5  C5  I4B d   1      -1.310  -1.203   1.487  0.00  0.00     0.002 A 
ATOM      6  C6  I4B d   1      -1.179   0.187   1.350  0.00  0.00     0.003 A 
ENDROOT
BRANCH   1   7
ATOM      7  C1' I4B d   1      -0.104   2.180   0.268  0.00  0.00     0.060 C 
BRANCH   7   8
ATOM      8  C2' I4B d   1       1.054   2.557   1.169  0.00  0.00    -0.013 C 
ATOM      9  C4' I4B d   1       2.267   2.947   0.365  0.00  0.00     0.013 C 
ATOM     10  C3' I4B d   1       0.606   3.683   2.052  0.00  0.00     0.013 C 
ENDBRANCH   7   8
ENDBRANCH   1   7
TORSDOF 2
ENDMDL
