MODEL 1
REMARK minimizedAffinity -2.7216866
REMARK minimizedRMSD -1
REMARK  2 active torsions:
REMARK  status: ('A' for Active; 'I' for Inactive)
REMARK    1  A    between atoms: C2'_3  and  C1'_4 
REMARK    2  A    between atoms: C1'_4  and  C1_5 
ROOT
ATOM      1  C1  I4B d   1       0.466   2.186   0.298  0.00  0.00    -0.075 A 
ATOM      2  C2  I4B d   1       0.043   2.595   1.538  0.00  0.00     0.003 A 
ATOM      3  C3  I4B d   1       0.902   3.352   2.370  0.00  0.00     0.002 A 
ATOM      4  C4  I4B d   1       2.185   3.633   1.947  0.00  0.00    -0.004 A 
ATOM      5  C5  I4B d   1       2.604   3.238   0.680  0.00  0.00     0.002 A 
ATOM      6  C6  I4B d   1       1.736   2.520  -0.156  0.00  0.00     0.003 A 
ENDROOT
BRANCH   1   7
ATOM      7  C1' I4B d   1      -0.456   1.360  -0.542  0.00  0.00     0.060 C 
BRANCH   7   8
ATOM      8  C2' I4B d   1      -0.159  -0.099  -0.264  0.00  0.00    -0.013 C 
ATOM      9  C4' I4B d   1      -1.212  -0.711   0.622  0.00  0.00     0.013 C 
ATOM     10  C3' I4B d   1      -0.076  -0.814  -1.580  0.00  0.00     0.013 C 
ENDBRANCH   7   8
ENDBRANCH   1   7
TORSDOF 2
ENDMDL
