MODEL 1
REMARK minimizedAffinity -5.85112572
REMARK minimizedRMSD -1
REMARK  2 active torsions:
REMARK  status: ('A' for Active; 'I' for Inactive)
REMARK    1  A    between atoms: C2'_3  and  C1'_4 
REMARK    2  A    between atoms: C1'_4  and  C1_5 
ROOT
ATOM      1  C1  I4B d   1       0.265   2.006   0.258  0.00  0.00    -0.075 A 
ATOM      2  C2  I4B d   1       1.388   2.636  -0.218  0.00  0.00     0.003 A 
ATOM      3  C3  I4B d   1       1.890   3.788   0.434  0.00  0.00     0.002 A 
ATOM      4  C4  I4B d   1       1.215   4.302   1.522  0.00  0.00    -0.004 A 
ATOM      5  C5  I4B d   1       0.090   3.649   2.018  0.00  0.00     0.002 A 
ATOM      6  C6  I4B d   1      -0.381   2.487   1.390  0.00  0.00     0.003 A 
ENDROOT
BRANCH   1   7
ATOM      7  C1' I4B d   1      -0.257   0.812  -0.475  0.00  0.00     0.060 C 
BRANCH   7   8
ATOM      8  C2' I4B d   1      -0.103  -0.395   0.429  0.00  0.00    -0.013 C 
ATOM      9  C4' I4B d   1      -1.441  -0.885   0.918  0.00  0.00     0.013 C 
ATOM     10  C3' I4B d   1       0.616  -1.462  -0.341  0.00  0.00     0.013 C 
ENDBRANCH   7   8
ENDBRANCH   1   7
TORSDOF 2
ENDMDL
