MODEL 1
REMARK minimizedAffinity -3.79132748
REMARK minimizedRMSD -1
REMARK  2 active torsions:
REMARK  status: ('A' for Active; 'I' for Inactive)
REMARK    1  A    between atoms: C2'_3  and  C1'_4 
REMARK    2  A    between atoms: C1'_4  and  C1_5 
ROOT
ATOM      1  C1  I4B d   1       0.632   2.492  -0.257  0.00  0.00    -0.075 A 
ATOM      2  C2  I4B d   1       1.938   2.157   0.001  0.00  0.00     0.003 A 
ATOM      3  C3  I4B d   1       2.863   3.151   0.403  0.00  0.00     0.002 A 
ATOM      4  C4  I4B d   1       2.454   4.466   0.485  0.00  0.00    -0.004 A 
ATOM      5  C5  I4B d   1       1.125   4.801   0.246  0.00  0.00     0.002 A 
ATOM      6  C6  I4B d   1       0.204   3.806  -0.116  0.00  0.00     0.003 A 
ENDROOT
BRANCH   1   7
ATOM      7  C1' I4B d   1      -0.310   1.423  -0.712  0.00  0.00     0.060 C 
BRANCH   7   8
ATOM      8  C2' I4B d   1      -0.427   0.400   0.399  0.00  0.00    -0.013 C 
ATOM      9  C4' I4B d   1      -1.760   0.500   1.093  0.00  0.00     0.013 C 
ATOM     10  C3' I4B d   1      -0.229  -0.960  -0.201  0.00  0.00     0.013 C 
ENDBRANCH   7   8
ENDBRANCH   1   7
TORSDOF 2
ENDMDL
