MODEL 1
REMARK minimizedAffinity -5.35064411
REMARK minimizedRMSD -1
REMARK  2 active torsions:
REMARK  status: ('A' for Active; 'I' for Inactive)
REMARK    1  A    between atoms: C2'_3  and  C1'_4 
REMARK    2  A    between atoms: C1'_4  and  C1_5 
ROOT
ATOM      1  C1  I4B d   1       0.014  -1.184  -0.281  0.00  0.00    -0.075 A 
ATOM      2  C2  I4B d   1      -0.299  -2.307   0.444  0.00  0.00     0.003 A 
ATOM      3  C3  I4B d   1      -0.195  -3.589  -0.148  0.00  0.00     0.002 A 
ATOM      4  C4  I4B d   1       0.175  -3.699  -1.473  0.00  0.00    -0.004 A 
ATOM      5  C5  I4B d   1       0.513  -2.561  -2.199  0.00  0.00     0.002 A 
ATOM      6  C6  I4B d   1       0.444  -1.296  -1.597  0.00  0.00     0.003 A 
ENDROOT
BRANCH   1   7
ATOM      7  C1' I4B d   1      -0.139   0.156   0.365  0.00  0.00     0.060 C 
BRANCH   7   8
ATOM      8  C2' I4B d   1       0.293   1.209  -0.636  0.00  0.00    -0.013 C 
ATOM      9  C4' I4B d   1      -0.781   1.460  -1.661  0.00  0.00     0.013 C 
ATOM     10  C3' I4B d   1       0.622   2.460   0.122  0.00  0.00     0.013 C 
ENDBRANCH   7   8
ENDBRANCH   1   7
TORSDOF 2
ENDMDL
