MODEL 1
REMARK minimizedAffinity 3.28274226
REMARK minimizedRMSD -1
REMARK  1 active torsions:
REMARK  status: ('A' for Active; 'I' for Inactive)
REMARK    1  A    between atoms: C3_4  and  O_7 
ROOT
ATOM      1  C   UNL d   1       1.530  -0.597  -1.314  0.00  0.00    -0.033 A 
ATOM      2  C1  UNL d   1       2.108  -0.664  -0.045  0.00  0.00     0.039 A 
ATOM      3  C2  UNL d   1       2.565   0.499   0.578  0.00  0.00    -0.080 A 
ATOM      4  C3  UNL d   1       2.439   1.721  -0.078  0.00  0.00     0.150 A 
ATOM      5  C4  UNL d   1       1.861   1.795  -1.341  0.00  0.00    -0.007 A 
ATOM      6  C5  UNL d   1       1.406   0.633  -1.962  0.00  0.00     0.039 A 
ENDROOT
BRANCH   4   7
ATOM      7  O   UNL d   1       2.875   2.882   0.488  0.00  0.00    -0.526 OA
ATOM      8  H5  UNL d   1       3.277   2.673   1.348  0.00  0.00     0.418 HD
ENDBRANCH   4   7
TORSDOF 1
ENDMDL
