MODEL 1
REMARK minimizedAffinity -1.50732255
REMARK minimizedRMSD -1
REMARK  1 active torsions:
REMARK  status: ('A' for Active; 'I' for Inactive)
REMARK    1  A    between atoms: C3_4  and  O_7 
ROOT
ATOM      1  C   UNL d   1      -4.993   4.504  -6.000  0.00  0.00    -0.033 A 
ATOM      2  C1  UNL d   1      -4.100   5.369  -5.365  0.00  0.00     0.039 A 
ATOM      3  C2  UNL d   1      -2.967   4.861  -4.727  0.00  0.00    -0.080 A 
ATOM      4  C3  UNL d   1      -2.739   3.488  -4.731  0.00  0.00     0.150 A 
ATOM      5  C4  UNL d   1      -3.622   2.620  -5.364  0.00  0.00    -0.007 A 
ATOM      6  C5  UNL d   1      -4.754   3.129  -6.000  0.00  0.00     0.039 A 
ENDROOT
BRANCH   4   7
ATOM      7  O   UNL d   1      -1.649   2.945  -4.117  0.00  0.00    -0.526 OA
ATOM      8  H5  UNL d   1      -1.144   3.661  -3.697  0.00  0.00     0.418 HD
ENDBRANCH   4   7
TORSDOF 1
ENDMDL
