MODEL 1
REMARK minimizedAffinity 3.86233854
REMARK minimizedRMSD -1
REMARK  1 active torsions:
REMARK  status: ('A' for Active; 'I' for Inactive)
REMARK    1  A    between atoms: C3_4  and  O_7 
ROOT
ATOM      1  C   UNL d   1       1.124   2.200  -1.695  0.00  0.00    -0.033 A 
ATOM      2  C1  UNL d   1       0.452   1.024  -2.033  0.00  0.00     0.039 A 
ATOM      3  C2  UNL d   1       0.843  -0.192  -1.470  0.00  0.00    -0.080 A 
ATOM      4  C3  UNL d   1       1.904  -0.218  -0.569  0.00  0.00     0.150 A 
ATOM      5  C4  UNL d   1       2.575   0.950  -0.225  0.00  0.00    -0.007 A 
ATOM      6  C5  UNL d   1       2.185   2.164  -0.789  0.00  0.00     0.039 A 
ENDROOT
BRANCH   4   7
ATOM      7  O   UNL d   1       2.324  -1.382   0.003  0.00  0.00    -0.526 OA
ATOM      8  H5  UNL d   1       1.787  -2.110  -0.350  0.00  0.00     0.418 HD
ENDBRANCH   4   7
TORSDOF 1
ENDMDL
