MODEL 1
REMARK minimizedAffinity -2.60872459
REMARK minimizedRMSD -1
REMARK  1 active torsions:
REMARK  status: ('A' for Active; 'I' for Inactive)
REMARK    1  A    between atoms: C3_4  and  O_7 
ROOT
ATOM      1  C   UNL d   1      -0.090  -1.141   2.368  0.00  0.00    -0.033 A 
ATOM      2  C1  UNL d   1       0.063  -0.343   3.504  0.00  0.00     0.039 A 
ATOM      3  C2  UNL d   1      -0.970   0.506   3.907  0.00  0.00    -0.080 A 
ATOM      4  C3  UNL d   1      -2.148   0.547   3.168  0.00  0.00     0.150 A 
ATOM      5  C4  UNL d   1      -2.309  -0.248   2.038  0.00  0.00    -0.007 A 
ATOM      6  C5  UNL d   1      -1.277  -1.094   1.636  0.00  0.00     0.039 A 
ENDROOT
BRANCH   4   7
ATOM      7  O   UNL d   1      -3.182   1.363   3.520  0.00  0.00    -0.526 OA
ATOM      8  H5  UNL d   1      -2.918   1.874   4.303  0.00  0.00     0.418 HD
ENDBRANCH   4   7
TORSDOF 1
ENDMDL
