MODEL 1
REMARK minimizedAffinity 3.06696963
REMARK minimizedRMSD -1
REMARK  1 active torsions:
REMARK  status: ('A' for Active; 'I' for Inactive)
REMARK    1  A    between atoms: C3_4  and  O_7 
ROOT
ATOM      1  C   UNL d   1      -0.426  -0.823   3.057  0.00  0.00    -0.033 A 
ATOM      2  C1  UNL d   1      -0.778  -0.064   1.939  0.00  0.00     0.039 A 
ATOM      3  C2  UNL d   1      -0.095  -0.236   0.733  0.00  0.00    -0.080 A 
ATOM      4  C3  UNL d   1       0.935  -1.169   0.659  0.00  0.00     0.150 A 
ATOM      5  C4  UNL d   1       1.288  -1.931   1.767  0.00  0.00    -0.007 A 
ATOM      6  C5  UNL d   1       0.606  -1.758   2.970  0.00  0.00     0.039 A 
ENDROOT
BRANCH   4   7
ATOM      7  O   UNL d   1       1.634  -1.368  -0.495  0.00  0.00    -0.526 OA
ATOM      8  H5  UNL d   1       1.300  -0.752  -1.168  0.00  0.00     0.418 HD
ENDBRANCH   4   7
TORSDOF 1
ENDMDL
