MODEL 1
REMARK minimizedAffinity 16.1304989
REMARK minimizedRMSD -1
REMARK  0 active torsions:
REMARK  status: ('A' for Active; 'I' for Inactive)
ROOT
ATOM      1  C   UNL d   1       1.488  -1.935  -1.910  0.00  0.00     0.124 A 
ATOM      2  C1  UNL d   1       1.066  -3.184  -2.345  0.00  0.00     0.062 A 
ATOM      3  C2  UNL d   1       1.589  -4.339  -1.771  0.00  0.00     0.162 A 
ATOM      4  C3  UNL d   1       2.540  -4.251  -0.755  0.00  0.00    -0.034 A 
ATOM      5  C4  UNL d   1       2.961  -2.992  -0.323  0.00  0.00     0.162 A 
ATOM      6  C5  UNL d   1       2.435  -1.840  -0.900  0.00  0.00     0.062 A 
ATOM      7  F   UNL d   1       2.844  -0.635  -0.478  0.00  0.00    -0.097 F 
ATOM      8  F1  UNL d   1       3.874  -2.871   0.652  0.00  0.00    -0.096 F 
ATOM      9  I   UNL d   1       3.325  -5.976   0.106  0.00  0.00    -0.060 I 
ATOM     10  F2  UNL d   1       1.162  -5.532  -2.211  0.00  0.00    -0.096 F 
ATOM     11  F3  UNL d   1       0.152  -3.278  -3.321  0.00  0.00    -0.097 F 
ATOM     12  F4  UNL d   1       0.984  -0.825  -2.465  0.00  0.00    -0.092 F 
ENDROOT
TORSDOF 0
ENDMDL
