MODEL 1
REMARK minimizedAffinity 13.7123585
REMARK minimizedRMSD -1
REMARK  0 active torsions:
REMARK  status: ('A' for Active; 'I' for Inactive)
ROOT
ATOM      1  C   UNL d   1      -1.991   0.268   1.863  0.00  0.00     0.124 A 
ATOM      2  C1  UNL d   1      -2.916   0.649   2.825  0.00  0.00     0.062 A 
ATOM      3  C2  UNL d   1      -2.491   1.251   4.006  0.00  0.00     0.162 A 
ATOM      4  C3  UNL d   1      -1.133   1.476   4.231  0.00  0.00    -0.034 A 
ATOM      5  C4  UNL d   1      -0.208   1.089   3.259  0.00  0.00     0.162 A 
ATOM      6  C5  UNL d   1      -0.638   0.488   2.081  0.00  0.00     0.062 A 
ATOM      7  F   UNL d   1       0.257   0.121   1.152  0.00  0.00    -0.097 F 
ATOM      8  F1  UNL d   1       1.105   1.291   3.444  0.00  0.00    -0.096 F 
ATOM      9  I   UNL d   1      -0.492   2.375   5.996  0.00  0.00    -0.060 I 
ATOM     10  F2  UNL d   1      -3.407   1.609   4.918  0.00  0.00    -0.096 F 
ATOM     11  F3  UNL d   1      -4.224   0.437   2.617  0.00  0.00    -0.097 F 
ATOM     12  F4  UNL d   1      -2.403  -0.311   0.728  0.00  0.00    -0.092 F 
ENDROOT
TORSDOF 0
ENDMDL
