MODEL 1
REMARK minimizedAffinity 23.5951042
REMARK minimizedRMSD -1
REMARK  0 active torsions:
REMARK  status: ('A' for Active; 'I' for Inactive)
ROOT
ATOM      1  C   UNL d   1       2.276  -1.721  -0.849  0.00  0.00     0.124 A 
ATOM      2  C1  UNL d   1       2.036  -0.429  -1.297  0.00  0.00     0.062 A 
ATOM      3  C2  UNL d   1       2.707   0.647  -0.724  0.00  0.00     0.162 A 
ATOM      4  C3  UNL d   1       3.627   0.437   0.304  0.00  0.00    -0.034 A 
ATOM      5  C4  UNL d   1       3.862  -0.865   0.750  0.00  0.00     0.162 A 
ATOM      6  C5  UNL d   1       3.189  -1.937   0.174  0.00  0.00     0.062 A 
ATOM      7  F   UNL d   1       3.422  -3.184   0.609  0.00  0.00    -0.097 F 
ATOM      8  F1  UNL d   1       4.740  -1.103   1.736  0.00  0.00    -0.096 F 
ATOM      9  I   UNL d   1       4.633   2.043   1.163  0.00  0.00    -0.060 I 
ATOM     10  F2  UNL d   1       2.456   1.884  -1.177  0.00  0.00    -0.096 F 
ATOM     11  F3  UNL d   1       1.154  -0.217  -2.285  0.00  0.00    -0.097 F 
ATOM     12  F4  UNL d   1       1.628  -2.754  -1.401  0.00  0.00    -0.092 F 
ENDROOT
TORSDOF 0
ENDMDL
