MODEL 1
REMARK minimizedAffinity 13.7786293
REMARK minimizedRMSD -1
REMARK  0 active torsions:
REMARK  status: ('A' for Active; 'I' for Inactive)
ROOT
ATOM      1  C   UNL d   1       1.678  -3.888  -1.626  0.00  0.00     0.124 A 
ATOM      2  C1  UNL d   1       2.583  -3.639  -0.604  0.00  0.00     0.062 A 
ATOM      3  C2  UNL d   1       2.928  -2.330  -0.279  0.00  0.00     0.162 A 
ATOM      4  C3  UNL d   1       2.368  -1.260  -0.977  0.00  0.00    -0.034 A 
ATOM      5  C4  UNL d   1       1.460  -1.519  -2.005  0.00  0.00     0.162 A 
ATOM      6  C5  UNL d   1       1.118  -2.829  -2.326  0.00  0.00     0.062 A 
ATOM      7  F   UNL d   1       0.244  -3.068  -3.314  0.00  0.00    -0.097 F 
ATOM      8  F1  UNL d   1       0.903  -0.514  -2.696  0.00  0.00    -0.096 F 
ATOM      9  I   UNL d   1       2.883   0.698  -0.494  0.00  0.00    -0.060 I 
ATOM     10  F2  UNL d   1       3.805  -2.118   0.714  0.00  0.00    -0.096 F 
ATOM     11  F3  UNL d   1       3.126  -4.661   0.073  0.00  0.00    -0.097 F 
ATOM     12  F4  UNL d   1       1.348  -5.148  -1.937  0.00  0.00    -0.092 F 
ENDROOT
TORSDOF 0
ENDMDL
