MODEL 1
REMARK minimizedAffinity 22.9082546
REMARK minimizedRMSD -1
REMARK  0 active torsions:
REMARK  status: ('A' for Active; 'I' for Inactive)
ROOT
ATOM      1  C   UNL d   1       1.097  -2.227  -1.820  0.00  0.00     0.124 A 
ATOM      2  C1  UNL d   1       0.801  -3.514  -2.246  0.00  0.00     0.062 A 
ATOM      3  C2  UNL d   1       1.552  -4.593  -1.788  0.00  0.00     0.162 A 
ATOM      4  C3  UNL d   1       2.606  -4.389  -0.898  0.00  0.00    -0.034 A 
ATOM      5  C4  UNL d   1       2.899  -3.092  -0.475  0.00  0.00     0.162 A 
ATOM      6  C5  UNL d   1       2.145  -2.017  -0.935  0.00  0.00     0.062 A 
ATOM      7  F   UNL d   1       2.433  -0.774  -0.523  0.00  0.00    -0.097 F 
ATOM      8  F1  UNL d   1       3.906  -2.860   0.380  0.00  0.00    -0.096 F 
ATOM      9  I   UNL d   1       3.732  -6.000  -0.212  0.00  0.00    -0.060 I 
ATOM     10  F2  UNL d   1       1.243  -5.826  -2.217  0.00  0.00    -0.096 F 
ATOM     11  F3  UNL d   1      -0.211  -3.720  -3.102  0.00  0.00    -0.097 F 
ATOM     12  F4  UNL d   1       0.373  -1.191  -2.263  0.00  0.00    -0.092 F 
ENDROOT
TORSDOF 0
ENDMDL
