MODEL 1
REMARK minimizedAffinity 18.7026291
REMARK minimizedRMSD -1
REMARK  0 active torsions:
REMARK  status: ('A' for Active; 'I' for Inactive)
ROOT
ATOM      1  C   UNL d   1       1.902  -4.416  -1.705  0.00  0.00     0.124 A 
ATOM      2  C1  UNL d   1       1.134  -3.383  -2.225  0.00  0.00     0.062 A 
ATOM      3  C2  UNL d   1       1.338  -2.075  -1.795  0.00  0.00     0.162 A 
ATOM      4  C3  UNL d   1       2.315  -1.791  -0.841  0.00  0.00    -0.034 A 
ATOM      5  C4  UNL d   1       3.083  -2.835  -0.323  0.00  0.00     0.162 A 
ATOM      6  C5  UNL d   1       2.876  -4.141  -0.755  0.00  0.00     0.062 A 
ATOM      7  F   UNL d   1       3.619  -5.137  -0.252  0.00  0.00    -0.097 F 
ATOM      8  F1  UNL d   1       4.031  -2.598   0.596  0.00  0.00    -0.096 F 
ATOM      9  I   UNL d   1       2.623   0.164  -0.197  0.00  0.00    -0.060 I 
ATOM     10  F2  UNL d   1       0.581  -1.096  -2.315  0.00  0.00    -0.096 F 
ATOM     11  F3  UNL d   1       0.192  -3.646  -3.142  0.00  0.00    -0.097 F 
ATOM     12  F4  UNL d   1       1.703  -5.673  -2.120  0.00  0.00    -0.092 F 
ENDROOT
TORSDOF 0
ENDMDL
