MODEL 1
REMARK minimizedAffinity 16.4241161
REMARK minimizedRMSD -1
REMARK  0 active torsions:
REMARK  status: ('A' for Active; 'I' for Inactive)
ROOT
ATOM      1  C   UNL d   1      -0.384  -5.615  -2.507  0.00  0.00     0.124 A 
ATOM      2  C1  UNL d   1       0.044  -5.217  -3.766  0.00  0.00     0.062 A 
ATOM      3  C2  UNL d   1      -0.881  -4.819  -4.727  0.00  0.00     0.162 A 
ATOM      4  C3  UNL d   1      -2.244  -4.814  -4.432  0.00  0.00    -0.034 A 
ATOM      5  C4  UNL d   1      -2.668  -5.217  -3.164  0.00  0.00     0.162 A 
ATOM      6  C5  UNL d   1      -1.739  -5.614  -2.207  0.00  0.00     0.062 A 
ATOM      7  F   UNL d   1      -2.155  -5.998  -0.992  0.00  0.00    -0.097 F 
ATOM      8  F1  UNL d   1      -3.971  -5.225  -2.847  0.00  0.00    -0.096 F 
ATOM      9  I   UNL d   1      -3.631  -4.219  -5.866  0.00  0.00    -0.060 I 
ATOM     10  F2  UNL d   1      -0.439  -4.439  -5.935  0.00  0.00    -0.096 F 
ATOM     11  F3  UNL d   1       1.352  -5.218  -4.059  0.00  0.00    -0.097 F 
ATOM     12  F4  UNL d   1       0.508  -5.999  -1.585  0.00  0.00    -0.092 F 
ENDROOT
TORSDOF 0
ENDMDL
