MODEL 1
REMARK minimizedAffinity 32.5901413
REMARK minimizedRMSD -1
REMARK  0 active torsions:
REMARK  status: ('A' for Active; 'I' for Inactive)
ROOT
ATOM      1  C   UNL d   1       3.986  -0.517   0.199  0.00  0.00     0.124 A 
ATOM      2  C1  UNL d   1       2.939  -0.091  -0.606  0.00  0.00     0.062 A 
ATOM      3  C2  UNL d   1       2.054  -1.016  -1.151  0.00  0.00     0.162 A 
ATOM      4  C3  UNL d   1       2.211  -2.378  -0.893  0.00  0.00    -0.034 A 
ATOM      5  C4  UNL d   1       3.268  -2.799  -0.083  0.00  0.00     0.162 A 
ATOM      6  C5  UNL d   1       4.150  -1.871   0.460  0.00  0.00     0.062 A 
ATOM      7  F   UNL d   1       5.161  -2.285   1.237  0.00  0.00    -0.097 F 
ATOM      8  F1  UNL d   1       3.448  -4.101   0.186  0.00  0.00    -0.096 F 
ATOM      9  I   UNL d   1       0.890  -3.765  -1.707  0.00  0.00    -0.060 I 
ATOM     10  F2  UNL d   1       1.051  -0.576  -1.925  0.00  0.00    -0.096 F 
ATOM     11  F3  UNL d   1       2.780   1.216  -0.860  0.00  0.00    -0.097 F 
ATOM     12  F4  UNL d   1       4.837   0.375   0.722  0.00  0.00    -0.092 F 
ENDROOT
TORSDOF 0
ENDMDL
