MODEL 1
REMARK minimizedAffinity 26.7446156
REMARK minimizedRMSD -1
REMARK  0 active torsions:
REMARK  status: ('A' for Active; 'I' for Inactive)
ROOT
ATOM      1  C   UNL d   1      -0.864   1.117   2.456  0.00  0.00     0.124 A 
ATOM      2  C1  UNL d   1      -0.449   1.410   3.748  0.00  0.00     0.062 A 
ATOM      3  C2  UNL d   1      -1.386   1.589   4.761  0.00  0.00     0.162 A 
ATOM      4  C3  UNL d   1      -2.749   1.475   4.487  0.00  0.00    -0.034 A 
ATOM      5  C4  UNL d   1      -3.159   1.182   3.185  0.00  0.00     0.162 A 
ATOM      6  C5  UNL d   1      -2.218   1.003   2.176  0.00  0.00     0.062 A 
ATOM      7  F   UNL d   1      -2.622   0.721   0.929  0.00  0.00    -0.097 F 
ATOM      8  F1  UNL d   1      -4.462   1.065   2.887  0.00  0.00    -0.096 F 
ATOM      9  I   UNL d   1      -4.154   1.743   5.999  0.00  0.00    -0.060 I 
ATOM     10  F2  UNL d   1      -0.956   1.871   6.000  0.00  0.00    -0.096 F 
ATOM     11  F3  UNL d   1       0.859   1.521   4.021  0.00  0.00    -0.097 F 
ATOM     12  F4  UNL d   1       0.040   0.946   1.483  0.00  0.00    -0.092 F 
ENDROOT
TORSDOF 0
ENDMDL
