MODEL 1
REMARK minimizedAffinity 18.3947849
REMARK minimizedRMSD -1
REMARK  0 active torsions:
REMARK  status: ('A' for Active; 'I' for Inactive)
ROOT
ATOM      1  C   UNL d   1       3.457  -2.855   0.236  0.00  0.00     0.124 A 
ATOM      2  C1  UNL d   1       4.438  -2.222   0.987  0.00  0.00     0.062 A 
ATOM      3  C2  UNL d   1       4.248  -0.915   1.427  0.00  0.00     0.162 A 
ATOM      4  C3  UNL d   1       3.072  -0.231   1.117  0.00  0.00    -0.034 A 
ATOM      5  C4  UNL d   1       2.091  -0.874   0.360  0.00  0.00     0.162 A 
ATOM      6  C5  UNL d   1       2.285  -2.181  -0.077  0.00  0.00     0.062 A 
ATOM      7  F   UNL d   1       1.337  -2.791  -0.802  0.00  0.00    -0.097 F 
ATOM      8  F1  UNL d   1       0.949  -0.247   0.044  0.00  0.00    -0.096 F 
ATOM      9  I   UNL d   1       2.785   1.723   1.771  0.00  0.00    -0.060 I 
ATOM     10  F2  UNL d   1       5.213  -0.328   2.151  0.00  0.00    -0.096 F 
ATOM     11  F3  UNL d   1       5.572  -2.870   1.290  0.00  0.00    -0.097 F 
ATOM     12  F4  UNL d   1       3.643  -4.112  -0.186  0.00  0.00    -0.092 F 
ENDROOT
TORSDOF 0
ENDMDL
