MODEL 1
REMARK minimizedAffinity 27.2861614
REMARK minimizedRMSD -1
REMARK  0 active torsions:
REMARK  status: ('A' for Active; 'I' for Inactive)
ROOT
ATOM      1  C   UNL d   1      -0.587   1.107   2.567  0.00  0.00     0.124 A 
ATOM      2  C1  UNL d   1      -1.951   1.111   2.309  0.00  0.00     0.062 A 
ATOM      3  C2  UNL d   1      -2.847   1.533   3.287  0.00  0.00     0.162 A 
ATOM      4  C3  UNL d   1      -2.382   1.956   4.532  0.00  0.00    -0.034 A 
ATOM      5  C4  UNL d   1      -1.009   1.948   4.784  0.00  0.00     0.162 A 
ATOM      6  C5  UNL d   1      -0.117   1.525   3.804  0.00  0.00     0.062 A 
ATOM      7  F   UNL d   1       1.200   1.522   4.055  0.00  0.00    -0.097 F 
ATOM      8  F1  UNL d   1      -0.528   2.349   5.970  0.00  0.00    -0.096 F 
ATOM      9  I   UNL d   1      -3.718   2.588   5.997  0.00  0.00    -0.060 I 
ATOM     10  F2  UNL d   1      -4.159   1.526   3.010  0.00  0.00    -0.096 F 
ATOM     11  F3  UNL d   1      -2.407   0.706   1.115  0.00  0.00    -0.097 F 
ATOM     12  F4  UNL d   1       0.273   0.699   1.624  0.00  0.00    -0.092 F 
ENDROOT
TORSDOF 0
ENDMDL
