MODEL 1
REMARK minimizedAffinity 23.2950478
REMARK minimizedRMSD -1
REMARK  0 active torsions:
REMARK  status: ('A' for Active; 'I' for Inactive)
ROOT
ATOM      1  C   UNL d   1      -2.635  -5.182  -0.718  0.00  0.00     0.124 A 
ATOM      2  C1  UNL d   1      -2.093  -5.058  -1.990  0.00  0.00     0.062 A 
ATOM      3  C2  UNL d   1      -0.863  -4.433  -2.169  0.00  0.00     0.162 A 
ATOM      4  C3  UNL d   1      -0.164  -3.927  -1.073  0.00  0.00    -0.034 A 
ATOM      5  C4  UNL d   1      -0.716  -4.054   0.203  0.00  0.00     0.162 A 
ATOM      6  C5  UNL d   1      -1.946  -4.680   0.377  0.00  0.00     0.062 A 
ATOM      7  F   UNL d   1      -2.468  -4.798   1.607  0.00  0.00    -0.097 F 
ATOM      8  F1  UNL d   1      -0.071  -3.579   1.279  0.00  0.00    -0.096 F 
ATOM      9  I   UNL d   1       1.676  -2.991  -1.337  0.00  0.00    -0.060 I 
ATOM     10  F2  UNL d   1      -0.363  -4.328  -3.410  0.00  0.00    -0.096 F 
ATOM     11  F3  UNL d   1      -2.757  -5.542  -3.050  0.00  0.00    -0.097 F 
ATOM     12  F4  UNL d   1      -3.819  -5.783  -0.549  0.00  0.00    -0.092 F 
ENDROOT
TORSDOF 0
ENDMDL
