MODEL 1
REMARK minimizedAffinity 29.4727936
REMARK minimizedRMSD -1
REMARK  0 active torsions:
REMARK  status: ('A' for Active; 'I' for Inactive)
ROOT
ATOM      1  C   UNL d   1       1.890  -3.037  -1.001  0.00  0.00     0.124 A 
ATOM      2  C1  UNL d   1       1.484  -1.815  -1.518  0.00  0.00     0.062 A 
ATOM      3  C2  UNL d   1       2.196  -0.657  -1.219  0.00  0.00     0.162 A 
ATOM      4  C3  UNL d   1       3.323  -0.716  -0.399  0.00  0.00    -0.034 A 
ATOM      5  C4  UNL d   1       3.725  -1.948   0.118  0.00  0.00     0.162 A 
ATOM      6  C5  UNL d   1       3.010  -3.103  -0.184  0.00  0.00     0.062 A 
ATOM      7  F   UNL d   1       3.404  -4.283   0.317  0.00  0.00    -0.097 F 
ATOM      8  F1  UNL d   1       4.803  -2.040   0.910  0.00  0.00    -0.096 F 
ATOM      9  I   UNL d   1       4.390   1.014   0.050  0.00  0.00    -0.060 I 
ATOM     10  F2  UNL d   1       1.780   0.510  -1.733  0.00  0.00    -0.096 F 
ATOM     11  F3  UNL d   1       0.402  -1.749  -2.307  0.00  0.00    -0.097 F 
ATOM     12  F4  UNL d   1       1.203  -4.150  -1.289  0.00  0.00    -0.092 F 
ENDROOT
TORSDOF 0
ENDMDL
