MODEL 1
REMARK minimizedAffinity 29.0077381
REMARK minimizedRMSD -1
REMARK  0 active torsions:
REMARK  status: ('A' for Active; 'I' for Inactive)
ROOT
ATOM      1  C   UNL d   1      -1.642   0.349   1.659  0.00  0.00     0.124 A 
ATOM      2  C1  UNL d   1      -2.539   0.749   2.640  0.00  0.00     0.062 A 
ATOM      3  C2  UNL d   1      -2.075   1.178   3.880  0.00  0.00     0.162 A 
ATOM      4  C3  UNL d   1      -0.706   1.210   4.147  0.00  0.00    -0.034 A 
ATOM      5  C4  UNL d   1       0.190   0.805   3.156  0.00  0.00     0.162 A 
ATOM      6  C5  UNL d   1      -0.279   0.377   1.918  0.00  0.00     0.062 A 
ATOM      7  F   UNL d   1       0.589  -0.009   0.971  0.00  0.00    -0.097 F 
ATOM      8  F1  UNL d   1       1.512   0.823   3.379  0.00  0.00    -0.096 F 
ATOM      9  I   UNL d   1      -0.009   1.850   6.000  0.00  0.00    -0.060 I 
ATOM     10  F2  UNL d   1      -2.965   1.559   4.809  0.00  0.00    -0.096 F 
ATOM     11  F3  UNL d   1      -3.856   0.722   2.392  0.00  0.00    -0.097 F 
ATOM     12  F4  UNL d   1      -2.091  -0.063   0.467  0.00  0.00    -0.092 F 
ENDROOT
TORSDOF 0
ENDMDL
