MODEL 1
REMARK minimizedAffinity 25.2196426
REMARK minimizedRMSD -1
REMARK  0 active torsions:
REMARK  status: ('A' for Active; 'I' for Inactive)
ROOT
ATOM      1  C   UNL d   1      -2.359   0.606   2.355  0.00  0.00     0.124 A 
ATOM      2  C1  UNL d   1      -0.991   0.452   2.176  0.00  0.00     0.062 A 
ATOM      3  C2  UNL d   1      -0.112   0.743   3.215  0.00  0.00     0.162 A 
ATOM      4  C3  UNL d   1      -0.597   1.190   4.443  0.00  0.00    -0.034 A 
ATOM      5  C4  UNL d   1      -1.974   1.344   4.616  0.00  0.00     0.162 A 
ATOM      6  C5  UNL d   1      -2.849   1.051   3.575  0.00  0.00     0.062 A 
ATOM      7  F   UNL d   1      -4.170   1.201   3.750  0.00  0.00    -0.097 F 
ATOM      8  F1  UNL d   1      -2.475   1.772   5.784  0.00  0.00    -0.096 F 
ATOM      9  I   UNL d   1       0.714   1.627   5.999  0.00  0.00    -0.060 I 
ATOM     10  F2  UNL d   1       1.205   0.585   3.013  0.00  0.00    -0.096 F 
ATOM     11  F3  UNL d   1      -0.515   0.023   0.998  0.00  0.00    -0.097 F 
ATOM     12  F4  UNL d   1      -3.203   0.326   1.354  0.00  0.00    -0.092 F 
ENDROOT
TORSDOF 0
ENDMDL
