MODEL 1
REMARK minimizedAffinity 7.57635641
REMARK minimizedRMSD -1
REMARK  0 active torsions:
REMARK  status: ('A' for Active; 'I' for Inactive)
ROOT
ATOM      1  C4' PXY d   1       5.520   2.342   3.327  0.00  0.00     0.077 C 
ATOM      2  C1' PXY d   1       1.930   6.000   6.000  0.00  0.00     0.077 C 
ATOM      3  C1  PXY d   1       2.877   5.037   5.310  0.00  0.00    -0.082 A 
ATOM      4  C2  PXY d   1       3.188   5.225   4.038  0.00  0.00     0.003 A 
ATOM      5  C3  PXY d   1       4.018   4.346   3.390  0.00  0.00     0.003 A 
ATOM      6  C4  PXY d   1       4.576   3.294   4.066  0.00  0.00    -0.082 A 
ATOM      7  C5  PXY d   1       4.271   3.101   5.367  0.00  0.00     0.003 A 
ATOM      8  C6  PXY d   1       3.395   3.982   5.995  0.00  0.00     0.003 A 
ENDROOT
TORSDOF 0
ENDMDL
