MODEL 1
REMARK minimizedAffinity 9.48111057
REMARK minimizedRMSD -1
REMARK  0 active torsions:
REMARK  status: ('A' for Active; 'I' for Inactive)
ROOT
ATOM      1  C4' PXY d   1      -1.044  -1.882  -1.850  0.00  0.00     0.077 C 
ATOM      2  C1' PXY d   1       1.129   0.348   3.021  0.00  0.00     0.077 C 
ATOM      3  C1  PXY d   1       0.549  -0.242   1.750  0.00  0.00    -0.082 A 
ATOM      4  C2  PXY d   1       1.339  -0.464   0.712  0.00  0.00     0.003 A 
ATOM      5  C3  PXY d   1       0.826  -0.967  -0.455  0.00  0.00     0.003 A 
ATOM      6  C4  PXY d   1      -0.501  -1.296  -0.544  0.00  0.00    -0.082 A 
ATOM      7  C5  PXY d   1      -1.311  -1.083   0.514  0.00  0.00     0.003 A 
ATOM      8  C6  PXY d   1      -0.778  -0.533   1.677  0.00  0.00     0.003 A 
ENDROOT
TORSDOF 0
ENDMDL
