MODEL 1
REMARK minimizedAffinity 7.18840647
REMARK minimizedRMSD -1
REMARK  0 active torsions:
REMARK  status: ('A' for Active; 'I' for Inactive)
ROOT
ATOM      1  C4' PXY d   1      -3.142  -5.614   5.999  0.00  0.00     0.077 C 
ATOM      2  C1' PXY d   1       2.191  -4.058   4.402  0.00  0.00     0.077 C 
ATOM      3  C1  PXY d   1       0.793  -4.458   4.831  0.00  0.00    -0.082 A 
ATOM      4  C2  PXY d   1       0.309  -5.634   4.468  0.00  0.00     0.003 A 
ATOM      5  C3  PXY d   1      -0.965  -5.999   4.820  0.00  0.00     0.003 A 
ATOM      6  C4  PXY d   1      -1.732  -5.172   5.597  0.00  0.00    -0.082 A 
ATOM      7  C5  PXY d   1      -1.242  -3.974   5.980  0.00  0.00     0.003 A 
ATOM      8  C6  PXY d   1       0.039  -3.606   5.577  0.00  0.00     0.003 A 
ENDROOT
TORSDOF 0
ENDMDL
