MODEL 1
REMARK minimizedAffinity 9.16647339
REMARK minimizedRMSD -1
REMARK  0 active torsions:
REMARK  status: ('A' for Active; 'I' for Inactive)
ROOT
ATOM      1  C4' PXY d   1       2.042  -0.642  -0.118  0.00  0.00     0.077 C 
ATOM      2  C1' PXY d   1      -3.460  -0.365   1.631  0.00  0.00     0.077 C 
ATOM      3  C1  PXY d   1      -2.021  -0.446   1.163  0.00  0.00    -0.082 A 
ATOM      4  C2  PXY d   1      -1.041  -0.185   2.013  0.00  0.00     0.003 A 
ATOM      5  C3  PXY d   1       0.266  -0.222   1.598  0.00  0.00     0.003 A 
ATOM      6  C4  PXY d   1       0.574  -0.582   0.313  0.00  0.00    -0.082 A 
ATOM      7  C5  PXY d   1      -0.419  -0.860  -0.557  0.00  0.00     0.003 A 
ATOM      8  C6  PXY d   1      -1.740  -0.776  -0.127  0.00  0.00     0.003 A 
ENDROOT
TORSDOF 0
ENDMDL
