MODEL 1
REMARK minimizedAffinity 17.9582386
REMARK minimizedRMSD -1
REMARK  0 active torsions:
REMARK  status: ('A' for Active; 'I' for Inactive)
ROOT
ATOM      1  C4' PXY d   1       0.012   1.173   2.485  0.00  0.00     0.077 C 
ATOM      2  C1' PXY d   1       0.209  -2.128  -2.256  0.00  0.00     0.077 C 
ATOM      3  C1  PXY d   1       0.169  -1.268  -1.009  0.00  0.00    -0.082 A 
ATOM      4  C2  PXY d   1      -0.993  -0.821  -0.559  0.00  0.00     0.003 A 
ATOM      5  C3  PXY d   1      -1.044  -0.016   0.549  0.00  0.00     0.003 A 
ATOM      6  C4  PXY d   1       0.100   0.293   1.235  0.00  0.00    -0.082 A 
ATOM      7  C5  PXY d   1       1.288  -0.167   0.789  0.00  0.00     0.003 A 
ATOM      8  C6  PXY d   1       1.323  -0.950  -0.362  0.00  0.00     0.003 A 
ENDROOT
TORSDOF 0
ENDMDL
