MODEL 1
REMARK minimizedAffinity 10.9812441
REMARK minimizedRMSD -1
REMARK  0 active torsions:
REMARK  status: ('A' for Active; 'I' for Inactive)
ROOT
ATOM      1  C4' PXY d   1       1.794   0.583   1.790  0.00  0.00     0.077 C 
ATOM      2  C1' PXY d   1      -0.818  -2.851  -2.056  0.00  0.00     0.077 C 
ATOM      3  C1  PXY d   1      -0.135  -1.940  -1.055  0.00  0.00    -0.082 A 
ATOM      4  C2  PXY d   1       0.754  -2.442  -0.214  0.00  0.00     0.003 A 
ATOM      5  C3  PXY d   1       1.357  -1.639   0.719  0.00  0.00     0.003 A 
ATOM      6  C4  PXY d   1       1.087  -0.297   0.756  0.00  0.00    -0.082 A 
ATOM      7  C5  PXY d   1       0.189   0.225  -0.106  0.00  0.00     0.003 A 
ATOM      8  C6  PXY d   1      -0.443  -0.615  -1.018  0.00  0.00     0.003 A 
ENDROOT
TORSDOF 0
ENDMDL
