MODEL 1
REMARK minimizedAffinity 17.6301823
REMARK minimizedRMSD -1
REMARK  0 active torsions:
REMARK  status: ('A' for Active; 'I' for Inactive)
ROOT
ATOM      1  C4' PXY d   1      -1.036  -3.101  -0.471  0.00  0.00     0.077 C 
ATOM      2  C1' PXY d   1       4.290  -2.825  -2.701  0.00  0.00     0.077 C 
ATOM      3  C1  PXY d   1       2.889  -2.889  -2.125  0.00  0.00    -0.082 A 
ATOM      4  C2  PXY d   1       2.715  -3.270  -0.870  0.00  0.00     0.003 A 
ATOM      5  C3  PXY d   1       1.453  -3.364  -0.343  0.00  0.00     0.003 A 
ATOM      6  C4  PXY d   1       0.361  -3.013  -1.092  0.00  0.00    -0.082 A 
ATOM      7  C5  PXY d   1       0.532  -2.613  -2.370  0.00  0.00     0.003 A 
ATOM      8  C6  PXY d   1       1.818  -2.564  -2.899  0.00  0.00     0.003 A 
ENDROOT
TORSDOF 0
ENDMDL
