MODEL 1
REMARK minimizedAffinity -0.777079344
REMARK minimizedRMSD -1
REMARK  1 active torsions:
REMARK  status: ('A' for Active; 'I' for Inactive)
REMARK    1  A    between atoms: C1_2  and  C2_3 
ROOT
ATOM      1  C2  UNL d   1       0.440  -0.558  -0.812  0.00  0.00    -0.073 A 
ATOM      2  C3  UNL d   1       1.563  -1.335  -0.508  0.00  0.00    -0.002 A 
ATOM      3  C4  UNL d   1       2.225  -1.171   0.710  0.00  0.00     0.004 A 
ATOM      4  C5  UNL d   1       1.767  -0.235   1.637  0.00  0.00    -0.004 A 
ATOM      5  C6  UNL d   1       0.639   0.543   1.356  0.00  0.00    -0.075 A 
ATOM      6  C7  UNL d   1       0.136   1.556   2.342  0.00  0.00     0.076 C 
ATOM      7  C8  UNL d   1      -0.018   0.375   0.130  0.00  0.00     0.001 A 
ENDROOT
BRANCH   1   8
ATOM      8  C1  UNL d   1      -0.281  -0.736  -2.123  0.00  0.00     0.053 C 
ATOM      9  C   UNL d   1       0.680  -0.791  -3.300  0.00  0.00     0.018 C 
ENDBRANCH   1   8
TORSDOF 1
ENDMDL
