MODEL 1
REMARK minimizedAffinity -5.65891933
REMARK minimizedRMSD -1
REMARK  1 active torsions:
REMARK  status: ('A' for Active; 'I' for Inactive)
REMARK    1  A    between atoms: C1_2  and  C2_3 
ROOT
ATOM      1  C2  UNL d   1      -0.417   0.134   0.713  0.00  0.00    -0.073 A 
ATOM      2  C3  UNL d   1      -1.189   0.855   1.632  0.00  0.00    -0.002 A 
ATOM      3  C4  UNL d   1      -0.706   1.104   2.917  0.00  0.00     0.004 A 
ATOM      4  C5  UNL d   1       0.555   0.643   3.294  0.00  0.00    -0.004 A 
ATOM      5  C6  UNL d   1       1.347  -0.069   2.387  0.00  0.00    -0.075 A 
ATOM      6  C7  UNL d   1       2.705  -0.573   2.778  0.00  0.00     0.076 C 
ATOM      7  C8  UNL d   1       0.854  -0.317   1.099  0.00  0.00     0.001 A 
ENDROOT
BRANCH   1   8
ATOM      8  C1  UNL d   1      -0.932  -0.132  -0.678  0.00  0.00     0.053 C 
ATOM      9  C   UNL d   1       0.197  -0.266  -1.687  0.00  0.00     0.018 C 
ENDBRANCH   1   8
TORSDOF 1
ENDMDL
