MODEL 1
REMARK minimizedAffinity 4.56075191
REMARK minimizedRMSD -1
REMARK  1 active torsions:
REMARK  status: ('A' for Active; 'I' for Inactive)
REMARK    1  A    between atoms: C1_2  and  C2_3 
ROOT
ATOM      1  C2  UNL d   1      -3.133   0.716   1.129  0.00  0.00    -0.073 A 
ATOM      2  C3  UNL d   1      -3.236  -0.618   1.539  0.00  0.00    -0.002 A 
ATOM      3  C4  UNL d   1      -2.433  -1.101   2.572  0.00  0.00     0.004 A 
ATOM      4  C5  UNL d   1      -1.524  -0.256   3.210  0.00  0.00    -0.004 A 
ATOM      5  C6  UNL d   1      -1.415   1.083   2.822  0.00  0.00    -0.075 A 
ATOM      6  C7  UNL d   1      -0.442   2.005   3.496  0.00  0.00     0.076 C 
ATOM      7  C8  UNL d   1      -2.224   1.561   1.781  0.00  0.00     0.001 A 
ENDROOT
BRANCH   1   8
ATOM      8  C1  UNL d   1      -4.004   1.245   0.018  0.00  0.00     0.053 C 
ATOM      9  C   UNL d   1      -4.263   0.195  -1.051  0.00  0.00     0.018 C 
ENDBRANCH   1   8
TORSDOF 1
ENDMDL
