MODEL 1
REMARK minimizedAffinity -2.35732031
REMARK minimizedRMSD -1
REMARK  1 active torsions:
REMARK  status: ('A' for Active; 'I' for Inactive)
REMARK    1  A    between atoms: C1_2  and  C2_3 
ROOT
ATOM      1  C2  UNL d   1      -0.064   0.239   1.259  0.00  0.00    -0.073 A 
ATOM      2  C3  UNL d   1      -0.208   0.152  -0.130  0.00  0.00    -0.002 A 
ATOM      3  C4  UNL d   1       0.312   1.149  -0.957  0.00  0.00     0.004 A 
ATOM      4  C5  UNL d   1       0.987   2.237  -0.405  0.00  0.00    -0.004 A 
ATOM      5  C6  UNL d   1       1.152   2.336   0.981  0.00  0.00    -0.075 A 
ATOM      6  C7  UNL d   1       1.873   3.502   1.591  0.00  0.00     0.076 C 
ATOM      7  C8  UNL d   1       0.624   1.332   1.804  0.00  0.00     0.001 A 
ENDROOT
BRANCH   1   8
ATOM      8  C1  UNL d   1      -0.618  -0.838   2.155  0.00  0.00     0.053 C 
ATOM      9  C   UNL d   1      -1.168  -2.013   1.361  0.00  0.00     0.018 C 
ENDBRANCH   1   8
TORSDOF 1
ENDMDL
