MODEL 1
REMARK minimizedAffinity -2.3311348
REMARK minimizedRMSD -1
REMARK  1 active torsions:
REMARK  status: ('A' for Active; 'I' for Inactive)
REMARK    1  A    between atoms: C1_2  and  C2_3 
ROOT
ATOM      1  C2  UNL d   1      -0.046   0.683   0.786  0.00  0.00    -0.073 A 
ATOM      2  C3  UNL d   1      -0.362   0.538  -0.569  0.00  0.00    -0.002 A 
ATOM      3  C4  UNL d   1      -0.108   1.576  -1.467  0.00  0.00     0.004 A 
ATOM      4  C5  UNL d   1       0.469   2.765  -1.020  0.00  0.00    -0.004 A 
ATOM      5  C6  UNL d   1       0.802   2.924   0.329  0.00  0.00    -0.075 A 
ATOM      6  C7  UNL d   1       1.421   4.197   0.825  0.00  0.00     0.076 C 
ATOM      7  C8  UNL d   1       0.541   1.878   1.224  0.00  0.00     0.001 A 
ENDROOT
BRANCH   1   8
ATOM      8  C1  UNL d   1      -0.313  -0.438   1.758  0.00  0.00     0.053 C 
ATOM      9  C   UNL d   1      -0.970  -1.633   1.085  0.00  0.00     0.018 C 
ENDBRANCH   1   8
TORSDOF 1
ENDMDL
