MODEL 1
REMARK minimizedAffinity -2.77061224
REMARK minimizedRMSD -1
REMARK  1 active torsions:
REMARK  status: ('A' for Active; 'I' for Inactive)
REMARK    1  A    between atoms: C1_2  and  C2_3 
ROOT
ATOM      1  C2  UNL d   1       0.521   0.114   1.074  0.00  0.00    -0.073 A 
ATOM      2  C3  UNL d   1      -0.480   0.254   0.105  0.00  0.00    -0.002 A 
ATOM      3  C4  UNL d   1      -0.509   1.377  -0.721  0.00  0.00     0.004 A 
ATOM      4  C5  UNL d   1       0.464   2.369  -0.593  0.00  0.00    -0.004 A 
ATOM      5  C6  UNL d   1       1.479   2.242   0.361  0.00  0.00    -0.075 A 
ATOM      6  C7  UNL d   1       2.531   3.300   0.513  0.00  0.00     0.076 C 
ATOM      7  C8  UNL d   1       1.500   1.112   1.189  0.00  0.00     0.001 A 
ENDROOT
BRANCH   1   8
ATOM      8  C1  UNL d   1       0.560  -1.100   1.965  0.00  0.00     0.053 C 
ATOM      9  C   UNL d   1      -0.772  -1.832   1.990  0.00  0.00     0.018 C 
ENDBRANCH   1   8
TORSDOF 1
ENDMDL
