MODEL 1
REMARK minimizedAffinity -5.04182053
REMARK minimizedRMSD -1
REMARK  1 active torsions:
REMARK  status: ('A' for Active; 'I' for Inactive)
REMARK    1  A    between atoms: C1_2  and  C2_3 
ROOT
ATOM      1  C2  UNL d   1       0.128   0.143   0.713  0.00  0.00    -0.073 A 
ATOM      2  C3  UNL d   1      -0.876   0.623  -0.136  0.00  0.00    -0.002 A 
ATOM      3  C4  UNL d   1      -0.750   1.875  -0.739  0.00  0.00     0.004 A 
ATOM      4  C5  UNL d   1       0.382   2.656  -0.506  0.00  0.00    -0.004 A 
ATOM      5  C6  UNL d   1       1.402   2.188   0.329  0.00  0.00    -0.075 A 
ATOM      6  C7  UNL d   1       2.625   3.017   0.592  0.00  0.00     0.076 C 
ATOM      7  C8  UNL d   1       1.267   0.931   0.933  0.00  0.00     0.001 A 
ENDROOT
BRANCH   1   8
ATOM      8  C1  UNL d   1       0.000  -1.212   1.361  0.00  0.00     0.053 C 
ATOM      9  C   UNL d   1      -1.125  -2.032   0.750  0.00  0.00     0.018 C 
ENDBRANCH   1   8
TORSDOF 1
ENDMDL
