MODEL 1
REMARK minimizedAffinity -2.52767634
REMARK minimizedRMSD -1
REMARK  1 active torsions:
REMARK  status: ('A' for Active; 'I' for Inactive)
REMARK    1  A    between atoms: C1_2  and  C2_3 
ROOT
ATOM      1  C2  UNL d   1       0.269   1.642  -0.003  0.00  0.00    -0.073 A 
ATOM      2  C3  UNL d   1       0.380   1.015  -1.249  0.00  0.00    -0.002 A 
ATOM      3  C4  UNL d   1       0.072  -0.339  -1.386  0.00  0.00     0.004 A 
ATOM      4  C5  UNL d   1      -0.356  -1.077  -0.283  0.00  0.00    -0.004 A 
ATOM      5  C6  UNL d   1      -0.485  -0.466   0.968  0.00  0.00    -0.075 A 
ATOM      6  C7  UNL d   1      -0.942  -1.246   2.165  0.00  0.00     0.076 C 
ATOM      7  C8  UNL d   1      -0.171   0.894   1.099  0.00  0.00     0.001 A 
ENDROOT
BRANCH   1   8
ATOM      8  C1  UNL d   1       0.594   3.105   0.149  0.00  0.00     0.053 C 
ATOM      9  C   UNL d   1       2.091   3.348   0.263  0.00  0.00     0.018 C 
ENDBRANCH   1   8
TORSDOF 1
ENDMDL
