MODEL 1
REMARK minimizedAffinity -3.89748001
REMARK minimizedRMSD -1
REMARK  1 active torsions:
REMARK  status: ('A' for Active; 'I' for Inactive)
REMARK    1  A    between atoms: C1_2  and  C2_3 
ROOT
ATOM      1  C2  UNL d   1       0.439   1.014   0.694  0.00  0.00    -0.073 A 
ATOM      2  C3  UNL d   1       0.830   0.716   2.005  0.00  0.00    -0.002 A 
ATOM      3  C4  UNL d   1       0.595  -0.552   2.539  0.00  0.00     0.004 A 
ATOM      4  C5  UNL d   1      -0.024  -1.535   1.767  0.00  0.00    -0.004 A 
ATOM      5  C6  UNL d   1      -0.411  -1.260   0.452  0.00  0.00    -0.075 A 
ATOM      6  C7  UNL d   1      -1.081  -2.305  -0.391  0.00  0.00     0.076 C 
ATOM      7  C8  UNL d   1      -0.175   0.017  -0.076  0.00  0.00     0.001 A 
ENDROOT
BRANCH   1   8
ATOM      8  C1  UNL d   1       0.696   2.380   0.111  0.00  0.00     0.053 C 
ATOM      9  C   UNL d   1       1.702   3.171   0.933  0.00  0.00     0.018 C 
ENDBRANCH   1   8
TORSDOF 1
ENDMDL
