MODEL 1
REMARK minimizedAffinity -2.99299598
REMARK minimizedRMSD -1
REMARK  1 active torsions:
REMARK  status: ('A' for Active; 'I' for Inactive)
REMARK    1  A    between atoms: C1_2  and  C2_3 
ROOT
ATOM      1  C2  UNL d   1      -0.042   0.155  -0.309  0.00  0.00    -0.073 A 
ATOM      2  C3  UNL d   1      -0.483  -0.286   0.943  0.00  0.00    -0.002 A 
ATOM      3  C4  UNL d   1      -0.903  -1.605   1.118  0.00  0.00     0.004 A 
ATOM      4  C5  UNL d   1      -0.879  -2.497   0.046  0.00  0.00    -0.004 A 
ATOM      5  C6  UNL d   1      -0.430  -2.079  -1.210  0.00  0.00    -0.075 A 
ATOM      6  C7  UNL d   1      -0.400  -3.025  -2.374  0.00  0.00     0.076 C 
ATOM      7  C8  UNL d   1      -0.013  -0.751  -1.378  0.00  0.00     0.001 A 
ENDROOT
BRANCH   1   8
ATOM      8  C1  UNL d   1       0.419   1.577  -0.501  0.00  0.00     0.053 C 
ATOM      9  C   UNL d   1      -0.018   2.477   0.644  0.00  0.00     0.018 C 
ENDBRANCH   1   8
TORSDOF 1
ENDMDL
