MODEL 1
REMARK minimizedAffinity -4.11608648
REMARK minimizedRMSD -1
REMARK  1 active torsions:
REMARK  status: ('A' for Active; 'I' for Inactive)
REMARK    1  A    between atoms: C1_2  and  C2_3 
ROOT
ATOM      1  C2  UNL d   1       1.019   2.076   0.908  0.00  0.00    -0.073 A 
ATOM      2  C3  UNL d   1       0.522   2.347  -0.372  0.00  0.00    -0.002 A 
ATOM      3  C4  UNL d   1      -0.361   1.459  -0.987  0.00  0.00     0.004 A 
ATOM      4  C5  UNL d   1      -0.762   0.297  -0.328  0.00  0.00    -0.004 A 
ATOM      5  C6  UNL d   1      -0.285   0.015   0.956  0.00  0.00    -0.075 A 
ATOM      6  C7  UNL d   1      -0.704  -1.232   1.678  0.00  0.00     0.076 C 
ATOM      7  C8  UNL d   1       0.604   0.910   1.567  0.00  0.00     0.001 A 
ENDROOT
BRANCH   1   8
ATOM      8  C1  UNL d   1       1.968   3.035   1.580  0.00  0.00     0.053 C 
ATOM      9  C   UNL d   1       2.484   4.093   0.618  0.00  0.00     0.018 C 
ENDBRANCH   1   8
TORSDOF 1
ENDMDL
