MODEL 1
REMARK minimizedAffinity -3.40559483
REMARK minimizedRMSD -1
REMARK  1 active torsions:
REMARK  status: ('A' for Active; 'I' for Inactive)
REMARK    1  A    between atoms: C1_2  and  C2_3 
ROOT
ATOM      1  C2  UNL d   1      -0.547  -1.919  -0.512  0.00  0.00    -0.073 A 
ATOM      2  C3  UNL d   1      -1.518  -2.089   0.482  0.00  0.00    -0.002 A 
ATOM      3  C4  UNL d   1      -1.787  -1.061   1.387  0.00  0.00     0.004 A 
ATOM      4  C5  UNL d   1      -1.095   0.147   1.303  0.00  0.00    -0.004 A 
ATOM      5  C6  UNL d   1      -0.130   0.340   0.310  0.00  0.00    -0.075 A 
ATOM      6  C7  UNL d   1       0.625   1.633   0.207  0.00  0.00     0.076 C 
ATOM      7  C8  UNL d   1       0.137  -0.698  -0.594  0.00  0.00     0.001 A 
ENDROOT
BRANCH   1   8
ATOM      8  C1  UNL d   1      -0.258  -3.023  -1.496  0.00  0.00     0.053 C 
ATOM      9  C   UNL d   1      -0.081  -2.495  -2.910  0.00  0.00     0.018 C 
ENDBRANCH   1   8
TORSDOF 1
ENDMDL
