MODEL 1
REMARK minimizedAffinity -3.79990363
REMARK minimizedRMSD -1
REMARK  1 active torsions:
REMARK  status: ('A' for Active; 'I' for Inactive)
REMARK    1  A    between atoms: C1_2  and  C2_3 
ROOT
ATOM      1  C2  UNL d   1       0.788   1.566   0.232  0.00  0.00    -0.073 A 
ATOM      2  C3  UNL d   1      -0.392   1.999  -0.382  0.00  0.00    -0.002 A 
ATOM      3  C4  UNL d   1      -1.585   1.301  -0.188  0.00  0.00     0.004 A 
ATOM      4  C5  UNL d   1      -1.611   0.168   0.625  0.00  0.00    -0.004 A 
ATOM      5  C6  UNL d   1      -0.444  -0.274   1.257  0.00  0.00    -0.075 A 
ATOM      6  C7  UNL d   1      -0.455  -1.492   2.133  0.00  0.00     0.076 C 
ATOM      7  C8  UNL d   1       0.750   0.431   1.055  0.00  0.00     0.001 A 
ENDROOT
BRANCH   1   8
ATOM      8  C1  UNL d   1       2.077   2.320   0.031  0.00  0.00     0.053 C 
ATOM      9  C   UNL d   1       2.187   3.518   0.961  0.00  0.00     0.018 C 
ENDBRANCH   1   8
TORSDOF 1
ENDMDL
