MODEL 1
REMARK minimizedAffinity -4.24024868
REMARK minimizedRMSD -1
REMARK  1 active torsions:
REMARK  status: ('A' for Active; 'I' for Inactive)
REMARK    1  A    between atoms: C1_2  and  C2_3 
ROOT
ATOM      1  C2  UNL d   1      -0.225   0.151  -0.026  0.00  0.00    -0.073 A 
ATOM      2  C3  UNL d   1      -0.315  -0.032   1.359  0.00  0.00    -0.002 A 
ATOM      3  C4  UNL d   1      -0.605  -1.291   1.886  0.00  0.00     0.004 A 
ATOM      4  C5  UNL d   1      -0.801  -2.379   1.037  0.00  0.00    -0.004 A 
ATOM      5  C6  UNL d   1      -0.703  -2.219  -0.349  0.00  0.00    -0.075 A 
ATOM      6  C7  UNL d   1      -0.913  -3.380  -1.276  0.00  0.00     0.076 C 
ATOM      7  C8  UNL d   1      -0.414  -0.951  -0.871  0.00  0.00     0.001 A 
ENDROOT
BRANCH   1   8
ATOM      8  C1  UNL d   1       0.095   1.507  -0.600  0.00  0.00     0.053 C 
ATOM      9  C   UNL d   1       1.029   2.301   0.300  0.00  0.00     0.018 C 
ENDBRANCH   1   8
TORSDOF 1
ENDMDL
