MODEL 1
REMARK minimizedAffinity -0.591718733
REMARK minimizedRMSD -1
REMARK  1 active torsions:
REMARK  status: ('A' for Active; 'I' for Inactive)
REMARK    1  A    between atoms: C1_2  and  C2_3 
ROOT
ATOM      1  C2  UNL d   1      -0.762  -2.152  -0.895  0.00  0.00    -0.073 A 
ATOM      2  C3  UNL d   1      -1.312  -2.769   0.234  0.00  0.00    -0.002 A 
ATOM      3  C4  UNL d   1      -1.217  -2.159   1.486  0.00  0.00     0.004 A 
ATOM      4  C5  UNL d   1      -0.579  -0.926   1.620  0.00  0.00    -0.004 A 
ATOM      5  C6  UNL d   1      -0.034  -0.289   0.501  0.00  0.00    -0.075 A 
ATOM      6  C7  UNL d   1       0.658   1.037   0.628  0.00  0.00     0.076 C 
ATOM      7  C8  UNL d   1      -0.131  -0.908  -0.752  0.00  0.00     0.001 A 
ENDROOT
BRANCH   1   8
ATOM      8  C1  UNL d   1      -0.868  -2.803  -2.250  0.00  0.00     0.053 C 
ATOM      9  C   UNL d   1       0.059  -2.156  -3.268  0.00  0.00     0.018 C 
ENDBRANCH   1   8
TORSDOF 1
ENDMDL
