MODEL 1
REMARK minimizedAffinity -2.78302574
REMARK minimizedRMSD -1
REMARK  1 active torsions:
REMARK  status: ('A' for Active; 'I' for Inactive)
REMARK    1  A    between atoms: C1_2  and  C2_3 
ROOT
ATOM      1  C2  UNL d   1      -0.627   0.131  -0.105  0.00  0.00    -0.073 A 
ATOM      2  C3  UNL d   1      -0.917  -0.480   1.120  0.00  0.00    -0.002 A 
ATOM      3  C4  UNL d   1      -1.078  -1.864   1.197  0.00  0.00     0.004 A 
ATOM      4  C5  UNL d   1      -0.945  -2.651   0.052  0.00  0.00    -0.004 A 
ATOM      5  C6  UNL d   1      -0.644  -2.060  -1.179  0.00  0.00    -0.075 A 
ATOM      6  C7  UNL d   1      -0.500  -2.891  -2.419  0.00  0.00     0.076 C 
ATOM      7  C8  UNL d   1      -0.486  -0.669  -1.248  0.00  0.00     0.001 A 
ENDROOT
BRANCH   1   8
ATOM      8  C1  UNL d   1      -0.446   1.625  -0.191  0.00  0.00     0.053 C 
ATOM      9  C   UNL d   1      -0.891   2.176  -1.536  0.00  0.00     0.018 C 
ENDBRANCH   1   8
TORSDOF 1
ENDMDL
