MODEL 1
REMARK minimizedAffinity -0.22955887
REMARK minimizedRMSD -1
REMARK  0 active torsions:
REMARK  status: ('A' for Active; 'I' for Inactive)
ROOT
ATOM      1  N1  IND d   1       0.815   1.070  -1.039  0.00  0.00    -0.196 N 
ATOM      2  C2  IND d   1       0.399   0.535   0.148  0.00  0.00     0.054 A 
ATOM      3  C3  IND d   1      -0.935   0.695   0.295  0.00  0.00    -0.031 A 
ATOM      4  C4  IND d   1      -2.649   1.713  -1.333  0.00  0.00     0.051 A 
ATOM      5  C5  IND d   1      -2.742   2.368  -2.529  0.00  0.00    -0.031 A 
ATOM      6  C6  IND d   1      -1.632   2.626  -3.307  0.00  0.00     0.015 A 
ATOM      7  C7  IND d   1      -0.383   2.227  -2.921  0.00  0.00    -0.016 A 
ATOM      8  C8  IND d   1      -0.285   1.569  -1.704  0.00  0.00    -0.047 A 
ATOM      9  C9  IND d   1      -1.402   1.342  -0.890  0.00  0.00    -0.096 A 
ATOM     10  HN1 IND d   1       1.626   1.092  -1.323  0.00  0.00     0.298 HD
ENDROOT
TORSDOF 0
ENDMDL
