MODEL 1
REMARK minimizedAffinity -5.36162615
REMARK minimizedRMSD -1
REMARK  0 active torsions:
REMARK  status: ('A' for Active; 'I' for Inactive)
ROOT
ATOM      1  N1  IND d   1      -1.016  -0.419   2.559  0.00  0.00    -0.196 N 
ATOM      2  C2  IND d   1      -0.529  -1.459   3.300  0.00  0.00     0.054 A 
ATOM      3  C3  IND d   1       0.607  -1.940   2.746  0.00  0.00    -0.031 A 
ATOM      4  C4  IND d   1       1.900  -1.107   0.682  0.00  0.00     0.051 A 
ATOM      5  C5  IND d   1       1.827  -0.207  -0.344  0.00  0.00    -0.031 A 
ATOM      6  C6  IND d   1       0.784   0.689  -0.455  0.00  0.00     0.015 A 
ATOM      7  C7  IND d   1      -0.225   0.725   0.466  0.00  0.00    -0.016 A 
ATOM      8  C8  IND d   1      -0.158  -0.192   1.505  0.00  0.00    -0.047 A 
ATOM      9  C9  IND d   1       0.876  -1.132   1.599  0.00  0.00    -0.096 A 
ATOM     10  HN1 IND d   1      -1.736   0.020   2.724  0.00  0.00     0.298 HD
ENDROOT
TORSDOF 0
ENDMDL
