MODEL 1
REMARK minimizedAffinity -2.69377971
REMARK minimizedRMSD -1
REMARK  0 active torsions:
REMARK  status: ('A' for Active; 'I' for Inactive)
ROOT
ATOM      1  N1  IND d   1      -1.459   0.492   1.890  0.00  0.00    -0.196 N 
ATOM      2  C2  IND d   1      -1.427   1.206   0.724  0.00  0.00     0.054 A 
ATOM      3  C3  IND d   1      -0.342   0.864  -0.007  0.00  0.00    -0.031 A 
ATOM      4  C4  IND d   1       1.457  -0.915   0.470  0.00  0.00     0.051 A 
ATOM      5  C5  IND d   1       1.872  -1.797   1.428  0.00  0.00    -0.031 A 
ATOM      6  C6  IND d   1       1.182  -1.967   2.611  0.00  0.00     0.015 A 
ATOM      7  C7  IND d   1       0.041  -1.266   2.877  0.00  0.00    -0.016 A 
ATOM      8  C8  IND d   1      -0.380  -0.364   1.910  0.00  0.00    -0.047 A 
ATOM      9  C9  IND d   1       0.339  -0.156   0.726  0.00  0.00    -0.096 A 
ATOM     10  HN1 IND d   1      -2.054   0.566   2.506  0.00  0.00     0.298 HD
ENDROOT
TORSDOF 0
ENDMDL
