MODEL 1
REMARK minimizedAffinity -4.0014801
REMARK minimizedRMSD -1
REMARK  0 active torsions:
REMARK  status: ('A' for Active; 'I' for Inactive)
ROOT
ATOM      1  N1  IND d   1      -1.128   0.582   0.807  0.00  0.00    -0.196 N 
ATOM      2  C2  IND d   1      -0.501   0.972  -0.343  0.00  0.00     0.054 A 
ATOM      3  C3  IND d   1       0.684   0.335  -0.471  0.00  0.00    -0.031 A 
ATOM      4  C4  IND d   1       1.747  -1.462   1.035  0.00  0.00     0.051 A 
ATOM      5  C5  IND d   1       1.567  -2.118   2.221  0.00  0.00    -0.031 A 
ATOM      6  C6  IND d   1       0.455  -1.905   3.010  0.00  0.00     0.015 A 
ATOM      7  C7  IND d   1      -0.527  -1.033   2.636  0.00  0.00    -0.016 A 
ATOM      8  C8  IND d   1      -0.344  -0.360   1.437  0.00  0.00    -0.047 A 
ATOM      9  C9  IND d   1       0.802  -0.540   0.652  0.00  0.00    -0.096 A 
ATOM     10  HN1 IND d   1      -1.885   0.876   1.090  0.00  0.00     0.298 HD
ENDROOT
TORSDOF 0
ENDMDL
