MODEL 1
REMARK minimizedAffinity -1.48218322
REMARK minimizedRMSD -1
REMARK  0 active torsions:
REMARK  status: ('A' for Active; 'I' for Inactive)
ROOT
ATOM      1  N1  IND d   1      -0.872   1.020   0.824  0.00  0.00    -0.196 N 
ATOM      2  C2  IND d   1      -0.863   1.898  -0.223  0.00  0.00     0.054 A 
ATOM      3  C3  IND d   1       0.196   1.660  -1.029  0.00  0.00    -0.031 A 
ATOM      4  C4  IND d   1       1.984  -0.186  -0.875  0.00  0.00     0.051 A 
ATOM      5  C5  IND d   1       2.414  -1.205  -0.072  0.00  0.00    -0.031 A 
ATOM      6  C6  IND d   1       1.756  -1.543   1.093  0.00  0.00     0.015 A 
ATOM      7  C7  IND d   1       0.632  -0.879   1.494  0.00  0.00    -0.016 A 
ATOM      8  C8  IND d   1       0.196   0.161   0.685  0.00  0.00    -0.047 A 
ATOM      9  C9  IND d   1       0.884   0.536  -0.476  0.00  0.00    -0.096 A 
ATOM     10  HN1 IND d   1      -1.448   1.006   1.462  0.00  0.00     0.298 HD
ENDROOT
TORSDOF 0
ENDMDL
