MODEL 1
REMARK minimizedAffinity -2.34565139
REMARK minimizedRMSD -1
REMARK  0 active torsions:
REMARK  status: ('A' for Active; 'I' for Inactive)
ROOT
ATOM      1  N1  IND d   1      -0.568   0.415   0.483  0.00  0.00    -0.196 N 
ATOM      2  C2  IND d   1       0.222   0.635  -0.611  0.00  0.00     0.054 A 
ATOM      3  C3  IND d   1       1.253  -0.240  -0.629  0.00  0.00    -0.031 A 
ATOM      4  C4  IND d   1       1.781  -2.180   0.978  0.00  0.00     0.051 A 
ATOM      5  C5  IND d   1       1.367  -2.752   2.148  0.00  0.00    -0.031 A 
ATOM      6  C6  IND d   1       0.263  -2.291   2.835  0.00  0.00     0.015 A 
ATOM      7  C7  IND d   1      -0.478  -1.242   2.370  0.00  0.00    -0.016 A 
ATOM      8  C8  IND d   1      -0.057  -0.653   1.186  0.00  0.00    -0.047 A 
ATOM      9  C9  IND d   1       1.088  -1.090   0.506  0.00  0.00    -0.096 A 
ATOM     10  HN1 IND d   1      -1.267   0.869   0.696  0.00  0.00     0.298 HD
ENDROOT
TORSDOF 0
ENDMDL
