MODEL 1
REMARK minimizedAffinity -5.4040637
REMARK minimizedRMSD -1
REMARK  0 active torsions:
REMARK  status: ('A' for Active; 'I' for Inactive)
ROOT
ATOM      1  N1  IND d   1      -1.022   0.483   0.357  0.00  0.00    -0.196 N 
ATOM      2  C2  IND d   1      -0.213   0.976  -0.628  0.00  0.00     0.054 A 
ATOM      3  C3  IND d   1       0.957   0.299  -0.658  0.00  0.00    -0.031 A 
ATOM      4  C4  IND d   1       1.716  -1.718   0.750  0.00  0.00     0.051 A 
ATOM      5  C5  IND d   1       1.334  -2.502   1.802  0.00  0.00    -0.031 A 
ATOM      6  C6  IND d   1       0.122  -2.329   2.438  0.00  0.00     0.015 A 
ATOM      7  C7  IND d   1      -0.763  -1.369   2.036  0.00  0.00    -0.016 A 
ATOM      8  C8  IND d   1      -0.376  -0.567   0.972  0.00  0.00    -0.047 A 
ATOM      9  C9  IND d   1       0.872  -0.710   0.350  0.00  0.00    -0.096 A 
ATOM     10  HN1 IND d   1      -1.804   0.779   0.559  0.00  0.00     0.298 HD
ENDROOT
TORSDOF 0
ENDMDL
